@<TRIPOS>MOLECULE
NONAME
30 31 1 0 0 
SMALL
USER_CHARGES


@<TRIPOS>ATOM
  1 O       -0.1880    -0.1120    -0.3760 O.2   1 <1>  -0.5700 
  2 C       -0.0590    -1.3100    -0.3370 C.2   1 <1>   0.5690 
  3 N        1.1550    -1.9300    -0.2040 N.am  1 <1>  -0.5470 
  4 C       -1.3160    -2.1780    -0.4430 C.3   1 <1>  -0.0190 
  5 C        2.4610    -1.4130    -0.0610 C.ar  1 <1>   0.1170 
  6 C       -2.3920    -1.8200     0.5880 C.3   1 <1>  -0.1600 
  7 C       -1.1340    -3.6880    -0.2400 C.3   1 <1>  -0.1600 
  8 C        3.4560    -2.1850     0.5540 C.ar  1 <1>   0.0730 
  9 C        2.7990    -0.1470    -0.5320 C.ar  1 <1>  -0.1500 
 10 C       -3.2960    -3.0530     0.6970 C.3   1 <1>  -0.1600 
 11 C       -2.5470    -4.2060     0.0200 C.3   1 <1>  -0.1600 
 12 C        3.1570    -3.4980     1.0410 C.1   1 <1>   0.4840 
 13 C        4.7420    -1.6720     0.6890 C.ar  1 <1>  -0.1500 
 14 C        4.0800     0.3530    -0.3930 C.ar  1 <1>  -0.1500 
 15 N        2.8600    -4.5420     1.3900 N.1   1 <1>  -0.5570 
 16 C        5.0560    -0.4100     0.2210 C.ar  1 <1>  -0.1500 
 17 H        1.0770    -2.9440    -0.1180 H     1 <1>   0.3700 
 18 H       -1.7320    -2.0200    -1.4220 H     1 <1>   0.0800 
 19 H       -2.9400    -0.9410     0.2940 H     1 <1>   0.0800 
 20 H       -1.9260    -1.6340     1.5410 H     1 <1>   0.0800 
 21 H       -0.5370    -3.8790     0.6360 H     1 <1>   0.0800 
 22 H       -0.6860    -4.1650    -1.0950 H     1 <1>   0.0800 
 23 H        2.0590     0.4630    -1.0190 H     1 <1>   0.1500 
 24 H       -4.2340    -2.8790     0.1960 H     1 <1>   0.0800 
 25 H       -3.4930    -3.2780     1.7310 H     1 <1>   0.0800 
 26 H       -2.5380    -5.0910     0.6330 H     1 <1>   0.0800 
 27 H       -3.0230    -4.4370    -0.9180 H     1 <1>   0.0800 
 28 H        5.5070    -2.2630     1.1640 H     1 <1>   0.1500 
 29 H        4.3150     1.3360    -0.7620 H     1 <1>   0.1500 
 30 H        6.0540    -0.0200     0.3310 H     1 <1>   0.1500 
@<TRIPOS>BOND
  1   1   2  2   
  2   2   3  am  
  3   2   4  1   
  4   3   5  1   
  5   3  17  1   
  6   4   6  1   
  7   4   7  1   
  8   4  18  1   
  9   5   8  ar  
 10   5   9  ar  
 11   6  10  1   
 12   6  19  1   
 13   6  20  1   
 14   7  11  1   
 15   7  21  1   
 16   7  22  1   
 17   8  12  1   
 18   8  13  ar  
 19   9  14  ar  
 20   9  23  1   
 21  10  11  1   
 22  10  24  1   
 23  10  25  1   
 24  11  26  1   
 25  11  27  1   
 26  12  15  3   
 27  13  16  ar  
 28  13  28  1   
 29  14  16  ar  
 30  14  29  1   
 31  16  30  1   
@<TRIPOS>SUBSTRUCTURE
  1 ****   3 GROUP 4 **** **** 0

# MOE 2024.06 (io_trps.svl 2023.06)
