@<TRIPOS>MOLECULE
NONAME
37 39 1 0 0 
SMALL
USER_CHARGES


@<TRIPOS>ATOM
  1 F        1.0420     0.0980     0.2610 F     1 <1>  -0.1900 
  2 C        2.0450     0.8900    -0.0030 C.ar  1 <1>   0.1900 
  3 C        2.8550     1.3120     1.0320 C.ar  1 <1>  -0.1500 
  4 C        2.2650     1.2790    -1.3090 C.ar  1 <1>  -0.1500 
  5 C        3.9170     2.1510     0.7420 C.ar  1 <1>  -0.1500 
  6 C        3.3320     2.1190    -1.5800 C.ar  1 <1>  -0.1500 
  7 C        4.1840     2.5750    -0.5660 C.ar  1 <1>   0.0540 
  8 C        5.3060     3.4550    -0.8530 C.2   1 <1>   0.4620 
  9 N        5.5370     3.9620    -2.0700 N.2   1 <1>  -0.2270 
 10 N        6.1840     3.8370     0.0170 N.2   1 <1>  -0.7070 
 11 N        6.5820     4.6790    -1.9790 N.2   1 <1>  -0.4180 
 12 N        6.9740     4.5900    -0.7220 N.pl3 1 <1>   0.5800 
 13 C        8.1290     5.3020    -0.1750 C.3   1 <1>   0.1570 
 14 C        9.3990     4.6930    -0.7160 C.2   1 <1>   0.5690 
 15 O       10.0280     5.3750    -1.4920 O.2   1 <1>  -0.5700 
 16 N        9.8420     3.4490    -0.3270 N.am  1 <1>  -0.6600 
 17 C        9.1940     2.5720     0.6940 C.3   1 <1>   0.1400 
 18 C       11.0400     2.8310    -0.9680 C.3   1 <1>   0.1400 
 19 C       10.2100     2.1920     1.7760 C.3   1 <1>  -0.1600 
 20 C       12.0720     2.4630     0.1010 C.3   1 <1>  -0.1600 
 21 C       11.4680     1.5500     1.1770 C.3   1 <1>  -0.1600 
 22 H        2.6550     0.9900     2.0380 H     1 <1>   0.1500 
 23 H        1.6140     0.9320    -2.0910 H     1 <1>   0.1500 
 24 H        4.5530     2.4870     1.5430 H     1 <1>   0.1500 
 25 H        3.5060     2.4240    -2.5980 H     1 <1>   0.1500 
 26 H        8.1120     5.2480     0.8940 H     1 <1>   0.0800 
 27 H        8.0660     6.3300    -0.4760 H     1 <1>   0.0800 
 28 H        8.8270     1.6830     0.2090 H     1 <1>   0.0800 
 29 H        8.3610     3.0600     1.1640 H     1 <1>   0.0800 
 30 H       11.4870     3.5050    -1.6790 H     1 <1>   0.0800 
 31 H       10.7340     1.9470    -1.5010 H     1 <1>   0.0800 
 32 H        9.7520     1.5070     2.4680 H     1 <1>   0.0800 
 33 H       10.4830     3.0770     2.3250 H     1 <1>   0.0800 
 34 H       12.4410     3.3670     0.5530 H     1 <1>   0.0800 
 35 H       12.9050     1.9680    -0.3660 H     1 <1>   0.0800 
 36 H       11.2100     0.6020     0.7360 H     1 <1>   0.0800 
 37 H       12.1930     1.3710     1.9520 H     1 <1>   0.0800 
@<TRIPOS>BOND
  1   1   2  1   
  2   2   3  ar  
  3   2   4  ar  
  4   3   5  ar  
  5   3  22  1   
  6   4   6  ar  
  7   4  23  1   
  8   5   7  ar  
  9   5  24  1   
 10   6   7  ar  
 11   6  25  1   
 12   7   8  1   
 13   8   9  1   
 14   8  10  2   
 15   9  11  2   
 16  10  12  1   
 17  11  12  1   
 18  12  13  1   
 19  13  14  1   
 20  13  26  1   
 21  13  27  1   
 22  14  15  2   
 23  14  16  am  
 24  16  17  1   
 25  16  18  1   
 26  17  19  1   
 27  17  28  1   
 28  17  29  1   
 29  18  20  1   
 30  18  30  1   
 31  18  31  1   
 32  19  21  1   
 33  19  32  1   
 34  19  33  1   
 35  20  21  1   
 36  20  34  1   
 37  20  35  1   
 38  21  36  1   
 39  21  37  1   
@<TRIPOS>SUBSTRUCTURE
  1 ****  10 GROUP 4 **** **** 0

# MOE 2024.06 (io_trps.svl 2023.06)
