@<TRIPOS>MOLECULE
NONAME
40 41 1 0 0 
SMALL
USER_CHARGES


@<TRIPOS>ATOM
  1 CL       1.4170    -2.0730     0.6370 Cl    1 <1>  -0.1770 
  2 C        2.6810    -0.8820     0.4550 C.ar  1 <1>   0.1770 
  3 C        2.6230     0.0120    -0.5960 C.ar  1 <1>  -0.1500 
  4 C        3.7190    -0.8530     1.3660 C.ar  1 <1>  -0.1500 
  5 C        3.6230     0.9610    -0.7470 C.ar  1 <1>  -0.1440 
  6 C        4.7210     0.0910     1.2210 C.ar  1 <1>  -0.1500 
  7 C        4.6790     1.0010     0.1640 C.ar  1 <1>   0.0830 
  8 C        3.5510     1.9450    -1.9070 C.3   1 <1>  -0.0960 
  9 O        5.6350     1.9480    -0.0300 O.3   1 <1>  -0.3630 
 10 C        6.7860     2.0270     0.7850 C.3   1 <1>   0.1200 
 11 C        7.6560     3.1920     0.2920 C.3   1 <1>   0.2000 
 12 O        7.8050     3.1000    -1.0930 O.3   1 <1>  -0.6800 
 13 C        9.0560     3.2390     0.9510 C.3   1 <1>   0.3430 
 14 N       10.0840     2.5410     0.1150 N.4   1 <1>  -0.9590 
 15 C       10.1390     1.0470     0.2610 C.3   1 <1>   0.3430 
 16 C       11.4470     3.1630     0.1690 C.3   1 <1>   0.3430 
 17 C       11.3250     0.4290    -0.5160 C.3   1 <1>   0.1200 
 18 C       12.4220     2.4900    -0.8270 C.3   1 <1>   0.1200 
 19 O       11.8640     1.3490    -1.4220 O.3   1 <1>  -0.5600 
 20 H        1.7980    -0.0420    -1.2830 H     1 <1>   0.1500 
 21 H        3.7340    -1.5620     2.1750 H     1 <1>   0.1500 
 22 H        5.5140     0.0960     1.9430 H     1 <1>   0.1500 
 23 H        2.6480     1.8100    -2.4740 H     1 <1>   0.0800 
 24 H        4.3900     1.8010    -2.5620 H     1 <1>   0.0800 
 25 H        3.5680     2.9540    -1.5340 H     1 <1>   0.0800 
 26 H        7.3100     1.0920     0.7140 H     1 <1>   0.0800 
 27 H        6.4720     2.1960     1.8000 H     1 <1>   0.0800 
 28 H        7.1370     4.1110     0.5080 H     1 <1>   0.0800 
 29 H        6.9180     2.9370    -1.4920 H     1 <1>   0.4000 
 30 H        9.0220     2.8280     1.9460 H     1 <1>   0.0800 
 31 H        9.3290     4.2780     1.0410 H     1 <1>   0.0800 
 32 H        9.7480     2.6880    -0.8610 H     1 <1>   0.4500 
 33 H        9.2250     0.6180    -0.1160 H     1 <1>   0.0800 
 34 H       10.2260     0.7750     1.2990 H     1 <1>   0.0800 
 35 H       11.8490     3.0700     1.1640 H     1 <1>   0.0800 
 36 H       11.3840     4.2140    -0.0600 H     1 <1>   0.0800 
 37 H       10.9950    -0.4310    -1.0730 H     1 <1>   0.0800 
 38 H       12.1030     0.1160     0.1590 H     1 <1>   0.0800 
 39 H       13.3340     2.2070    -0.3300 H     1 <1>   0.0800 
 40 H       12.6710     3.1760    -1.6170 H     1 <1>   0.0800 
@<TRIPOS>BOND
  1   1   2  1   
  2   2   3  ar  
  3   2   4  ar  
  4   3   5  ar  
  5   3  20  1   
  6   4   6  ar  
  7   4  21  1   
  8   5   7  ar  
  9   5   8  1   
 10   6   7  ar  
 11   6  22  1   
 12   7   9  1   
 13   8  23  1   
 14   8  24  1   
 15   8  25  1   
 16   9  10  1   
 17  10  11  1   
 18  10  26  1   
 19  10  27  1   
 20  11  12  1   
 21  11  13  1   
 22  11  28  1   
 23  12  29  1   
 24  13  14  1   
 25  13  30  1   
 26  13  31  1   
 27  14  15  1   
 28  14  16  1   
 29  14  32  1   
 30  15  17  1   
 31  15  33  1   
 32  15  34  1   
 33  16  18  1   
 34  16  35  1   
 35  16  36  1   
 36  17  19  1   
 37  17  37  1   
 38  17  38  1   
 39  18  19  1   
 40  18  39  1   
 41  18  40  1   
@<TRIPOS>SUBSTRUCTURE
  1 ****  10 GROUP 4 **** **** 0

# MOE 2024.06 (io_trps.svl 2023.06)
