@<TRIPOS>MOLECULE
NONAME
30 31 1 0 0 
SMALL
USER_CHARGES


@<TRIPOS>ATOM
  1 S        0.1180     0.0590    -0.9430 S.3   1 <1>  -0.4600 
  2 C       -1.5140     0.8620    -1.0290 C.3   1 <1>   0.1500 
  3 C        0.8960     0.8860     0.4600 C.3   1 <1>   0.1500 
  4 C       -1.4510     2.3560    -0.6110 C.3   1 <1>  -0.0800 
  5 C       -2.4810     0.0130    -0.1910 C.3   1 <1>  -0.1600 
  6 C        1.0460     2.3810     0.1380 C.3   1 <1>  -0.1600 
  7 C        2.2300     0.1890     0.7190 C.3   1 <1>  -0.2400 
  8 C       -0.0370     2.9430    -0.7980 C.3   1 <1>   0.2000 
  9 C       -2.0620     2.6010     0.7900 C.3   1 <1>  -0.1600 
 10 C       -3.7720     0.7890     0.0960 C.3   1 <1>  -0.1600 
 11 O       -0.0840     4.3120    -0.6170 O.3   1 <1>  -0.6800 
 12 C       -3.5080     2.0810     0.8910 C.3   1 <1>  -0.1600 
 13 H       -1.7980     0.8050    -2.0650 H     1 <1>   0.0800 
 14 H        0.2360     0.7370     1.2960 H     1 <1>   0.0800 
 15 H       -2.0850     2.8750    -1.3100 H     1 <1>   0.0800 
 16 H       -2.0200    -0.2570     0.7440 H     1 <1>   0.0800 
 17 H       -2.7070    -0.8940    -0.7220 H     1 <1>   0.0800 
 18 H        1.9970     2.5470    -0.3370 H     1 <1>   0.0800 
 19 H        1.0480     2.9160     1.0700 H     1 <1>   0.0800 
 20 H        2.8650     0.2600    -0.1460 H     1 <1>   0.0800 
 21 H        2.0620    -0.8500     0.9410 H     1 <1>   0.0800 
 22 H        2.7280     0.6430     1.5560 H     1 <1>   0.0800 
 23 H        0.2670     2.7770    -1.8190 H     1 <1>   0.0800 
 24 H       -2.0600     3.6510     1.0240 H     1 <1>   0.0800 
 25 H       -1.4690     2.1060     1.5370 H     1 <1>   0.0800 
 26 H       -4.4620     0.1660     0.6380 H     1 <1>   0.0800 
 27 H       -4.2350     1.0420    -0.8430 H     1 <1>   0.0800 
 28 H       -0.3950     4.5150     0.2840 H     1 <1>   0.4000 
 29 H       -4.1850     2.8410     0.5380 H     1 <1>   0.0800 
 30 H       -3.7360     1.9120     1.9300 H     1 <1>   0.0800 
@<TRIPOS>BOND
  1   1   2  1   
  2   1   3  1   
  3   2   4  1   
  4   2   5  1   
  5   2  13  1   
  6   3   6  1   
  7   3   7  1   
  8   3  14  1   
  9   4   8  1   
 10   4   9  1   
 11   4  15  1   
 12   5  10  1   
 13   5  16  1   
 14   5  17  1   
 15   6   8  1   
 16   6  18  1   
 17   6  19  1   
 18   7  20  1   
 19   7  21  1   
 20   7  22  1   
 21   8  11  1   
 22   8  23  1   
 23   9  12  1   
 24   9  24  1   
 25   9  25  1   
 26  10  12  1   
 27  10  26  1   
 28  10  27  1   
 29  11  28  1   
 30  12  29  1   
 31  12  30  1   
@<TRIPOS>SUBSTRUCTURE
  1 ****   4 GROUP 4 **** **** 0

# MOE 2024.06 (io_trps.svl 2023.06)
