@<TRIPOS>MOLECULE
NONAME
28 29 1 0 0 
SMALL
USER_CHARGES


@<TRIPOS>ATOM
  1 O       -0.9310    -0.0980    -0.6820 O.2   1 <1>  -0.5700 
  2 C       -2.0090    -0.4340    -0.2520 C.2   1 <1>   0.7800 
  3 O       -2.9670     0.4330     0.0340 O.3   1 <1>  -0.4300 
  4 N       -2.3870    -1.6920     0.0020 N.am  1 <1>  -0.7300 
  5 C       -4.1230    -0.2340     0.5200 C.3   1 <1>   0.2000 
  6 C       -3.7320    -1.7230     0.5720 C.3   1 <1>   0.1400 
  7 C       -5.2840     0.0550    -0.4340 C.3   1 <1>   0.1200 
  8 O       -6.3750    -0.7220    -0.0510 O.3   1 <1>  -0.5600 
  9 C       -7.5010    -0.5710    -0.8580 C.3   1 <1>   0.2630 
 10 C       -8.5530    -1.5710    -0.4090 C.ar  1 <1>  -0.1440 
 11 C       -9.0020    -2.5600    -1.2720 C.ar  1 <1>  -0.1500 
 12 C       -9.0770    -1.5010     0.8730 C.ar  1 <1>  -0.1500 
 13 C       -9.9650    -3.4650    -0.8590 C.ar  1 <1>  -0.1500 
 14 C      -10.0400    -2.4050     1.2880 C.ar  1 <1>  -0.1500 
 15 C      -10.4850    -3.3870     0.4210 C.ar  1 <1>  -0.1500 
 16 H       -1.7510    -2.4860    -0.0630 H     1 <1>   0.3700 
 17 H       -4.3430     0.1450     1.5020 H     1 <1>   0.0800 
 18 H       -3.7130    -2.0800     1.5870 H     1 <1>   0.0800 
 19 H       -4.3900    -2.3370    -0.0200 H     1 <1>   0.0800 
 20 H       -5.0100    -0.2110    -1.4410 H     1 <1>   0.0800 
 21 H       -5.5610     1.0940    -0.3800 H     1 <1>   0.0800 
 22 H       -7.2220    -0.7490    -1.8830 H     1 <1>   0.0800 
 23 H       -7.8710     0.4340    -0.7510 H     1 <1>   0.0800 
 24 H       -8.6040    -2.6330    -2.2680 H     1 <1>   0.1500 
 25 H       -8.7290    -0.7430     1.5520 H     1 <1>   0.1500 
 26 H      -10.3080    -4.2300    -1.5320 H     1 <1>   0.1500 
 27 H      -10.4410    -2.3440     2.2840 H     1 <1>   0.1500 
 28 H      -11.2330    -4.0900     0.7420 H     1 <1>   0.1500 
@<TRIPOS>BOND
  1   1   2  2   
  2   2   3  1   
  3   2   4  am  
  4   3   5  1   
  5   4   6  1   
  6   4  16  1   
  7   5   6  1   
  8   5   7  1   
  9   5  17  1   
 10   6  18  1   
 11   6  19  1   
 12   7   8  1   
 13   7  20  1   
 14   7  21  1   
 15   8   9  1   
 16   9  10  1   
 17   9  22  1   
 18   9  23  1   
 19  10  11  ar  
 20  10  12  ar  
 21  11  13  ar  
 22  11  24  1   
 23  12  14  ar  
 24  12  25  1   
 25  13  15  ar  
 26  13  26  1   
 27  14  15  ar  
 28  14  27  1   
 29  15  28  1   
@<TRIPOS>SUBSTRUCTURE
  1 ****   8 GROUP 4 **** **** 0

# MOE 2024.06 (io_trps.svl 2023.06)
