@<TRIPOS>MOLECULE
NONAME
50 51 1 0 0 
SMALL
USER_CHARGES


@<TRIPOS>ATOM
  1 S        0.0490     0.0940     0.4350 S.o2  1 <1>   1.4470 
  2 O       -0.0770    -0.4270     1.7800 O.2   1 <1>  -0.6500 
  3 O        0.1470    -0.8230    -0.6790 O.2   1 <1>  -0.6500 
  4 N       -1.3300     1.0390     0.1570 N.am  1 <1>  -0.8490 
  5 C        1.3950     1.3080     0.3480 C.ar  1 <1>  -0.0090 
  6 C       -2.5100     0.1910    -0.0900 C.3   1 <1>   0.1960 
  7 C       -1.6230     1.9500     1.2800 C.3   1 <1>   0.1960 
  8 C        2.0990     1.6910     1.4830 C.ar  1 <1>  -0.1500 
  9 C        1.7370     1.9070    -0.8590 C.ar  1 <1>  -0.1500 
 10 C       -3.7600     1.0340    -0.4070 C.3   1 <1>   0.1960 
 11 C       -2.8460     2.8380     0.9830 C.3   1 <1>   0.1960 
 12 C        3.1050     2.6400     1.4180 C.ar  1 <1>  -0.1500 
 13 C        2.7420     2.8550    -0.9310 C.ar  1 <1>  -0.1500 
 14 N       -4.0260     2.0290     0.6440 N.am  1 <1>  -0.8490 
 15 C        3.4330     3.2290     0.2090 C.ar  1 <1>  -0.1430 
 16 S       -5.4700     2.8970     0.4670 S.o2  1 <1>   1.3330 
 17 C        4.5420     4.2720     0.1390 C.3   1 <1>  -0.0160 
 18 O       -5.5740     3.7820     1.6050 O.2   1 <1>  -0.6500 
 19 O       -6.5100     1.9360     0.1810 O.2   1 <1>  -0.6500 
 20 C       -5.2230     3.9080    -1.0050 C.3   1 <1>  -0.0550 
 21 C        5.9470     3.6450     0.2090 C.3   1 <1>  -0.0800 
 22 C       -6.4250     4.7970    -1.3690 C.3   1 <1>  -0.2400 
 23 C        7.0180     4.7420     0.2450 C.3   1 <1>  -0.2400 
 24 C        6.2130     2.7030    -0.9740 C.3   1 <1>  -0.2400 
 25 H       -2.7080    -0.4250     0.7720 H     1 <1>   0.0800 
 26 H       -2.3190    -0.4620    -0.9250 H     1 <1>   0.0800 
 27 H       -0.7740     2.5860     1.4640 H     1 <1>   0.0800 
 28 H       -1.8160     1.3850     2.1780 H     1 <1>   0.0800 
 29 H        1.8600     1.2410     2.4330 H     1 <1>   0.1500 
 30 H        1.2080     1.6240    -1.7530 H     1 <1>   0.1500 
 31 H       -4.6070     0.3730    -0.4970 H     1 <1>   0.0800 
 32 H       -3.6140     1.5230    -1.3540 H     1 <1>   0.0800 
 33 H       -2.6030     3.5010     0.1710 H     1 <1>   0.0800 
 34 H       -3.0590     3.4340     1.8540 H     1 <1>   0.0800 
 35 H        3.6350     2.9160     2.3130 H     1 <1>   0.1500 
 36 H        2.9890     3.2970    -1.8810 H     1 <1>   0.1500 
 37 H        4.4170     4.9570     0.9590 H     1 <1>   0.0800 
 38 H        4.4480     4.8420    -0.7690 H     1 <1>   0.0800 
 39 H       -5.0160     3.2690    -1.8400 H     1 <1>   0.0800 
 40 H       -4.3710     4.5420    -0.8580 H     1 <1>   0.0800 
 41 H        6.0210     3.0730     1.1190 H     1 <1>   0.0800 
 42 H       -7.2950     4.1890    -1.5500 H     1 <1>   0.0800 
 43 H       -6.2140     5.3720    -2.2530 H     1 <1>   0.0800 
 44 H       -6.6450     5.4730    -0.5600 H     1 <1>   0.0800 
 45 H        6.9850     5.3360    -0.6520 H     1 <1>   0.0800 
 46 H        7.9980     4.3040     0.3290 H     1 <1>   0.0800 
 47 H        6.8670     5.3880     1.0910 H     1 <1>   0.0800 
 48 H        6.1170     3.2290    -1.9080 H     1 <1>   0.0800 
 49 H        5.5160     1.8840    -0.9680 H     1 <1>   0.0800 
 50 H        7.2050     2.2940    -0.9100 H     1 <1>   0.0800 
@<TRIPOS>BOND
  1   1   2  2   
  2   1   3  2   
  3   1   4  am  
  4   1   5  1   
  5   4   6  1   
  6   4   7  1   
  7   5   8  ar  
  8   5   9  ar  
  9   6  10  1   
 10   6  25  1   
 11   6  26  1   
 12   7  11  1   
 13   7  27  1   
 14   7  28  1   
 15   8  12  ar  
 16   8  29  1   
 17   9  13  ar  
 18   9  30  1   
 19  10  14  1   
 20  10  31  1   
 21  10  32  1   
 22  11  14  1   
 23  11  33  1   
 24  11  34  1   
 25  12  15  ar  
 26  12  35  1   
 27  13  15  ar  
 28  13  36  1   
 29  14  16  am  
 30  15  17  1   
 31  16  18  2   
 32  16  19  2   
 33  16  20  1   
 34  17  21  1   
 35  17  37  1   
 36  17  38  1   
 37  20  22  1   
 38  20  39  1   
 39  20  40  1   
 40  21  23  1   
 41  21  24  1   
 42  21  41  1   
 43  22  42  1   
 44  22  43  1   
 45  22  44  1   
 46  23  45  1   
 47  23  46  1   
 48  23  47  1   
 49  24  48  1   
 50  24  49  1   
 51  24  50  1   
@<TRIPOS>SUBSTRUCTURE
  1 ****   4 GROUP 4 **** **** 0

# MOE 2024.06 (io_trps.svl 2023.06)
