@<TRIPOS>MOLECULE
NONAME
41 41 1 0 0 
SMALL
USER_CHARGES


@<TRIPOS>ATOM
  1 O       -6.8310    -2.1550     0.2180 O.3   1 <1>  -0.3630 
  2 C       -8.1740    -2.0340     0.0670 C.ar  1 <1>   0.0830 
  3 C       -6.2350    -3.4010     0.5050 C.3   1 <1>   0.1200 
  4 C       -9.0630    -3.1040     0.1390 C.ar  1 <1>  -0.1500 
  5 C       -8.6600    -0.7590    -0.1720 C.ar  1 <1>  -0.1500 
  6 C       -4.7190    -3.1930     0.6190 C.3   1 <1>   0.2000 
  7 C      -10.4220    -2.8920    -0.0260 C.ar  1 <1>  -0.1440 
  8 C      -10.0160    -0.5400    -0.3410 C.ar  1 <1>  -0.1440 
  9 O       -4.2680    -2.5090    -0.5120 O.3   1 <1>  -0.6800 
 10 C       -3.9400    -4.5190     0.7350 C.3   1 <1>   0.3430 
 11 C      -10.8910    -1.6110    -0.2660 C.ar  1 <1>  -0.1500 
 12 C      -11.4020    -4.0500     0.0490 C.3   1 <1>  -0.0970 
 13 C      -10.5500     0.8570    -0.6030 C.3   1 <1>  -0.0970 
 14 N       -2.5350    -4.3150     0.2730 N.4   1 <1>  -0.9060 
 15 C       -1.8190    -5.5130    -0.1770 C.3   1 <1>   0.4230 
 16 C       -0.3510    -5.1350    -0.3220 C.3   1 <1>  -0.2400 
 17 C       -2.3930    -5.9700    -1.5150 C.3   1 <1>  -0.2400 
 18 H       -6.4690    -4.0810    -0.2960 H     1 <1>   0.0800 
 19 H       -6.6430    -3.7670     1.4320 H     1 <1>   0.0800 
 20 H       -8.7200    -4.1030     0.3200 H     1 <1>   0.1500 
 21 H       -7.9670     0.0610    -0.2240 H     1 <1>   0.1500 
 22 H       -4.5160    -2.5760     1.4780 H     1 <1>   0.0800 
 23 H       -4.9190    -1.7960    -0.7210 H     1 <1>   0.4000 
 24 H       -4.4250    -5.2470     0.1080 H     1 <1>   0.0800 
 25 H       -3.9640    -4.8830     1.7500 H     1 <1>   0.0800 
 26 H      -11.9460    -1.4440    -0.3970 H     1 <1>   0.1500 
 27 H      -10.9740    -4.8800     0.5810 H     1 <1>   0.0800 
 28 H      -11.6620    -4.3700    -0.9440 H     1 <1>   0.0800 
 29 H      -12.2970    -3.7460     0.5610 H     1 <1>   0.0800 
 30 H       -9.7520     1.5310    -0.8570 H     1 <1>   0.0800 
 31 H      -11.0490     1.2260     0.2750 H     1 <1>   0.0800 
 32 H      -11.2500     0.8360    -1.4190 H     1 <1>   0.0800 
 33 H       -1.9890    -3.8210     0.9850 H     1 <1>   0.4500 
 34 H       -2.6220    -3.6460    -0.5130 H     1 <1>   0.4500 
 35 H       -1.9130    -6.3010     0.5540 H     1 <1>   0.0800 
 36 H       -0.2200    -4.3480    -1.0450 H     1 <1>   0.0800 
 37 H        0.2100    -5.9900    -0.6570 H     1 <1>   0.0800 
 38 H        0.0590    -4.8280     0.6230 H     1 <1>   0.0800 
 39 H       -2.3390    -5.1860    -2.2500 H     1 <1>   0.0800 
 40 H       -3.4120    -6.2950    -1.4140 H     1 <1>   0.0800 
 41 H       -1.8250    -6.8070    -1.8820 H     1 <1>   0.0800 
@<TRIPOS>BOND
  1   1   2  1   
  2   1   3  1   
  3   2   4  ar  
  4   2   5  ar  
  5   3   6  1   
  6   3  18  1   
  7   3  19  1   
  8   4   7  ar  
  9   4  20  1   
 10   5   8  ar  
 11   5  21  1   
 12   6   9  1   
 13   6  10  1   
 14   6  22  1   
 15   7  11  ar  
 16   7  12  1   
 17   8  11  ar  
 18   8  13  1   
 19   9  23  1   
 20  10  14  1   
 21  10  24  1   
 22  10  25  1   
 23  11  26  1   
 24  12  27  1   
 25  12  28  1   
 26  12  29  1   
 27  13  30  1   
 28  13  31  1   
 29  13  32  1   
 30  14  15  1   
 31  14  33  1   
 32  14  34  1   
 33  15  16  1   
 34  15  17  1   
 35  15  35  1   
 36  16  36  1   
 37  16  37  1   
 38  16  38  1   
 39  17  39  1   
 40  17  40  1   
 41  17  41  1   
@<TRIPOS>SUBSTRUCTURE
  1 ****   3 GROUP 4 **** **** 0

# MOE 2024.06 (io_trps.svl 2023.06)
