@<TRIPOS>MOLECULE
NONAME
45 47 1 0 0 
SMALL
USER_CHARGES


@<TRIPOS>ATOM
  1 CL       1.3670    -2.3070     2.6530 Cl    1 <1>  -0.1770 
  2 C        2.7440    -2.3860     1.5880 C.ar  1 <1>   0.1770 
  3 C        3.8800    -3.0610     1.9930 C.ar  1 <1>  -0.1500 
  4 C        2.6820    -1.7750     0.3500 C.ar  1 <1>  -0.1500 
  5 C        4.9710    -3.1180     1.1430 C.ar  1 <1>  -0.1500 
  6 C        3.7800    -1.8390    -0.4910 C.ar  1 <1>  -0.1500 
  7 C        4.9480    -2.5040    -0.1110 C.ar  1 <1>   0.0860 
  8 C        6.1030    -2.5690    -0.9870 C.2   1 <1>   0.5440 
  9 O        6.5540    -3.6600    -1.2790 O.2   1 <1>  -0.5700 
 10 N        6.7080    -1.4340    -1.4900 N.am  1 <1>  -0.6600 
 11 C        6.5230    -0.0740    -0.9140 C.3   1 <1>   0.1400 
 12 C        7.7570    -1.5130    -2.5450 C.3   1 <1>   0.1400 
 13 C        7.8490     0.4110    -0.3210 C.3   1 <1>  -0.1600 
 14 C        9.0970    -1.0530    -1.9670 C.3   1 <1>  -0.1600 
 15 C        8.9900     0.3580    -1.3560 C.3   1 <1>  -0.0190 
 16 C       10.3140     0.8240    -0.7590 C.2   1 <1>   0.5690 
 17 O       10.8300     1.8280    -1.1860 O.2   1 <1>  -0.5700 
 18 N       10.8810     0.1030     0.2360 N.am  1 <1>  -0.7300 
 19 C       12.1970     0.3750     0.8520 C.3   1 <1>   0.2840 
 20 C       12.9660    -0.9330     1.0060 C.ar  1 <1>   0.1670 
 21 N       12.3990    -1.8760     1.7500 N.ar  1 <1>  -0.6200 
 22 C       14.1920    -1.0820     0.3710 C.ar  1 <1>  -0.1500 
 23 C       13.0820    -3.0040     1.8670 C.ar  1 <1>   0.1600 
 24 C       14.8910    -2.2630     0.5030 C.ar  1 <1>  -0.1500 
 25 C       14.3100    -3.2450     1.2750 C.ar  1 <1>  -0.1500 
 26 H        3.9050    -3.5350     2.9580 H     1 <1>   0.1500 
 27 H        1.7840    -1.2620     0.0530 H     1 <1>   0.1500 
 28 H        5.8590    -3.6480     1.4420 H     1 <1>   0.1500 
 29 H        3.7390    -1.3740    -1.4610 H     1 <1>   0.1500 
 30 H        5.7740    -0.0760    -0.1420 H     1 <1>   0.0800 
 31 H        6.2010     0.5970    -1.6930 H     1 <1>   0.0800 
 32 H        7.4740    -0.8810    -3.3690 H     1 <1>   0.0800 
 33 H        7.8490    -2.5190    -2.9190 H     1 <1>   0.0800 
 34 H        8.0920    -0.2040     0.5280 H     1 <1>   0.0800 
 35 H        7.7320     1.4210     0.0300 H     1 <1>   0.0800 
 36 H        9.8380    -1.0530    -2.7470 H     1 <1>   0.0800 
 37 H        9.4060    -1.7640    -1.2210 H     1 <1>   0.0800 
 38 H        8.7450     1.0420    -2.1510 H     1 <1>   0.0800 
 39 H       10.4790    -0.7870     0.5440 H     1 <1>   0.3700 
 40 H       12.0470     0.8100     1.8240 H     1 <1>   0.0800 
 41 H       12.7510     1.0720     0.2470 H     1 <1>   0.0800 
 42 H       14.5970    -0.2840    -0.2240 H     1 <1>   0.1500 
 43 H       12.6380    -3.7800     2.4670 H     1 <1>   0.1500 
 44 H       15.8440    -2.4110     0.0250 H     1 <1>   0.1500 
 45 H       14.8010    -4.1900     1.4190 H     1 <1>   0.1500 
@<TRIPOS>BOND
  1   1   2  1   
  2   2   3  ar  
  3   2   4  ar  
  4   3   5  ar  
  5   3  26  1   
  6   4   6  ar  
  7   4  27  1   
  8   5   7  ar  
  9   5  28  1   
 10   6   7  ar  
 11   6  29  1   
 12   7   8  1   
 13   8   9  2   
 14   8  10  am  
 15  10  11  1   
 16  10  12  1   
 17  11  13  1   
 18  11  30  1   
 19  11  31  1   
 20  12  14  1   
 21  12  32  1   
 22  12  33  1   
 23  13  15  1   
 24  13  34  1   
 25  13  35  1   
 26  14  15  1   
 27  14  36  1   
 28  14  37  1   
 29  15  16  1   
 30  15  38  1   
 31  16  17  2   
 32  16  18  am  
 33  18  19  1   
 34  18  39  1   
 35  19  20  1   
 36  19  40  1   
 37  19  41  1   
 38  20  21  ar  
 39  20  22  ar  
 40  21  23  ar  
 41  22  24  ar  
 42  22  42  1   
 43  23  25  ar  
 44  23  43  1   
 45  24  25  ar  
 46  24  44  1   
 47  25  45  1   
@<TRIPOS>SUBSTRUCTURE
  1 ****  13 GROUP 4 **** **** 0

# MOE 2024.06 (io_trps.svl 2023.06)
