@<TRIPOS>MOLECULE
NONAME
34 34 1 0 0 
SMALL
USER_CHARGES


@<TRIPOS>ATOM
  1 O       -0.0730     1.1930     1.5170 O.2   1 <1>  -0.5700 
  2 C        0.1050     2.0560     0.6900 C.2   1 <1>   0.5690 
  3 N        1.3550     2.4420     0.3400 N.am  1 <1>  -0.7300 
  4 C       -1.0930     2.7330     0.0190 C.3   1 <1>  -0.0190 
  5 C        2.5820     1.8700     0.9080 C.3   1 <1>   0.2840 
  6 C       -1.9780     3.4310     1.0810 C.3   1 <1>  -0.1600 
  7 C       -1.8540     1.6880    -0.8300 C.3   1 <1>  -0.1600 
  8 C        3.7650     2.5520     0.2460 C.ar  1 <1>  -0.1440 
  9 C       -2.5910     4.7560     0.6020 C.3   1 <1>  -0.2400 
 10 C       -3.0070     2.2510    -1.6700 C.3   1 <1>  -0.2400 
 11 C        4.2910     3.7170     0.7840 C.ar  1 <1>  -0.1500 
 12 C        4.3240     2.0220    -0.9060 C.ar  1 <1>  -0.1500 
 13 C        5.3660     4.3430     0.1780 C.ar  1 <1>  -0.1500 
 14 C        5.4000     2.6470    -1.5130 C.ar  1 <1>  -0.1500 
 15 C        5.9220     3.8080    -0.9710 C.ar  1 <1>  -0.1500 
 16 H        1.5140     3.1690    -0.3580 H     1 <1>   0.3700 
 17 H       -0.7020     3.4830    -0.6440 H     1 <1>   0.0800 
 18 H        2.6040     0.8090     0.7260 H     1 <1>   0.0800 
 19 H        2.5960     2.0330     1.9730 H     1 <1>   0.0800 
 20 H       -1.3750     3.6530     1.9460 H     1 <1>   0.0800 
 21 H       -2.7530     2.7600     1.4080 H     1 <1>   0.0800 
 22 H       -2.2350     0.9150    -0.1840 H     1 <1>   0.0800 
 23 H       -1.1500     1.2210    -1.4980 H     1 <1>   0.0800 
 24 H       -1.8150     5.4520     0.3350 H     1 <1>   0.0800 
 25 H       -3.1760     5.1910     1.3930 H     1 <1>   0.0800 
 26 H       -3.2310     4.6140    -0.2480 H     1 <1>   0.0800 
 27 H       -3.8180     2.5640    -1.0370 H     1 <1>   0.0800 
 28 H       -3.3790     1.4900    -2.3320 H     1 <1>   0.0800 
 29 H       -2.6740     3.0850    -2.2620 H     1 <1>   0.0800 
 30 H        3.8640     4.1420     1.6760 H     1 <1>   0.1500 
 31 H        3.9230     1.1200    -1.3360 H     1 <1>   0.1500 
 32 H        5.7710     5.2470     0.6000 H     1 <1>   0.1500 
 33 H        5.8310     2.2300    -2.4070 H     1 <1>   0.1500 
 34 H        6.7580     4.2940    -1.4420 H     1 <1>   0.1500 
@<TRIPOS>BOND
  1   1   2  2   
  2   2   3  am  
  3   2   4  1   
  4   3   5  1   
  5   3  16  1   
  6   4   6  1   
  7   4   7  1   
  8   4  17  1   
  9   5   8  1   
 10   5  18  1   
 11   5  19  1   
 12   6   9  1   
 13   6  20  1   
 14   6  21  1   
 15   7  10  1   
 16   7  22  1   
 17   7  23  1   
 18   8  11  ar  
 19   8  12  ar  
 20   9  24  1   
 21   9  25  1   
 22   9  26  1   
 23  10  27  1   
 24  10  28  1   
 25  10  29  1   
 26  11  13  ar  
 27  11  30  1   
 28  12  14  ar  
 29  12  31  1   
 30  13  15  ar  
 31  13  32  1   
 32  14  15  ar  
 33  14  33  1   
 34  15  34  1   
@<TRIPOS>SUBSTRUCTURE
  1 ****   3 GROUP 4 **** **** 0

# MOE 2024.06 (io_trps.svl 2023.06)
