@<TRIPOS>MOLECULE
NONAME
56 58 1 0 0 
SMALL
USER_CHARGES


@<TRIPOS>ATOM
  1 N       -0.2830     0.1570     0.2060 N.4   1 <1>  -0.9590 
  2 C        0.8000     1.1770     0.1790 C.3   1 <1>   0.3430 
  3 C        0.0570    -1.1000    -0.5220 C.3   1 <1>   0.3430 
  4 C       -1.5720     0.7300    -0.2960 C.3   1 <1>   0.4860 
  5 C        2.0890     0.5870     0.7590 C.3   1 <1>  -0.1600 
  6 C        1.3360    -1.7070     0.0580 C.3   1 <1>  -0.1600 
  7 C       -2.6740    -0.2630     0.0090 C.ar  1 <1>  -0.1440 
  8 C        2.4880    -0.7020     0.0310 C.3   1 <1>   0.4230 
  9 C       -3.1310    -0.4240     1.3100 C.ar  1 <1>  -0.1500 
 10 C       -3.2290    -1.0260    -1.0090 C.ar  1 <1>  -0.1500 
 11 N        3.6740    -1.3240     0.6720 N.4   1 <1>  -0.9060 
 12 C       -4.1170    -1.3530     1.5910 C.ar  1 <1>  -0.1500 
 13 C       -4.2150    -1.9540    -0.7250 C.ar  1 <1>  -0.1500 
 14 C        4.9500    -0.5810     0.5480 C.3   1 <1>   0.4230 
 15 C       -4.6570    -2.1200     0.5740 C.ar  1 <1>  -0.1500 
 16 C        5.4250    -0.5790    -0.9110 C.3   1 <1>  -0.1600 
 17 C        5.9810    -1.2590     1.4530 C.3   1 <1>  -0.1600 
 18 C        6.7970     0.0990    -1.0390 C.3   1 <1>  -0.1600 
 19 C        7.3560    -0.5850     1.3320 C.3   1 <1>  -0.1600 
 20 C        7.8490    -0.5560    -0.1270 C.3   1 <1>  -0.0800 
 21 C        9.1890     0.1910    -0.2690 C.3   1 <1>  -0.1600 
 22 C       10.3490    -0.4900     0.4690 C.3   1 <1>  -0.2400 
 23 H       -0.4950    -0.0990     1.1820 H     1 <1>   0.4500 
 24 H        0.5080     2.0420     0.7570 H     1 <1>   0.0800 
 25 H        0.9720     1.4990    -0.8370 H     1 <1>   0.0800 
 26 H        0.1930    -0.8900    -1.5720 H     1 <1>   0.0800 
 27 H       -0.7500    -1.8120    -0.4280 H     1 <1>   0.0800 
 28 H       -1.5210     0.9120    -1.3570 H     1 <1>   0.0800 
 29 H       -1.7900     1.6620     0.2020 H     1 <1>   0.0800 
 30 H        1.9440     0.4020     1.8090 H     1 <1>   0.0800 
 31 H        2.8630     1.3260     0.6520 H     1 <1>   0.0800 
 32 H        1.5920    -2.5710    -0.5310 H     1 <1>   0.0800 
 33 H        1.1350    -2.0340     1.0640 H     1 <1>   0.0800 
 34 H        2.7160    -0.4710    -0.9980 H     1 <1>   0.0800 
 35 H       -2.7410     0.1680     2.1200 H     1 <1>   0.1500 
 36 H       -2.9110    -0.9110    -2.0320 H     1 <1>   0.1500 
 37 H        3.8410    -2.2540     0.2690 H     1 <1>   0.4500 
 38 H        3.5010    -1.4790     1.6710 H     1 <1>   0.4500 
 39 H       -4.4740    -1.4800     2.6000 H     1 <1>   0.1500 
 40 H       -4.6470    -2.5470    -1.5150 H     1 <1>   0.1500 
 41 H        4.8260     0.4370     0.8800 H     1 <1>   0.0800 
 42 H       -5.4260    -2.8420     0.7940 H     1 <1>   0.1500 
 43 H        4.7340    -0.0450    -1.5370 H     1 <1>   0.0800 
 44 H        5.5120    -1.5890    -1.2740 H     1 <1>   0.0800 
 45 H        6.0890    -2.2960     1.1830 H     1 <1>   0.0800 
 46 H        5.6660    -1.2020     2.4810 H     1 <1>   0.0800 
 47 H        6.7090     1.1440    -0.7890 H     1 <1>   0.0800 
 48 H        7.1270     0.0390    -2.0630 H     1 <1>   0.0800 
 49 H        8.0570    -1.1270     1.9430 H     1 <1>   0.0800 
 50 H        7.3040     0.4210     1.7130 H     1 <1>   0.0800 
 51 H        7.9990    -1.5710    -0.4600 H     1 <1>   0.0800 
 52 H        9.0880     1.2020     0.0890 H     1 <1>   0.0800 
 53 H        9.4490     0.2440    -1.3130 H     1 <1>   0.0800 
 54 H       10.2090    -0.4520     1.5340 H     1 <1>   0.0800 
 55 H       11.2710     0.0150     0.2390 H     1 <1>   0.0800 
 56 H       10.4420    -1.5170     0.1640 H     1 <1>   0.0800 
@<TRIPOS>BOND
  1   1   2  1   
  2   1   3  1   
  3   1   4  1   
  4   1  23  1   
  5   2   5  1   
  6   2  24  1   
  7   2  25  1   
  8   3   6  1   
  9   3  26  1   
 10   3  27  1   
 11   4   7  1   
 12   4  28  1   
 13   4  29  1   
 14   5   8  1   
 15   5  30  1   
 16   5  31  1   
 17   6   8  1   
 18   6  32  1   
 19   6  33  1   
 20   7   9  ar  
 21   7  10  ar  
 22   8  11  1   
 23   8  34  1   
 24   9  12  ar  
 25   9  35  1   
 26  10  13  ar  
 27  10  36  1   
 28  11  14  1   
 29  11  37  1   
 30  11  38  1   
 31  12  15  ar  
 32  12  39  1   
 33  13  15  ar  
 34  13  40  1   
 35  14  16  1   
 36  14  17  1   
 37  14  41  1   
 38  15  42  1   
 39  16  18  1   
 40  16  43  1   
 41  16  44  1   
 42  17  19  1   
 43  17  45  1   
 44  17  46  1   
 45  18  20  1   
 46  18  47  1   
 47  18  48  1   
 48  19  20  1   
 49  19  49  1   
 50  19  50  1   
 51  20  21  1   
 52  20  51  1   
 53  21  22  1   
 54  21  52  1   
 55  21  53  1   
 56  22  54  1   
 57  22  55  1   
 58  22  56  1   
@<TRIPOS>SUBSTRUCTURE
  1 ****   8 GROUP 4 **** **** 0

# MOE 2024.06 (io_trps.svl 2023.06)
