@<TRIPOS>MOLECULE
NONAME
44 45 1 0 0 
SMALL
USER_CHARGES


@<TRIPOS>ATOM
  1 O       -0.6200    -0.5510    -1.0440 O.3   1 <1>  -0.3630 
  2 C       -1.7640    -0.8780    -0.3970 C.ar  1 <1>   0.0820 
  3 C        0.5750    -0.6970    -0.3070 C.3   1 <1>   0.0400 
  4 C       -2.2790    -0.1240     0.6630 C.ar  1 <1>   0.0820 
  5 C       -2.4270    -2.0150    -0.8220 C.ar  1 <1>  -0.1500 
  6 O       -1.7190     1.0290     1.1110 O.3   1 <1>  -0.3630 
  7 C       -3.4230    -0.5530     1.3120 C.ar  1 <1>  -0.1500 
  8 C       -3.5890    -2.4330    -0.1790 C.ar  1 <1>   0.0820 
  9 C       -1.5600     2.0810     0.1810 C.3   1 <1>   0.0400 
 10 C       -4.0820    -1.7010     0.8970 C.ar  1 <1>  -0.1440 
 11 O       -4.2870    -3.5410    -0.5590 O.3   1 <1>  -0.3630 
 12 C       -5.3410    -2.1460     1.6150 C.3   1 <1>   0.4860 
 13 C       -3.7320    -4.4590    -1.4820 C.3   1 <1>   0.0400 
 14 N       -6.4590    -2.1520     0.6370 N.4   1 <1>  -0.9590 
 15 C       -6.7540    -0.7830     0.1190 C.3   1 <1>   0.3430 
 16 C       -7.6560    -2.8640     1.1600 C.3   1 <1>   0.3430 
 17 C       -7.7970    -0.8670    -0.9920 C.3   1 <1>  -0.1600 
 18 C       -8.7100    -2.9730     0.0620 C.3   1 <1>  -0.1600 
 19 C       -9.0440    -1.5890    -0.4880 C.3   1 <1>   0.2000 
 20 O       -9.9220    -1.7310    -1.5330 O.3   1 <1>  -0.6800 
 21 H        1.3990    -0.4410    -0.9480 H     1 <1>   0.0800 
 22 H        0.6620    -1.7200     0.0150 H     1 <1>   0.0800 
 23 H        0.5530    -0.0390     0.5430 H     1 <1>   0.0800 
 24 H       -2.0100    -2.5510    -1.6530 H     1 <1>   0.1500 
 25 H       -3.7810     0.0320     2.1410 H     1 <1>   0.1500 
 26 H       -1.3350     2.9790     0.7270 H     1 <1>   0.0800 
 27 H       -2.4750     2.2050    -0.3700 H     1 <1>   0.0800 
 28 H       -0.7500     1.8520    -0.4860 H     1 <1>   0.0800 
 29 H       -5.5600    -1.4830     2.4360 H     1 <1>   0.0800 
 30 H       -5.1850    -3.1400     2.0030 H     1 <1>   0.0800 
 31 H       -3.6290    -3.9790    -2.4400 H     1 <1>   0.0800 
 32 H       -4.3980    -5.3000    -1.5680 H     1 <1>   0.0800 
 33 H       -2.7750    -4.7910    -1.1170 H     1 <1>   0.0800 
 34 H       -6.0690    -2.6980    -0.1520 H     1 <1>   0.4500 
 35 H       -5.8550    -0.3300    -0.2700 H     1 <1>   0.0800 
 36 H       -7.1270    -0.1620     0.9180 H     1 <1>   0.0800 
 37 H       -8.0660    -2.3230     1.9980 H     1 <1>   0.0800 
 38 H       -7.3830    -3.8530     1.4940 H     1 <1>   0.0800 
 39 H       -7.3730    -1.3820    -1.8360 H     1 <1>   0.0800 
 40 H       -8.0610     0.1300    -1.2990 H     1 <1>   0.0800 
 41 H       -9.6000    -3.4160     0.4730 H     1 <1>   0.0800 
 42 H       -8.3420    -3.6130    -0.7200 H     1 <1>   0.0800 
 43 H       -9.5380    -0.9970     0.2660 H     1 <1>   0.0800 
 44 H       -9.5370    -2.2490    -2.2660 H     1 <1>   0.4000 
@<TRIPOS>BOND
  1   1   2  1   
  2   1   3  1   
  3   2   4  ar  
  4   2   5  ar  
  5   3  21  1   
  6   3  22  1   
  7   3  23  1   
  8   4   6  1   
  9   4   7  ar  
 10   5   8  ar  
 11   5  24  1   
 12   6   9  1   
 13   7  10  ar  
 14   7  25  1   
 15   8  10  ar  
 16   8  11  1   
 17   9  26  1   
 18   9  27  1   
 19   9  28  1   
 20  10  12  1   
 21  11  13  1   
 22  12  14  1   
 23  12  29  1   
 24  12  30  1   
 25  13  31  1   
 26  13  32  1   
 27  13  33  1   
 28  14  15  1   
 29  14  16  1   
 30  14  34  1   
 31  15  17  1   
 32  15  35  1   
 33  15  36  1   
 34  16  18  1   
 35  16  37  1   
 36  16  38  1   
 37  17  19  1   
 38  17  39  1   
 39  17  40  1   
 40  18  19  1   
 41  18  41  1   
 42  18  42  1   
 43  19  20  1   
 44  19  43  1   
 45  20  44  1   
@<TRIPOS>SUBSTRUCTURE
  1 ****  10 GROUP 4 **** **** 0

# MOE 2024.06 (io_trps.svl 2023.06)
