@<TRIPOS>MOLECULE
NONAME
43 44 1 0 0 
SMALL
USER_CHARGES


@<TRIPOS>ATOM
  1 F       -0.7040     1.6910     2.1210 F     1 <1>  -0.1900 
  2 C       -1.8530     2.0010     1.5830 C.ar  1 <1>   0.1900 
  3 C       -2.8420     2.5370     2.3840 C.ar  1 <1>  -0.1500 
  4 C       -2.0370     1.7850     0.2320 C.ar  1 <1>  -0.1500 
  5 C       -4.0580     2.8640     1.8080 C.ar  1 <1>  -0.1500 
  6 C       -3.2580     2.1160    -0.3320 C.ar  1 <1>  -0.1500 
  7 C       -4.2750     2.6530     0.4490 C.ar  1 <1>  -0.1430 
  8 C       -5.6120     3.0150    -0.2000 C.3   1 <1>   0.0640 
  9 C       -5.8090     4.5480    -0.2130 C.3   1 <1>   0.0420 
 10 C       -6.7830     2.2150     0.4400 C.3   1 <1>  -0.0190 
 11 C       -7.1610     4.9360    -0.7830 C.2   1 <1>   0.4480 
 12 C       -4.7300     5.2310    -1.0440 C.2   1 <1>   0.6590 
 13 C       -6.8470     0.8290    -0.1810 C.2   1 <1>   0.6590 
 14 C       -8.1480     2.9470     0.3760 C.3   1 <1>   0.2800 
 15 O       -7.4090     6.0550    -1.1160 O.2   1 <1>  -0.5700 
 16 C       -8.2360     3.8660    -0.8480 C.3   1 <1>  -0.0990 
 17 O       -4.3890     4.7610    -2.0980 O.2   1 <1>  -0.5700 
 18 O       -4.1340     6.3350    -0.5960 O.3   1 <1>  -0.4300 
 19 O       -6.7140    -0.1670     0.4800 O.2   1 <1>  -0.5700 
 20 O       -7.0770     0.7750    -1.4900 O.3   1 <1>  -0.4300 
 21 O       -8.2090     3.7630     1.4880 O.3   1 <1>  -0.6800 
 22 C       -9.3740     2.0320     0.4870 C.3   1 <1>  -0.2400 
 23 C       -4.6560     7.2290     0.3650 C.3   1 <1>   0.0400 
 24 C       -7.1470    -0.4570    -2.1790 C.3   1 <1>   0.0400 
 25 H       -2.6600     2.6910     3.4320 H     1 <1>   0.1500 
 26 H       -1.2430     1.3700    -0.3620 H     1 <1>   0.1500 
 27 H       -4.8300     3.2820     2.4310 H     1 <1>   0.1500 
 28 H       -3.4040     1.9580    -1.3880 H     1 <1>   0.1500 
 29 H       -5.5600     2.7230    -1.2350 H     1 <1>   0.0800 
 30 H       -5.7710     4.8950     0.7990 H     1 <1>   0.0800 
 31 H       -6.5720     2.0450     1.4800 H     1 <1>   0.0800 
 32 H       -8.1100     3.2960    -1.7500 H     1 <1>   0.0800 
 33 H       -9.2010     4.3370    -0.8950 H     1 <1>   0.0800 
 34 H       -9.1110     4.1260     1.5890 H     1 <1>   0.4000 
 35 H       -9.4710     1.4140    -0.3870 H     1 <1>   0.0800 
 36 H      -10.2780     2.6080     0.5750 H     1 <1>   0.0800 
 37 H       -9.2850     1.3880     1.3450 H     1 <1>   0.0800 
 38 H       -4.0400     8.1100     0.3670 H     1 <1>   0.0800 
 39 H       -4.6270     6.7670     1.3350 H     1 <1>   0.0800 
 40 H       -5.6630     7.4960     0.0920 H     1 <1>   0.0800 
 41 H       -7.3330    -0.2580    -3.2190 H     1 <1>   0.0800 
 42 H       -7.9480    -1.0440    -1.7630 H     1 <1>   0.0800 
 43 H       -6.2100    -0.9740    -2.0620 H     1 <1>   0.0800 
@<TRIPOS>BOND
  1   1   2  1   
  2   2   3  ar  
  3   2   4  ar  
  4   3   5  ar  
  5   3  25  1   
  6   4   6  ar  
  7   4  26  1   
  8   5   7  ar  
  9   5  27  1   
 10   6   7  ar  
 11   6  28  1   
 12   7   8  1   
 13   8   9  1   
 14   8  10  1   
 15   8  29  1   
 16   9  11  1   
 17   9  12  1   
 18   9  30  1   
 19  10  13  1   
 20  10  14  1   
 21  10  31  1   
 22  11  15  2   
 23  11  16  1   
 24  12  17  2   
 25  12  18  1   
 26  13  19  2   
 27  13  20  1   
 28  14  16  1   
 29  14  21  1   
 30  14  22  1   
 31  16  32  1   
 32  16  33  1   
 33  18  23  1   
 34  20  24  1   
 35  21  34  1   
 36  22  35  1   
 37  22  36  1   
 38  22  37  1   
 39  23  38  1   
 40  23  39  1   
 41  23  40  1   
 42  24  41  1   
 43  24  42  1   
 44  24  43  1   
@<TRIPOS>SUBSTRUCTURE
  1 ****   8 GROUP 4 **** **** 0

# MOE 2024.06 (io_trps.svl 2023.06)
