@<TRIPOS>MOLECULE
NONAME
51 54 1 0 0 
SMALL
USER_CHARGES


@<TRIPOS>ATOM
  1 O        4.8420    -3.9090    -2.0280 O.2   1 <1>  -0.5700 
  2 C        4.5160    -3.2160    -1.0990 C.2   1 <1>   0.5690 
  3 N        4.9350    -1.9320    -1.0570 N.am  1 <1>  -0.7300 
  4 C        3.6220    -3.8230    -0.0170 C.3   1 <1>  -0.0190 
  5 C        4.6760    -0.8720    -0.0550 C.3   1 <1>   0.3200 
  6 C        4.1100    -5.2180     0.4200 C.3   1 <1>  -0.1600 
  7 C        2.1700    -3.9160    -0.5190 C.3   1 <1>  -0.1600 
  8 C        3.2020    -0.4990    -0.0190 C.2   1 <1>  -0.0400 
  9 C        3.1650    -5.8510     1.4380 C.3   1 <1>   0.3430 
 10 C        1.2590    -4.5560     0.5220 C.3   1 <1>   0.3430 
 11 O        2.4500    -0.9150     0.9850 O.3   1 <1>  -0.2800 
 12 C        2.4720     0.2460    -0.8770 C.2   1 <1>  -0.1500 
 13 N        1.7890    -5.9060     0.8740 N.4   1 <1>  -0.9590 
 14 C        1.2360    -0.4350     0.7980 C.2   1 <1>  -0.0100 
 15 C        1.1790     0.2870    -0.3410 C.2   1 <1>  -0.1500 
 16 C        0.8550    -6.6580     1.7570 C.3   1 <1>   0.4860 
 17 C       -0.4230    -6.9180     0.9870 C.ar  1 <1>  -0.1440 
 18 C       -0.4270    -7.8390    -0.0920 C.ar  1 <1>   0.0000 
 19 C       -1.5610    -6.2360     1.3360 C.ar  1 <1>  -0.1500 
 20 C       -1.6190    -7.9850    -0.8400 C.ar  1 <1>   0.0000 
 21 C        0.6870    -8.6270    -0.4720 C.ar  1 <1>  -0.1500 
 22 C       -2.7430    -6.4130     0.6130 C.ar  1 <1>  -0.1500 
 23 C       -2.7650    -7.2630    -0.4540 C.ar  1 <1>  -0.1500 
 24 C       -1.6350    -8.8510    -1.9500 C.ar  1 <1>  -0.1500 
 25 C        0.6400    -9.4650    -1.5520 C.ar  1 <1>  -0.1500 
 26 C       -0.5320    -9.5740    -2.3050 C.ar  1 <1>  -0.1500 
 27 H        5.4870    -1.6380    -1.8660 H     1 <1>   0.3700 
 28 H        3.6480    -3.1910     0.8500 H     1 <1>   0.0800 
 29 H        5.2490     0.0000    -0.3180 H     1 <1>   0.0800 
 30 H        4.9960    -1.1980     0.9190 H     1 <1>   0.0800 
 31 H        5.0920    -5.1310     0.8530 H     1 <1>   0.0800 
 32 H        4.1950    -5.8670    -0.4350 H     1 <1>   0.0800 
 33 H        2.1310    -4.4870    -1.4310 H     1 <1>   0.0800 
 34 H        1.8040    -2.9310    -0.7480 H     1 <1>   0.0800 
 35 H        3.1660    -5.2640     2.3430 H     1 <1>   0.0800 
 36 H        3.5110    -6.8450     1.6750 H     1 <1>   0.0800 
 37 H        0.2630    -4.6410     0.1150 H     1 <1>   0.0800 
 38 H        1.2180    -3.9330     1.4000 H     1 <1>   0.0800 
 39 H        2.7820     0.7280    -1.7880 H     1 <1>   0.1500 
 40 H        1.8220    -6.4290    -0.0140 H     1 <1>   0.4500 
 41 H        0.4700    -0.6470     1.5230 H     1 <1>   0.1500 
 42 H        0.3400     0.8050    -0.7720 H     1 <1>   0.1500 
 43 H        0.6430    -6.0860     2.6460 H     1 <1>   0.0800 
 44 H        1.2900    -7.5990     2.0520 H     1 <1>   0.0800 
 45 H       -1.5810    -5.5480     2.1650 H     1 <1>   0.1500 
 46 H        1.5970    -8.5900     0.0940 H     1 <1>   0.1500 
 47 H       -3.6290    -5.8730     0.9050 H     1 <1>   0.1500 
 48 H       -3.6700    -7.3990    -1.0200 H     1 <1>   0.1500 
 49 H       -2.5430    -8.9390    -2.5210 H     1 <1>   0.1500 
 50 H        1.4930   -10.0580    -1.8380 H     1 <1>   0.1500 
 51 H       -0.5510   -10.2350    -3.1550 H     1 <1>   0.1500 
@<TRIPOS>BOND
  1   1   2  2   
  2   2   3  am  
  3   2   4  1   
  4   3   5  1   
  5   3  27  1   
  6   4   6  1   
  7   4   7  1   
  8   4  28  1   
  9   5   8  1   
 10   5  29  1   
 11   5  30  1   
 12   6   9  1   
 13   6  31  1   
 14   6  32  1   
 15   7  10  1   
 16   7  33  1   
 17   7  34  1   
 18   8  11  1   
 19   8  12  2   
 20   9  13  1   
 21   9  35  1   
 22   9  36  1   
 23  10  13  1   
 24  10  37  1   
 25  10  38  1   
 26  11  14  1   
 27  12  15  1   
 28  12  39  1   
 29  13  16  1   
 30  13  40  1   
 31  14  15  2   
 32  14  41  1   
 33  15  42  1   
 34  16  17  1   
 35  16  43  1   
 36  16  44  1   
 37  17  18  ar  
 38  17  19  ar  
 39  18  20  ar  
 40  18  21  ar  
 41  19  22  ar  
 42  19  45  1   
 43  20  23  ar  
 44  20  24  ar  
 45  21  25  ar  
 46  21  46  1   
 47  22  23  ar  
 48  22  47  1   
 49  23  48  1   
 50  24  26  ar  
 51  24  49  1   
 52  25  26  ar  
 53  25  50  1   
 54  26  51  1   
@<TRIPOS>SUBSTRUCTURE
  1 ****  10 GROUP 4 **** **** 0

# MOE 2024.06 (io_trps.svl 2023.06)
