@<TRIPOS>MOLECULE
NONAME
41 43 1 0 0 
SMALL
USER_CHARGES


@<TRIPOS>ATOM
  1 O       -1.0520     0.6400     1.3670 O.2   1 <1>  -0.5700 
  2 C       -1.0010     1.6580     0.7280 C.2   1 <1>   0.5690 
  3 N       -1.9360     2.0240    -0.1890 N.am  1 <1>  -0.7300 
  4 C        0.1520     2.5990     0.9560 C.3   1 <1>  -0.1790 
  5 C       -3.0940     1.2970    -0.7970 C.3   1 <1>   0.2200 
  6 C       -4.3840     2.1500    -0.7820 C.3   1 <1>   0.0000 
  7 C       -3.4130    -0.0710    -0.1750 C.3   1 <1>  -0.0800 
  8 C       -4.8350     2.3190     0.6830 C.3   1 <1>   0.3430 
  9 C       -5.4570     1.4010    -1.6120 C.3   1 <1>   0.1100 
 10 C       -4.1870     3.5400    -1.4630 C.3   1 <1>  -0.1600 
 11 C       -3.9250     0.0530     1.2690 C.3   1 <1>   0.3430 
 12 C       -4.4300    -0.7860    -1.0660 C.3   1 <1>   0.1100 
 13 N       -5.0410     1.0440     1.4490 N.4   1 <1>  -0.9590 
 14 N       -5.6580     0.0030    -1.2040 N.3   1 <1>  -0.8100 
 15 C       -3.6580     4.6950    -0.5890 C.3   1 <1>  -0.2400 
 16 C       -6.4050     0.4580     1.2170 C.3   1 <1>   0.3430 
 17 C       -6.6590    -0.2210    -0.1470 C.3   1 <1>   0.1100 
 18 H       -1.7380     2.8960    -0.6850 H     1 <1>   0.3700 
 19 H       -0.2110     3.5570     1.2760 H     1 <1>   0.0800 
 20 H        0.7160     2.7110     0.0490 H     1 <1>   0.0800 
 21 H        0.8010     2.2020     1.7170 H     1 <1>   0.0800 
 22 H       -2.8300     1.1220    -1.8280 H     1 <1>   0.0800 
 23 H       -2.5250    -0.6770    -0.1780 H     1 <1>   0.0800 
 24 H       -5.7400     2.9030     0.7060 H     1 <1>   0.0800 
 25 H       -4.0710     2.8880     1.1870 H     1 <1>   0.0800 
 26 H       -5.1470     1.3930    -2.6450 H     1 <1>   0.0800 
 27 H       -6.3980     1.9240    -1.5740 H     1 <1>   0.0800 
 28 H       -5.1340     3.8750    -1.8530 H     1 <1>   0.0800 
 29 H       -3.5390     3.4250    -2.3160 H     1 <1>   0.0800 
 30 H       -4.2390    -0.9180     1.6160 H     1 <1>   0.0800 
 31 H       -3.1070     0.3580     1.8950 H     1 <1>   0.0800 
 32 H       -4.6560    -1.7650    -0.6760 H     1 <1>   0.0800 
 33 H       -4.0040    -0.9270    -2.0470 H     1 <1>   0.0800 
 34 H       -5.0120     1.3050     2.4420 H     1 <1>   0.4500 
 35 H       -4.3680     4.9620     0.1740 H     1 <1>   0.0800 
 36 H       -3.5150     5.5660    -1.2070 H     1 <1>   0.0800 
 37 H       -2.7180     4.4710    -0.1240 H     1 <1>   0.0800 
 38 H       -7.1390     1.2380     1.3350 H     1 <1>   0.0800 
 39 H       -6.6090    -0.2700     1.9840 H     1 <1>   0.0800 
 40 H       -6.7560    -1.2810     0.0150 H     1 <1>   0.0800 
 41 H       -7.6160     0.1090    -0.5110 H     1 <1>   0.0800 
@<TRIPOS>BOND
  1   1   2  2   
  2   2   3  am  
  3   2   4  1   
  4   3   5  1   
  5   3  18  1   
  6   4  19  1   
  7   4  20  1   
  8   4  21  1   
  9   5   6  1   
 10   5   7  1   
 11   5  22  1   
 12   6   8  1   
 13   6   9  1   
 14   6  10  1   
 15   7  11  1   
 16   7  12  1   
 17   7  23  1   
 18   8  13  1   
 19   8  24  1   
 20   8  25  1   
 21   9  14  1   
 22   9  26  1   
 23   9  27  1   
 24  10  15  1   
 25  10  28  1   
 26  10  29  1   
 27  11  13  1   
 28  11  30  1   
 29  11  31  1   
 30  12  14  1   
 31  12  32  1   
 32  12  33  1   
 33  13  16  1   
 34  13  34  1   
 35  14  17  1   
 36  15  35  1   
 37  15  36  1   
 38  15  37  1   
 39  16  17  1   
 40  16  38  1   
 41  16  39  1   
 42  17  40  1   
 43  17  41  1   
@<TRIPOS>SUBSTRUCTURE
  1 ****   5 GROUP 4 **** **** 0

# MOE 2024.06 (io_trps.svl 2023.06)
