@<TRIPOS>MOLECULE
NONAME
40 43 1 0 0 
SMALL
USER_CHARGES


@<TRIPOS>ATOM
  1 CL       0.4230     1.1190     0.8510 Cl    1 <1>  -0.1770 
  2 C        2.0480     0.5190     0.6500 C.ar  1 <1>   0.1770 
  3 C        3.1140     1.2780     1.0900 C.ar  1 <1>  -0.1500 
  4 C        2.2500    -0.7100     0.0510 C.ar  1 <1>  -0.1500 
  5 C        4.4010     0.7950     0.9270 C.ar  1 <1>  -0.1500 
  6 C        3.5410    -1.1820    -0.1060 C.ar  1 <1>  -0.1500 
  7 C        4.6470    -0.4440     0.3270 C.ar  1 <1>   0.0530 
  8 C        5.9930    -0.9420     0.1590 C.2   1 <1>   0.0870 
  9 O        7.0290    -0.2320     0.5950 O.3   1 <1>  -0.2800 
 10 C        6.4650    -2.0880    -0.4020 C.2   1 <1>  -0.1500 
 11 C        8.1560    -0.8790     0.3360 C.2   1 <1>   0.0950 
 12 C        7.8500    -2.0470    -0.2880 C.2   1 <1>  -0.1500 
 13 C        9.4030    -0.2940     0.7220 C.2   1 <1>  -0.1050 
 14 C       10.6600    -0.7730     0.5530 C.2   1 <1>  -0.0380 
 15 N       10.9910    -1.9860    -0.0560 N.pl3 1 <1>  -0.8380 
 16 C       11.8910     0.0090     1.0470 C.3   1 <1>   0.3380 
 17 C       11.8560    -1.7850    -1.2580 C.3   1 <1>   0.2090 
 18 C       11.7010    -2.8940     0.8960 C.3   1 <1>   0.2090 
 19 O       11.9310     1.2220     0.3870 O.3   1 <1>  -0.6800 
 20 C       13.1560    -0.8170     0.7020 C.3   1 <1>  -0.0800 
 21 C       13.1760    -1.1040    -0.8220 C.3   1 <1>  -0.1600 
 22 C       12.9900    -2.1920     1.3930 C.3   1 <1>  -0.1600 
 23 H        2.9360     2.2310     1.5530 H     1 <1>   0.1500 
 24 H        1.4050    -1.2840    -0.2840 H     1 <1>   0.1500 
 25 H        5.2320     1.3860     1.2700 H     1 <1>   0.1500 
 26 H        3.6930    -2.1390    -0.5720 H     1 <1>   0.1500 
 27 H        5.9090    -2.8880    -0.8520 H     1 <1>   0.1500 
 28 H        8.5420    -2.7950    -0.6280 H     1 <1>   0.1500 
 29 H        9.2850     0.6560     1.2090 H     1 <1>   0.1500 
 30 H       11.8300     0.2030     2.1040 H     1 <1>   0.0800 
 31 H       12.0550    -2.7340    -1.7270 H     1 <1>   0.0800 
 32 H       11.3330    -1.1650    -1.9660 H     1 <1>   0.0800 
 33 H       11.0500    -3.1110     1.7270 H     1 <1>   0.0800 
 34 H       11.9390    -3.8220     0.4050 H     1 <1>   0.0800 
 35 H       11.5770     1.0700    -0.5090 H     1 <1>   0.4000 
 36 H       14.0480    -0.3170     1.0350 H     1 <1>   0.0800 
 37 H       14.0040    -1.7450    -1.0660 H     1 <1>   0.0800 
 38 H       13.3100    -0.1920    -1.3760 H     1 <1>   0.0800 
 39 H       12.9340    -2.0650     2.4600 H     1 <1>   0.0800 
 40 H       13.8390    -2.8190     1.1890 H     1 <1>   0.0800 
@<TRIPOS>BOND
  1   1   2  1   
  2   2   3  ar  
  3   2   4  ar  
  4   3   5  ar  
  5   3  23  1   
  6   4   6  ar  
  7   4  24  1   
  8   5   7  ar  
  9   5  25  1   
 10   6   7  ar  
 11   6  26  1   
 12   7   8  1   
 13   8   9  1   
 14   8  10  2   
 15   9  11  1   
 16  10  12  1   
 17  10  27  1   
 18  11  12  2   
 19  11  13  1   
 20  12  28  1   
 21  13  14  2   
 22  13  29  1   
 23  14  15  1   
 24  14  16  1   
 25  15  17  1   
 26  15  18  1   
 27  16  19  1   
 28  16  20  1   
 29  16  30  1   
 30  17  21  1   
 31  17  31  1   
 32  17  32  1   
 33  18  22  1   
 34  18  33  1   
 35  18  34  1   
 36  19  35  1   
 37  20  21  1   
 38  20  22  1   
 39  20  36  1   
 40  21  37  1   
 41  21  38  1   
 42  22  39  1   
 43  22  40  1   
@<TRIPOS>SUBSTRUCTURE
  1 ****  11 GROUP 4 **** **** 0

# MOE 2024.06 (io_trps.svl 2023.06)
