@<TRIPOS>MOLECULE
NONAME
55 58 1 0 0 
SMALL
USER_CHARGES


@<TRIPOS>ATOM
  1 S        0.2790    -0.5650    -0.4670 S.o2  1 <1>   1.4470 
  2 O        0.4350    -1.9680    -0.1460 O.2   1 <1>  -0.6500 
  3 O        0.5380    -0.1000    -1.8130 O.2   1 <1>  -0.6500 
  4 N       -1.3220    -0.1520    -0.0980 N.am  1 <1>  -0.8490 
  5 C        1.2520     0.4290     0.7020 C.ar  1 <1>  -0.0090 
  6 C       -1.7900    -0.5890     1.2250 C.3   1 <1>   0.1960 
  7 C       -1.7270     1.2060    -0.4930 C.3   1 <1>   0.1960 
  8 C        1.6550     1.7220     0.3850 C.ar  1 <1>  -0.1500 
  9 C        1.5940    -0.0670     1.9560 C.ar  1 <1>  -0.1500 
 10 C       -3.2900    -0.2900     1.4810 C.3   1 <1>   0.0000 
 11 C       -3.2290     1.5060    -0.2370 C.3   1 <1>   0.0000 
 12 C        2.3630     2.4970     1.2880 C.ar  1 <1>  -0.1500 
 13 C        2.3020     0.7000     2.8650 C.ar  1 <1>  -0.1500 
 14 C       -4.2100    -1.1240     0.5540 C.3   1 <1>   0.1960 
 15 C       -3.5550     1.2020     1.2330 C.3   1 <1>  -0.1600 
 16 C       -3.6230    -0.6230     2.9460 C.3   1 <1>  -0.2400 
 17 C       -4.1500     0.6530    -1.1490 C.3   1 <1>   0.1960 
 18 C       -3.4950     2.9960    -0.5130 C.3   1 <1>  -0.2400 
 19 C        2.6860     1.9860     2.5310 C.ar  1 <1>  -0.1500 
 20 N       -4.0500    -0.7810    -0.8640 N.am  1 <1>  -0.8490 
 21 S       -4.9220    -1.7770    -1.9180 S.o2  1 <1>   1.4470 
 22 O       -6.1910    -2.0500    -1.2760 O.2   1 <1>  -0.6500 
 23 O       -4.9160    -1.1480    -3.2210 O.2   1 <1>  -0.6500 
 24 C       -3.9070    -3.2820    -1.9610 C.ar  1 <1>  -0.0090 
 25 C       -4.4880    -4.5410    -2.0650 C.ar  1 <1>  -0.1500 
 26 C       -2.5190    -3.2130    -1.8970 C.ar  1 <1>  -0.1500 
 27 C       -3.7150    -5.6890    -2.0910 C.ar  1 <1>  -0.1500 
 28 C       -1.7380    -4.3540    -1.9160 C.ar  1 <1>  -0.1500 
 29 C       -2.3370    -5.5970    -2.0140 C.ar  1 <1>  -0.1500 
 30 H       -1.2050    -0.0930     1.9810 H     1 <1>   0.0800 
 31 H       -1.6250    -1.6490     1.3210 H     1 <1>   0.0800 
 32 H       -1.5230     1.3410    -1.5420 H     1 <1>   0.0800 
 33 H       -1.1340     1.9180     0.0540 H     1 <1>   0.0800 
 34 H        1.4140     2.1270    -0.5840 H     1 <1>   0.1500 
 35 H        1.3050    -1.0700     2.2240 H     1 <1>   0.1500 
 36 H        2.6660     3.4950     1.0210 H     1 <1>   0.1500 
 37 H        2.5570     0.2960     3.8300 H     1 <1>   0.1500 
 38 H       -5.2380    -0.9620     0.8360 H     1 <1>   0.0800 
 39 H       -3.9920    -2.1700     0.6900 H     1 <1>   0.0800 
 40 H       -2.9400     1.8020     1.8820 H     1 <1>   0.0800 
 41 H       -4.5860     1.4340     1.4380 H     1 <1>   0.0800 
 42 H       -3.4440    -1.6660     3.1460 H     1 <1>   0.0800 
 43 H       -4.6570    -0.4110     3.1580 H     1 <1>   0.0800 
 44 H       -3.0160    -0.0400     3.6170 H     1 <1>   0.0800 
 45 H       -5.1750     0.9610    -1.0230 H     1 <1>   0.0800 
 46 H       -3.8760     0.8300    -2.1760 H     1 <1>   0.0800 
 47 H       -3.2720     3.2350    -1.5380 H     1 <1>   0.0800 
 48 H       -2.8860     3.6170     0.1210 H     1 <1>   0.0800 
 49 H       -4.5280     3.2370    -0.3280 H     1 <1>   0.0800 
 50 H        3.2380     2.5850     3.2350 H     1 <1>   0.1500 
 51 H       -5.5610    -4.6210    -2.1240 H     1 <1>   0.1500 
 52 H       -2.0380    -2.2510    -1.8250 H     1 <1>   0.1500 
 53 H       -4.1850    -6.6540    -2.1710 H     1 <1>   0.1500 
 54 H       -0.6660    -4.2670    -1.8530 H     1 <1>   0.1500 
 55 H       -1.7310    -6.4860    -2.0310 H     1 <1>   0.1500 
@<TRIPOS>BOND
  1   1   2  2   
  2   1   3  2   
  3   1   4  am  
  4   1   5  1   
  5   4   6  1   
  6   4   7  1   
  7   5   8  ar  
  8   5   9  ar  
  9   6  10  1   
 10   6  30  1   
 11   6  31  1   
 12   7  11  1   
 13   7  32  1   
 14   7  33  1   
 15   8  12  ar  
 16   8  34  1   
 17   9  13  ar  
 18   9  35  1   
 19  10  14  1   
 20  10  15  1   
 21  10  16  1   
 22  11  15  1   
 23  11  17  1   
 24  11  18  1   
 25  12  19  ar  
 26  12  36  1   
 27  13  19  ar  
 28  13  37  1   
 29  14  20  1   
 30  14  38  1   
 31  14  39  1   
 32  15  40  1   
 33  15  41  1   
 34  16  42  1   
 35  16  43  1   
 36  16  44  1   
 37  17  20  1   
 38  17  45  1   
 39  17  46  1   
 40  18  47  1   
 41  18  48  1   
 42  18  49  1   
 43  19  50  1   
 44  20  21  am  
 45  21  22  2   
 46  21  23  2   
 47  21  24  1   
 48  24  25  ar  
 49  24  26  ar  
 50  25  27  ar  
 51  25  51  1   
 52  26  28  ar  
 53  26  52  1   
 54  27  29  ar  
 55  27  53  1   
 56  28  29  ar  
 57  28  54  1   
 58  29  55  1   
@<TRIPOS>SUBSTRUCTURE
  1 ****   4 GROUP 4 **** **** 0

# MOE 2024.06 (io_trps.svl 2023.06)
