@<TRIPOS>MOLECULE
NONAME
39 41 1 0 0 
SMALL
USER_CHARGES


@<TRIPOS>ATOM
  1 O       -1.8280     0.4190     1.0200 O.3   1 <1>  -0.6800 
  2 C       -2.5280    -0.0150    -0.0910 C.3   1 <1>   0.1200 
  3 C       -4.0210    -0.0050     0.2710 C.3   1 <1>   0.3430 
  4 N       -4.9190    -0.3510    -0.8910 N.4   1 <1>  -0.9590 
  5 C       -6.3680    -0.0240    -0.6420 C.3   1 <1>   0.5030 
  6 C       -4.6870    -1.7780    -1.3050 C.3   1 <1>   0.2630 
  7 C       -6.5210     1.4970    -0.3940 C.3   1 <1>  -0.1600 
  8 C       -7.2070    -0.3860    -1.8930 C.3   1 <1>  -0.1600 
  9 C       -6.9330    -0.7900     0.5760 C.3   1 <1>  -0.1600 
 10 C       -7.9990     1.8690    -0.1740 C.3   1 <1>  -0.0800 
 11 C       -8.6890    -0.0230    -1.6820 C.3   1 <1>  -0.0800 
 12 C       -8.4150    -0.4260     0.7960 C.3   1 <1>  -0.0800 
 13 C       -8.8110     1.4870    -1.4230 C.3   1 <1>  -0.1600 
 14 C       -8.5370     1.0900     1.0410 C.3   1 <1>  -0.1600 
 15 C       -9.2250    -0.7940    -0.4610 C.3   1 <1>  -0.1600 
 16 H       -0.8610     0.4500     0.8550 H     1 <1>   0.4000 
 17 H       -2.1830    -1.0050    -0.3310 H     1 <1>   0.0800 
 18 H       -2.3210     0.6660    -0.8980 H     1 <1>   0.0800 
 19 H       -4.2490     0.9820     0.6310 H     1 <1>   0.0800 
 20 H       -4.1870    -0.7000     1.0770 H     1 <1>   0.0800 
 21 H       -4.6520     0.2560    -1.6740 H     1 <1>   0.4500 
 22 H       -5.0040    -2.4510    -0.5250 H     1 <1>   0.0800 
 23 H       -3.6430    -1.9510    -1.5020 H     1 <1>   0.0800 
 24 H       -5.2340    -2.0080    -2.2040 H     1 <1>   0.0800 
 25 H       -6.1430     2.0510    -1.2350 H     1 <1>   0.0800 
 26 H       -5.9870     1.8070     0.4840 H     1 <1>   0.0800 
 27 H       -6.8380     0.1420    -2.7540 H     1 <1>   0.0800 
 28 H       -7.1690    -1.4390    -2.0960 H     1 <1>   0.0800 
 29 H       -6.3900    -0.5400     1.4690 H     1 <1>   0.0800 
 30 H       -6.8630    -1.8510     0.4230 H     1 <1>   0.0800 
 31 H       -8.0900     2.9280     0.0060 H     1 <1>   0.0800 
 32 H       -9.2610    -0.2870    -2.5570 H     1 <1>   0.0800 
 33 H       -8.8040    -0.9620     1.6460 H     1 <1>   0.0800 
 34 H       -8.4590     2.0400    -2.2770 H     1 <1>   0.0800 
 35 H       -9.8450     1.7480    -1.2760 H     1 <1>   0.0800 
 36 H       -7.9930     1.3660     1.9280 H     1 <1>   0.0800 
 37 H       -9.5700     1.3480     1.2070 H     1 <1>   0.0800 
 38 H       -9.1690    -1.8550    -0.6390 H     1 <1>   0.0800 
 39 H      -10.2620    -0.5510    -0.3070 H     1 <1>   0.0800 
@<TRIPOS>BOND
  1   1   2  1   
  2   1  16  1   
  3   2   3  1   
  4   2  17  1   
  5   2  18  1   
  6   3   4  1   
  7   3  19  1   
  8   3  20  1   
  9   4   5  1   
 10   4   6  1   
 11   4  21  1   
 12   5   7  1   
 13   5   8  1   
 14   5   9  1   
 15   6  22  1   
 16   6  23  1   
 17   6  24  1   
 18   7  10  1   
 19   7  25  1   
 20   7  26  1   
 21   8  11  1   
 22   8  27  1   
 23   8  28  1   
 24   9  12  1   
 25   9  29  1   
 26   9  30  1   
 27  10  13  1   
 28  10  14  1   
 29  10  31  1   
 30  11  13  1   
 31  11  15  1   
 32  11  32  1   
 33  12  14  1   
 34  12  15  1   
 35  12  33  1   
 36  13  34  1   
 37  13  35  1   
 38  14  36  1   
 39  14  37  1   
 40  15  38  1   
 41  15  39  1   
@<TRIPOS>SUBSTRUCTURE
  1 ****   5 GROUP 4 **** **** 0

# MOE 2024.06 (io_trps.svl 2023.06)
