@<TRIPOS>MOLECULE
NONAME
24 23 1 0 0 
SMALL
USER_CHARGES


@<TRIPOS>ATOM
  1 S        0.0440     0.2480     0.2670 S.o   1 <1>   0.1130 
  2 O       -0.0200     1.4470    -0.6320 O.2   1 <1>  -0.5000 
  3 C        1.4640    -0.7350    -0.2860 C.3   1 <1>   0.0330 
  4 C       -1.3530    -0.8110    -0.1970 C.3   1 <1>   0.0330 
  5 C        1.7640    -1.9020     0.6590 C.3   1 <1>  -0.0990 
  6 C       -2.6860    -0.0810    -0.0130 C.3   1 <1>  -0.0990 
  7 C        2.9410    -2.6990     0.1500 C.2   1 <1>   0.5690 
  8 C       -3.8380    -0.9610    -0.4340 C.2   1 <1>   0.5690 
  9 O        2.8110    -3.3800    -0.8310 O.2   1 <1>  -0.5700 
 10 N        4.1230    -2.6370     0.7860 N.am  1 <1>  -0.8000 
 11 O       -4.0140    -2.0150     0.1180 O.2   1 <1>  -0.5700 
 12 N       -4.6540    -0.5660    -1.4260 N.am  1 <1>  -0.8000 
 13 H        2.3350    -0.1070    -0.3400 H     1 <1>   0.0800 
 14 H        1.2880    -1.1170    -1.2760 H     1 <1>   0.0800 
 15 H       -1.3650    -1.7060     0.4000 H     1 <1>   0.0800 
 16 H       -1.2650    -1.1050    -1.2270 H     1 <1>   0.0800 
 17 H        0.9150    -2.5570     0.7150 H     1 <1>   0.0800 
 18 H        1.9710    -1.5300     1.6450 H     1 <1>   0.0800 
 19 H       -2.6830     0.8240    -0.5930 H     1 <1>   0.0800 
 20 H       -2.8140     0.1820     1.0210 H     1 <1>   0.0800 
 21 H        4.9070    -3.1840     0.4260 H     1 <1>   0.3700 
 22 H        4.3050    -2.0830     1.6220 H     1 <1>   0.3700 
 23 H       -5.4330    -1.1660    -1.7000 H     1 <1>   0.3700 
 24 H       -4.5570     0.3150    -1.9300 H     1 <1>   0.3700 
@<TRIPOS>BOND
  1   1   2  2   
  2   1   3  1   
  3   1   4  1   
  4   3   5  1   
  5   3  13  1   
  6   3  14  1   
  7   4   6  1   
  8   4  15  1   
  9   4  16  1   
 10   5   7  1   
 11   5  17  1   
 12   5  18  1   
 13   6   8  1   
 14   6  19  1   
 15   6  20  1   
 16   7   9  2   
 17   7  10  am  
 18   8  11  2   
 19   8  12  am  
 20  10  21  1   
 21  10  22  1   
 22  12  23  1   
 23  12  24  1   
@<TRIPOS>SUBSTRUCTURE
  1 ****   4 GROUP 4 **** **** 0

# MOE 2024.06 (io_trps.svl 2023.06)
