@<TRIPOS>MOLECULE
NONAME
33 34 1 0 0 
SMALL
USER_CHARGES


@<TRIPOS>ATOM
  1 S       -0.9850    -0.7330     1.1640 S.3   1 <1>  -0.2860 
  2 C       -1.8690    -1.3900    -0.2670 C.2   1 <1>   0.2420 
  3 C        0.8280    -0.7960     0.7330 C.3   1 <1>   0.2110 
  4 N       -1.5360    -2.4430    -0.9040 N.2   1 <1>  -0.3380 
  5 N       -2.9750    -0.8400    -0.7550 N.pl3 1 <1>   0.5930 
  6 C        1.1300     0.0860    -0.4960 C.2   1 <1>   0.6590 
  7 C        1.2670    -2.2660     0.6160 C.3   1 <1>  -0.2400 
  8 N       -2.4780    -2.5790    -1.8340 N.2   1 <1>   0.0000 
  9 N       -3.3500    -1.6360    -1.7520 N.2   1 <1>  -0.4180 
 10 C       -3.6730     0.3310    -0.3510 C.ar  1 <1>  -0.0230 
 11 O        0.2610     0.4460    -1.2460 O.2   1 <1>  -0.5700 
 12 O        2.3820     0.4790    -0.7280 O.3   1 <1>  -0.4300 
 13 C       -3.0450     1.5740    -0.3670 C.ar  1 <1>  -0.1500 
 14 C       -4.9980     0.2560     0.0660 C.ar  1 <1>  -0.1500 
 15 C        3.4590     0.4150     0.1770 C.3   1 <1>   0.1200 
 16 C       -3.7220     2.7100     0.0360 C.ar  1 <1>  -0.1500 
 17 C       -5.6760     1.3930     0.4690 C.ar  1 <1>  -0.1500 
 18 C        4.6380     1.1470    -0.4540 C.3   1 <1>  -0.2400 
 19 C       -5.0380     2.6210     0.4550 C.ar  1 <1>  -0.1500 
 20 H        1.3060    -0.3600     1.5900 H     1 <1>   0.0800 
 21 H        0.9590    -2.6830    -0.3250 H     1 <1>   0.0800 
 22 H        0.8410    -2.8470     1.4140 H     1 <1>   0.0800 
 23 H        2.3360    -2.3460     0.6730 H     1 <1>   0.0800 
 24 H       -2.0220     1.6560    -0.6980 H     1 <1>   0.1500 
 25 H       -5.5040    -0.6950     0.0750 H     1 <1>   0.1500 
 26 H        3.7110    -0.6170     0.3500 H     1 <1>   0.0800 
 27 H        3.1700     0.8920     1.0970 H     1 <1>   0.0800 
 28 H       -3.2260     3.6660     0.0200 H     1 <1>   0.1500 
 29 H       -6.7010     1.3250     0.7910 H     1 <1>   0.1500 
 30 H        4.9150     0.6750    -1.3810 H     1 <1>   0.0800 
 31 H        5.4840     1.1200     0.2090 H     1 <1>   0.0800 
 32 H        4.3810     2.1740    -0.6400 H     1 <1>   0.0800 
 33 H       -5.5640     3.5060     0.7680 H     1 <1>   0.1500 
@<TRIPOS>BOND
  1   1   2  1   
  2   1   3  1   
  3   2   4  2   
  4   2   5  1   
  5   3   6  1   
  6   3   7  1   
  7   3  20  1   
  8   4   8  1   
  9   5   9  1   
 10   5  10  1   
 11   6  11  2   
 12   6  12  1   
 13   7  21  1   
 14   7  22  1   
 15   7  23  1   
 16   8   9  2   
 17  10  13  ar  
 18  10  14  ar  
 19  12  15  1   
 20  13  16  ar  
 21  13  24  1   
 22  14  17  ar  
 23  14  25  1   
 24  15  18  1   
 25  15  26  1   
 26  15  27  1   
 27  16  19  ar  
 28  16  28  1   
 29  17  19  ar  
 30  17  29  1   
 31  18  30  1   
 32  18  31  1   
 33  18  32  1   
 34  19  33  1   
@<TRIPOS>SUBSTRUCTURE
  1 ****   2 GROUP 4 **** **** 0

# MOE 2024.06 (io_trps.svl 2023.06)
