@<TRIPOS>MOLECULE
NONAME
32 32 1 0 0 
SMALL
USER_CHARGES


@<TRIPOS>ATOM
  1 CL      -1.1530     1.8780    -2.8700 Cl    1 <1>  -0.1770 
  2 C       -1.5100     1.6250    -1.1780 C.ar  1 <1>   0.1770 
  3 C       -1.0670     2.5250    -0.2170 C.ar  1 <1>  -0.1440 
  4 C       -2.2370     0.5000    -0.8320 C.ar  1 <1>  -0.1500 
  5 C       -1.3680     2.2710     1.1130 C.ar  1 <1>  -0.1500 
  6 C       -0.2690     3.7690    -0.5820 C.3   1 <1>   0.2140 
  7 C       -2.5310     0.2600     0.4980 C.ar  1 <1>  -0.1500 
  8 C       -2.0960     1.1470     1.4690 C.ar  1 <1>  -0.1500 
  9 S        1.4430     3.5420    -0.0200 S.3   1 <1>  -0.4600 
 10 C        1.9690     2.0050    -0.8780 C.3   1 <1>   0.1310 
 11 C        3.4430     1.6860    -0.6560 C.2   1 <1>   0.5690 
 12 O        3.9100     0.7390    -1.2420 O.2   1 <1>  -0.5700 
 13 N        4.1710     2.4720     0.1860 N.am  1 <1>  -0.7300 
 14 C        5.5920     2.3750     0.5590 C.3   1 <1>   0.2200 
 15 C        6.4700     2.5590    -0.6760 C.3   1 <1>  -0.2400 
 16 C        5.8600     1.0460     1.2620 C.3   1 <1>  -0.2400 
 17 H       -2.5660    -0.1790    -1.5980 H     1 <1>   0.1500 
 18 H       -1.0320     2.9490     1.8800 H     1 <1>   0.1500 
 19 H       -0.6540     4.6360    -0.0750 H     1 <1>   0.0800 
 20 H       -0.2370     3.9580    -1.6390 H     1 <1>   0.0800 
 21 H       -3.0960    -0.6130     0.7790 H     1 <1>   0.1500 
 22 H       -2.3220     0.9610     2.5050 H     1 <1>   0.1500 
 23 H        1.7800     2.1400    -1.9260 H     1 <1>   0.0800 
 24 H        1.3650     1.2020    -0.5000 H     1 <1>   0.0800 
 25 H        3.6650     3.2530     0.6140 H     1 <1>   0.3700 
 26 H        5.8080     3.1730     1.2510 H     1 <1>   0.0800 
 27 H        6.3170     1.7560    -1.3740 H     1 <1>   0.0800 
 28 H        7.5060     2.5640    -0.3900 H     1 <1>   0.0800 
 29 H        6.2430     3.4930    -1.1550 H     1 <1>   0.0800 
 30 H        5.7000     0.2220     0.5910 H     1 <1>   0.0800 
 31 H        5.2120     0.9400     2.1130 H     1 <1>   0.0800 
 32 H        6.8780     1.0110     1.6020 H     1 <1>   0.0800 
@<TRIPOS>BOND
  1   1   2  1   
  2   2   3  ar  
  3   2   4  ar  
  4   3   5  ar  
  5   3   6  1   
  6   4   7  ar  
  7   4  17  1   
  8   5   8  ar  
  9   5  18  1   
 10   6   9  1   
 11   6  19  1   
 12   6  20  1   
 13   7   8  ar  
 14   7  21  1   
 15   8  22  1   
 16   9  10  1   
 17  10  11  1   
 18  10  23  1   
 19  10  24  1   
 20  11  12  2   
 21  11  13  am  
 22  13  14  1   
 23  13  25  1   
 24  14  15  1   
 25  14  16  1   
 26  14  26  1   
 27  15  27  1   
 28  15  28  1   
 29  15  29  1   
 30  16  30  1   
 31  16  31  1   
 32  16  32  1   
@<TRIPOS>SUBSTRUCTURE
  1 ****  10 GROUP 4 **** **** 0

# MOE 2024.06 (io_trps.svl 2023.06)
