@<TRIPOS>MOLECULE
NONAME
45 47 1 0 0 
SMALL
USER_CHARGES


@<TRIPOS>ATOM
  1 O       -1.9460    -0.8000     2.7400 O.2   1 <1>  -0.5700 
  2 C       -2.6440    -1.2500     1.8530 C.2   1 <1>   0.7060 
  3 O       -3.5380    -0.4460     1.2690 O.3   1 <1>  -0.2330 
  4 C       -2.5800    -2.5980     1.3850 C.2   1 <1>  -0.1240 
  5 C       -4.3720    -0.8560     0.2790 C.ar  1 <1>   0.0820 
  6 C       -3.3790    -3.0530     0.4120 C.2   1 <1>  -0.1670 
  7 C       -1.6370    -3.6530     1.9090 C.3   1 <1>  -0.0220 
  8 C       -4.3430    -2.1790    -0.1960 C.ar  1 <1>   0.0280 
  9 C       -5.2530     0.0770    -0.2440 C.ar  1 <1>  -0.1500 
 10 C       -3.1050    -4.5100     0.1090 C.3   1 <1>  -0.0220 
 11 C       -1.8580    -4.8360     0.9500 C.3   1 <1>  -0.1600 
 12 C       -5.2610    -2.5210    -1.2040 C.ar  1 <1>   0.0830 
 13 C       -6.1280    -0.2710    -1.2550 C.ar  1 <1>  -0.1430 
 14 O       -5.3000    -3.7870    -1.6700 O.3   1 <1>  -0.3630 
 15 C       -6.1220    -1.5710    -1.7330 C.ar  1 <1>  -0.1500 
 16 C       -7.0850     0.7500    -1.8450 C.3   1 <1>  -0.0970 
 17 C       -6.5240    -4.5090    -1.6900 C.3   1 <1>   0.1810 
 18 C       -6.5810    -5.5200    -0.5490 C.2   1 <1>   0.4480 
 19 O       -6.0000    -6.5620    -0.6540 O.2   1 <1>  -0.5700 
 20 C       -7.4420    -5.1860     0.6980 C.3   1 <1>   0.0610 
 21 C       -7.0920    -3.8100     1.2930 C.3   1 <1>  -0.2400 
 22 C       -7.2230    -6.2330     1.8090 C.3   1 <1>  -0.2400 
 23 C       -8.9370    -5.2010     0.3290 C.3   1 <1>  -0.2400 
 24 H       -1.9070    -3.9140     2.9180 H     1 <1>   0.0800 
 25 H       -0.6170    -3.3100     1.8830 H     1 <1>   0.0800 
 26 H       -5.2390     1.0790     0.1480 H     1 <1>   0.1500 
 27 H       -2.9150    -4.6660    -0.9390 H     1 <1>   0.0800 
 28 H       -3.9380    -5.1160     0.4190 H     1 <1>   0.0800 
 29 H       -1.9820    -5.7600     1.4880 H     1 <1>   0.0800 
 30 H       -1.0070    -4.9260     0.2970 H     1 <1>   0.0800 
 31 H       -6.7890    -1.8390    -2.5310 H     1 <1>   0.1500 
 32 H       -6.9440     1.7150    -1.3940 H     1 <1>   0.0800 
 33 H       -8.1010     0.4400    -1.6780 H     1 <1>   0.0800 
 34 H       -6.9180     0.8400    -2.9030 H     1 <1>   0.0800 
 35 H       -6.5580    -5.0410    -2.6230 H     1 <1>   0.0800 
 36 H       -7.3550    -3.8320    -1.6480 H     1 <1>   0.0800 
 37 H       -7.3190    -3.0150     0.6070 H     1 <1>   0.0800 
 38 H       -6.0450    -3.7650     1.5370 H     1 <1>   0.0800 
 39 H       -7.6530    -3.6330     2.1940 H     1 <1>   0.0800 
 40 H       -6.1870    -6.2550     2.1010 H     1 <1>   0.0800 
 41 H       -7.4900    -7.2150     1.4590 H     1 <1>   0.0800 
 42 H       -7.8170    -6.0100     2.6770 H     1 <1>   0.0800 
 43 H       -9.1700    -4.4380    -0.3900 H     1 <1>   0.0800 
 44 H       -9.5420    -5.0300     1.2020 H     1 <1>   0.0800 
 45 H       -9.2070    -6.1560    -0.0860 H     1 <1>   0.0800 
@<TRIPOS>BOND
  1   1   2  2   
  2   2   3  1   
  3   2   4  1   
  4   3   5  1   
  5   4   6  2   
  6   4   7  1   
  7   5   8  ar  
  8   5   9  ar  
  9   6   8  1   
 10   6  10  1   
 11   7  11  1   
 12   7  24  1   
 13   7  25  1   
 14   8  12  ar  
 15   9  13  ar  
 16   9  26  1   
 17  10  11  1   
 18  10  27  1   
 19  10  28  1   
 20  11  29  1   
 21  11  30  1   
 22  12  14  1   
 23  12  15  ar  
 24  13  15  ar  
 25  13  16  1   
 26  14  17  1   
 27  15  31  1   
 28  16  32  1   
 29  16  33  1   
 30  16  34  1   
 31  17  18  1   
 32  17  35  1   
 33  17  36  1   
 34  18  19  2   
 35  18  20  1   
 36  20  21  1   
 37  20  22  1   
 38  20  23  1   
 39  21  37  1   
 40  21  38  1   
 41  21  39  1   
 42  22  40  1   
 43  22  41  1   
 44  22  42  1   
 45  23  43  1   
 46  23  44  1   
 47  23  45  1   
@<TRIPOS>SUBSTRUCTURE
  1 ****   8 GROUP 4 **** **** 0

# MOE 2024.06 (io_trps.svl 2023.06)
