@<TRIPOS>MOLECULE
NONAME
41 42 1 0 0 
SMALL
USER_CHARGES


@<TRIPOS>ATOM
  1 O       -0.4400    -0.4820     0.3060 O.3   1 <1>  -0.3630 
  2 C       -1.7050    -0.9570     0.1780 C.ar  1 <1>   0.0830 
  3 C        0.6730    -1.2570    -0.0610 C.3   1 <1>   0.1200 
  4 C       -2.0150    -2.2200    -0.3180 C.ar  1 <1>  -0.1500 
  5 C       -2.7300    -0.1130     0.5730 C.ar  1 <1>  -0.1500 
  6 C        1.9250    -0.4210     0.2140 C.3   1 <1>  -0.1600 
  7 C       -3.3360    -2.6220    -0.4120 C.ar  1 <1>  -0.1500 
  8 C       -4.0490    -0.5180     0.4770 C.ar  1 <1>  -0.1500 
  9 C        3.2110    -1.1790    -0.1460 C.3   1 <1>  -0.1600 
 10 C       -4.3590    -1.7760    -0.0150 C.ar  1 <1>  -0.1430 
 11 C        4.4380    -0.3090     0.1370 C.3   1 <1>   0.3430 
 12 C       -5.8060    -2.2210    -0.1220 C.3   1 <1>  -0.0970 
 13 N        5.6810    -1.0120    -0.2790 N.4   1 <1>  -0.9590 
 14 C        6.0310    -2.1850     0.5610 C.3   1 <1>   0.3430 
 15 C        6.8730    -0.1290    -0.2480 C.3   1 <1>   0.3430 
 16 C        7.5120    -2.4170     0.2930 C.3   1 <1>  -0.1600 
 17 C        8.0550    -1.0880    -0.2420 C.3   1 <1>  -0.1600 
 18 H        0.5880    -1.4960    -1.1080 H     1 <1>   0.0800 
 19 H        0.6680    -2.1560     0.5310 H     1 <1>   0.0800 
 20 H       -1.2500    -2.9010    -0.6350 H     1 <1>   0.1500 
 21 H       -2.4880     0.8610     0.9550 H     1 <1>   0.1500 
 22 H        1.9370    -0.1610     1.2590 H     1 <1>   0.0800 
 23 H        1.8620     0.4850    -0.3640 H     1 <1>   0.0800 
 24 H       -3.5670    -3.5990    -0.7990 H     1 <1>   0.1500 
 25 H       -4.8330     0.1500     0.7870 H     1 <1>   0.1500 
 26 H        3.1830    -1.4360    -1.1910 H     1 <1>   0.0800 
 27 H        3.2540    -2.0820     0.4370 H     1 <1>   0.0800 
 28 H        4.4820    -0.0690     1.1880 H     1 <1>   0.0800 
 29 H        4.3440     0.6140    -0.4130 H     1 <1>   0.0800 
 30 H       -5.8820    -3.2860     0.0010 H     1 <1>   0.0800 
 31 H       -6.1980    -1.9520    -1.0860 H     1 <1>   0.0800 
 32 H       -6.4020    -1.7490     0.6390 H     1 <1>   0.0800 
 33 H        5.5730    -1.3430    -1.2470 H     1 <1>   0.4500 
 34 H        5.4400    -3.0510     0.3080 H     1 <1>   0.0800 
 35 H        5.8880    -1.9450     1.6020 H     1 <1>   0.0800 
 36 H        6.8760     0.4500     0.6620 H     1 <1>   0.0800 
 37 H        6.9020     0.5370    -1.0970 H     1 <1>   0.0800 
 38 H        7.6340    -3.1960    -0.4400 H     1 <1>   0.0800 
 39 H        8.0130    -2.7180     1.1970 H     1 <1>   0.0800 
 40 H        8.8490    -0.7030     0.3730 H     1 <1>   0.0800 
 41 H        8.4290    -1.2120    -1.2440 H     1 <1>   0.0800 
@<TRIPOS>BOND
  1   1   2  1   
  2   1   3  1   
  3   2   4  ar  
  4   2   5  ar  
  5   3   6  1   
  6   3  18  1   
  7   3  19  1   
  8   4   7  ar  
  9   4  20  1   
 10   5   8  ar  
 11   5  21  1   
 12   6   9  1   
 13   6  22  1   
 14   6  23  1   
 15   7  10  ar  
 16   7  24  1   
 17   8  10  ar  
 18   8  25  1   
 19   9  11  1   
 20   9  26  1   
 21   9  27  1   
 22  10  12  1   
 23  11  13  1   
 24  11  28  1   
 25  11  29  1   
 26  12  30  1   
 27  12  31  1   
 28  12  32  1   
 29  13  14  1   
 30  13  15  1   
 31  13  33  1   
 32  14  16  1   
 33  14  34  1   
 34  14  35  1   
 35  15  17  1   
 36  15  36  1   
 37  15  37  1   
 38  16  17  1   
 39  16  38  1   
 40  16  39  1   
 41  17  40  1   
 42  17  41  1   
@<TRIPOS>SUBSTRUCTURE
  1 ****   3 GROUP 4 **** **** 0

# MOE 2024.06 (io_trps.svl 2023.06)
