@<TRIPOS>MOLECULE
NONAME
52 54 1 0 0 
SMALL
USER_CHARGES


@<TRIPOS>ATOM
  1 O        0.0820    -0.8820     3.0390 O.2   1 <1>  -0.5700 
  2 C        0.2490    -1.3360     1.9320 C.2   1 <1>   0.5690 
  3 N       -0.7810    -1.4760     1.0620 N.am  1 <1>  -0.7300 
  4 C        1.6380    -1.7390     1.4760 C.3   1 <1>   0.0440 
  5 C       -2.1370    -0.9880     1.2990 C.3   1 <1>   0.2200 
  6 C        2.0020    -1.0820     0.1430 C.ar  1 <1>  -0.1440 
  7 C       -3.1230    -1.8100     0.4750 C.3   1 <1>  -0.1600 
  8 C       -2.1960     0.4890     0.9130 C.3   1 <1>  -0.1600 
  9 C        1.5780    -1.6160    -1.0730 C.ar  1 <1>   0.0820 
 10 C        2.7650     0.0750     0.1490 C.ar  1 <1>  -0.1500 
 11 C       -4.5340    -1.2450     0.6130 C.3   1 <1>   0.3430 
 12 C       -3.6160     1.0210     1.0560 C.3   1 <1>   0.3430 
 13 O        0.8100    -2.7380    -1.0500 O.3   1 <1>  -0.3630 
 14 C        1.9330    -0.9900    -2.2640 C.ar  1 <1>  -0.1500 
 15 C        3.1140     0.6950    -1.0370 C.ar  1 <1>  -0.1500 
 16 N       -4.5420     0.1990     0.2260 N.4   1 <1>  -0.9590 
 17 C        0.7740    -3.6050    -2.1640 C.3   1 <1>   0.0400 
 18 C        2.6990     0.1620    -2.2440 C.ar  1 <1>  -0.1500 
 19 C       -5.9210     0.7590     0.2340 C.3   1 <1>   0.4860 
 20 C       -6.7340     0.0450    -0.8270 C.ar  1 <1>  -0.1440 
 21 C       -6.5210     0.3150    -2.1720 C.ar  1 <1>  -0.1500 
 22 C       -7.6920    -0.8900    -0.4610 C.ar  1 <1>  -0.1500 
 23 C       -7.2490    -0.3540    -3.1400 C.ar  1 <1>  -0.1500 
 24 C       -8.4190    -1.5570    -1.4310 C.ar  1 <1>  -0.1500 
 25 C       -8.1970    -1.2910    -2.7700 C.ar  1 <1>  -0.1500 
 26 H       -0.5410    -1.8150     0.1210 H     1 <1>   0.3700 
 27 H        1.6780    -2.8080     1.3880 H     1 <1>   0.0800 
 28 H        2.3460    -1.4540     2.2320 H     1 <1>   0.0800 
 29 H       -2.3670    -1.0940     2.3490 H     1 <1>   0.0800 
 30 H       -3.1180    -2.8270     0.8270 H     1 <1>   0.0800 
 31 H       -2.8390    -1.8110    -0.5630 H     1 <1>   0.0800 
 32 H       -1.8540     0.6290    -0.0970 H     1 <1>   0.0800 
 33 H       -1.5490     1.0480     1.5660 H     1 <1>   0.0800 
 34 H        3.0950     0.5030     1.0810 H     1 <1>   0.1500 
 35 H       -4.8660    -1.3520     1.6340 H     1 <1>   0.0800 
 36 H       -5.2040    -1.8040    -0.0220 H     1 <1>   0.0800 
 37 H       -3.6440     2.0520     0.7380 H     1 <1>   0.0800 
 38 H       -3.9130     0.9770     2.0920 H     1 <1>   0.0800 
 39 H        1.6200    -1.3780    -3.2140 H     1 <1>   0.1500 
 40 H        3.7080     1.5920    -1.0210 H     1 <1>   0.1500 
 41 H       -4.2260     0.2420    -0.7520 H     1 <1>   0.4500 
 42 H        0.2820    -4.5140    -1.8660 H     1 <1>   0.0800 
 43 H        1.7820    -3.8210    -2.4720 H     1 <1>   0.0800 
 44 H        0.2220    -3.1360    -2.9590 H     1 <1>   0.0800 
 45 H        2.9730     0.6450    -3.1660 H     1 <1>   0.1500 
 46 H       -5.8960     1.8130     0.0090 H     1 <1>   0.0800 
 47 H       -6.3750     0.6260     1.2020 H     1 <1>   0.0800 
 48 H       -5.7960     1.0460    -2.4870 H     1 <1>   0.1500 
 49 H       -7.8880    -1.1110     0.5750 H     1 <1>   0.1500 
 50 H       -7.0860    -0.1460    -4.1840 H     1 <1>   0.1500 
 51 H       -9.1640    -2.2830    -1.1480 H     1 <1>   0.1500 
 52 H       -8.7650    -1.8100    -3.5240 H     1 <1>   0.1500 
@<TRIPOS>BOND
  1   1   2  2   
  2   2   3  am  
  3   2   4  1   
  4   3   5  1   
  5   3  26  1   
  6   4   6  1   
  7   4  27  1   
  8   4  28  1   
  9   5   7  1   
 10   5   8  1   
 11   5  29  1   
 12   6   9  ar  
 13   6  10  ar  
 14   7  11  1   
 15   7  30  1   
 16   7  31  1   
 17   8  12  1   
 18   8  32  1   
 19   8  33  1   
 20   9  13  1   
 21   9  14  ar  
 22  10  15  ar  
 23  10  34  1   
 24  11  16  1   
 25  11  35  1   
 26  11  36  1   
 27  12  16  1   
 28  12  37  1   
 29  12  38  1   
 30  13  17  1   
 31  14  18  ar  
 32  14  39  1   
 33  15  18  ar  
 34  15  40  1   
 35  16  19  1   
 36  16  41  1   
 37  17  42  1   
 38  17  43  1   
 39  17  44  1   
 40  18  45  1   
 41  19  20  1   
 42  19  46  1   
 43  19  47  1   
 44  20  21  ar  
 45  20  22  ar  
 46  21  23  ar  
 47  21  48  1   
 48  22  24  ar  
 49  22  49  1   
 50  23  25  ar  
 51  23  50  1   
 52  24  25  ar  
 53  24  51  1   
 54  25  52  1   
@<TRIPOS>SUBSTRUCTURE
  1 ****   7 GROUP 4 **** **** 0

# MOE 2024.06 (io_trps.svl 2023.06)
