@<TRIPOS>MOLECULE
NONAME
48 50 1 0 0 
SMALL
USER_CHARGES


@<TRIPOS>ATOM
  1 O       -0.5260    -0.6470    -0.8840 O.3   1 <1>  -0.3630 
  2 C       -1.4440    -1.0580     0.0470 C.ar  1 <1>   0.0830 
  3 C       -0.7310     0.5190    -1.6480 C.3   1 <1>   0.1200 
  4 C       -1.1700    -2.2280     0.7810 C.ar  1 <1>   0.1000 
  5 C       -2.6240    -0.3600     0.2830 C.ar  1 <1>  -0.1500 
  6 C        0.4680     0.6940    -2.5750 C.3   1 <1>  -0.2400 
  7 N       -0.0110    -3.0010     0.6180 N.pl3 1 <1>  -0.8380 
  8 C       -2.0910    -2.6540     1.7270 C.ar  1 <1>  -0.1500 
  9 C       -3.5280    -0.8060     1.2330 C.ar  1 <1>  -0.1500 
 10 C        1.2470    -2.3210     1.0470 C.3   1 <1>   0.2090 
 11 C        0.0950    -3.6770    -0.7080 C.3   1 <1>   0.2090 
 12 C       -3.2610    -1.9540     1.9550 C.ar  1 <1>  -0.1500 
 13 C        2.4420    -3.2940     1.0050 C.3   1 <1>   0.3430 
 14 C        1.2950    -4.6450    -0.7390 C.3   1 <1>   0.3430 
 15 N        2.5850    -3.9760    -0.3360 N.4   1 <1>  -0.9590 
 16 C        3.7310    -4.9220    -0.3570 C.3   1 <1>   0.4860 
 17 C        5.0100    -4.1460    -0.1070 C.ar  1 <1>  -0.1430 
 18 C        5.5250    -3.3110    -1.0900 C.ar  1 <1>  -0.1500 
 19 C        5.6730    -4.2650     1.1090 C.ar  1 <1>  -0.1500 
 20 C        6.6840    -2.5930    -0.8540 C.ar  1 <1>  -0.1500 
 21 C        6.8330    -3.5480     1.3450 C.ar  1 <1>  -0.1500 
 22 C        7.3330    -2.7120     0.3610 C.ar  1 <1>   0.0830 
 23 O        8.4550    -2.0100     0.5690 O.3   1 <1>  -0.5330 
 24 H       -0.8170     1.3570    -0.9770 H     1 <1>   0.0800 
 25 H       -1.6370     0.4010    -2.2170 H     1 <1>   0.0800 
 26 H       -2.8700     0.5350    -0.2560 H     1 <1>   0.1500 
 27 H        1.3700     0.8030    -1.9990 H     1 <1>   0.0800 
 28 H        0.3370     1.5780    -3.1720 H     1 <1>   0.0800 
 29 H        0.5550    -0.1520    -3.2330 H     1 <1>   0.0800 
 30 H       -1.8840    -3.5460     2.2890 H     1 <1>   0.1500 
 31 H       -4.4390    -0.2600     1.4090 H     1 <1>   0.1500 
 32 H        1.1220    -1.9520     2.0510 H     1 <1>   0.0800 
 33 H        1.4470    -1.4770     0.4100 H     1 <1>   0.0800 
 34 H        0.2030    -2.9450    -1.4890 H     1 <1>   0.0800 
 35 H       -0.8130    -4.2260    -0.8950 H     1 <1>   0.0800 
 36 H       -3.9630    -2.3020     2.6940 H     1 <1>   0.1500 
 37 H        2.2960    -4.0340     1.7740 H     1 <1>   0.0800 
 38 H        3.3420    -2.7480     1.2380 H     1 <1>   0.0800 
 39 H        1.3860    -5.0550    -1.7310 H     1 <1>   0.0800 
 40 H        1.0820    -5.4560    -0.0620 H     1 <1>   0.0800 
 41 H        2.7880    -3.2330    -1.0150 H     1 <1>   0.4500 
 42 H        3.7940    -5.4090    -1.3170 H     1 <1>   0.0800 
 43 H        3.6050    -5.6780     0.4010 H     1 <1>   0.0800 
 44 H        5.0440    -3.2100    -2.0480 H     1 <1>   0.1500 
 45 H        5.3000    -4.9150     1.8830 H     1 <1>   0.1500 
 46 H        7.0960    -1.9420    -1.6060 H     1 <1>   0.1500 
 47 H        7.3450    -3.6430     2.2860 H     1 <1>   0.1500 
 48 H        8.8760    -2.1820     1.4310 H     1 <1>   0.4500 
@<TRIPOS>BOND
  1   1   2  1   
  2   1   3  1   
  3   2   4  ar  
  4   2   5  ar  
  5   3   6  1   
  6   3  24  1   
  7   3  25  1   
  8   4   7  1   
  9   4   8  ar  
 10   5   9  ar  
 11   5  26  1   
 12   6  27  1   
 13   6  28  1   
 14   6  29  1   
 15   7  10  1   
 16   7  11  1   
 17   8  12  ar  
 18   8  30  1   
 19   9  12  ar  
 20   9  31  1   
 21  10  13  1   
 22  10  32  1   
 23  10  33  1   
 24  11  14  1   
 25  11  34  1   
 26  11  35  1   
 27  12  36  1   
 28  13  15  1   
 29  13  37  1   
 30  13  38  1   
 31  14  15  1   
 32  14  39  1   
 33  14  40  1   
 34  15  16  1   
 35  15  41  1   
 36  16  17  1   
 37  16  42  1   
 38  16  43  1   
 39  17  18  ar  
 40  17  19  ar  
 41  18  20  ar  
 42  18  44  1   
 43  19  21  ar  
 44  19  45  1   
 45  20  22  ar  
 46  20  46  1   
 47  21  22  ar  
 48  21  47  1   
 49  22  23  1   
 50  23  48  1   
@<TRIPOS>SUBSTRUCTURE
  1 ****  10 GROUP 4 **** **** 0

# MOE 2024.06 (io_trps.svl 2023.06)
