@<TRIPOS>MOLECULE
NONAME
42 45 1 0 0 
SMALL
USER_CHARGES


@<TRIPOS>ATOM
  1 S       -0.1670    -0.6890     0.1810 S.3   1 <1>  -0.0800 
  2 C        1.2160     0.3670     0.2910 C.ar  1 <1>   0.2970 
  3 C       -1.2660     0.6730     0.3150 C.2   1 <1>  -0.1400 
  4 N        2.4610    -0.1200     0.2820 N.ar  1 <1>  -0.5670 
  5 C        0.8480     1.6840     0.3770 C.ar  1 <1>   0.0000 
  6 C       -0.5970     1.8320     0.4470 C.2   1 <1>  -0.1810 
  7 C       -2.7520     0.3770     0.2650 C.3   1 <1>   0.0200 
  8 C        3.4060     0.7580     0.3710 C.ar  1 <1>   0.5280 
  9 C        1.9170     2.6110     0.3530 C.ar  1 <1>   0.4610 
 10 C       -1.3670     3.1270     0.6770 C.3   1 <1>   0.0210 
 11 C       -3.4280     1.1770    -0.8580 C.3   1 <1>  -0.1600 
 12 N        3.1850     2.1200     0.4460 N.ar  1 <1>  -0.2100 
 13 C        4.8270     0.1960     0.3620 C.3   1 <1>  -0.0170 
 14 N        1.6910     3.9280     0.1820 N.pl3 1 <1>  -0.9000 
 15 C       -2.2470     3.4770    -0.5310 C.3   1 <1>  -0.1600 
 16 C       -3.5680     2.6850    -0.5800 C.3   1 <1>  -0.1600 
 17 C        4.3490     3.0400     0.6180 C.3   1 <1>   0.3280 
 18 C        5.6220     0.6040    -0.8900 C.3   1 <1>  -0.1600 
 19 C        5.1810     3.1420    -0.6670 C.3   1 <1>  -0.1600 
 20 C        6.2160     2.0170    -0.8180 C.3   1 <1>  -0.1600 
 21 H       -3.2030     0.6050     1.2140 H     1 <1>   0.0800 
 22 H       -2.8960    -0.6730     0.0770 H     1 <1>   0.0800 
 23 H       -0.7160     3.9450     0.9030 H     1 <1>   0.0800 
 24 H       -1.9940     3.0050     1.5430 H     1 <1>   0.0800 
 25 H       -4.4160     0.7740    -1.0010 H     1 <1>   0.0800 
 26 H       -2.8880     1.0260    -1.7770 H     1 <1>   0.0800 
 27 H        4.7610    -0.8800     0.3670 H     1 <1>   0.0800 
 28 H        5.3520     0.4680     1.2590 H     1 <1>   0.0800 
 29 H        2.3890     4.6700     0.0930 H     1 <1>   0.4000 
 30 H        0.7400     4.2800     0.0240 H     1 <1>   0.4000 
 31 H       -1.6970     3.3290    -1.4440 H     1 <1>   0.0800 
 32 H       -2.4980     4.5220    -0.4710 H     1 <1>   0.0800 
 33 H       -4.1110     2.8300     0.3390 H     1 <1>   0.0800 
 34 H       -4.1720     3.1060    -1.3660 H     1 <1>   0.0800 
 35 H        4.9640     2.7010     1.4330 H     1 <1>   0.0800 
 36 H        4.0130     4.0230     0.8950 H     1 <1>   0.0800 
 37 H        4.9990     0.5080    -1.7650 H     1 <1>   0.0800 
 38 H        6.4380    -0.0890    -1.0110 H     1 <1>   0.0800 
 39 H        5.7240     4.0720    -0.6370 H     1 <1>   0.0800 
 40 H        4.5370     3.1810    -1.5290 H     1 <1>   0.0800 
 41 H        6.7780     2.1920    -1.7210 H     1 <1>   0.0800 
 42 H        6.9210     2.0630    -0.0030 H     1 <1>   0.0800 
@<TRIPOS>BOND
  1   1   2  1   
  2   1   3  1   
  3   2   4  ar  
  4   2   5  ar  
  5   3   6  2   
  6   3   7  1   
  7   4   8  ar  
  8   5   6  1   
  9   5   9  ar  
 10   6  10  1   
 11   7  11  1   
 12   7  21  1   
 13   7  22  1   
 14   8  12  ar  
 15   8  13  1   
 16   9  12  ar  
 17   9  14  1   
 18  10  15  1   
 19  10  23  1   
 20  10  24  1   
 21  11  16  1   
 22  11  25  1   
 23  11  26  1   
 24  12  17  1   
 25  13  18  1   
 26  13  27  1   
 27  13  28  1   
 28  14  29  1   
 29  14  30  1   
 30  15  16  1   
 31  15  31  1   
 32  15  32  1   
 33  16  33  1   
 34  16  34  1   
 35  17  19  1   
 36  17  35  1   
 37  17  36  1   
 38  18  20  1   
 39  18  37  1   
 40  18  38  1   
 41  19  20  1   
 42  19  39  1   
 43  19  40  1   
 44  20  41  1   
 45  20  42  1   
@<TRIPOS>SUBSTRUCTURE
  1 ****   5 GROUP 4 **** **** 0

# MOE 2024.06 (io_trps.svl 2023.06)
