@<TRIPOS>MOLECULE
NONAME
34 34 1 0 0 
SMALL
USER_CHARGES


@<TRIPOS>ATOM
  1 S       -0.1830    -0.0230    -0.7590 S.3   1 <1>  -0.3320 
  2 C       -0.1080    -1.7780    -0.4470 C.ar  1 <1>   0.7220 
  3 C        1.5850     0.4590    -1.0430 C.3   1 <1>   0.1310 
  4 N        1.0750    -2.3100    -0.4770 N.ar  1 <1>  -0.6200 
  5 N       -1.2500    -2.3430    -0.2150 N.ar  1 <1>  -0.6200 
  6 C        1.7080     1.9560    -1.2640 C.2   1 <1>   0.4480 
  7 C        1.0540    -3.6010    -0.2420 C.ar  1 <1>   0.7200 
  8 C       -1.1430    -3.6310     0.0110 C.ar  1 <1>   0.7200 
  9 O        2.2850     2.3990    -2.2100 O.2   1 <1>  -0.5700 
 10 C        1.1090     2.8790    -0.2220 C.3   1 <1>  -0.1790 
 11 N       -0.0200    -4.3050     0.0070 N.ar  1 <1>  -0.6200 
 12 N        2.2640    -4.2630    -0.2620 N.pl3 1 <1>  -0.8380 
 13 N       -2.3070    -4.3250     0.2720 N.pl3 1 <1>  -0.8380 
 14 C        2.3500    -5.7520    -0.2840 C.3   1 <1>   0.1290 
 15 C        3.5750    -3.5540    -0.2520 C.3   1 <1>   0.1290 
 16 C       -3.6020    -3.6390     0.5430 C.3   1 <1>   0.1290 
 17 C       -2.3560    -5.8150     0.3060 C.3   1 <1>   0.1290 
 18 H        1.9270    -0.0800    -1.9080 H     1 <1>   0.0800 
 19 H        2.1440     0.1560    -0.1770 H     1 <1>   0.0800 
 20 H        1.4230     2.5820     0.7610 H     1 <1>   0.0800 
 21 H        0.0370     2.8500    -0.2790 H     1 <1>   0.0800 
 22 H        1.4350     3.8870    -0.4030 H     1 <1>   0.0800 
 23 H        1.4820    -6.1760    -0.7600 H     1 <1>   0.0800 
 24 H        2.4100    -6.1230     0.7250 H     1 <1>   0.0800 
 25 H        3.2210    -6.0660    -0.8310 H     1 <1>   0.0800 
 26 H        3.4820    -2.5880     0.2130 H     1 <1>   0.0800 
 27 H        3.9230    -3.4260    -1.2620 H     1 <1>   0.0800 
 28 H        4.2990    -4.1250     0.3030 H     1 <1>   0.0800 
 29 H       -3.4360    -2.6700     0.9830 H     1 <1>   0.0800 
 30 H       -4.1940    -4.2210     1.2280 H     1 <1>   0.0800 
 31 H       -4.1440    -3.5160    -0.3790 H     1 <1>   0.0800 
 32 H       -1.5940    -6.2360    -0.3280 H     1 <1>   0.0800 
 33 H       -3.3130    -6.1610    -0.0450 H     1 <1>   0.0800 
 34 H       -2.2010    -6.1570     1.3140 H     1 <1>   0.0800 
@<TRIPOS>BOND
  1   1   2  1   
  2   1   3  1   
  3   2   4  ar  
  4   2   5  ar  
  5   3   6  1   
  6   3  18  1   
  7   3  19  1   
  8   4   7  ar  
  9   5   8  ar  
 10   6   9  2   
 11   6  10  1   
 12   7  11  ar  
 13   7  12  1   
 14   8  11  ar  
 15   8  13  1   
 16  10  20  1   
 17  10  21  1   
 18  10  22  1   
 19  12  14  1   
 20  12  15  1   
 21  13  16  1   
 22  13  17  1   
 23  14  23  1   
 24  14  24  1   
 25  14  25  1   
 26  15  26  1   
 27  15  27  1   
 28  15  28  1   
 29  16  29  1   
 30  16  30  1   
 31  16  31  1   
 32  17  32  1   
 33  17  33  1   
 34  17  34  1   
@<TRIPOS>SUBSTRUCTURE
  1 ****   2 GROUP 4 **** **** 0

# MOE 2024.06 (io_trps.svl 2023.06)
