@<TRIPOS>MOLECULE
NONAME
36 37 1 0 0 
SMALL
USER_CHARGES


@<TRIPOS>ATOM
  1 CL       0.9770     0.7040    -2.2530 Cl    1 <1>  -0.1770 
  2 C        2.3750     1.2000    -1.3350 C.ar  1 <1>   0.1770 
  3 C        2.2440     2.1970    -0.3860 C.ar  1 <1>  -0.1500 
  4 C        3.5920     0.5890    -1.5690 C.ar  1 <1>  -0.1500 
  5 C        3.3550     2.5870     0.3420 C.ar  1 <1>  -0.1500 
  6 C        4.7000     0.9840    -0.8380 C.ar  1 <1>  -0.1500 
  7 C        4.5850     1.9820     0.1210 C.ar  1 <1>  -0.1430 
  8 C        5.8000     2.4100     0.9280 C.3   1 <1>   0.2140 
  9 S        6.3230     4.0490     0.3430 S.3   1 <1>  -0.4600 
 10 C        7.7370     4.4390     1.4320 C.3   1 <1>   0.1310 
 11 C        8.7590     3.3080     1.4330 C.2   1 <1>   0.5690 
 12 O        8.7540     2.5760     2.3970 O.2   1 <1>  -0.5700 
 13 N        9.6310     3.1210     0.3870 N.am  1 <1>  -0.6600 
 14 C        9.6030     3.8850    -0.8940 C.3   1 <1>   0.1400 
 15 C       10.6870     2.0720     0.4360 C.3   1 <1>   0.1400 
 16 C       10.9630     4.5500    -1.1250 C.3   1 <1>  -0.1600 
 17 C       12.0610     2.7140     0.2140 C.3   1 <1>  -0.1600 
 18 C       12.1060     3.5250    -1.0890 C.3   1 <1>  -0.1600 
 19 H        1.2880     2.6600    -0.2240 H     1 <1>   0.1500 
 20 H        3.6680    -0.1820    -2.3140 H     1 <1>   0.1500 
 21 H        3.2640     3.3680     1.0780 H     1 <1>   0.1500 
 22 H        5.6510     0.5140    -1.0200 H     1 <1>   0.1500 
 23 H        6.6250     1.7340     0.7900 H     1 <1>   0.0800 
 24 H        5.5680     2.4960     1.9750 H     1 <1>   0.0800 
 25 H        7.3410     4.5800     2.4210 H     1 <1>   0.0800 
 26 H        8.1730     5.3580     1.0880 H     1 <1>   0.0800 
 27 H        8.8320     4.6340    -0.8930 H     1 <1>   0.0800 
 28 H        9.3920     3.2020    -1.6990 H     1 <1>   0.0800 
 29 H       10.4930     1.3430    -0.3320 H     1 <1>   0.0800 
 30 H       10.6790     1.5650     1.3870 H     1 <1>   0.0800 
 31 H       11.1210     5.2960    -0.3660 H     1 <1>   0.0800 
 32 H       10.9570     5.0490    -2.0780 H     1 <1>   0.0800 
 33 H       12.8120     1.9440     0.1870 H     1 <1>   0.0800 
 34 H       12.2810     3.3550     1.0500 H     1 <1>   0.0800 
 35 H       13.0530     4.0300    -1.1720 H     1 <1>   0.0800 
 36 H       12.0110     2.8560    -1.9280 H     1 <1>   0.0800 
@<TRIPOS>BOND
  1   1   2  1   
  2   2   3  ar  
  3   2   4  ar  
  4   3   5  ar  
  5   3  19  1   
  6   4   6  ar  
  7   4  20  1   
  8   5   7  ar  
  9   5  21  1   
 10   6   7  ar  
 11   6  22  1   
 12   7   8  1   
 13   8   9  1   
 14   8  23  1   
 15   8  24  1   
 16   9  10  1   
 17  10  11  1   
 18  10  25  1   
 19  10  26  1   
 20  11  12  2   
 21  11  13  am  
 22  13  14  1   
 23  13  15  1   
 24  14  16  1   
 25  14  27  1   
 26  14  28  1   
 27  15  17  1   
 28  15  29  1   
 29  15  30  1   
 30  16  18  1   
 31  16  31  1   
 32  16  32  1   
 33  17  18  1   
 34  17  33  1   
 35  17  34  1   
 36  18  35  1   
 37  18  36  1   
@<TRIPOS>SUBSTRUCTURE
  1 ****   8 GROUP 4 **** **** 0

# MOE 2024.06 (io_trps.svl 2023.06)
