@<TRIPOS>MOLECULE
NONAME
28 30 1 0 0 
SMALL
USER_CHARGES


@<TRIPOS>ATOM
  1 O       -0.4590     0.0810     0.2370 O.2   1 <1>  -0.5700 
  2 C       -0.6890     1.2140    -0.1000 C.2   1 <1>   0.5690 
  3 N        0.0830     2.3020     0.1930 N.am  1 <1>  -0.4200 
  4 C       -1.9110     1.6020    -0.9200 C.3   1 <1>  -0.0190 
  5 C       -0.4170     3.4860    -0.2720 C.2   1 <1>   0.5690 
  6 C        1.3560     2.2040     0.9260 C.3   1 <1>   0.2780 
  7 C       -1.7090     3.2780    -1.0480 C.3   1 <1>  -0.0190 
  8 C       -3.3830     1.3470    -0.2040 C.3   1 <1>   0.0580 
  9 O        0.0720     4.5720    -0.0950 O.2   1 <1>  -0.5700 
 10 C        2.4510     1.7830    -0.0370 C.2   1 <1>  -0.2880 
 11 C       -3.0670     3.9770    -0.4060 C.3   1 <1>   0.0580 
 12 C       -4.7010     2.1780     0.2390 C.2   1 <1>  -0.2880 
 13 C       -3.1280     2.6480    -0.3380 C.3   1 <1>  -0.1600 
 14 C        3.4840     2.5440    -0.4100 C.2   1 <1>  -0.3000 
 15 C       -4.5350     3.5560     0.1340 C.2   1 <1>  -0.2880 
 16 H       -1.8530     1.1200    -1.8830 H     1 <1>   0.0800 
 17 H        1.2630     1.4800     1.7180 H     1 <1>   0.0800 
 18 H        1.5950     3.1580     1.3650 H     1 <1>   0.0800 
 19 H       -1.5550     3.5830    -2.0710 H     1 <1>   0.0800 
 20 H       -3.1300     0.8120     0.7020 H     1 <1>   0.0800 
 21 H        2.3060     0.7790    -0.4020 H     1 <1>   0.1500 
 22 H       -2.6780     4.5680     0.4140 H     1 <1>   0.0800 
 23 H       -5.5670     1.6290     0.5700 H     1 <1>   0.1500 
 24 H       -2.7070     2.6810     0.7550 H     1 <1>   0.0800 
 25 H       -3.6240     2.6230    -1.4490 H     1 <1>   0.0800 
 26 H        4.2500     2.2220    -1.0950 H     1 <1>   0.1500 
 27 H        3.6510     3.5510    -0.0670 H     1 <1>   0.1500 
 28 H       -5.2410     4.3380     0.3620 H     1 <1>   0.1500 
@<TRIPOS>BOND
  1   1   2  2   
  2   2   3  am  
  3   2   4  1   
  4   3   5  am  
  5   3   6  1   
  6   4   7  1   
  7   4   8  1   
  8   4  16  1   
  9   5   7  1   
 10   5   9  2   
 11   6  10  1   
 12   6  17  1   
 13   6  18  1   
 14   7  11  1   
 15   7  19  1   
 16   8  12  1   
 17   8  13  1   
 18   8  20  1   
 19  10  14  2   
 20  10  21  1   
 21  11  13  1   
 22  11  15  1   
 23  11  22  1   
 24  12  15  2   
 25  12  23  1   
 26  13  24  1   
 27  13  25  1   
 28  14  26  1   
 29  14  27  1   
 30  15  28  1   
@<TRIPOS>SUBSTRUCTURE
  1 ****   3 GROUP 4 **** **** 0

# MOE 2024.06 (io_trps.svl 2023.06)
