@<TRIPOS>MOLECULE
NONAME
48 50 1 0 0 
SMALL
USER_CHARGES


@<TRIPOS>ATOM
  1 O        0.4060     0.7600     0.9500 O.2   1 <1>  -0.5700 
  2 C        0.7730     1.6680     0.2280 C.2   1 <1>   0.5440 
  3 N        2.1030     1.7380    -0.1300 N.am  1 <1>  -0.6600 
  4 C       -0.1960     2.6500    -0.2200 C.ar  1 <1>   0.0860 
  5 C        2.7840     2.9900    -0.5780 C.3   1 <1>   0.1400 
  6 C        3.0550     0.6130     0.1260 C.3   1 <1>   0.1400 
  7 C       -1.0820     3.2460     0.6750 C.ar  1 <1>  -0.1500 
  8 C       -0.2930     3.0340    -1.5560 C.ar  1 <1>  -0.1500 
  9 C        3.9770     3.3170     0.3380 C.3   1 <1>   0.1200 
 10 C        4.2260     1.0830     1.0040 C.3   1 <1>   0.1200 
 11 C       -2.0020     4.1910     0.2620 C.ar  1 <1>  -0.1500 
 12 C       -1.2120     3.9790    -1.9690 C.ar  1 <1>  -0.1500 
 13 O        4.8330     2.2170     0.4500 O.3   1 <1>  -0.5600 
 14 C       -2.0940     4.5900    -1.0750 C.ar  1 <1>   0.0860 
 15 C       -3.0510     5.5820    -1.5300 C.2   1 <1>   0.3980 
 16 O       -2.9900     6.0220    -2.6600 O.2   1 <1>  -0.5700 
 17 C       -4.0860     6.0520    -0.6320 C.ar  1 <1>   0.0860 
 18 C       -3.9370     7.2570     0.0660 C.ar  1 <1>  -0.1430 
 19 C       -5.2480     5.3000    -0.4200 C.ar  1 <1>  -0.1430 
 20 C       -4.9110     7.6780     0.9550 C.ar  1 <1>  -0.1500 
 21 C       -2.7040     8.1270    -0.1450 C.3   1 <1>  -0.0970 
 22 C       -6.2110     5.7350     0.4750 C.ar  1 <1>  -0.1500 
 23 C       -5.4790     3.9940    -1.1710 C.3   1 <1>  -0.0970 
 24 C       -6.0470     6.9200     1.1690 C.ar  1 <1>  -0.1430 
 25 C       -7.1100     7.3900     2.1460 C.3   1 <1>  -0.0970 
 26 H        2.1030     3.8220    -0.5660 H     1 <1>   0.0800 
 27 H        3.1390     2.8600    -1.5850 H     1 <1>   0.0800 
 28 H        3.4400     0.2570    -0.8130 H     1 <1>   0.0800 
 29 H        2.5570    -0.2090     0.6090 H     1 <1>   0.0800 
 30 H       -1.0410     2.9530     1.7100 H     1 <1>   0.1500 
 31 H        0.3620     2.5780    -2.2780 H     1 <1>   0.1500 
 32 H        3.6350     3.5890     1.3220 H     1 <1>   0.0800 
 33 H        4.5450     4.1350    -0.0690 H     1 <1>   0.0800 
 34 H        4.9710     0.3110     1.0720 H     1 <1>   0.0800 
 35 H        3.8820     1.3210     1.9950 H     1 <1>   0.0800 
 36 H       -2.6610     4.6220     0.9970 H     1 <1>   0.1500 
 37 H       -1.2560     4.2540    -3.0100 H     1 <1>   0.1500 
 38 H       -4.7890     8.6050     1.4870 H     1 <1>   0.1500 
 39 H       -1.8180     7.5960     0.1530 H     1 <1>   0.0800 
 40 H       -2.7650     9.0340     0.4290 H     1 <1>   0.0800 
 41 H       -2.6170     8.3940    -1.1840 H     1 <1>   0.0800 
 42 H       -7.1000     5.1520     0.6340 H     1 <1>   0.1500 
 43 H       -4.7840     3.2450    -0.8380 H     1 <1>   0.0800 
 44 H       -5.3470     4.1470    -2.2280 H     1 <1>   0.0800 
 45 H       -6.4770     3.6270    -1.0110 H     1 <1>   0.0800 
 46 H       -6.6650     7.9630     2.9390 H     1 <1>   0.0800 
 47 H       -7.6210     6.5500     2.5810 H     1 <1>   0.0800 
 48 H       -7.8270     8.0060     1.6330 H     1 <1>   0.0800 
@<TRIPOS>BOND
  1   1   2  2   
  2   2   3  am  
  3   2   4  1   
  4   3   5  1   
  5   3   6  1   
  6   4   7  ar  
  7   4   8  ar  
  8   5   9  1   
  9   5  26  1   
 10   5  27  1   
 11   6  10  1   
 12   6  28  1   
 13   6  29  1   
 14   7  11  ar  
 15   7  30  1   
 16   8  12  ar  
 17   8  31  1   
 18   9  13  1   
 19   9  32  1   
 20   9  33  1   
 21  10  13  1   
 22  10  34  1   
 23  10  35  1   
 24  11  14  ar  
 25  11  36  1   
 26  12  14  ar  
 27  12  37  1   
 28  14  15  1   
 29  15  16  2   
 30  15  17  1   
 31  17  18  ar  
 32  17  19  ar  
 33  18  20  ar  
 34  18  21  1   
 35  19  22  ar  
 36  19  23  1   
 37  20  24  ar  
 38  20  38  1   
 39  21  39  1   
 40  21  40  1   
 41  21  41  1   
 42  22  24  ar  
 43  22  42  1   
 44  23  43  1   
 45  23  44  1   
 46  23  45  1   
 47  24  25  1   
 48  25  46  1   
 49  25  47  1   
 50  25  48  1   
@<TRIPOS>SUBSTRUCTURE
  1 ****  11 GROUP 4 **** **** 0

# MOE 2024.06 (io_trps.svl 2023.06)
