@<TRIPOS>MOLECULE
NONAME
53 55 1 0 0 
SMALL
USER_CHARGES


@<TRIPOS>ATOM
  1 O       -0.4930    -0.8420     0.6840 O.2   1 <1>  -0.5700 
  2 C       -1.6500    -1.1080     0.4570 C.2   1 <1>   0.6900 
  3 N       -2.6970    -0.4190     1.0500 N.am  1 <1>  -0.4360 
  4 N       -1.9250    -2.1230    -0.4130 N.am  1 <1>  -0.4900 
  5 C       -3.9890    -0.8100     0.7280 C.2   1 <1>   0.4260 
  6 C       -2.4480     0.6930     2.0130 C.3   1 <1>   0.0600 
  7 C       -3.1880    -2.5180    -0.7470 C.2   1 <1>   0.7030 
  8 N       -5.1570    -0.2950     1.1850 N.pl3 1 <1>  -0.7000 
  9 C       -4.2820    -1.8170    -0.1350 C.2   1 <1>   0.2770 
 10 O       -3.3270    -3.4300    -1.5370 O.2   1 <1>  -0.5700 
 11 C       -6.1570    -0.9650     0.6220 C.cat 1 <1>   0.6560 
 12 N       -5.6770    -1.9000    -0.1950 N.pl3 1 <1>  -0.7640 
 13 C       -7.6280    -0.6460     0.9230 C.3   1 <1>   0.2540 
 14 C       -6.4120    -2.8810    -1.0380 C.3   1 <1>   0.3540 
 15 N       -7.8550     0.7950     1.2420 N.3   1 <1>  -0.8100 
 16 C       -6.5650    -4.1940    -0.2690 C.3   1 <1>  -0.1600 
 17 C       -9.2260     1.0070     1.7690 C.3   1 <1>   0.1100 
 18 C       -7.6920     1.6790     0.0590 C.3   1 <1>   0.1100 
 19 C       -7.3420    -5.2340    -1.0860 C.3   1 <1>  -0.1600 
 20 C      -10.3490     0.9360     0.6940 C.3   1 <1>   0.2000 
 21 C       -8.7990     1.5220    -1.0210 C.3   1 <1>   0.2000 
 22 C       -7.4930    -6.5420    -0.3050 C.3   1 <1>  -0.2400 
 23 O       -9.8360     0.6870    -0.5880 O.3   1 <1>  -0.5600 
 24 C      -11.2200     2.1950     0.6480 C.3   1 <1>  -0.2400 
 25 C       -8.2640     0.9100    -2.3140 C.3   1 <1>  -0.2400 
 26 H       -1.1330    -2.6070    -0.8310 H     1 <1>   0.3700 
 27 H       -1.3970     0.9180     2.0770 H     1 <1>   0.0800 
 28 H       -2.7960     0.4120     2.9920 H     1 <1>   0.0800 
 29 H       -2.9640     1.5800     1.6900 H     1 <1>   0.0800 
 30 H       -5.3160     0.4850     1.8290 H     1 <1>   0.4500 
 31 H       -7.9150    -1.2380     1.7740 H     1 <1>   0.0800 
 32 H       -8.2380    -0.9550     0.0960 H     1 <1>   0.0800 
 33 H       -5.8730    -3.0530    -1.9550 H     1 <1>   0.0800 
 34 H       -7.3840    -2.4940    -1.2950 H     1 <1>   0.0800 
 35 H       -7.0850    -4.0120     0.6550 H     1 <1>   0.0800 
 36 H       -5.5890    -4.5880    -0.0430 H     1 <1>   0.0800 
 37 H       -9.2610     1.9760     2.2370 H     1 <1>   0.0800 
 38 H       -9.4370     0.2950     2.5480 H     1 <1>   0.0800 
 39 H       -6.7230     1.5380    -0.3860 H     1 <1>   0.0800 
 40 H       -7.7160     2.7010     0.3990 H     1 <1>   0.0800 
 41 H       -6.8230    -5.4370    -2.0090 H     1 <1>   0.0800 
 42 H       -8.3220    -4.8580    -1.3300 H     1 <1>   0.0800 
 43 H      -10.9890     0.1020     0.9270 H     1 <1>   0.0800 
 44 H       -9.2200     2.4870    -1.2480 H     1 <1>   0.0800 
 45 H       -6.5280    -6.9570    -0.0710 H     1 <1>   0.0800 
 46 H       -8.0350    -7.2620    -0.8950 H     1 <1>   0.0800 
 47 H       -8.0330    -6.3800     0.6110 H     1 <1>   0.0800 
 48 H      -10.6260     3.0760     0.4850 H     1 <1>   0.0800 
 49 H      -11.7400     2.3110     1.5810 H     1 <1>   0.0800 
 50 H      -11.9510     2.1060    -0.1360 H     1 <1>   0.0800 
 51 H       -7.8510    -0.0640    -2.1330 H     1 <1>   0.0800 
 52 H       -7.5000     1.5400    -2.7320 H     1 <1>   0.0800 
 53 H       -9.0620     0.8290    -3.0310 H     1 <1>   0.0800 
@<TRIPOS>BOND
  1   1   2  2   
  2   2   3  am  
  3   2   4  am  
  4   3   5  1   
  5   3   6  1   
  6   4   7  am  
  7   4  26  1   
  8   5   8  1   
  9   5   9  2   
 10   6  27  1   
 11   6  28  1   
 12   6  29  1   
 13   7   9  1   
 14   7  10  2   
 15   8  11  ar  
 16   8  30  1   
 17   9  12  1   
 18  11  12  ar  
 19  11  13  1   
 20  12  14  1   
 21  13  15  1   
 22  13  31  1   
 23  13  32  1   
 24  14  16  1   
 25  14  33  1   
 26  14  34  1   
 27  15  17  1   
 28  15  18  1   
 29  16  19  1   
 30  16  35  1   
 31  16  36  1   
 32  17  20  1   
 33  17  37  1   
 34  17  38  1   
 35  18  21  1   
 36  18  39  1   
 37  18  40  1   
 38  19  22  1   
 39  19  41  1   
 40  19  42  1   
 41  20  23  1   
 42  20  24  1   
 43  20  43  1   
 44  21  23  1   
 45  21  25  1   
 46  21  44  1   
 47  22  45  1   
 48  22  46  1   
 49  22  47  1   
 50  24  48  1   
 51  24  49  1   
 52  24  50  1   
 53  25  51  1   
 54  25  52  1   
 55  25  53  1   
@<TRIPOS>SUBSTRUCTURE
  1 ****  11 GROUP 4 **** **** 0

# MOE 2024.06 (io_trps.svl 2023.06)
