@<TRIPOS>MOLECULE
NONAME
56 58 1 0 0 
SMALL
USER_CHARGES


@<TRIPOS>ATOM
  1 S       -0.4710    -1.1170    -0.5970 S.o2  1 <1>   1.3330 
  2 O       -1.8980    -1.2540    -0.4390 O.2   1 <1>  -0.6500 
  3 O        0.2400    -1.9400    -1.5460 O.2   1 <1>  -0.6500 
  4 N       -0.1340     0.5320    -0.9800 N.am  1 <1>  -0.6930 
  5 C        0.3090    -1.2810     0.9940 C.3   1 <1>  -0.1350 
  6 C       -0.8560     1.5770    -0.4220 C.ar  1 <1>   0.1990 
  7 C        0.9210     0.8160    -1.9720 C.3   1 <1>   0.3390 
  8 C       -2.1170     1.9000    -0.9030 C.ar  1 <1>  -0.1500 
  9 C       -0.3330     2.3210     0.6260 C.ar  1 <1>  -0.1500 
 10 C        2.2930     0.7690    -1.3100 C.ar  1 <1>  -0.1430 
 11 C       -2.8440     2.9510    -0.3680 C.ar  1 <1>  -0.1430 
 12 C       -1.0480     3.3720     1.1660 C.ar  1 <1>  -0.1500 
 13 C        3.0450    -0.3950    -1.3170 C.ar  1 <1>  -0.1500 
 14 C        2.8080     1.8950    -0.6880 C.ar  1 <1>  -0.1500 
 15 C       -2.3030     3.6980     0.6750 C.ar  1 <1>  -0.1430 
 16 C       -4.2230     3.2570    -0.9350 C.3   1 <1>  -0.0970 
 17 C        4.2810    -0.4350    -0.6990 C.ar  1 <1>  -0.1500 
 18 C        4.0450     1.8500    -0.0720 C.ar  1 <1>  -0.1500 
 19 C       -3.0620     4.8620     1.2950 C.3   1 <1>  -0.0970 
 20 C        4.8140     0.6870    -0.0620 C.ar  1 <1>   0.0860 
 21 C        6.1130     0.6590     0.5880 C.2   1 <1>   0.5440 
 22 O        6.3460     1.3780     1.5400 O.2   1 <1>  -0.5700 
 23 N        7.0980    -0.1670     0.1290 N.am  1 <1>  -0.7300 
 24 C        8.4600    -0.2710     0.6780 C.3   1 <1>   0.2200 
 25 C        9.4510     0.1700    -0.3920 C.3   1 <1>  -0.1600 
 26 C        8.7960    -1.7440     0.8790 C.3   1 <1>  -0.1600 
 27 C        9.6290    -1.0380    -1.3190 C.3   1 <1>  -0.1600 
 28 C        9.2240    -2.2690    -0.4970 C.3   1 <1>  -0.1600 
 29 H        0.1960    -2.2830     1.3570 H     1 <1>   0.0800 
 30 H       -0.1420    -0.6080     1.6960 H     1 <1>   0.0800 
 31 H        1.3550    -1.0550     0.9210 H     1 <1>   0.0800 
 32 H        0.7590     1.7940    -2.3900 H     1 <1>   0.0800 
 33 H        0.8680     0.1060    -2.7790 H     1 <1>   0.0800 
 34 H       -2.5230     1.3070    -1.7010 H     1 <1>   0.1500 
 35 H        0.6330     2.0710     1.0200 H     1 <1>   0.1500 
 36 H       -0.6210     3.9370     1.9770 H     1 <1>   0.1500 
 37 H        2.6690    -1.2810    -1.8020 H     1 <1>   0.1500 
 38 H        2.2460     2.8140    -0.6790 H     1 <1>   0.1500 
 39 H       -4.4770     2.5700    -1.7220 H     1 <1>   0.0800 
 40 H       -4.2440     4.2540    -1.3370 H     1 <1>   0.0800 
 41 H       -4.9650     3.1730    -0.1630 H     1 <1>   0.0800 
 42 H        4.8370    -1.3560    -0.7050 H     1 <1>   0.1500 
 43 H        4.4310     2.7300     0.4140 H     1 <1>   0.1500 
 44 H       -3.9860     4.5140     1.7190 H     1 <1>   0.0800 
 45 H       -3.2760     5.6030     0.5460 H     1 <1>   0.0800 
 46 H       -2.4870     5.3280     2.0740 H     1 <1>   0.0800 
 47 H        6.9620    -0.6850    -0.7370 H     1 <1>   0.3700 
 48 H        8.5550     0.2990     1.5870 H     1 <1>   0.0800 
 49 H       10.3910     0.3860     0.0860 H     1 <1>   0.0800 
 50 H        9.1210     1.0530    -0.9120 H     1 <1>   0.0800 
 51 H        7.9730    -2.2940     1.3000 H     1 <1>   0.0800 
 52 H        9.6320    -1.8100     1.5530 H     1 <1>   0.0800 
 53 H       10.6470    -1.1110    -1.6630 H     1 <1>   0.0800 
 54 H        8.9810    -0.9420    -2.1730 H     1 <1>   0.0800 
 55 H        8.3980    -2.7690    -0.9740 H     1 <1>   0.0800 
 56 H       10.0410    -2.9640    -0.4020 H     1 <1>   0.0800 
@<TRIPOS>BOND
  1   1   2  2   
  2   1   3  2   
  3   1   4  am  
  4   1   5  1   
  5   4   6  1   
  6   4   7  1   
  7   5  29  1   
  8   5  30  1   
  9   5  31  1   
 10   6   8  ar  
 11   6   9  ar  
 12   7  10  1   
 13   7  32  1   
 14   7  33  1   
 15   8  11  ar  
 16   8  34  1   
 17   9  12  ar  
 18   9  35  1   
 19  10  13  ar  
 20  10  14  ar  
 21  11  15  ar  
 22  11  16  1   
 23  12  15  ar  
 24  12  36  1   
 25  13  17  ar  
 26  13  37  1   
 27  14  18  ar  
 28  14  38  1   
 29  15  19  1   
 30  16  39  1   
 31  16  40  1   
 32  16  41  1   
 33  17  20  ar  
 34  17  42  1   
 35  18  20  ar  
 36  18  43  1   
 37  19  44  1   
 38  19  45  1   
 39  19  46  1   
 40  20  21  1   
 41  21  22  2   
 42  21  23  am  
 43  23  24  1   
 44  23  47  1   
 45  24  25  1   
 46  24  26  1   
 47  24  48  1   
 48  25  27  1   
 49  25  49  1   
 50  25  50  1   
 51  26  28  1   
 52  26  51  1   
 53  26  52  1   
 54  27  28  1   
 55  27  53  1   
 56  27  54  1   
 57  28  55  1   
 58  28  56  1   
@<TRIPOS>SUBSTRUCTURE
  1 ****  10 GROUP 4 **** **** 0

# MOE 2024.06 (io_trps.svl 2023.06)
