@<TRIPOS>MOLECULE
NONAME
48 49 1 0 0 
SMALL
USER_CHARGES


@<TRIPOS>ATOM
  1 S       -0.1940    -1.7730     0.6740 S.3   1 <1>  -0.2860 
  2 C        1.5070    -1.2490     0.9170 C.2   1 <1>   0.2420 
  3 C       -1.1450    -0.5010     1.6470 C.3   1 <1>   0.1310 
  4 N        1.8350    -0.2070     1.5910 N.2   1 <1>  -0.3380 
  5 N        2.5470    -1.9090     0.4080 N.pl3 1 <1>   0.0480 
  6 C       -2.6470    -0.7190     1.5530 C.2   1 <1>   0.5690 
  7 N        3.1690    -0.1490     1.5390 N.2   1 <1>  -0.3380 
  8 C        3.5740    -1.1560     0.8350 C.2   1 <1>   0.0060 
  9 C        2.5370    -3.1410    -0.4050 C.3   1 <1>   0.0160 
 10 O       -3.3420    -0.1920     2.3870 O.2   1 <1>  -0.5700 
 11 N       -3.1410    -1.4950     0.5380 N.am  1 <1>  -0.5470 
 12 C        5.0410    -1.4370     0.5400 C.3   1 <1>   0.0200 
 13 C       -4.4550    -1.8430     0.1830 C.ar  1 <1>   0.1170 
 14 C        5.4210    -1.1800    -0.9320 C.3   1 <1>  -0.0800 
 15 C       -4.6530    -2.9640    -0.6160 C.ar  1 <1>  -0.1500 
 16 C       -5.5690    -1.1100     0.5790 C.ar  1 <1>  -0.1500 
 17 C        6.8870    -1.5570    -1.1770 C.3   1 <1>  -0.2400 
 18 C        5.1940     0.2870    -1.3260 C.3   1 <1>  -0.2400 
 19 C       -5.9230    -3.3490    -1.0090 C.ar  1 <1>  -0.1500 
 20 C       -6.8410    -1.4910     0.1900 C.ar  1 <1>  -0.1500 
 21 C       -7.0300    -2.6090    -0.6040 C.ar  1 <1>   0.0830 
 22 O       -8.3110    -2.9120    -0.9400 O.3   1 <1>  -0.3620 
 23 C       -8.6080    -4.0430    -1.7250 C.3   1 <1>   0.1200 
 24 C      -10.1210    -4.1050    -1.9090 C.3   1 <1>  -0.2400 
 25 H       -0.8840     0.4630     1.2530 H     1 <1>   0.0800 
 26 H       -0.8200    -0.5750     2.6680 H     1 <1>   0.0800 
 27 H        2.3140    -2.8880    -1.4260 H     1 <1>   0.0800 
 28 H        1.7860    -3.8120    -0.0300 H     1 <1>   0.0800 
 29 H        3.4950    -3.6230    -0.3540 H     1 <1>   0.0800 
 30 H       -2.4160    -1.9370    -0.0280 H     1 <1>   0.3700 
 31 H        5.2590    -2.4560     0.8030 H     1 <1>   0.0800 
 32 H        5.6430    -0.8090     1.1740 H     1 <1>   0.0800 
 33 H        4.8080    -1.7970    -1.5650 H     1 <1>   0.0800 
 34 H       -3.8070    -3.5450    -0.9330 H     1 <1>   0.1500 
 35 H       -5.4520    -0.2350     1.1910 H     1 <1>   0.1500 
 36 H        7.5400    -0.9540    -0.5710 H     1 <1>   0.0800 
 37 H        7.1440    -1.4040    -2.2110 H     1 <1>   0.0800 
 38 H        7.0560    -2.5930    -0.9390 H     1 <1>   0.0800 
 39 H        5.7790     0.9410    -0.7040 H     1 <1>   0.0800 
 40 H        4.1570     0.5550    -1.2160 H     1 <1>   0.0800 
 41 H        5.4730     0.4490    -2.3520 H     1 <1>   0.0800 
 42 H       -6.0300    -4.2210    -1.6250 H     1 <1>   0.1500 
 43 H       -7.6970    -0.9200     0.5020 H     1 <1>   0.1500 
 44 H       -8.2510    -4.9180    -1.2110 H     1 <1>   0.0800 
 45 H       -8.1140    -3.9380    -2.6750 H     1 <1>   0.0800 
 46 H      -10.6050    -4.1930    -0.9530 H     1 <1>   0.0800 
 47 H      -10.3810    -4.9610    -2.5060 H     1 <1>   0.0800 
 48 H      -10.4690    -3.2190    -2.4080 H     1 <1>   0.0800 
@<TRIPOS>BOND
  1   1   2  1   
  2   1   3  1   
  3   2   4  2   
  4   2   5  1   
  5   3   6  1   
  6   3  25  1   
  7   3  26  1   
  8   4   7  1   
  9   5   8  1   
 10   5   9  1   
 11   6  10  2   
 12   6  11  am  
 13   7   8  2   
 14   8  12  1   
 15   9  27  1   
 16   9  28  1   
 17   9  29  1   
 18  11  13  1   
 19  11  30  1   
 20  12  14  1   
 21  12  31  1   
 22  12  32  1   
 23  13  15  ar  
 24  13  16  ar  
 25  14  17  1   
 26  14  18  1   
 27  14  33  1   
 28  15  19  ar  
 29  15  34  1   
 30  16  20  ar  
 31  16  35  1   
 32  17  36  1   
 33  17  37  1   
 34  17  38  1   
 35  18  39  1   
 36  18  40  1   
 37  18  41  1   
 38  19  21  ar  
 39  19  42  1   
 40  20  21  ar  
 41  20  43  1   
 42  21  22  1   
 43  22  23  1   
 44  23  24  1   
 45  23  44  1   
 46  23  45  1   
 47  24  46  1   
 48  24  47  1   
 49  24  48  1   
@<TRIPOS>SUBSTRUCTURE
  1 ****   1 GROUP 4 **** **** 0

# MOE 2024.06 (io_trps.svl 2023.06)
