@<TRIPOS>MOLECULE
NONAME
52 54 1 0 0 
SMALL
USER_CHARGES


@<TRIPOS>ATOM
  1 CL       2.1760     4.3160    -1.2360 Cl    1 <1>  -0.1770 
  2 C        0.9490     3.8080    -0.0970 C.ar  1 <1>   0.1770 
  3 C        1.3030     3.3710     1.1750 C.ar  1 <1>   0.0830 
  4 C       -0.3740     3.8450    -0.4910 C.ar  1 <1>  -0.1500 
  5 O        2.5880     3.3220     1.5820 O.3   1 <1>  -0.3630 
  6 C        0.3100     2.9510     2.0430 C.ar  1 <1>  -0.1500 
  7 C       -1.3820     3.4370     0.3760 C.ar  1 <1>  -0.0090 
  8 C        3.2150     4.5590     1.9070 C.3   1 <1>   0.1810 
  9 C       -1.0160     2.9890     1.6430 C.ar  1 <1>  -0.1500 
 10 S       -3.1190     3.4870    -0.1440 S.o2  1 <1>   1.4470 
 11 C        4.6740     4.5770     1.4740 C.2   1 <1>   0.5690 
 12 O       -3.9800     3.2100     0.9840 O.2   1 <1>  -0.6500 
 13 O       -3.2600     2.7200    -1.3620 O.2   1 <1>  -0.6500 
 14 N       -3.3430     5.1160    -0.5560 N.am  1 <1>  -0.8490 
 15 O        5.4130     5.3870     1.9800 O.2   1 <1>  -0.5700 
 16 N        5.0980     3.7040     0.5240 N.am  1 <1>  -0.7300 
 17 C       -4.5240     5.2950    -1.4180 C.3   1 <1>   0.1960 
 18 C       -3.4700     5.9910     0.6220 C.3   1 <1>   0.1960 
 19 C        6.4510     3.6270    -0.0420 C.3   1 <1>   0.2200 
 20 C       -4.7290     6.7770    -1.7830 C.3   1 <1>   0.1200 
 21 C       -3.6860     7.4560     0.2010 C.3   1 <1>   0.1200 
 22 C        6.3720     3.9110    -1.5450 C.3   1 <1>  -0.1600 
 23 C        7.0250     2.2340     0.2330 C.3   1 <1>  -0.1600 
 24 O       -4.8070     7.5650    -0.6290 O.3   1 <1>  -0.5600 
 25 C        7.7440     3.7380    -2.2150 C.3   1 <1>  -0.1600 
 26 C        8.3980     2.0580    -0.4330 C.3   1 <1>  -0.1600 
 27 C        8.3240     2.3440    -1.9390 C.3   1 <1>  -0.1600 
 28 H       -0.6240     4.1890    -1.4800 H     1 <1>   0.1500 
 29 H        0.5770     2.5960     3.0230 H     1 <1>   0.1500 
 30 H        3.1530     4.6900     2.9720 H     1 <1>   0.0800 
 31 H        2.6970     5.3640     1.4200 H     1 <1>   0.0800 
 32 H       -1.7820     2.6590     2.3270 H     1 <1>   0.1500 
 33 H        4.4180     3.0430     0.1420 H     1 <1>   0.3700 
 34 H       -5.4050     4.9280    -0.9180 H     1 <1>   0.0800 
 35 H       -4.3990     4.7310    -2.3270 H     1 <1>   0.0800 
 36 H       -2.5770     5.9260     1.2200 H     1 <1>   0.0800 
 37 H       -4.3040     5.6830     1.2300 H     1 <1>   0.0800 
 38 H        7.0810     4.3680     0.4250 H     1 <1>   0.0800 
 39 H       -5.6460     6.9020    -2.3300 H     1 <1>   0.0800 
 40 H       -3.9130     7.1310    -2.3880 H     1 <1>   0.0800 
 41 H       -2.8270     7.8300    -0.3290 H     1 <1>   0.0800 
 42 H       -3.8580     8.0720     1.0660 H     1 <1>   0.0800 
 43 H        6.0260     4.9180    -1.6980 H     1 <1>   0.0800 
 44 H        5.6710     3.2360    -2.0030 H     1 <1>   0.0800 
 45 H        6.3530     1.4860    -0.1480 H     1 <1>   0.0800 
 46 H        7.1250     2.0960     1.2950 H     1 <1>   0.0800 
 47 H        8.4200     4.4870    -1.8380 H     1 <1>   0.0800 
 48 H        7.6470     3.8870    -3.2770 H     1 <1>   0.0800 
 49 H        8.7510     1.0540    -0.2730 H     1 <1>   0.0800 
 50 H        9.1030     2.7330     0.0230 H     1 <1>   0.0800 
 51 H        9.3090     2.2730    -2.3680 H     1 <1>   0.0800 
 52 H        7.7050     1.6010    -2.4130 H     1 <1>   0.0800 
@<TRIPOS>BOND
  1   1   2  1   
  2   2   3  ar  
  3   2   4  ar  
  4   3   5  1   
  5   3   6  ar  
  6   4   7  ar  
  7   4  28  1   
  8   5   8  1   
  9   6   9  ar  
 10   6  29  1   
 11   7   9  ar  
 12   7  10  1   
 13   8  11  1   
 14   8  30  1   
 15   8  31  1   
 16   9  32  1   
 17  10  12  2   
 18  10  13  2   
 19  10  14  am  
 20  11  15  2   
 21  11  16  am  
 22  14  17  1   
 23  14  18  1   
 24  16  19  1   
 25  16  33  1   
 26  17  20  1   
 27  17  34  1   
 28  17  35  1   
 29  18  21  1   
 30  18  36  1   
 31  18  37  1   
 32  19  22  1   
 33  19  23  1   
 34  19  38  1   
 35  20  24  1   
 36  20  39  1   
 37  20  40  1   
 38  21  24  1   
 39  21  41  1   
 40  21  42  1   
 41  22  25  1   
 42  22  43  1   
 43  22  44  1   
 44  23  26  1   
 45  23  45  1   
 46  23  46  1   
 47  25  27  1   
 48  25  47  1   
 49  25  48  1   
 50  26  27  1   
 51  26  49  1   
 52  26  50  1   
 53  27  51  1   
 54  27  52  1   
@<TRIPOS>SUBSTRUCTURE
  1 ****   2 GROUP 4 **** **** 0

# MOE 2024.06 (io_trps.svl 2023.06)
