@<TRIPOS>MOLECULE
NONAME
54 56 1 0 0 
SMALL
USER_CHARGES


@<TRIPOS>ATOM
  1 O       -0.0660    -0.7920     1.2310 O.2   1 <1>  -0.5700 
  2 C       -0.8050    -1.6590     0.8110 C.2   1 <1>   0.6900 
  3 N       -0.3790    -2.4980    -0.2140 N.am  1 <1>  -0.4200 
  4 N       -2.0760    -1.8050     1.3490 N.am  1 <1>  -0.4360 
  5 C       -1.2260    -3.4520    -0.7630 C.2   1 <1>   0.7030 
  6 C        1.0090    -2.3320    -0.7500 C.3   1 <1>   0.0600 
  7 C       -2.9120    -2.7540     0.7920 C.2   1 <1>   0.4260 
  8 C       -2.5390    -0.9440     2.4770 C.3   1 <1>   0.0600 
  9 O       -0.8460    -4.1760    -1.6680 O.2   1 <1>  -0.5700 
 10 C       -2.5550    -3.5630    -0.2340 C.2   1 <1>   0.2770 
 11 N       -4.1880    -3.0510     1.1410 N.pl3 1 <1>  -0.7000 
 12 N       -3.6660    -4.3620    -0.5160 N.pl3 1 <1>  -0.7640 
 13 C       -4.6180    -4.0300     0.3520 C.cat 1 <1>   0.6560 
 14 C       -3.7130    -5.4370    -1.5550 C.3   1 <1>   0.3540 
 15 C       -6.0250    -4.6300     0.4890 C.3   1 <1>   0.2540 
 16 C       -3.3880    -6.8110    -0.9520 C.3   1 <1>   0.1200 
 17 N       -7.0440    -3.6350     0.9430 N.3   1 <1>  -0.8100 
 18 O       -4.2460    -7.0710     0.1220 O.3   1 <1>  -0.5600 
 19 C       -7.3270    -2.5900    -0.0720 C.3   1 <1>   0.1100 
 20 C       -8.3250    -4.3130     1.2560 C.3   1 <1>   0.1100 
 21 C       -4.0430    -8.3150     0.7150 C.3   1 <1>   0.0400 
 22 C       -8.0850    -3.0980    -1.3300 C.3   1 <1>   0.2000 
 23 C       -9.1340    -4.7710     0.0070 C.3   1 <1>   0.2000 
 24 O       -8.4950    -4.4280    -1.1940 O.3   1 <1>  -0.5600 
 25 C       -7.2190    -3.0410    -2.5870 C.3   1 <1>  -0.2400 
 26 C      -10.5640    -4.2240    -0.0160 C.3   1 <1>  -0.2400 
 27 H        1.6940    -2.1190     0.0540 H     1 <1>   0.0800 
 28 H        1.0300    -1.5130    -1.4480 H     1 <1>   0.0800 
 29 H        1.3440    -3.2250    -1.2480 H     1 <1>   0.0800 
 30 H       -1.7000    -0.5100     2.9950 H     1 <1>   0.0800 
 31 H       -3.1030    -1.5270     3.1840 H     1 <1>   0.0800 
 32 H       -3.1550    -0.1480     2.0960 H     1 <1>   0.0800 
 33 H       -4.7840    -2.6340     1.8600 H     1 <1>   0.4500 
 34 H       -3.0150    -5.2180    -2.3450 H     1 <1>   0.0800 
 35 H       -4.6930    -5.4760    -1.9980 H     1 <1>   0.0800 
 36 H       -5.9630    -5.4200     1.2170 H     1 <1>   0.0800 
 37 H       -6.3130    -5.0780    -0.4430 H     1 <1>   0.0800 
 38 H       -2.3710    -6.8270    -0.5980 H     1 <1>   0.0800 
 39 H       -3.5190    -7.5780    -1.6950 H     1 <1>   0.0800 
 40 H       -6.4180    -2.0960    -0.3660 H     1 <1>   0.0800 
 41 H       -7.9390    -1.8330     0.3880 H     1 <1>   0.0800 
 42 H       -8.9340    -3.6350     1.8290 H     1 <1>   0.0800 
 43 H       -8.1470    -5.1630     1.8920 H     1 <1>   0.0800 
 44 H       -4.7410    -8.4220     1.5270 H     1 <1>   0.0800 
 45 H       -3.0370    -8.3710     1.0950 H     1 <1>   0.0800 
 46 H       -4.2150    -9.0910    -0.0110 H     1 <1>   0.0800 
 47 H       -8.9620    -2.4940    -1.4900 H     1 <1>   0.0800 
 48 H       -9.1910    -5.8460     0.0180 H     1 <1>   0.0800 
 49 H       -6.3400    -3.6460    -2.4710 H     1 <1>   0.0800 
 50 H       -6.9210    -2.0270    -2.7850 H     1 <1>   0.0800 
 51 H       -7.7850    -3.3950    -3.4310 H     1 <1>   0.0800 
 52 H      -10.5730    -3.1510     0.0360 H     1 <1>   0.0800 
 53 H      -11.1110    -4.6050     0.8270 H     1 <1>   0.0800 
 54 H      -11.0630    -4.5450    -0.9140 H     1 <1>   0.0800 
@<TRIPOS>BOND
  1   1   2  2   
  2   2   3  am  
  3   2   4  am  
  4   3   5  am  
  5   3   6  1   
  6   4   7  1   
  7   4   8  1   
  8   5   9  2   
  9   5  10  1   
 10   6  27  1   
 11   6  28  1   
 12   6  29  1   
 13   7  10  2   
 14   7  11  1   
 15   8  30  1   
 16   8  31  1   
 17   8  32  1   
 18  10  12  1   
 19  11  13  ar  
 20  11  33  1   
 21  12  13  ar  
 22  12  14  1   
 23  13  15  1   
 24  14  16  1   
 25  14  34  1   
 26  14  35  1   
 27  15  17  1   
 28  15  36  1   
 29  15  37  1   
 30  16  18  1   
 31  16  38  1   
 32  16  39  1   
 33  17  19  1   
 34  17  20  1   
 35  18  21  1   
 36  19  22  1   
 37  19  40  1   
 38  19  41  1   
 39  20  23  1   
 40  20  42  1   
 41  20  43  1   
 42  21  44  1   
 43  21  45  1   
 44  21  46  1   
 45  22  24  1   
 46  22  25  1   
 47  22  47  1   
 48  23  24  1   
 49  23  26  1   
 50  23  48  1   
 51  25  49  1   
 52  25  50  1   
 53  25  51  1   
 54  26  52  1   
 55  26  53  1   
 56  26  54  1   
@<TRIPOS>SUBSTRUCTURE
  1 ****  13 GROUP 4 **** **** 0

# MOE 2024.06 (io_trps.svl 2023.06)
