@<TRIPOS>MOLECULE
NONAME
46 47 1 0 0 
SMALL
USER_CHARGES


@<TRIPOS>ATOM
  1 O       -1.6480     8.7720     0.3740 O.3   1 <1>  -0.3630 
  2 C       -0.4000     8.2510     0.4660 C.ar  1 <1>   0.0830 
  3 C       -1.9680     9.4720    -0.8150 C.3   1 <1>   0.1200 
  4 C       -0.2410     6.8810     0.6560 C.ar  1 <1>  -0.1440 
  5 C        0.7120     9.0790     0.3800 C.ar  1 <1>  -0.1500 
  6 C       -3.4440     9.8910    -0.7580 C.3   1 <1>   0.3430 
  7 C        1.0390     6.3570     0.7310 C.ar  1 <1>  -0.1500 
  8 C       -1.4370     5.9470     0.7750 C.3   1 <1>   0.1220 
  9 C        1.9860     8.5450     0.4600 C.ar  1 <1>  -0.1500 
 10 N       -4.2940     8.8040    -0.1820 N.4   1 <1>  -0.9590 
 11 C        2.1540     7.1740     0.6330 C.ar  1 <1>   0.0830 
 12 C       -1.8630     5.4620    -0.6010 C.2   1 <1>  -0.2880 
 13 C       -4.5320     7.6890    -1.1450 C.3   1 <1>   0.3430 
 14 C       -5.5620     9.3380     0.3910 C.3   1 <1>   0.3430 
 15 O        3.3650     6.5650     0.7170 O.3   1 <1>  -0.3630 
 16 C       -2.2690     4.2210    -0.8870 C.2   1 <1>  -0.3000 
 17 C       -5.2670     6.5460    -0.4430 C.3   1 <1>  -0.1600 
 18 C       -6.3100     8.2210     1.1210 C.3   1 <1>  -0.1600 
 19 C        4.5620     7.3060     0.6440 C.3   1 <1>   0.0400 
 20 C       -6.5740     7.0190     0.2050 C.3   1 <1>  -0.1600 
 21 H       -1.7860     8.8190    -1.6510 H     1 <1>   0.0800 
 22 H       -1.3370    10.3380    -0.8990 H     1 <1>   0.0800 
 23 H        0.5950    10.1400     0.2610 H     1 <1>   0.1500 
 24 H       -3.7900    10.1660    -1.7400 H     1 <1>   0.0800 
 25 H       -3.5110    10.7650    -0.1300 H     1 <1>   0.0800 
 26 H        1.1920     5.3010     0.8650 H     1 <1>   0.1500 
 27 H       -2.2530     6.4610     1.2480 H     1 <1>   0.0800 
 28 H       -1.1880     5.1070     1.3990 H     1 <1>   0.0800 
 29 H        2.8300     9.2040     0.3900 H     1 <1>   0.1500 
 30 H       -3.7370     8.4110     0.5950 H     1 <1>   0.4500 
 31 H       -1.7870     6.2290    -1.3510 H     1 <1>   0.1500 
 32 H       -3.5940     7.3250    -1.5310 H     1 <1>   0.0800 
 33 H       -5.1260     8.0420    -1.9730 H     1 <1>   0.0800 
 34 H       -6.1840     9.7290    -0.3990 H     1 <1>   0.0800 
 35 H       -5.3490    10.1370     1.0830 H     1 <1>   0.0800 
 36 H       -2.5530     3.8900    -1.8720 H     1 <1>   0.1500 
 37 H       -2.3460     3.4250    -0.1660 H     1 <1>   0.1500 
 38 H       -4.6240     6.1130     0.3030 H     1 <1>   0.0800 
 39 H       -5.4830     5.7740    -1.1620 H     1 <1>   0.0800 
 40 H       -7.2480     8.6050     1.4840 H     1 <1>   0.0800 
 41 H       -5.7370     7.9110     1.9780 H     1 <1>   0.0800 
 42 H        5.3850     6.6190     0.7360 H     1 <1>   0.0800 
 43 H        4.5850     8.0140     1.4520 H     1 <1>   0.0800 
 44 H        4.6080     7.8030    -0.3090 H     1 <1>   0.0800 
 45 H       -7.0130     6.2150     0.7730 H     1 <1>   0.0800 
 46 H       -7.2760     7.2990    -0.5630 H     1 <1>   0.0800 
@<TRIPOS>BOND
  1   1   2  1   
  2   1   3  1   
  3   2   4  ar  
  4   2   5  ar  
  5   3   6  1   
  6   3  21  1   
  7   3  22  1   
  8   4   7  ar  
  9   4   8  1   
 10   5   9  ar  
 11   5  23  1   
 12   6  10  1   
 13   6  24  1   
 14   6  25  1   
 15   7  11  ar  
 16   7  26  1   
 17   8  12  1   
 18   8  27  1   
 19   8  28  1   
 20   9  11  ar  
 21   9  29  1   
 22  10  13  1   
 23  10  14  1   
 24  10  30  1   
 25  11  15  1   
 26  12  16  2   
 27  12  31  1   
 28  13  17  1   
 29  13  32  1   
 30  13  33  1   
 31  14  18  1   
 32  14  34  1   
 33  14  35  1   
 34  15  19  1   
 35  16  36  1   
 36  16  37  1   
 37  17  20  1   
 38  17  38  1   
 39  17  39  1   
 40  18  20  1   
 41  18  40  1   
 42  18  41  1   
 43  19  42  1   
 44  19  43  1   
 45  19  44  1   
 46  20  45  1   
 47  20  46  1   
@<TRIPOS>SUBSTRUCTURE
  1 ****   1 GROUP 4 **** **** 0

# MOE 2024.06 (io_trps.svl 2023.06)
