@<TRIPOS>MOLECULE
NONAME
44 46 1 0 0 
SMALL
USER_CHARGES


@<TRIPOS>ATOM
  1 S       -0.8240     0.5050     0.9240 S.o2  1 <1>   1.4470 
  2 O       -1.2380     1.2150     2.1150 O.2   1 <1>  -0.6500 
  3 O       -0.8680    -0.9400     0.9020 O.2   1 <1>  -0.6500 
  4 N       -1.8100     1.0490    -0.3420 N.am  1 <1>  -0.8490 
  5 C        0.8330     1.0510     0.4170 C.ar  1 <1>  -0.0090 
  6 C       -1.9740     2.5190    -0.3360 C.3   1 <1>   0.1960 
  7 C       -3.1310     0.3890    -0.3090 C.3   1 <1>   0.1960 
  8 C        1.5810     1.9190     1.2120 C.ar  1 <1>  -0.1500 
  9 C        1.3860     0.6130    -0.7850 C.ar  1 <1>  -0.1500 
 10 C       -2.8390     3.0100    -1.5130 C.3   1 <1>   0.1400 
 11 C       -4.0030     0.8240    -1.4980 C.3   1 <1>   0.1400 
 12 C        2.8420     2.3420     0.8240 C.ar  1 <1>  -0.1500 
 13 C        2.6450     1.0240    -1.1910 C.ar  1 <1>  -0.1500 
 14 N       -4.1530     2.3070    -1.5060 N.am  1 <1>  -0.6600 
 15 C        3.3520     1.8850    -0.3750 C.ar  1 <1>   0.1900 
 16 C       -5.3350     2.9810    -1.2410 C.2   1 <1>   0.7160 
 17 F        4.5380     2.2790    -0.7500 F     1 <1>  -0.1900 
 18 O       -5.3820     4.1620    -1.5520 O.2   1 <1>  -0.5700 
 19 C       -6.5000     2.3630    -0.6080 C.2   1 <1>   0.2030 
 20 N       -6.5260     1.2880     0.1670 N.2   1 <1>  -0.7070 
 21 C       -7.7960     2.8810    -0.7320 C.2   1 <1>  -0.1500 
 22 N       -7.8050     1.1240     0.5260 N.pl3 1 <1>   0.3140 
 23 C       -8.5930     2.0750    -0.0060 C.2   1 <1>  -0.3020 
 24 C       -8.2400     0.0240     1.4110 C.3   1 <1>   0.0960 
 25 C       -8.7920    -1.1540     0.5990 C.3   1 <1>  -0.2400 
 26 H       -1.0090     2.9910    -0.3990 H     1 <1>   0.0800 
 27 H       -2.4380     2.8340     0.5840 H     1 <1>   0.0800 
 28 H       -3.6430     0.6230     0.6110 H     1 <1>   0.0800 
 29 H       -3.0050    -0.6800    -0.3550 H     1 <1>   0.0800 
 30 H        1.1720     2.2650     2.1470 H     1 <1>   0.1500 
 31 H        0.8180    -0.0610    -1.4070 H     1 <1>   0.1500 
 32 H       -2.3330     2.8110    -2.4410 H     1 <1>   0.0800 
 33 H       -2.9760     4.0740    -1.4310 H     1 <1>   0.0800 
 34 H       -4.9570     0.3330    -1.4580 H     1 <1>   0.0800 
 35 H       -3.5250     0.5150    -2.4110 H     1 <1>   0.0800 
 36 H        3.4220     3.0100     1.4360 H     1 <1>   0.1500 
 37 H        3.0730     0.6850    -2.1180 H     1 <1>   0.1500 
 38 H       -8.0560     3.7570    -1.3020 H     1 <1>   0.1500 
 39 H       -9.6530     2.1240     0.1600 H     1 <1>   0.1500 
 40 H       -8.9910     0.4010     2.0810 H     1 <1>   0.0800 
 41 H       -7.3920    -0.2940     1.9920 H     1 <1>   0.0800 
 42 H       -9.6470    -0.8460     0.0250 H     1 <1>   0.0800 
 43 H       -9.0900    -1.9460     1.2630 H     1 <1>   0.0800 
 44 H       -8.0340    -1.5310    -0.0640 H     1 <1>   0.0800 
@<TRIPOS>BOND
  1   1   2  2   
  2   1   3  2   
  3   1   4  am  
  4   1   5  1   
  5   4   6  1   
  6   4   7  1   
  7   5   8  ar  
  8   5   9  ar  
  9   6  10  1   
 10   6  26  1   
 11   6  27  1   
 12   7  11  1   
 13   7  28  1   
 14   7  29  1   
 15   8  12  ar  
 16   8  30  1   
 17   9  13  ar  
 18   9  31  1   
 19  10  14  1   
 20  10  32  1   
 21  10  33  1   
 22  11  14  1   
 23  11  34  1   
 24  11  35  1   
 25  12  15  ar  
 26  12  36  1   
 27  13  15  ar  
 28  13  37  1   
 29  14  16  am  
 30  15  17  1   
 31  16  18  2   
 32  16  19  1   
 33  19  20  2   
 34  19  21  1   
 35  20  22  1   
 36  21  23  2   
 37  21  38  1   
 38  22  23  1   
 39  22  24  1   
 40  23  39  1   
 41  24  25  1   
 42  24  40  1   
 43  24  41  1   
 44  25  42  1   
 45  25  43  1   
 46  25  44  1   
@<TRIPOS>SUBSTRUCTURE
  1 ****   4 GROUP 4 **** **** 0

# MOE 2024.06 (io_trps.svl 2023.06)
