@<TRIPOS>MOLECULE
NONAME
41 46 1 0 0 
SMALL
USER_CHARGES


@<TRIPOS>ATOM
  1 O       -0.2860     0.4780     0.4660 O.2   1 <1>  -0.5700 
  2 C        0.6020     1.2940     0.3940 C.2   1 <1>   0.5690 
  3 N        0.5180     2.5260    -0.2210 N.am  1 <1>  -0.4770 
  4 C        1.9410     1.0680     1.0630 C.3   1 <1>  -0.0190 
  5 C       -0.6530     3.3080    -0.4390 C.ar  1 <1>   0.1170 
  6 C        1.8610     3.1810    -0.2160 C.3   1 <1>   0.2200 
  7 C        2.7950     2.1050     0.3520 C.3   1 <1>   0.4180 
  8 C        2.7310    -0.2350     0.7640 C.3   1 <1>  -0.1860 
  9 C       -0.5840     4.7060    -0.3960 C.ar  1 <1>  -0.1440 
 10 C       -1.8980     2.7270    -0.6720 C.ar  1 <1>  -0.1500 
 11 C        1.7140     4.4860     0.5700 C.3   1 <1>  -0.0800 
 12 O        3.2960     1.3350    -0.6950 O.3   1 <1>  -0.5600 
 13 C        4.0860     2.3190     1.1100 C.2   1 <1>  -0.2880 
 14 C        3.2330    -1.0100     1.9530 C.2   1 <1>   0.9060 
 15 C        3.9320     0.3270     0.0080 C.3   1 <1>   0.3380 
 16 C       -1.7240     5.4800    -0.5390 C.ar  1 <1>  -0.1500 
 17 C        0.7820     5.3480    -0.2440 C.3   1 <1>   0.3440 
 18 C       -3.0350     3.5000    -0.8210 C.ar  1 <1>  -0.1500 
 19 C        2.8650     5.4570     0.7730 C.3   1 <1>  -0.1600 
 20 C        4.7840     1.2080     0.9060 C.2   1 <1>  -0.2880 
 21 O        3.9940    -1.9570     1.7330 O.co2 1 <1>  -0.9000 
 22 O        2.8940    -0.6850     3.0950 O.co2 1 <1>  -0.9000 
 23 C       -2.9520     4.8780    -0.7480 C.ar  1 <1>  -0.1500 
 24 O        0.8240     6.5750     0.4000 O.3   1 <1>  -0.5600 
 25 C        2.1350     6.8080     0.8340 C.3   1 <1>   0.1200 
 26 H        1.8580     1.2960     2.1090 H     1 <1>   0.0800 
 27 H        2.1630     3.3940    -1.2260 H     1 <1>   0.0800 
 28 H        2.1730    -0.8980     0.1330 H     1 <1>   0.0800 
 29 H       -1.9860     1.6590    -0.7350 H     1 <1>   0.1500 
 30 H        1.2590     4.2780     1.5250 H     1 <1>   0.0800 
 31 H        4.2870     3.1900     1.7010 H     1 <1>   0.1500 
 32 H        4.4580    -0.3470    -0.6470 H     1 <1>   0.0800 
 33 H       -1.6530     6.5530    -0.4930 H     1 <1>   0.1500 
 34 H        1.1880     5.5040    -1.2310 H     1 <1>   0.0800 
 35 H       -3.9860     3.0260    -0.9920 H     1 <1>   0.1500 
 36 H        3.5430     5.4430    -0.0620 H     1 <1>   0.0800 
 37 H        3.4090     5.2730     1.6820 H     1 <1>   0.0800 
 38 H        5.7360     0.8590     1.2650 H     1 <1>   0.1500 
 39 H       -3.8360     5.4810    -0.8580 H     1 <1>   0.1500 
 40 H        2.5900     7.5380     0.1860 H     1 <1>   0.0800 
 41 H        2.0860     7.1890     1.8400 H     1 <1>   0.0800 
@<TRIPOS>BOND
  1   1   2  2   
  2   2   3  am  
  3   2   4  1   
  4   3   5  1   
  5   3   6  1   
  6   4   7  1   
  7   4   8  1   
  8   4  26  1   
  9   5   9  ar  
 10   5  10  ar  
 11   6   7  1   
 12   6  11  1   
 13   6  27  1   
 14   7  12  1   
 15   7  13  1   
 16   8  14  1   
 17   8  15  1   
 18   8  28  1   
 19   9  16  ar  
 20   9  17  1   
 21  10  18  ar  
 22  10  29  1   
 23  11  17  1   
 24  11  19  1   
 25  11  30  1   
 26  12  15  1   
 27  13  20  2   
 28  13  31  1   
 29  14  21  ar  
 30  14  22  ar  
 31  15  20  1   
 32  15  32  1   
 33  16  23  ar  
 34  16  33  1   
 35  17  24  1   
 36  17  34  1   
 37  18  23  ar  
 38  18  35  1   
 39  19  25  1   
 40  19  36  1   
 41  19  37  1   
 42  20  38  1   
 43  23  39  1   
 44  24  25  1   
 45  25  40  1   
 46  25  41  1   
@<TRIPOS>SUBSTRUCTURE
  1 ****   6 GROUP 4 **** **** 0

# MOE 2024.06 (io_trps.svl 2023.06)
