@<TRIPOS>MOLECULE
NONAME
46 48 1 0 0 
SMALL
USER_CHARGES


@<TRIPOS>ATOM
  1 CL      -1.5110     1.2350    -2.5510 Cl    1 <1>  -0.1770 
  2 C       -2.9090     0.8640    -1.5710 C.ar  1 <1>   0.1770 
  3 C       -2.7360     0.2400    -0.3490 C.ar  1 <1>  -0.1500 
  4 C       -4.1690     1.2020    -2.0320 C.ar  1 <1>  -0.1500 
  5 C       -3.8470    -0.0510     0.4220 C.ar  1 <1>  -0.1500 
  6 C       -5.2740     0.9060    -1.2530 C.ar  1 <1>  -0.1500 
  7 C       -5.1230     0.2770    -0.0200 C.ar  1 <1>   0.1000 
  8 N       -6.2190    -0.0290     0.7760 N.pl3 1 <1>  -0.8380 
  9 C       -6.9930     1.1380     1.3060 C.3   1 <1>   0.2090 
 10 C       -7.1110    -1.1140     0.2660 C.3   1 <1>   0.2090 
 11 C       -7.9880     0.6920     2.3900 C.3   1 <1>   0.1400 
 12 C       -8.1200    -1.5620     1.3400 C.3   1 <1>   0.1400 
 13 N       -8.8830    -0.3940     1.8820 N.am  1 <1>  -0.6600 
 14 C      -10.1540    -0.1020     1.4690 C.2   1 <1>   0.6900 
 15 O      -10.4740     1.0500     1.2430 O.2   1 <1>  -0.5700 
 16 N      -11.0390    -1.1330     1.3400 N.am  1 <1>  -0.5470 
 17 C      -12.3310    -1.1930     0.8020 C.ar  1 <1>   0.1170 
 18 C      -12.8100    -0.2750    -0.1260 C.ar  1 <1>  -0.1500 
 19 C      -13.1710    -2.2280     1.1920 C.ar  1 <1>  -0.1500 
 20 C      -14.0880    -0.3750    -0.6520 C.ar  1 <1>  -0.1430 
 21 C      -14.4470    -2.3390     0.6730 C.ar  1 <1>  -0.1500 
 22 C      -14.9160    -1.4170    -0.2500 C.ar  1 <1>  -0.1430 
 23 C      -14.5540     0.6670    -1.6600 C.3   1 <1>  -0.0970 
 24 C      -16.3280    -1.5700    -0.7980 C.3   1 <1>  -0.0970 
 25 H       -1.7470    -0.0120    -0.0120 H     1 <1>   0.1500 
 26 H       -4.2770     1.6870    -2.9850 H     1 <1>   0.1500 
 27 H       -3.7410    -0.5350     1.3750 H     1 <1>   0.1500 
 28 H       -6.2590     1.1620    -1.5970 H     1 <1>   0.1500 
 29 H       -7.5360     1.6100     0.5050 H     1 <1>   0.0800 
 30 H       -6.3110     1.8590     1.7200 H     1 <1>   0.0800 
 31 H       -6.5100    -1.9540    -0.0340 H     1 <1>   0.0800 
 32 H       -7.6480    -0.7610    -0.5970 H     1 <1>   0.0800 
 33 H       -8.5710     1.5380     2.7100 H     1 <1>   0.0800 
 34 H       -7.4400     0.3300     3.2420 H     1 <1>   0.0800 
 35 H       -7.5860    -2.0380     2.1440 H     1 <1>   0.0800 
 36 H       -8.7870    -2.2860     0.9080 H     1 <1>   0.0800 
 37 H      -10.7360    -1.9590     1.8430 H     1 <1>   0.3700 
 38 H      -12.1700     0.5280    -0.4400 H     1 <1>   0.1500 
 39 H      -12.8290    -2.9510     1.9080 H     1 <1>   0.1500 
 40 H      -15.0770    -3.1490     0.9950 H     1 <1>   0.1500 
 41 H      -13.7860     1.3960    -1.8420 H     1 <1>   0.0800 
 42 H      -15.4210     1.1790    -1.2850 H     1 <1>   0.0800 
 43 H      -14.7990     0.1940    -2.5930 H     1 <1>   0.0800 
 44 H      -16.9120    -0.7010    -0.5540 H     1 <1>   0.0800 
 45 H      -16.8140    -2.4320    -0.3790 H     1 <1>   0.0800 
 46 H      -16.2970    -1.6850    -1.8660 H     1 <1>   0.0800 
@<TRIPOS>BOND
  1   1   2  1   
  2   2   3  ar  
  3   2   4  ar  
  4   3   5  ar  
  5   3  25  1   
  6   4   6  ar  
  7   4  26  1   
  8   5   7  ar  
  9   5  27  1   
 10   6   7  ar  
 11   6  28  1   
 12   7   8  1   
 13   8   9  1   
 14   8  10  1   
 15   9  11  1   
 16   9  29  1   
 17   9  30  1   
 18  10  12  1   
 19  10  31  1   
 20  10  32  1   
 21  11  13  1   
 22  11  33  1   
 23  11  34  1   
 24  12  13  1   
 25  12  35  1   
 26  12  36  1   
 27  13  14  am  
 28  14  15  2   
 29  14  16  am  
 30  16  17  1   
 31  16  37  1   
 32  17  18  ar  
 33  17  19  ar  
 34  18  20  ar  
 35  18  38  1   
 36  19  21  ar  
 37  19  39  1   
 38  20  22  ar  
 39  20  23  1   
 40  21  22  ar  
 41  21  40  1   
 42  22  24  1   
 43  23  41  1   
 44  23  42  1   
 45  23  43  1   
 46  24  44  1   
 47  24  45  1   
 48  24  46  1   
@<TRIPOS>SUBSTRUCTURE
  1 ****  13 GROUP 4 **** **** 0

# MOE 2024.06 (io_trps.svl 2023.06)
