@<TRIPOS>MOLECULE
NONAME
52 54 1 0 0 
SMALL
USER_CHARGES


@<TRIPOS>ATOM
  1 BR       1.9760    -1.6690    -0.9690 Br    1 <1>  -0.1110 
  2 C        0.3700    -2.6760    -0.6030 C.ar  1 <1>   0.1110 
  3 C        0.3060    -3.4660     0.5360 C.ar  1 <1>   0.0820 
  4 C       -0.6740    -2.5650    -1.5020 C.ar  1 <1>  -0.1500 
  5 O        1.3820    -3.4870     1.3570 O.3   1 <1>  -0.5330 
  6 C       -0.8740    -4.1890     0.7730 C.ar  1 <1>   0.0820 
  7 C       -1.8410    -3.2720    -1.2600 C.ar  1 <1>  -0.1440 
  8 O       -1.1350    -5.0180     1.8240 O.3   1 <1>  -0.3630 
  9 C       -1.9220    -4.0790    -0.1310 C.ar  1 <1>  -0.1500 
 10 C       -3.0250    -3.1610    -2.2030 C.3   1 <1>   0.4860 
 11 C       -0.1590    -5.3950     2.7690 C.3   1 <1>   0.0400 
 12 N       -4.1300    -2.4660    -1.4960 N.4   1 <1>  -0.9590 
 13 C       -5.4310    -2.4490    -2.2370 C.3   1 <1>   0.3430 
 14 C       -3.7830    -1.0980    -0.9830 C.3   1 <1>   0.3430 
 15 C       -6.5570    -1.8460    -1.3620 C.3   1 <1>   0.1100 
 16 C       -4.9300    -0.5270    -0.1120 C.3   1 <1>   0.1100 
 17 N       -6.0740    -1.4630    -0.0090 N.3   1 <1>  -0.8100 
 18 C       -7.1480    -0.9140     0.8300 C.3   1 <1>   0.2480 
 19 C       -8.1650    -2.0040     1.0890 C.2   1 <1>  -0.2880 
 20 C       -9.4580    -1.9580     0.7260 C.2   1 <1>  -0.1780 
 21 C      -10.4810    -2.9630     0.9230 C.ar  1 <1>   0.0280 
 22 C      -11.7570    -2.7700     0.3970 C.ar  1 <1>  -0.1500 
 23 C      -10.2480    -4.1420     1.6280 C.ar  1 <1>  -0.1500 
 24 C      -12.7550    -3.7130     0.5600 C.ar  1 <1>  -0.1500 
 25 C      -11.2420    -5.0900     1.7950 C.ar  1 <1>  -0.1500 
 26 C      -12.4990    -4.8780     1.2600 C.ar  1 <1>  -0.1500 
 27 H       -0.5570    -1.9350    -2.3670 H     1 <1>   0.1500 
 28 H        2.1140    -2.9280     1.0290 H     1 <1>   0.4500 
 29 H       -2.8110    -4.6500     0.0740 H     1 <1>   0.1500 
 30 H       -3.3390    -4.1500    -2.4980 H     1 <1>   0.0800 
 31 H       -2.7440    -2.6120    -3.0860 H     1 <1>   0.0800 
 32 H       -0.5950    -6.1200     3.4320 H     1 <1>   0.0800 
 33 H        0.1420    -4.5260     3.3270 H     1 <1>   0.0800 
 34 H        0.6790    -5.8290     2.2530 H     1 <1>   0.0800 
 35 H       -4.3460    -2.9840    -0.6290 H     1 <1>   0.4500 
 36 H       -5.3370    -1.8720    -3.1420 H     1 <1>   0.0800 
 37 H       -5.7100    -3.4530    -2.5130 H     1 <1>   0.0800 
 38 H       -2.8870    -1.1450    -0.3840 H     1 <1>   0.0800 
 39 H       -3.5930    -0.4300    -1.8060 H     1 <1>   0.0800 
 40 H       -7.3440    -2.5760    -1.2760 H     1 <1>   0.0800 
 41 H       -6.9720    -0.9860    -1.8600 H     1 <1>   0.0800 
 42 H       -5.2570     0.4110    -0.5290 H     1 <1>   0.0800 
 43 H       -4.5450    -0.3260     0.8740 H     1 <1>   0.0800 
 44 H       -6.7440    -0.5870     1.7740 H     1 <1>   0.0800 
 45 H       -7.6110    -0.0700     0.3460 H     1 <1>   0.0800 
 46 H       -7.7240    -2.8380     1.6030 H     1 <1>   0.1500 
 47 H       -9.8230    -1.0820     0.2170 H     1 <1>   0.1500 
 48 H      -11.9750    -1.8710    -0.1500 H     1 <1>   0.1500 
 49 H       -9.2820    -4.3290     2.0560 H     1 <1>   0.1500 
 50 H      -13.7330    -3.5420     0.1440 H     1 <1>   0.1500 
 51 H      -11.0370    -5.9940     2.3420 H     1 <1>   0.1500 
 52 H      -13.2730    -5.6140     1.3890 H     1 <1>   0.1500 
@<TRIPOS>BOND
  1   1   2  1   
  2   2   3  ar  
  3   2   4  ar  
  4   3   5  1   
  5   3   6  ar  
  6   4   7  ar  
  7   4  27  1   
  8   5  28  1   
  9   6   8  1   
 10   6   9  ar  
 11   7   9  ar  
 12   7  10  1   
 13   8  11  1   
 14   9  29  1   
 15  10  12  1   
 16  10  30  1   
 17  10  31  1   
 18  11  32  1   
 19  11  33  1   
 20  11  34  1   
 21  12  13  1   
 22  12  14  1   
 23  12  35  1   
 24  13  15  1   
 25  13  36  1   
 26  13  37  1   
 27  14  16  1   
 28  14  38  1   
 29  14  39  1   
 30  15  17  1   
 31  15  40  1   
 32  15  41  1   
 33  16  17  1   
 34  16  42  1   
 35  16  43  1   
 36  17  18  1   
 37  18  19  1   
 38  18  44  1   
 39  18  45  1   
 40  19  20  2   
 41  19  46  1   
 42  20  21  1   
 43  20  47  1   
 44  21  22  ar  
 45  21  23  ar  
 46  22  24  ar  
 47  22  48  1   
 48  23  25  ar  
 49  23  49  1   
 50  24  26  ar  
 51  24  50  1   
 52  25  26  ar  
 53  25  51  1   
 54  26  52  1   
@<TRIPOS>SUBSTRUCTURE
  1 ****  17 GROUP 4 **** **** 0

# MOE 2024.06 (io_trps.svl 2023.06)
