@<TRIPOS>MOLECULE
NONAME
39 41 1 0 0 
SMALL
USER_CHARGES


@<TRIPOS>ATOM
  1 S       -0.0710    -0.0490    -1.3440 S.3   1 <1>  -0.0800 
  2 C        1.4570     0.7570    -1.1410 C.2   1 <1>   0.1040 
  3 C       -0.9030     1.3200    -0.6180 C.2   1 <1>  -0.1400 
  4 N        2.6470     0.2260    -1.5170 N.am  1 <1>  -0.4940 
  5 C        1.3340     1.9920    -0.5610 C.2   1 <1>  -0.0760 
  6 C       -0.0470     2.2880    -0.2500 C.2   1 <1>  -0.1810 
  7 C       -2.4100     1.2820    -0.4810 C.3   1 <1>   0.0200 
  8 C        3.7770     0.9300    -1.3230 C.2   1 <1>   0.8210 
  9 C        2.5390     2.7270    -0.3860 C.cat 1 <1>   0.7850 
 10 C       -0.5760     3.5450     0.4280 C.3   1 <1>   0.0210 
 11 C       -2.9480     2.6930    -0.1310 C.3   1 <1>  -0.0800 
 12 S        5.2140     0.3500    -1.7410 S.2   1 <1>  -0.3800 
 13 N        3.6980     2.1640    -0.7630 N.pl3 1 <1>  -0.6850 
 14 N        2.5840     3.9450     0.1200 N.pl3 1 <1>  -0.7540 
 15 C       -2.0220     3.3530     0.9280 C.3   1 <1>  -0.1600 
 16 C       -4.4670     2.7100     0.2460 C.3   1 <1>   0.0000 
 17 C       -5.3020     1.9810    -0.8230 C.3   1 <1>  -0.2400 
 18 C       -4.7500     2.0450     1.6060 C.3   1 <1>  -0.2400 
 19 C       -4.9890     4.1580     0.3080 C.3   1 <1>  -0.2400 
 20 H        2.7050    -0.7030    -1.9440 H     1 <1>   0.3700 
 21 H       -2.6620     0.5710     0.2840 H     1 <1>   0.0800 
 22 H       -2.8320     0.9460    -1.4110 H     1 <1>   0.0800 
 23 H       -0.5530     4.3600    -0.2760 H     1 <1>   0.0800 
 24 H        0.0340     3.7960     1.2770 H     1 <1>   0.0800 
 25 H       -2.8500     3.2780    -1.0300 H     1 <1>   0.0800 
 26 H        4.5900     2.6360    -0.6560 H     1 <1>   0.4500 
 27 H        3.4310     4.4980     0.2570 H     1 <1>   0.4500 
 28 H        1.7330     4.4320     0.4060 H     1 <1>   0.4500 
 29 H       -2.4000     4.3130     1.2230 H     1 <1>   0.0800 
 30 H       -1.9970     2.7300     1.8050 H     1 <1>   0.0800 
 31 H       -5.0900     0.9280    -0.8360 H     1 <1>   0.0800 
 32 H       -5.1020     2.3860    -1.8000 H     1 <1>   0.0800 
 33 H       -6.3540     2.0930    -0.6250 H     1 <1>   0.0800 
 34 H       -4.2500     2.5630     2.4040 H     1 <1>   0.0800 
 35 H       -4.4340     1.0190     1.6140 H     1 <1>   0.0800 
 36 H       -5.8050     2.0640     1.8160 H     1 <1>   0.0800 
 37 H       -4.5500     4.7030     1.1230 H     1 <1>   0.0800 
 38 H       -6.0550     4.1690     0.4560 H     1 <1>   0.0800 
 39 H       -4.7750     4.6780    -0.6080 H     1 <1>   0.0800 
@<TRIPOS>BOND
  1   1   2  1   
  2   1   3  1   
  3   2   4  1   
  4   2   5  2   
  5   3   6  2   
  6   3   7  1   
  7   4   8  am  
  8   4  20  1   
  9   5   6  1   
 10   5   9  1   
 11   6  10  1   
 12   7  11  1   
 13   7  21  1   
 14   7  22  1   
 15   8  12  2   
 16   8  13  1   
 17   9  13  ar  
 18   9  14  ar  
 19  10  15  1   
 20  10  23  1   
 21  10  24  1   
 22  11  15  1   
 23  11  16  1   
 24  11  25  1   
 25  13  26  1   
 26  14  27  1   
 27  14  28  1   
 28  15  29  1   
 29  15  30  1   
 30  16  17  1   
 31  16  18  1   
 32  16  19  1   
 33  17  31  1   
 34  17  32  1   
 35  17  33  1   
 36  18  34  1   
 37  18  35  1   
 38  18  36  1   
 39  19  37  1   
 40  19  38  1   
 41  19  39  1   
@<TRIPOS>SUBSTRUCTURE
  1 ****   6 GROUP 4 **** **** 0

# MOE 2024.06 (io_trps.svl 2023.06)
