@<TRIPOS>MOLECULE
NONAME
26 26 1 0 0 
SMALL
USER_CHARGES


@<TRIPOS>ATOM
  1 O       -0.5560     0.5440     0.2770 O.2   1 <1>  -0.5700 
  2 C       -1.5920     1.1410     0.1110 C.2   1 <1>   0.8410 
  3 N       -2.6500     0.8120     0.8710 N.am  1 <1>  -0.4900 
  4 N       -1.6840     2.1350    -0.8110 N.2   1 <1>  -0.6610 
  5 C       -3.8620     1.3890     0.7950 C.2   1 <1>   0.5690 
  6 C       -2.7900     2.7250    -1.0230 C.2   1 <1>   0.4390 
  7 O       -4.7000     1.1010     1.6120 O.2   1 <1>  -0.5700 
  8 C       -4.1360     2.4010    -0.3280 C.3   1 <1>   0.1220 
  9 N       -2.7750     3.7030    -1.9510 N.pl3 1 <1>  -0.8500 
 10 C       -5.0710     1.7770    -1.4070 C.3   1 <1>  -0.1600 
 11 C       -4.7710     3.6950     0.2650 C.3   1 <1>  -0.1600 
 12 C       -6.4900     1.3870    -0.9570 C.3   1 <1>  -0.2400 
 13 C       -3.8600     4.4540     1.2460 C.3   1 <1>  -0.2400 
 14 H       -2.4870     0.1200     1.5920 H     1 <1>   0.3700 
 15 H       -1.8950     3.9240    -2.4220 H     1 <1>   0.4000 
 16 H       -3.5790     4.2770    -2.2060 H     1 <1>   0.4000 
 17 H       -4.5920     0.8960    -1.8010 H     1 <1>   0.0800 
 18 H       -5.1710     2.4660    -2.2270 H     1 <1>   0.0800 
 19 H       -5.6730     3.4370     0.7930 H     1 <1>   0.0800 
 20 H       -5.0510     4.3600    -0.5320 H     1 <1>   0.0800 
 21 H       -6.4630     0.6500    -0.1740 H     1 <1>   0.0800 
 22 H       -7.0280     0.9630    -1.7870 H     1 <1>   0.0800 
 23 H       -7.0410     2.2420    -0.6100 H     1 <1>   0.0800 
 24 H       -3.6040     3.8360     2.0890 H     1 <1>   0.0800 
 25 H       -4.3740     5.3240     1.6180 H     1 <1>   0.0800 
 26 H       -2.9540     4.7810     0.7670 H     1 <1>   0.0800 
@<TRIPOS>BOND
  1   1   2  2   
  2   2   3  am  
  3   2   4  1   
  4   3   5  am  
  5   3  14  1   
  6   4   6  2   
  7   5   7  2   
  8   5   8  1   
  9   6   8  1   
 10   6   9  1   
 11   8  10  1   
 12   8  11  1   
 13   9  15  1   
 14   9  16  1   
 15  10  12  1   
 16  10  17  1   
 17  10  18  1   
 18  11  13  1   
 19  11  19  1   
 20  11  20  1   
 21  12  21  1   
 22  12  22  1   
 23  12  23  1   
 24  13  24  1   
 25  13  25  1   
 26  13  26  1   
@<TRIPOS>SUBSTRUCTURE
  1 ****   8 GROUP 4 **** **** 0

# MOE 2024.06 (io_trps.svl 2023.06)
