@<TRIPOS>MOLECULE
NONAME
51 53 1 0 0 
SMALL
USER_CHARGES


@<TRIPOS>ATOM
  1 F        2.2280     3.4910     0.8190 F     1 <1>  -0.1900 
  2 C        0.9480     3.5910     0.5670 C.ar  1 <1>   0.1900 
  3 C        0.4190     4.8370     0.2860 C.ar  1 <1>  -0.1500 
  4 C        0.1720     2.4480     0.5910 C.ar  1 <1>  -0.1500 
  5 C       -0.9360     4.9340     0.0210 C.ar  1 <1>  -0.1500 
  6 C       -1.1810     2.5610     0.3240 C.ar  1 <1>  -0.1500 
  7 C       -1.7460     3.8030     0.0370 C.ar  1 <1>   0.1000 
  8 N       -3.1030     3.9340    -0.2340 N.pl3 1 <1>  -0.8380 
  9 C       -4.0280     3.6560     0.9050 C.3   1 <1>   0.2090 
 10 C       -3.5630     3.3760    -1.5400 C.3   1 <1>   0.2090 
 11 C       -5.4630     4.1170     0.5760 C.3   1 <1>   0.3430 
 12 C       -5.0030     3.8340    -1.8620 C.3   1 <1>   0.3430 
 13 N       -5.9600     3.5540    -0.7320 N.4   1 <1>  -0.9590 
 14 C       -7.3730     3.9390    -1.0350 C.3   1 <1>   0.3430 
 15 C       -8.3470     3.0810    -0.1990 C.3   1 <1>   0.2000 
 16 O       -7.8080     1.8040    -0.0410 O.3   1 <1>  -0.6800 
 17 C       -9.7400     2.9420    -0.8310 C.3   1 <1>   0.1200 
 18 O      -10.4140     1.9260    -0.1570 O.3   1 <1>  -0.5600 
 19 C      -11.7040     1.6630    -0.6210 C.3   1 <1>   0.2630 
 20 C      -12.2620     0.4930     0.1690 C.ar  1 <1>  -0.1430 
 21 C      -12.3600    -0.7650    -0.4080 C.ar  1 <1>  -0.1500 
 22 C      -12.6840     0.6730     1.4780 C.ar  1 <1>  -0.1500 
 23 C      -12.8780    -1.8280     0.3140 C.ar  1 <1>  -0.1500 
 24 C      -13.2010    -0.3880     2.2010 C.ar  1 <1>  -0.1500 
 25 C      -13.2990    -1.6390     1.6180 C.ar  1 <1>  -0.1500 
 26 H        1.0560     5.7030     0.2770 H     1 <1>   0.1500 
 27 H        0.6230     1.4970     0.8140 H     1 <1>   0.1500 
 28 H       -1.3760     5.8890    -0.2000 H     1 <1>   0.1500 
 29 H       -1.8000     1.6830     0.3370 H     1 <1>   0.1500 
 30 H       -3.6770     4.1770     1.7800 H     1 <1>   0.0800 
 31 H       -4.0270     2.6020     1.1260 H     1 <1>   0.0800 
 32 H       -3.5210     2.3010    -1.5100 H     1 <1>   0.0800 
 33 H       -2.9000     3.7110    -2.3200 H     1 <1>   0.0800 
 34 H       -5.4660     5.1930     0.5300 H     1 <1>   0.0800 
 35 H       -6.1180     3.8140     1.3760 H     1 <1>   0.0800 
 36 H       -5.3360     3.3360    -2.7570 H     1 <1>   0.0800 
 37 H       -4.9790     4.8920    -2.0580 H     1 <1>   0.0800 
 38 H       -6.0270     2.5260    -0.5940 H     1 <1>   0.4500 
 39 H       -7.5750     3.7510    -2.0770 H     1 <1>   0.0800 
 40 H       -7.5370     4.9880    -0.8490 H     1 <1>   0.0800 
 41 H       -8.4560     3.5100     0.7830 H     1 <1>   0.0800 
 42 H       -8.5590     1.2120     0.2220 H     1 <1>   0.4000 
 43 H       -9.6610     2.6710    -1.8710 H     1 <1>   0.0800 
 44 H      -10.2990     3.8580    -0.7350 H     1 <1>   0.0800 
 45 H      -11.6580     1.4240    -1.6700 H     1 <1>   0.0800 
 46 H      -12.3140     2.5370    -0.4740 H     1 <1>   0.0800 
 47 H      -12.0340    -0.9270    -1.4200 H     1 <1>   0.1500 
 48 H      -12.6070     1.6420     1.9400 H     1 <1>   0.1500 
 49 H      -12.9520    -2.8010    -0.1380 H     1 <1>   0.1500 
 50 H      -13.5260    -0.2400     3.2160 H     1 <1>   0.1500 
 51 H      -13.7000    -2.4640     2.1800 H     1 <1>   0.1500 
@<TRIPOS>BOND
  1   1   2  1   
  2   2   3  ar  
  3   2   4  ar  
  4   3   5  ar  
  5   3  26  1   
  6   4   6  ar  
  7   4  27  1   
  8   5   7  ar  
  9   5  28  1   
 10   6   7  ar  
 11   6  29  1   
 12   7   8  1   
 13   8   9  1   
 14   8  10  1   
 15   9  11  1   
 16   9  30  1   
 17   9  31  1   
 18  10  12  1   
 19  10  32  1   
 20  10  33  1   
 21  11  13  1   
 22  11  34  1   
 23  11  35  1   
 24  12  13  1   
 25  12  36  1   
 26  12  37  1   
 27  13  14  1   
 28  13  38  1   
 29  14  15  1   
 30  14  39  1   
 31  14  40  1   
 32  15  16  1   
 33  15  17  1   
 34  15  41  1   
 35  16  42  1   
 36  17  18  1   
 37  17  43  1   
 38  17  44  1   
 39  18  19  1   
 40  19  20  1   
 41  19  45  1   
 42  19  46  1   
 43  20  21  ar  
 44  20  22  ar  
 45  21  23  ar  
 46  21  47  1   
 47  22  24  ar  
 48  22  48  1   
 49  23  25  ar  
 50  23  49  1   
 51  24  25  ar  
 52  24  50  1   
 53  25  51  1   
@<TRIPOS>SUBSTRUCTURE
  1 ****  13 GROUP 4 **** **** 0

# MOE 2024.06 (io_trps.svl 2023.06)
