@<TRIPOS>MOLECULE
NONAME
44 45 1 0 0 
SMALL
USER_CHARGES


@<TRIPOS>ATOM
  1 S       -0.4490     0.3190    -0.7470 S.o2  1 <1>   1.4470 
  2 O       -1.3650     1.4170    -0.9640 O.2   1 <1>  -0.6500 
  3 O       -0.1190    -0.5520    -1.8560 O.2   1 <1>  -0.6500 
  4 N        1.0170     0.9830    -0.2090 N.am  1 <1>  -0.8490 
  5 C       -1.0120    -0.6590     0.6750 C.ar  1 <1>  -0.0090 
  6 C        1.4420     2.0930    -1.0650 C.3   1 <1>   0.1960 
  7 C        2.0650    -0.0350    -0.0820 C.3   1 <1>   0.1960 
  8 C       -1.4220    -1.9800     0.5260 C.ar  1 <1>  -0.1500 
  9 C       -1.0490    -0.1070     1.9500 C.ar  1 <1>  -0.1500 
 10 C        2.6880     2.7690    -0.4840 C.3   1 <1>  -0.1600 
 11 C        3.3230     0.5740     0.5440 C.3   1 <1>  -0.1600 
 12 C       -1.8480    -2.7260     1.6110 C.ar  1 <1>  -0.1500 
 13 C       -1.4730    -0.8460     3.0410 C.ar  1 <1>  -0.1500 
 14 C        3.8340     1.7630    -0.2860 C.3   1 <1>  -0.0190 
 15 C       -1.8730    -2.1590     2.8710 C.ar  1 <1>  -0.1500 
 16 C        5.0540     2.4240     0.3530 C.2   1 <1>   0.5690 
 17 O        4.9910     2.8290     1.4890 O.2   1 <1>  -0.5700 
 18 N        6.1930     2.5390    -0.3790 N.am  1 <1>  -0.7300 
 19 C        7.4270     3.2260     0.0860 C.3   1 <1>   0.1400 
 20 C        8.2000     2.3470     1.0700 C.3   1 <1>   0.1200 
 21 O        9.4500     2.9240     1.2870 O.3   1 <1>  -0.5600 
 22 C       10.2150     2.2610     2.2410 C.3   1 <1>   0.0400 
 23 H        0.6550     2.8270    -1.1280 H     1 <1>   0.0800 
 24 H        1.6430     1.7310    -2.0600 H     1 <1>   0.0800 
 25 H        2.3010    -0.4450    -1.0510 H     1 <1>   0.0800 
 26 H        1.7190    -0.8380     0.5480 H     1 <1>   0.0800 
 27 H       -1.4080    -2.4300    -0.4530 H     1 <1>   0.1500 
 28 H       -0.7400     0.9160     2.0870 H     1 <1>   0.1500 
 29 H        2.4290     3.2160     0.4610 H     1 <1>   0.0800 
 30 H        3.0060     3.5580    -1.1420 H     1 <1>   0.0800 
 31 H        4.0890    -0.1780     0.6110 H     1 <1>   0.0800 
 32 H        3.0910     0.8970     1.5440 H     1 <1>   0.0800 
 33 H       -2.1610    -3.7470     1.4740 H     1 <1>   0.1500 
 34 H       -1.4930    -0.3980     4.0200 H     1 <1>   0.1500 
 35 H        4.1220     1.3930    -1.2530 H     1 <1>   0.0800 
 36 H       -2.2040    -2.7360     3.7180 H     1 <1>   0.1500 
 37 H        6.2250     2.1800    -1.3340 H     1 <1>   0.3700 
 38 H        7.1600     4.1480     0.5740 H     1 <1>   0.0800 
 39 H        8.0490     3.4480    -0.7630 H     1 <1>   0.0800 
 40 H        8.3480     1.3630     0.6600 H     1 <1>   0.0800 
 41 H        7.6710     2.2900     2.0060 H     1 <1>   0.0800 
 42 H       11.1550     2.7760     2.3320 H     1 <1>   0.0800 
 43 H       10.3860     1.2480     1.9200 H     1 <1>   0.0800 
 44 H        9.7000     2.2790     3.1850 H     1 <1>   0.0800 
@<TRIPOS>BOND
  1   1   2  2   
  2   1   3  2   
  3   1   4  am  
  4   1   5  1   
  5   4   6  1   
  6   4   7  1   
  7   5   8  ar  
  8   5   9  ar  
  9   6  10  1   
 10   6  23  1   
 11   6  24  1   
 12   7  11  1   
 13   7  25  1   
 14   7  26  1   
 15   8  12  ar  
 16   8  27  1   
 17   9  13  ar  
 18   9  28  1   
 19  10  14  1   
 20  10  29  1   
 21  10  30  1   
 22  11  14  1   
 23  11  31  1   
 24  11  32  1   
 25  12  15  ar  
 26  12  33  1   
 27  13  15  ar  
 28  13  34  1   
 29  14  16  1   
 30  14  35  1   
 31  15  36  1   
 32  16  17  2   
 33  16  18  am  
 34  18  19  1   
 35  18  37  1   
 36  19  20  1   
 37  19  38  1   
 38  19  39  1   
 39  20  21  1   
 40  20  40  1   
 41  20  41  1   
 42  21  22  1   
 43  22  42  1   
 44  22  43  1   
 45  22  44  1   
@<TRIPOS>SUBSTRUCTURE
  1 ****  11 GROUP 4 **** **** 0

# MOE 2024.06 (io_trps.svl 2023.06)
