@<TRIPOS>MOLECULE
NONAME
27 28 1 0 0 
SMALL
USER_CHARGES


@<TRIPOS>ATOM
  1 O       -0.4560     0.4270    -0.9550 O.2   1 <1>  -0.5700 
  2 C       -0.8390     1.2120    -0.1240 C.2   1 <1>   0.5770 
  3 N        0.0050     2.1280     0.4430 N.am  1 <1>  -0.5470 
  4 C       -2.2940     1.1910     0.3240 C.3   1 <1>   0.0530 
  5 C        1.3740     2.2760     0.1820 C.ar  1 <1>   0.1170 
  6 C       -3.3300     0.8240    -0.7750 C.3   1 <1>   0.0000 
  7 C       -2.9850     2.5820     0.3890 C.3   1 <1>   0.0000 
  8 C        2.3120     1.2780     0.4810 C.ar  1 <1>   0.0730 
  9 C        1.8060     3.4660    -0.3930 C.ar  1 <1>  -0.1500 
 10 C       -4.2650     1.8820    -0.1350 C.3   1 <1>   0.0000 
 11 C        1.9330     0.0530     1.1260 C.1   1 <1>   0.4840 
 12 C        3.6500     1.4990     0.1720 C.ar  1 <1>  -0.1500 
 13 C        3.1400     3.6720    -0.6870 C.ar  1 <1>  -0.1500 
 14 N        1.6650    -0.9030     1.6890 N.1   1 <1>  -0.5570 
 15 C        4.0650     2.6840    -0.4060 C.ar  1 <1>  -0.1500 
 16 H       -0.4230     2.8250     1.0520 H     1 <1>   0.3700 
 17 H       -2.4470     0.6240     1.2270 H     1 <1>   0.0000 
 18 H       -3.7000    -0.1830    -0.7050 H     1 <1>   0.0000 
 19 H       -3.0170     1.1020    -1.7670 H     1 <1>   0.0000 
 20 H       -2.5850     3.2890    -0.3180 H     1 <1>   0.0000 
 21 H       -3.0800     2.9750     1.3850 H     1 <1>   0.0000 
 22 H        1.0890     4.2340    -0.6240 H     1 <1>   0.1500 
 23 H       -4.8720     1.4770     0.6570 H     1 <1>   0.0000 
 24 H       -4.8190     2.4640    -0.8500 H     1 <1>   0.0000 
 25 H        4.3790     0.7360     0.3910 H     1 <1>   0.1500 
 26 H        3.4590     4.5960    -1.1370 H     1 <1>   0.1500 
 27 H        5.1060     2.8390    -0.6390 H     1 <1>   0.1500 
@<TRIPOS>BOND
  1   1   2  2   
  2   2   3  am  
  3   2   4  1   
  4   3   5  1   
  5   3  16  1   
  6   4   6  1   
  7   4   7  1   
  8   4  17  1   
  9   5   8  ar  
 10   5   9  ar  
 11   6  10  1   
 12   6  18  1   
 13   6  19  1   
 14   7  10  1   
 15   7  20  1   
 16   7  21  1   
 17   8  11  1   
 18   8  12  ar  
 19   9  13  ar  
 20   9  22  1   
 21  10  23  1   
 22  10  24  1   
 23  11  14  3   
 24  12  15  ar  
 25  12  25  1   
 26  13  15  ar  
 27  13  26  1   
 28  15  27  1   
@<TRIPOS>SUBSTRUCTURE
  1 ****   3 GROUP 4 **** **** 0

# MOE 2024.06 (io_trps.svl 2023.06)
