@<TRIPOS>MOLECULE
NONAME
49 51 1 0 0 
SMALL
USER_CHARGES


@<TRIPOS>ATOM
  1 CL       1.0540     1.4000    -1.0300 Cl    1 <1>  -0.1770 
  2 C        2.3250     0.2240    -0.8090 C.ar  1 <1>   0.1770 
  3 C        3.6390     0.6330    -0.8500 C.ar  1 <1>  -0.1500 
  4 C        1.9900    -1.0990    -0.5940 C.ar  1 <1>  -0.1500 
  5 C        4.6810    -0.2830    -0.6690 C.ar  1 <1>   0.0860 
  6 C        3.0020    -2.0220    -0.4250 C.ar  1 <1>  -0.1500 
  7 C        4.3400    -1.6360    -0.4670 C.ar  1 <1>   0.1170 
  8 C        6.0580     0.1770    -0.6680 C.2   1 <1>   0.3980 
  9 N        5.3540    -2.5820    -0.3200 N.am  1 <1>  -0.5470 
 10 O        6.9600    -0.4830    -1.1600 O.2   1 <1>  -0.5700 
 11 C        6.3970     1.4380    -0.0440 C.ar  1 <1>   0.0860 
 12 C        5.4640    -3.7930     0.3010 C.2   1 <1>   0.5690 
 13 C        7.2590     2.3360    -0.6730 C.ar  1 <1>  -0.1500 
 14 C        5.8920     1.7940     1.2080 C.ar  1 <1>  -0.1500 
 15 O        4.5580    -4.3520     0.8680 O.2   1 <1>  -0.5700 
 16 C        6.8650    -4.4140     0.2760 C.3   1 <1>   0.1710 
 17 C        7.6040     3.5370    -0.0810 C.ar  1 <1>  -0.1500 
 18 C        6.2340     2.9930     1.8040 C.ar  1 <1>  -0.1500 
 19 N        7.9220    -3.3790     0.0380 N.3   1 <1>  -0.8100 
 20 C        7.0920     3.8670     1.1610 C.ar  1 <1>  -0.1500 
 21 C        8.2700    -2.6050     1.2560 C.3   1 <1>   0.1100 
 22 C        9.1330    -3.8580    -0.6560 C.3   1 <1>   0.1100 
 23 C        9.3300    -1.5080     0.9800 C.3   1 <1>   0.3430 
 24 C       10.0300    -2.6700    -1.0970 C.3   1 <1>   0.3430 
 25 N        9.5910    -1.3640    -0.4890 N.4   1 <1>  -0.9590 
 26 C       10.4770    -0.2180    -0.8240 C.3   1 <1>   0.2630 
 27 H        3.8480     1.6740    -1.0220 H     1 <1>   0.1500 
 28 H        0.9560    -1.3950    -0.5630 H     1 <1>   0.1500 
 29 H        2.7490    -3.0560    -0.2630 H     1 <1>   0.1500 
 30 H        6.2720    -2.2710    -0.6700 H     1 <1>   0.3700 
 31 H        7.6570     2.0910    -1.6430 H     1 <1>   0.1500 
 32 H        5.2230     1.1270     1.7260 H     1 <1>   0.1500 
 33 H        6.8760    -5.1360    -0.5210 H     1 <1>   0.0800 
 34 H        7.0440    -4.9330     1.2010 H     1 <1>   0.0800 
 35 H        8.2670     4.2220    -0.5840 H     1 <1>   0.1500 
 36 H        5.8320     3.2530     2.7700 H     1 <1>   0.1500 
 37 H        7.3560     4.8030     1.6240 H     1 <1>   0.1500 
 38 H        8.6410    -3.2670     2.0200 H     1 <1>   0.0800 
 39 H        7.3830    -2.1330     1.6440 H     1 <1>   0.0800 
 40 H        8.8550    -4.4230    -1.5300 H     1 <1>   0.0800 
 41 H        9.6910    -4.5120    -0.0070 H     1 <1>   0.0800 
 42 H       10.2440    -1.7640     1.4880 H     1 <1>   0.0800 
 43 H        8.9790    -0.5720     1.3840 H     1 <1>   0.0800 
 44 H        9.9930    -2.5910    -2.1710 H     1 <1>   0.0800 
 45 H       11.0500    -2.8810    -0.8220 H     1 <1>   0.0800 
 46 H        8.6410    -1.1850    -0.8890 H     1 <1>   0.4500 
 47 H       11.4600    -0.3680    -0.4070 H     1 <1>   0.0800 
 48 H       10.0660     0.6960    -0.4280 H     1 <1>   0.0800 
 49 H       10.5650    -0.1170    -1.8940 H     1 <1>   0.0800 
@<TRIPOS>BOND
  1   1   2  1   
  2   2   3  ar  
  3   2   4  ar  
  4   3   5  ar  
  5   3  27  1   
  6   4   6  ar  
  7   4  28  1   
  8   5   7  ar  
  9   5   8  1   
 10   6   7  ar  
 11   6  29  1   
 12   7   9  1   
 13   8  10  2   
 14   8  11  1   
 15   9  12  am  
 16   9  30  1   
 17  11  13  ar  
 18  11  14  ar  
 19  12  15  2   
 20  12  16  1   
 21  13  17  ar  
 22  13  31  1   
 23  14  18  ar  
 24  14  32  1   
 25  16  19  1   
 26  16  33  1   
 27  16  34  1   
 28  17  20  ar  
 29  17  35  1   
 30  18  20  ar  
 31  18  36  1   
 32  19  21  1   
 33  19  22  1   
 34  20  37  1   
 35  21  23  1   
 36  21  38  1   
 37  21  39  1   
 38  22  24  1   
 39  22  40  1   
 40  22  41  1   
 41  23  25  1   
 42  23  42  1   
 43  23  43  1   
 44  24  25  1   
 45  24  44  1   
 46  24  45  1   
 47  25  26  1   
 48  25  46  1   
 49  26  47  1   
 50  26  48  1   
 51  26  49  1   
@<TRIPOS>SUBSTRUCTURE
  1 ****   8 GROUP 4 **** **** 0

# MOE 2024.06 (io_trps.svl 2023.06)
