@<TRIPOS>MOLECULE
NONAME
37 37 1 0 0 
SMALL
USER_CHARGES


@<TRIPOS>ATOM
  1 S        0.5210     0.1190     0.5830 S.o2  1 <1>   1.3330 
  2 O        1.8420     0.1110     1.1690 O.2   1 <1>  -0.6500 
  3 O        0.3060    -0.4670    -0.7150 O.2   1 <1>  -0.6500 
  4 N        0.0290     1.7750     0.5220 N.am  1 <1>  -0.6930 
  5 C       -0.6240    -0.5690     1.7580 C.3   1 <1>  -0.1350 
  6 C       -1.1960     2.1380    -0.0250 C.ar  1 <1>   0.1990 
  7 C        1.1210     2.7990     0.4780 C.3   1 <1>   0.2570 
  8 C       -1.4440     2.0210    -1.3860 C.ar  1 <1>  -0.1500 
  9 C       -2.1990     2.6350     0.7980 C.ar  1 <1>  -0.1500 
 10 C        1.9940     2.7510    -0.7820 C.2   1 <1>   0.5690 
 11 C       -2.6700     2.3860    -1.9110 C.ar  1 <1>  -0.1500 
 12 C       -3.4280     3.0020     0.2780 C.ar  1 <1>  -0.1500 
 13 O        1.8560     3.6140    -1.6180 O.2   1 <1>  -0.5700 
 14 N        2.9150     1.7580    -0.9230 N.am  1 <1>  -0.7300 
 15 C       -3.6700     2.8780    -1.0880 C.ar  1 <1>   0.0820 
 16 C        3.7730     1.5360    -2.1110 C.3   1 <1>   0.0600 
 17 O       -4.8450     3.2100    -1.6920 O.3   1 <1>  -0.3630 
 18 C       -5.8850     3.8860    -1.0180 C.3   1 <1>   0.1200 
 19 C       -5.5290     5.3680    -0.8820 C.3   1 <1>  -0.2400 
 20 H       -0.4100    -1.6080     1.9140 H     1 <1>   0.0800 
 21 H       -1.6280    -0.4760     1.3920 H     1 <1>   0.0800 
 22 H       -0.5470    -0.0560     2.6960 H     1 <1>   0.0800 
 23 H        1.7550     2.6780     1.3370 H     1 <1>   0.0800 
 24 H        0.6810     3.7790     0.5370 H     1 <1>   0.0800 
 25 H       -0.6710     1.6450    -2.0340 H     1 <1>   0.1500 
 26 H       -2.0100     2.7350     1.8510 H     1 <1>   0.1500 
 27 H       -2.8570     2.2930    -2.9660 H     1 <1>   0.1500 
 28 H       -4.1780     3.3800     0.9460 H     1 <1>   0.1500 
 29 H        2.9360     1.0110    -0.2110 H     1 <1>   0.3700 
 30 H        3.6550     2.3440    -2.8140 H     1 <1>   0.0800 
 31 H        3.4920     0.6140    -2.5910 H     1 <1>   0.0800 
 32 H        4.8040     1.4810    -1.8100 H     1 <1>   0.0800 
 33 H       -6.0630     3.4150    -0.0680 H     1 <1>   0.0800 
 34 H       -6.7710     3.7790    -1.6190 H     1 <1>   0.0800 
 35 H       -4.6410     5.4980    -0.2910 H     1 <1>   0.0800 
 36 H       -6.3370     5.8920    -0.4040 H     1 <1>   0.0800 
 37 H       -5.3730     5.7970    -1.8560 H     1 <1>   0.0800 
@<TRIPOS>BOND
  1   1   2  2   
  2   1   3  2   
  3   1   4  am  
  4   1   5  1   
  5   4   6  1   
  6   4   7  1   
  7   5  20  1   
  8   5  21  1   
  9   5  22  1   
 10   6   8  ar  
 11   6   9  ar  
 12   7  10  1   
 13   7  23  1   
 14   7  24  1   
 15   8  11  ar  
 16   8  25  1   
 17   9  12  ar  
 18   9  26  1   
 19  10  13  2   
 20  10  14  am  
 21  11  15  ar  
 22  11  27  1   
 23  12  15  ar  
 24  12  28  1   
 25  14  16  1   
 26  14  29  1   
 27  15  17  1   
 28  16  30  1   
 29  16  31  1   
 30  16  32  1   
 31  17  18  1   
 32  18  19  1   
 33  18  33  1   
 34  18  34  1   
 35  19  35  1   
 36  19  36  1   
 37  19  37  1   
@<TRIPOS>SUBSTRUCTURE
  1 ****   6 GROUP 4 **** **** 0

# MOE 2024.06 (io_trps.svl 2023.06)
