@<TRIPOS>MOLECULE
NONAME
46 50 1 0 0 
SMALL
USER_CHARGES


@<TRIPOS>ATOM
  1 N       -0.0490    -0.2670     1.5600 N.pl3 1 <1>   0.0330 
  2 C        0.0750    -1.5360     1.0570 C.ar  1 <1>  -0.1520 
  3 C       -1.3640    -0.0620     1.8730 C.2   1 <1>  -0.3020 
  4 C       -1.1760    -2.1450     1.0730 C.ar  1 <1>   0.0000 
  5 C        1.1990    -2.2150     0.5830 C.ar  1 <1>  -0.1500 
  6 C       -2.0740    -1.1810     1.5850 C.2   1 <1>  -0.1810 
  7 C       -1.3050    -3.4660     0.6270 C.ar  1 <1>  -0.1500 
  8 C        1.0550    -3.5080     0.1370 C.ar  1 <1>  -0.1500 
  9 C       -3.5520    -1.4170     1.7280 C.3   1 <1>   0.5240 
 10 C       -0.1960    -4.1340     0.1610 C.ar  1 <1>  -0.1500 
 11 N       -4.0840    -1.3170     0.3610 N.4   1 <1>  -0.9060 
 12 C       -5.5370    -1.5400     0.2490 C.3   1 <1>   0.4230 
 13 C       -5.9990    -1.4400    -1.3100 C.3   1 <1>  -0.0800 
 14 C       -6.3230    -0.4670     1.0910 C.3   1 <1>  -0.0800 
 15 C       -5.7830     0.0470    -1.8290 C.3   1 <1>  -0.1600 
 16 C       -7.5630    -1.7020    -1.3590 C.3   1 <1>  -0.1600 
 17 C       -6.0590     1.0020     0.5880 C.3   1 <1>  -0.1600 
 18 C       -7.8620    -0.7800     1.0640 C.3   1 <1>  -0.1600 
 19 C       -6.5430     1.1340    -0.9590 C.3   1 <1>  -0.0800 
 20 C       -8.3990    -0.6910    -0.4690 C.3   1 <1>  -0.0800 
 21 C       -8.0810     0.7600    -1.0160 C.3   1 <1>  -0.1600 
 22 H        0.7260     0.3960     1.6800 H     1 <1>   0.2700 
 23 H       -1.6980     0.8770     2.2810 H     1 <1>   0.1500 
 24 H        2.1600    -1.7310     0.5720 H     1 <1>   0.1500 
 25 H       -2.2580    -3.9610     0.6560 H     1 <1>   0.1500 
 26 H        1.9070    -4.0530    -0.2330 H     1 <1>   0.1500 
 27 H       -3.9900    -0.6640     2.3640 H     1 <1>   0.0800 
 28 H       -3.7360    -2.3930     2.1480 H     1 <1>   0.0800 
 29 H       -0.2740    -5.1500    -0.1860 H     1 <1>   0.1500 
 30 H       -3.5560    -1.9670    -0.2300 H     1 <1>   0.4500 
 31 H       -3.8610    -0.3790     0.0150 H     1 <1>   0.4500 
 32 H       -5.7800    -2.5230     0.6200 H     1 <1>   0.0800 
 33 H       -5.4810    -2.1560    -1.9240 H     1 <1>   0.0800 
 34 H       -6.5740    -0.4170     0.3070 H     1 <1>   0.0800 
 35 H       -6.1330     0.1150    -2.8460 H     1 <1>   0.0800 
 36 H       -4.7340     0.2830    -1.8510 H     1 <1>   0.0800 
 37 H       -7.7670    -2.7060    -1.0290 H     1 <1>   0.0800 
 38 H       -7.9030    -1.6330    -2.3780 H     1 <1>   0.0800 
 39 H       -5.0200     1.2660     0.6740 H     1 <1>   0.0800 
 40 H       -6.6150     1.6980     1.1950 H     1 <1>   0.0800 
 41 H       -8.3940    -0.0700     1.6750 H     1 <1>   0.0800 
 42 H       -8.0540    -1.7630     1.4620 H     1 <1>   0.0800 
 43 H       -6.3750     2.1280    -1.3390 H     1 <1>   0.0800 
 44 H       -9.4550    -0.9020    -0.5260 H     1 <1>   0.0800 
 45 H       -8.4270     0.8390    -2.0330 H     1 <1>   0.0800 
 46 H       -8.6370     1.4800    -0.4400 H     1 <1>   0.0800 
@<TRIPOS>BOND
  1   1   2  1   
  2   1   3  1   
  3   1  22  1   
  4   2   4  ar  
  5   2   5  ar  
  6   3   6  2   
  7   3  23  1   
  8   4   6  1   
  9   4   7  ar  
 10   5   8  ar  
 11   5  24  1   
 12   6   9  1   
 13   7  10  ar  
 14   7  25  1   
 15   8  10  ar  
 16   8  26  1   
 17   9  11  1   
 18   9  27  1   
 19   9  28  1   
 20  10  29  1   
 21  11  12  1   
 22  11  30  1   
 23  11  31  1   
 24  12  13  1   
 25  12  14  1   
 26  12  32  1   
 27  13  15  1   
 28  13  16  1   
 29  13  33  1   
 30  14  17  1   
 31  14  18  1   
 32  14  34  1   
 33  15  19  1   
 34  15  35  1   
 35  15  36  1   
 36  16  20  1   
 37  16  37  1   
 38  16  38  1   
 39  17  19  1   
 40  17  39  1   
 41  17  40  1   
 42  18  20  1   
 43  18  41  1   
 44  18  42  1   
 45  19  21  1   
 46  19  43  1   
 47  20  21  1   
 48  20  44  1   
 49  21  45  1   
 50  21  46  1   
@<TRIPOS>SUBSTRUCTURE
  1 ****  11 GROUP 4 **** **** 0

# MOE 2024.06 (io_trps.svl 2023.06)
