@<TRIPOS>MOLECULE
NONAME
40 41 1 0 0 
SMALL
USER_CHARGES


@<TRIPOS>ATOM
  1 BR       1.4210    -2.4860     1.2340 Br    1 <1>  -0.1100 
  2 C        0.9080    -1.5530    -0.3690 C.2   1 <1>  -0.0280 
  3 C       -0.3810    -1.5260    -0.7590 C.2   1 <1>  -0.1780 
  4 C        2.0780    -0.8740    -1.0870 C.3   1 <1>   0.3380 
  5 C       -1.5300    -2.1460    -0.1460 C.ar  1 <1>   0.0280 
  6 O        2.9970    -1.8460    -1.5220 O.3   1 <1>  -0.4300 
  7 C        2.7840     0.2890    -0.3580 C.3   1 <1>   0.0610 
  8 C       -1.5370    -3.4880     0.2230 C.ar  1 <1>  -0.1500 
  9 C       -2.6890    -1.4060     0.0700 C.ar  1 <1>  -0.1500 
 10 C        4.1060    -2.2400    -0.9080 C.2   1 <1>   0.6590 
 11 C        3.7830    -0.2840     0.6620 C.2   1 <1>   0.4480 
 12 C        1.7380     1.2030     0.3290 C.3   1 <1>  -0.2400 
 13 C        3.5210     1.1700    -1.3930 C.3   1 <1>  -0.2400 
 14 C       -2.6530    -4.0680     0.7990 C.ar  1 <1>  -0.1500 
 15 C       -3.8100    -1.9790     0.6440 C.ar  1 <1>  -0.1500 
 16 O        4.6540    -3.2330    -1.3060 O.2   1 <1>  -0.5700 
 17 C        4.7240    -1.4200     0.2390 C.3   1 <1>   0.1220 
 18 O        3.8560     0.1810     1.7640 O.2   1 <1>  -0.5700 
 19 C       -3.7930    -3.3130     1.0110 C.ar  1 <1>  -0.1500 
 20 C        5.0330    -2.3510     1.4420 C.3   1 <1>  -0.2400 
 21 C        6.0840    -0.8290    -0.2070 C.3   1 <1>  -0.2400 
 22 H       -0.6440    -0.9730    -1.6430 H     1 <1>   0.1500 
 23 H        1.6610    -0.4630    -1.9900 H     1 <1>   0.0800 
 24 H       -0.6600    -4.0870     0.0540 H     1 <1>   0.1500 
 25 H       -2.7120    -0.3680    -0.2090 H     1 <1>   0.1500 
 26 H        2.2200     2.0620     0.7640 H     1 <1>   0.0800 
 27 H        1.0000     1.5480    -0.3730 H     1 <1>   0.0800 
 28 H        1.2350     0.6800     1.1250 H     1 <1>   0.0800 
 29 H        2.8170     1.6960    -2.0160 H     1 <1>   0.0800 
 30 H        4.1460     0.5830    -2.0400 H     1 <1>   0.0800 
 31 H        4.1340     1.9010    -0.8920 H     1 <1>   0.0800 
 32 H       -2.6360    -5.1060     1.0800 H     1 <1>   0.1500 
 33 H       -4.6950    -1.3890     0.8060 H     1 <1>   0.1500 
 34 H       -4.6630    -3.7620     1.4580 H     1 <1>   0.1500 
 35 H        5.4970    -1.7990     2.2410 H     1 <1>   0.0800 
 36 H        5.7000    -3.1440     1.1490 H     1 <1>   0.0800 
 37 H        4.1350    -2.7980     1.8240 H     1 <1>   0.0800 
 38 H        6.7770    -1.6200    -0.4380 H     1 <1>   0.0800 
 39 H        5.9840    -0.2180    -1.0830 H     1 <1>   0.0800 
 40 H        6.5050    -0.2270     0.5800 H     1 <1>   0.0800 
@<TRIPOS>BOND
  1   1   2  1   
  2   2   3  2   
  3   2   4  1   
  4   3   5  1   
  5   3  22  1   
  6   4   6  1   
  7   4   7  1   
  8   4  23  1   
  9   5   8  ar  
 10   5   9  ar  
 11   6  10  1   
 12   7  11  1   
 13   7  12  1   
 14   7  13  1   
 15   8  14  ar  
 16   8  24  1   
 17   9  15  ar  
 18   9  25  1   
 19  10  16  2   
 20  10  17  1   
 21  11  17  1   
 22  11  18  2   
 23  12  26  1   
 24  12  27  1   
 25  12  28  1   
 26  13  29  1   
 27  13  30  1   
 28  13  31  1   
 29  14  19  ar  
 30  14  32  1   
 31  15  19  ar  
 32  15  33  1   
 33  17  20  1   
 34  17  21  1   
 35  19  34  1   
 36  20  35  1   
 37  20  36  1   
 38  20  37  1   
 39  21  38  1   
 40  21  39  1   
 41  21  40  1   
@<TRIPOS>SUBSTRUCTURE
  1 ****   2 GROUP 4 **** **** 0

# MOE 2024.06 (io_trps.svl 2023.06)
