@<TRIPOS>MOLECULE
NONAME
46 48 1 0 0 
SMALL
USER_CHARGES


@<TRIPOS>ATOM
  1 O       -0.3370     1.4970    -2.1510 O.2   1 <1>  -0.5700 
  2 C       -0.1240     1.8020    -0.9990 C.2   1 <1>   0.5690 
  3 N       -1.0550     1.6940     0.0010 N.am  1 <1>  -0.5470 
  4 C        1.2830     2.2890    -0.5960 C.3   1 <1>   0.3950 
  5 C       -2.4040     1.3130     0.0050 C.ar  1 <1>   0.1170 
  6 N        1.7280     1.7600     0.7400 N.3   1 <1>  -0.8100 
  7 C        1.3110     3.8220    -0.6190 C.ar  1 <1>  -0.1430 
  8 C       -2.9900     0.9540     1.2110 C.ar  1 <1>  -0.1500 
  9 C       -3.1890     1.2890    -1.1440 C.ar  1 <1>  -0.1500 
 10 C        3.0500     2.3100     1.1310 C.3   1 <1>   0.1100 
 11 C        1.8270     0.2790     0.7130 C.3   1 <1>   0.1100 
 12 C        0.7040     4.5700     0.3830 C.ar  1 <1>  -0.1500 
 13 C        1.9480     4.4850    -1.6580 C.ar  1 <1>  -0.1500 
 14 C       -4.3190     0.5740     1.2820 C.ar  1 <1>   0.0830 
 15 C       -4.5180     0.9100    -1.0870 C.ar  1 <1>  -0.1500 
 16 C        3.5490     1.6940     2.4500 C.3   1 <1>   0.1200 
 17 C        2.3590    -0.2740     2.0470 C.3   1 <1>   0.1200 
 18 C        0.7360     5.9530     0.3470 C.ar  1 <1>  -0.1500 
 19 C        1.9820     5.8680    -1.6950 C.ar  1 <1>  -0.1500 
 20 O       -4.7930     0.2410     2.5090 O.3   1 <1>  -0.3630 
 21 C       -5.0880     0.5520     0.1220 C.ar  1 <1>  -0.1500 
 22 O        3.5960     0.3000     2.3530 O.3   1 <1>  -0.5600 
 23 C        1.3770     6.6030    -0.6920 C.ar  1 <1>  -0.1500 
 24 C       -6.1340    -0.1560     2.6910 C.3   1 <1>   0.0400 
 25 H       -0.6420     1.8670     0.9210 H     1 <1>   0.3700 
 26 H        1.9670     1.9280    -1.3450 H     1 <1>   0.0800 
 27 H       -2.4120     0.9650     2.1150 H     1 <1>   0.1500 
 28 H       -2.7650     1.5700    -2.0910 H     1 <1>   0.1500 
 29 H        2.9840     3.3750     1.2650 H     1 <1>   0.0800 
 30 H        3.7750     2.1150     0.3600 H     1 <1>   0.0800 
 31 H        2.4890    -0.0340    -0.0760 H     1 <1>   0.0800 
 32 H        0.8600    -0.1570     0.5270 H     1 <1>   0.0800 
 33 H        0.2060     4.0750     1.1980 H     1 <1>   0.1500 
 34 H        2.4190     3.9290    -2.4510 H     1 <1>   0.1500 
 35 H       -5.1080     0.8970    -1.9870 H     1 <1>   0.1500 
 36 H        2.8970     1.9630     3.2630 H     1 <1>   0.0800 
 37 H        4.5420     2.0410     2.6710 H     1 <1>   0.0800 
 38 H        2.5000    -1.3380     1.9800 H     1 <1>   0.0800 
 39 H        1.6720    -0.0630     2.8480 H     1 <1>   0.0800 
 40 H        0.2620     6.5220     1.1280 H     1 <1>   0.1500 
 41 H        2.4780     6.3730    -2.5060 H     1 <1>   0.1500 
 42 H       -6.1210     0.2620     0.1390 H     1 <1>   0.1500 
 43 H        1.4020     7.6780    -0.7210 H     1 <1>   0.1500 
 44 H       -6.2810    -0.3670     3.7350 H     1 <1>   0.0800 
 45 H       -6.3180    -1.0420     2.1090 H     1 <1>   0.0800 
 46 H       -6.7810     0.6480     2.3860 H     1 <1>   0.0800 
@<TRIPOS>BOND
  1   1   2  2   
  2   2   3  am  
  3   2   4  1   
  4   3   5  1   
  5   3  25  1   
  6   4   6  1   
  7   4   7  1   
  8   4  26  1   
  9   5   8  ar  
 10   5   9  ar  
 11   6  10  1   
 12   6  11  1   
 13   7  12  ar  
 14   7  13  ar  
 15   8  14  ar  
 16   8  27  1   
 17   9  15  ar  
 18   9  28  1   
 19  10  16  1   
 20  10  29  1   
 21  10  30  1   
 22  11  17  1   
 23  11  31  1   
 24  11  32  1   
 25  12  18  ar  
 26  12  33  1   
 27  13  19  ar  
 28  13  34  1   
 29  14  20  1   
 30  14  21  ar  
 31  15  21  ar  
 32  15  35  1   
 33  16  22  1   
 34  16  36  1   
 35  16  37  1   
 36  17  22  1   
 37  17  38  1   
 38  17  39  1   
 39  18  23  ar  
 40  18  40  1   
 41  19  23  ar  
 42  19  41  1   
 43  20  24  1   
 44  21  42  1   
 45  23  43  1   
 46  24  44  1   
 47  24  45  1   
 48  24  46  1   
@<TRIPOS>SUBSTRUCTURE
  1 ****   3 GROUP 4 **** **** 0

# MOE 2024.06 (io_trps.svl 2023.06)
