@<TRIPOS>MOLECULE
ka-07519
31 32 1 0 0 
SMALL
USER_CHARGES


@<TRIPOS>ATOM
  1 N       -0.4930    -0.4050     1.1150 N.4   1 <1>  -0.9060 
  2 C       -1.7460    -0.7090     0.4190 C.3   1 <1>   0.5180 
  3 C        0.6810    -0.3460     0.2150 C.3   1 <1>   0.4860 
  4 C       -2.2650     0.5780    -0.2300 C.3   1 <1>  -0.1950 
  5 C       -2.7360    -1.2310     1.4500 C.3   1 <1>  -0.2400 
  6 C        0.9830    -1.7600    -0.2370 C.ar  1 <1>  -0.1430 
  7 C       -3.1890     0.5070    -1.4050 C.3   1 <1>  -0.2000 
  8 C       -1.8070     1.0690    -1.5710 C.3   1 <1>  -0.2000 
  9 C        1.6040    -2.6490     0.6300 C.ar  1 <1>  -0.1500 
 10 C        0.6360    -2.1810    -1.5130 C.ar  1 <1>  -0.1500 
 11 C        1.8590    -3.9490     0.2290 C.ar  1 <1>  -0.1500 
 12 C        0.8930    -3.4810    -1.9120 C.ar  1 <1>  -0.1500 
 13 C        1.5020    -4.3650    -1.0400 C.ar  1 <1>  -0.1500 
 14 H       -0.3250    -1.1530     1.7930 H     1 <1>   0.4500 
 15 H       -0.6070     0.4780     1.6190 H     1 <1>   0.4500 
 16 H       -1.5850    -1.4650    -0.3340 H     1 <1>   0.0800 
 17 H        1.5350     0.0480     0.7420 H     1 <1>   0.0800 
 18 H        0.4820     0.2880    -0.6340 H     1 <1>   0.0800 
 19 H       -2.5270     1.3230     0.5040 H     1 <1>   0.1000 
 20 H       -2.9150    -0.5070     2.2250 H     1 <1>   0.0800 
 21 H       -2.3830    -2.1500     1.8830 H     1 <1>   0.0800 
 22 H       -3.6740    -1.4380     0.9660 H     1 <1>   0.0800 
 23 H       -4.0260     1.1840    -1.4560 H     1 <1>   0.1000 
 24 H       -3.4100    -0.4430    -1.8640 H     1 <1>   0.1000 
 25 H       -1.1310     0.5030    -2.1880 H     1 <1>   0.1000 
 26 H       -1.7170     2.1300    -1.7410 H     1 <1>   0.1000 
 27 H        1.9030    -2.3500     1.6210 H     1 <1>   0.1500 
 28 H        0.1690    -1.5120    -2.2160 H     1 <1>   0.1500 
 29 H        2.3410    -4.6400     0.9000 H     1 <1>   0.1500 
 30 H        0.6240    -3.8090    -2.9020 H     1 <1>   0.1500 
 31 H        1.7020    -5.3770    -1.3520 H     1 <1>   0.1500 
@<TRIPOS>BOND
  1   1   2  1   
  2   1   3  1   
  3   1  14  1   
  4   1  15  1   
  5   2   4  1   
  6   2   5  1   
  7   2  16  1   
  8   3   6  1   
  9   3  17  1   
 10   3  18  1   
 11   4   7  1   
 12   4   8  1   
 13   4  19  1   
 14   5  20  1   
 15   5  21  1   
 16   5  22  1   
 17   6   9  ar  
 18   6  10  ar  
 19   7   8  1   
 20   7  23  1   
 21   7  24  1   
 22   8  25  1   
 23   8  26  1   
 24   9  11  ar  
 25   9  27  1   
 26  10  12  ar  
 27  10  28  1   
 28  11  13  ar  
 29  11  29  1   
 30  12  13  ar  
 31  12  30  1   
 32  13  31  1   
@<TRIPOS>SUBSTRUCTURE
  1 ****   6 GROUP 4 **** **** 0

# MOE 2024.06 (io_trps.svl 2023.06)
