@<TRIPOS>MOLECULE
NONAME
35 35 1 0 0 
SMALL
USER_CHARGES


@<TRIPOS>ATOM
  1 O        0.3730     0.2380     0.8020 O.3   1 <1>  -0.3630 
  2 C        0.4300    -1.0830     0.4640 C.ar  1 <1>   0.0820 
  3 C        1.2570     1.1840     0.2280 C.3   1 <1>   0.1200 
  4 C        1.5770    -1.7770     0.0430 C.ar  1 <1>   0.0820 
  5 C       -0.7740    -1.7590     0.5670 C.ar  1 <1>  -0.1500 
  6 C        0.6730     2.5900     0.3940 C.3   1 <1>   0.2000 
  7 O        2.7830    -1.1380    -0.0160 O.3   1 <1>  -0.3630 
  8 C        1.4610    -3.1240    -0.2940 C.ar  1 <1>  -0.1500 
  9 C       -0.8700    -3.0990     0.2400 C.ar  1 <1>  -0.1500 
 10 O       -0.6390     2.5950    -0.0780 O.3   1 <1>  -0.6800 
 11 C        1.4920     3.6480    -0.3620 C.3   1 <1>   0.1200 
 12 C        3.9950    -1.8520    -0.1290 C.3   1 <1>   0.0400 
 13 C        0.2480    -3.7890    -0.1990 C.ar  1 <1>  -0.1430 
 14 O        0.8050     4.8510    -0.3520 O.3   1 <1>  -0.6800 
 15 C        0.1550    -5.2610    -0.5740 C.3   1 <1>   0.1220 
 16 C        1.0760    -6.0960     0.3010 C.2   1 <1>  -0.2880 
 17 C        2.0590    -6.8860    -0.1430 C.2   1 <1>  -0.3000 
 18 H        1.3820     0.9490    -0.8150 H     1 <1>   0.0800 
 19 H        2.2030     1.1150     0.7330 H     1 <1>   0.0800 
 20 H       -1.6450    -1.2290     0.9050 H     1 <1>   0.1500 
 21 H        0.6500     2.8400     1.4410 H     1 <1>   0.0800 
 22 H        2.3100    -3.6850    -0.6340 H     1 <1>   0.1500 
 23 H       -1.8200    -3.5970     0.3280 H     1 <1>   0.1500 
 24 H       -1.0700     1.7700     0.2320 H     1 <1>   0.4000 
 25 H        1.6300     3.3530    -1.3880 H     1 <1>   0.0800 
 26 H        2.4530     3.8010     0.0960 H     1 <1>   0.0800 
 27 H        4.0420    -2.3110    -1.1000 H     1 <1>   0.0800 
 28 H        4.0400    -2.5930     0.6510 H     1 <1>   0.0800 
 29 H        4.8060    -1.1560    -0.0170 H     1 <1>   0.0800 
 30 H       -0.1470     4.6360    -0.4700 H     1 <1>   0.4000 
 31 H        0.4230    -5.3790    -1.6090 H     1 <1>   0.0800 
 32 H       -0.8540    -5.6130    -0.4550 H     1 <1>   0.0800 
 33 H        0.8520    -5.9830     1.3490 H     1 <1>   0.1500 
 34 H        2.6970    -7.4660     0.5020 H     1 <1>   0.1500 
 35 H        2.3100    -7.0210    -1.1810 H     1 <1>   0.1500 
@<TRIPOS>BOND
  1   1   2  1   
  2   1   3  1   
  3   2   4  ar  
  4   2   5  ar  
  5   3   6  1   
  6   3  18  1   
  7   3  19  1   
  8   4   7  1   
  9   4   8  ar  
 10   5   9  ar  
 11   5  20  1   
 12   6  10  1   
 13   6  11  1   
 14   6  21  1   
 15   7  12  1   
 16   8  13  ar  
 17   8  22  1   
 18   9  13  ar  
 19   9  23  1   
 20  10  24  1   
 21  11  14  1   
 22  11  25  1   
 23  11  26  1   
 24  12  27  1   
 25  12  28  1   
 26  12  29  1   
 27  13  15  1   
 28  14  30  1   
 29  15  16  1   
 30  15  31  1   
 31  15  32  1   
 32  16  17  2   
 33  16  33  1   
 34  17  34  1   
 35  17  35  1   
@<TRIPOS>SUBSTRUCTURE
  1 ****   2 GROUP 4 **** **** 0

# MOE 2024.06 (io_trps.svl 2023.06)
