@<TRIPOS>MOLECULE
NONAME
36 37 1 0 0 
SMALL
USER_CHARGES


@<TRIPOS>ATOM
  1 CL       0.7920    -0.6940     0.3680 Cl    1 <1>  -0.1770 
  2 C       -0.5010    -1.8560     0.2550 C.ar  1 <1>   0.1770 
  3 C       -0.8290    -2.6210     1.3570 C.ar  1 <1>  -0.1500 
  4 C       -1.1850    -2.0010    -0.9370 C.ar  1 <1>  -0.1500 
  5 C       -1.8600    -3.5400     1.2610 C.ar  1 <1>  -0.1500 
  6 C       -2.2140    -2.9230    -1.0210 C.ar  1 <1>  -0.1500 
  7 C       -2.5820    -3.7090     0.0760 C.ar  1 <1>   0.0860 
  8 C       -3.6720    -4.6690    -0.0030 C.2   1 <1>   0.5440 
  9 O       -3.7530    -5.5970     0.7800 O.2   1 <1>  -0.5700 
 10 N       -4.6920    -4.5400    -0.9180 N.am  1 <1>  -0.6600 
 11 C       -5.3880    -5.7740    -1.3870 C.3   1 <1>   0.1400 
 12 C       -5.5980    -3.3630    -0.8120 C.3   1 <1>   0.1400 
 13 C       -6.5490    -6.1160    -0.4340 C.3   1 <1>   0.3430 
 14 C       -6.7820    -3.6930     0.1250 C.3   1 <1>   0.3430 
 15 N       -7.5020    -4.9590    -0.2710 N.4   1 <1>  -0.9590 
 16 C       -8.5760    -5.3030     0.6840 C.3   1 <1>   0.4810 
 17 C       -9.7000    -4.3180     0.4630 C.2   1 <1>  -0.2880 
 18 C      -10.8420    -4.5840    -0.1790 C.2   1 <1>  -0.3000 
 19 H       -0.2800    -2.4980     2.2740 H     1 <1>   0.1500 
 20 H       -0.9060    -1.3990    -1.7840 H     1 <1>   0.1500 
 21 H       -2.1100    -4.1420     2.1190 H     1 <1>   0.1500 
 22 H       -2.7340    -3.0400    -1.9560 H     1 <1>   0.1500 
 23 H       -4.6900    -6.5960    -1.4060 H     1 <1>   0.0800 
 24 H       -5.7530    -5.6300    -2.3890 H     1 <1>   0.0800 
 25 H       -5.9610    -3.0970    -1.7900 H     1 <1>   0.0800 
 26 H       -5.0600    -2.5170    -0.4190 H     1 <1>   0.0800 
 27 H       -6.1250    -6.3770     0.5230 H     1 <1>   0.0800 
 28 H       -7.0730    -6.9790    -0.8110 H     1 <1>   0.0800 
 29 H       -7.4700    -2.8630     0.1250 H     1 <1>   0.0800 
 30 H       -6.3950    -3.8000     1.1250 H     1 <1>   0.0800 
 31 H       -7.9710    -4.7910    -1.1700 H     1 <1>   0.4500 
 32 H       -8.2220    -5.2660     1.7020 H     1 <1>   0.0800 
 33 H       -8.9390    -6.2980     0.4810 H     1 <1>   0.0800 
 34 H       -9.5030    -3.3490     0.8900 H     1 <1>   0.1500 
 35 H      -11.6340    -3.8630    -0.3180 H     1 <1>   0.1500 
 36 H      -11.1020    -5.5330    -0.6200 H     1 <1>   0.1500 
@<TRIPOS>BOND
  1   1   2  1   
  2   2   3  ar  
  3   2   4  ar  
  4   3   5  ar  
  5   3  19  1   
  6   4   6  ar  
  7   4  20  1   
  8   5   7  ar  
  9   5  21  1   
 10   6   7  ar  
 11   6  22  1   
 12   7   8  1   
 13   8   9  2   
 14   8  10  am  
 15  10  11  1   
 16  10  12  1   
 17  11  13  1   
 18  11  23  1   
 19  11  24  1   
 20  12  14  1   
 21  12  25  1   
 22  12  26  1   
 23  13  15  1   
 24  13  27  1   
 25  13  28  1   
 26  14  15  1   
 27  14  29  1   
 28  14  30  1   
 29  15  16  1   
 30  15  31  1   
 31  16  17  1   
 32  16  32  1   
 33  16  33  1   
 34  17  18  2   
 35  17  34  1   
 36  18  35  1   
 37  18  36  1   
@<TRIPOS>SUBSTRUCTURE
  1 ****  10 GROUP 4 **** **** 0

# MOE 2024.06 (io_trps.svl 2023.06)
