@<TRIPOS>MOLECULE
NONAME
36 37 1 0 0 
SMALL
USER_CHARGES


@<TRIPOS>ATOM
  1 S       -0.4210    -0.1350     0.2670 S.o2  1 <1>   1.4470 
  2 O       -1.1010    -0.8340    -0.8000 O.2   1 <1>  -0.6500 
  3 O       -0.6190    -0.5600     1.6350 O.2   1 <1>  -0.6500 
  4 N       -1.0130     1.4290     0.1280 N.am  1 <1>  -0.9140 
  5 C        1.3630    -0.0040    -0.0890 C.ar  1 <1>  -0.0090 
  6 C       -2.0740     1.7760     1.0500 C.3   1 <1>   0.2760 
  7 C        2.1450    -1.1270    -0.3700 C.ar  1 <1>  -0.1430 
  8 C        2.0000     1.2340    -0.0660 C.ar  1 <1>  -0.1500 
  9 C       -3.3870     1.1060     0.6480 C.3   1 <1>  -0.1600 
 10 C       -2.3850     3.2540     0.8490 C.3   1 <1>  -0.1600 
 11 C        3.5000    -0.9940    -0.6360 C.ar  1 <1>  -0.1500 
 12 C        1.5400    -2.5260    -0.3910 C.3   1 <1>  -0.0970 
 13 C        3.3510     1.3640    -0.3290 C.ar  1 <1>  -0.1500 
 14 C       -3.9380     1.9360    -0.5170 C.3   1 <1>  -0.1600 
 15 C       -3.3100     3.3280    -0.3740 C.3   1 <1>  -0.1600 
 16 C        4.1100     0.2470    -0.6210 C.ar  1 <1>  -0.1430 
 17 C        5.5940     0.3760    -0.9120 C.3   1 <1>  -0.0970 
 18 H       -1.4390     1.4390    -0.7960 H     1 <1>   0.4200 
 19 H       -1.7880     1.5680     2.0690 H     1 <1>   0.0800 
 20 H        1.4370     2.1220     0.1640 H     1 <1>   0.1500 
 21 H       -4.0670     1.1850     1.4780 H     1 <1>   0.0800 
 22 H       -3.2860     0.0640     0.4040 H     1 <1>   0.0800 
 23 H       -1.4950     3.8470     0.7330 H     1 <1>   0.0800 
 24 H       -2.9210     3.6070     1.7120 H     1 <1>   0.0800 
 25 H        4.0920    -1.8650    -0.8560 H     1 <1>   0.1500 
 26 H        0.8590    -2.6230    -1.2190 H     1 <1>   0.0800 
 27 H        1.0080    -2.7210     0.5240 H     1 <1>   0.0800 
 28 H        2.3020    -3.2770    -0.4960 H     1 <1>   0.0800 
 29 H        3.8070     2.3380    -0.3040 H     1 <1>   0.1500 
 30 H       -5.0130     1.9810    -0.4820 H     1 <1>   0.0800 
 31 H       -3.6410     1.4950    -1.4540 H     1 <1>   0.0800 
 32 H       -2.7360     3.5600    -1.2550 H     1 <1>   0.0800 
 33 H       -4.0610     4.0870    -0.2390 H     1 <1>   0.0800 
 34 H        5.8910    -0.3370    -1.6600 H     1 <1>   0.0800 
 35 H        6.1580     0.1950    -0.0150 H     1 <1>   0.0800 
 36 H        5.8250     1.3620    -1.2740 H     1 <1>   0.0800 
@<TRIPOS>BOND
  1   1   2  2   
  2   1   3  2   
  3   1   4  am  
  4   1   5  1   
  5   4   6  1   
  6   4  18  1   
  7   5   7  ar  
  8   5   8  ar  
  9   6   9  1   
 10   6  10  1   
 11   6  19  1   
 12   7  11  ar  
 13   7  12  1   
 14   8  13  ar  
 15   8  20  1   
 16   9  14  1   
 17   9  21  1   
 18   9  22  1   
 19  10  15  1   
 20  10  23  1   
 21  10  24  1   
 22  11  16  ar  
 23  11  25  1   
 24  12  26  1   
 25  12  27  1   
 26  12  28  1   
 27  13  16  ar  
 28  13  29  1   
 29  14  15  1   
 30  14  30  1   
 31  14  31  1   
 32  15  32  1   
 33  15  33  1   
 34  16  17  1   
 35  17  34  1   
 36  17  35  1   
 37  17  36  1   
@<TRIPOS>SUBSTRUCTURE
  1 ****   1 GROUP 4 **** **** 0

# MOE 2024.06 (io_trps.svl 2023.06)
