@<TRIPOS>MOLECULE
NONAME
44 45 1 0 0 
SMALL
USER_CHARGES


@<TRIPOS>ATOM
  1 O        1.0970    -5.0960    -0.4120 O.3   1 <1>  -0.3630 
  2 C       -0.1370    -5.6560    -0.3420 C.ar  1 <1>   0.0830 
  3 C        2.2310    -5.7660     0.0750 C.3   1 <1>   0.1200 
  4 C       -0.3900    -6.9130     0.2020 C.ar  1 <1>  -0.1500 
  5 C       -1.1900    -4.9120    -0.8490 C.ar  1 <1>  -0.1500 
  6 C        3.4310    -4.8500    -0.1600 C.3   1 <1>  -0.1600 
  7 C       -1.6830    -7.4060     0.2320 C.ar  1 <1>  -0.1500 
  8 C       -2.4800    -5.4090    -0.8170 C.ar  1 <1>  -0.1500 
  9 C        4.7140    -5.4960     0.3540 C.3   1 <1>   0.3430 
 10 C       -2.7340    -6.6590    -0.2780 C.ar  1 <1>  -0.1440 
 11 N        5.8910    -4.6450     0.0270 N.4   1 <1>  -0.9590 
 12 C       -4.1500    -7.2040    -0.2410 C.3   1 <1>  -0.0970 
 13 C        7.1680    -5.4230     0.1500 C.3   1 <1>   0.3430 
 14 C        5.9530    -3.3890     0.8290 C.3   1 <1>   0.3430 
 15 C        8.4210    -4.5250     0.0720 C.3   1 <1>  -0.0800 
 16 C        6.9860    -2.4390     0.2100 C.3   1 <1>  -0.1600 
 17 C        8.1200    -3.1510    -0.5510 C.3   1 <1>  -0.1600 
 18 C        9.5420    -5.2280    -0.7050 C.3   1 <1>  -0.2400 
 19 H        2.3320    -6.6920    -0.4650 H     1 <1>   0.0800 
 20 H        2.0820    -5.9550     1.1250 H     1 <1>   0.0800 
 21 H        0.3950    -7.5210     0.6050 H     1 <1>   0.1500 
 22 H       -0.9940    -3.9420    -1.2680 H     1 <1>   0.1500 
 23 H        3.2470    -3.9230     0.3520 H     1 <1>   0.0800 
 24 H        3.5140    -4.6670    -1.2170 H     1 <1>   0.0800 
 25 H       -1.8710    -8.3770     0.6550 H     1 <1>   0.1500 
 26 H       -3.2860    -4.8170    -1.2140 H     1 <1>   0.1500 
 27 H        4.8280    -6.4600    -0.1170 H     1 <1>   0.0800 
 28 H        4.6520    -5.6480     1.4200 H     1 <1>   0.0800 
 29 H        5.8170    -4.3540    -0.9570 H     1 <1>   0.4500 
 30 H       -4.1420    -8.2770    -0.3070 H     1 <1>   0.0800 
 31 H       -4.7230    -6.8190    -1.0650 H     1 <1>   0.0800 
 32 H       -4.6260    -6.9160     0.6790 H     1 <1>   0.0800 
 33 H        7.2100    -6.1510    -0.6440 H     1 <1>   0.0800 
 34 H        7.1860    -5.9580     1.0860 H     1 <1>   0.0800 
 35 H        6.2430    -3.6260     1.8400 H     1 <1>   0.0800 
 36 H        4.9930    -2.9010     0.8590 H     1 <1>   0.0800 
 37 H        8.7740    -4.3670     1.0780 H     1 <1>   0.0800 
 38 H        7.4060    -1.8470     1.0050 H     1 <1>   0.0800 
 39 H        6.4890    -1.7540    -0.4560 H     1 <1>   0.0800 
 40 H        7.8320    -3.2830    -1.5810 H     1 <1>   0.0800 
 41 H        9.0040    -2.5340    -0.5420 H     1 <1>   0.0800 
 42 H        9.2510    -5.4080    -1.7260 H     1 <1>   0.0800 
 43 H        9.7890    -6.1700    -0.2470 H     1 <1>   0.0800 
 44 H       10.4300    -4.6190    -0.7110 H     1 <1>   0.0800 
@<TRIPOS>BOND
  1   1   2  1   
  2   1   3  1   
  3   2   4  ar  
  4   2   5  ar  
  5   3   6  1   
  6   3  19  1   
  7   3  20  1   
  8   4   7  ar  
  9   4  21  1   
 10   5   8  ar  
 11   5  22  1   
 12   6   9  1   
 13   6  23  1   
 14   6  24  1   
 15   7  10  ar  
 16   7  25  1   
 17   8  10  ar  
 18   8  26  1   
 19   9  11  1   
 20   9  27  1   
 21   9  28  1   
 22  10  12  1   
 23  11  13  1   
 24  11  14  1   
 25  11  29  1   
 26  12  30  1   
 27  12  31  1   
 28  12  32  1   
 29  13  15  1   
 30  13  33  1   
 31  13  34  1   
 32  14  16  1   
 33  14  35  1   
 34  14  36  1   
 35  15  17  1   
 36  15  18  1   
 37  15  37  1   
 38  16  17  1   
 39  16  38  1   
 40  16  39  1   
 41  17  40  1   
 42  17  41  1   
 43  18  42  1   
 44  18  43  1   
 45  18  44  1   
@<TRIPOS>SUBSTRUCTURE
  1 ****   6 GROUP 4 **** **** 0

# MOE 2024.06 (io_trps.svl 2023.06)
