@<TRIPOS>MOLECULE
NONAME
32 33 1 0 0 
SMALL
USER_CHARGES


@<TRIPOS>ATOM
  1 F        0.0300    -1.3950     1.9490 F     1 <1>  -0.1900 
  2 C        0.7030    -1.9620     0.9770 C.ar  1 <1>   0.1900 
  3 C        0.0060    -2.7320     0.0410 C.ar  1 <1>   0.1170 
  4 C        2.0720    -1.7610     0.9410 C.ar  1 <1>  -0.1500 
  5 N       -1.3930    -2.8740     0.1670 N.am  1 <1>  -0.5470 
  6 C        0.7580    -3.3170    -0.9760 C.ar  1 <1>  -0.1500 
  7 C        2.8030    -2.3510    -0.0780 C.ar  1 <1>  -0.1500 
  8 C       -2.3250    -3.5470    -0.5750 C.2   1 <1>   0.5690 
  9 C        2.1260    -3.1160    -1.0130 C.ar  1 <1>   0.1900 
 10 O       -2.0520    -4.1890    -1.5590 O.2   1 <1>  -0.5700 
 11 C       -3.7830    -3.4690    -0.1170 C.3   1 <1>  -0.0190 
 12 F        2.8160    -3.6710    -1.9720 F     1 <1>  -0.1900 
 13 C       -4.3310    -4.8610     0.2520 C.3   1 <1>  -0.1600 
 14 C       -4.6730    -2.8040    -1.1860 C.3   1 <1>  -0.1600 
 15 C       -5.7970    -4.7890     0.7040 C.3   1 <1>  -0.1600 
 16 C       -6.1380    -2.7310    -0.7350 C.3   1 <1>  -0.1600 
 17 C       -6.6730    -4.1200    -0.3630 C.3   1 <1>  -0.1600 
 18 H        2.5520    -1.1580     1.6910 H     1 <1>   0.1500 
 19 H       -1.7720    -2.3750     0.9730 H     1 <1>   0.3700 
 20 H        0.3040    -3.9230    -1.7370 H     1 <1>   0.1500 
 21 H        3.8690    -2.2250    -0.1500 H     1 <1>   0.1500 
 22 H       -3.8260    -2.8580     0.7660 H     1 <1>   0.0800 
 23 H       -3.7330    -5.2900     1.0370 H     1 <1>   0.0800 
 24 H       -4.2580    -5.5090    -0.6060 H     1 <1>   0.0800 
 25 H       -4.6120    -3.3710    -2.1000 H     1 <1>   0.0800 
 26 H       -4.3100    -1.8120    -1.3940 H     1 <1>   0.0800 
 27 H       -5.8630    -4.2300     1.6220 H     1 <1>   0.0800 
 28 H       -6.1630    -5.7830     0.8970 H     1 <1>   0.0800 
 29 H       -6.7380    -2.3160    -1.5270 H     1 <1>   0.0800 
 30 H       -6.2200    -2.0770     0.1170 H     1 <1>   0.0800 
 31 H       -7.6820    -4.0330     0.0010 H     1 <1>   0.0800 
 32 H       -6.6940    -4.7390    -1.2440 H     1 <1>   0.0800 
@<TRIPOS>BOND
  1   1   2  1   
  2   2   3  ar  
  3   2   4  ar  
  4   3   5  1   
  5   3   6  ar  
  6   4   7  ar  
  7   4  18  1   
  8   5   8  am  
  9   5  19  1   
 10   6   9  ar  
 11   6  20  1   
 12   7   9  ar  
 13   7  21  1   
 14   8  10  2   
 15   8  11  1   
 16   9  12  1   
 17  11  13  1   
 18  11  14  1   
 19  11  22  1   
 20  13  15  1   
 21  13  23  1   
 22  13  24  1   
 23  14  16  1   
 24  14  25  1   
 25  14  26  1   
 26  15  17  1   
 27  15  27  1   
 28  15  28  1   
 29  16  17  1   
 30  16  29  1   
 31  16  30  1   
 32  17  31  1   
 33  17  32  1   
@<TRIPOS>SUBSTRUCTURE
  1 ****   5 GROUP 4 **** **** 0

# MOE 2024.06 (io_trps.svl 2023.06)
