@<TRIPOS>MOLECULE
NONAME
48 49 1 0 0 
SMALL
USER_CHARGES


@<TRIPOS>ATOM
  1 O        2.4390    -1.2300    -1.7610 O.2   1 <1>  -0.5700 
  2 C        1.3650    -1.4310    -1.2470 C.2   1 <1>   0.5690 
  3 N        1.0230    -2.6480    -0.7040 N.am  1 <1>  -0.4770 
  4 C        0.3770    -0.2870    -1.2070 C.3   1 <1>  -0.1790 
  5 C       -0.1670    -2.8970    -0.0070 C.ar  1 <1>   0.1170 
  6 C        1.9680    -3.7920    -0.8320 C.3   1 <1>   0.1400 
  7 C       -1.1970    -3.6130    -0.6040 C.ar  1 <1>  -0.1500 
  8 C       -0.3340    -2.4330     1.2910 C.ar  1 <1>  -0.1500 
  9 C        2.9330    -3.8210     0.3580 C.3   1 <1>   0.1400 
 10 C       -2.3770    -3.8620     0.0760 C.ar  1 <1>  -0.1430 
 11 C       -1.5090    -2.6780     1.9780 C.ar  1 <1>  -0.1500 
 12 N        4.1390    -4.6410     0.0490 N.am  1 <1>  -0.4770 
 13 C       -2.5290    -3.3910     1.3700 C.ar  1 <1>  -0.1500 
 14 C       -3.4990    -4.6470    -0.5780 C.3   1 <1>  -0.0970 
 15 C        5.3520    -3.9400    -0.0490 C.ar  1 <1>   0.1170 
 16 C        4.0050    -6.0030    -0.1020 C.2   1 <1>   0.5690 
 17 C        6.3850    -4.1820     0.8510 C.ar  1 <1>  -0.1500 
 18 C        5.5400    -2.9820    -1.0380 C.ar  1 <1>  -0.1500 
 19 O        2.9590    -6.5750     0.0900 O.2   1 <1>  -0.5700 
 20 C        5.1870    -6.8400    -0.5410 C.3   1 <1>  -0.1790 
 21 C        7.5870    -3.5010     0.7600 C.ar  1 <1>  -0.1430 
 22 C        6.7360    -2.2940    -1.1330 C.ar  1 <1>  -0.1500 
 23 C        7.7580    -2.5550    -0.2380 C.ar  1 <1>  -0.1500 
 24 C        8.7120    -3.7730     1.7430 C.3   1 <1>  -0.0970 
 25 H        0.7390     0.5280    -1.8060 H     1 <1>   0.0800 
 26 H        0.2540     0.0510    -0.1960 H     1 <1>   0.0800 
 27 H       -0.5720    -0.6080    -1.5950 H     1 <1>   0.0800 
 28 H        2.5230    -3.6930    -1.7480 H     1 <1>   0.0800 
 29 H        1.4150    -4.7140    -0.8710 H     1 <1>   0.0800 
 30 H       -1.0630    -3.9730    -1.6080 H     1 <1>   0.1500 
 31 H        0.4600    -1.8820     1.7620 H     1 <1>   0.1500 
 32 H        2.4340    -4.2330     1.2180 H     1 <1>   0.0800 
 33 H        3.2440    -2.8170     0.5900 H     1 <1>   0.0800 
 34 H       -1.6320    -2.3160     2.9840 H     1 <1>   0.1500 
 35 H       -3.4400    -3.5800     1.9100 H     1 <1>   0.1500 
 36 H       -3.3220    -4.7650    -1.6320 H     1 <1>   0.0800 
 37 H       -4.4350    -4.1350    -0.4450 H     1 <1>   0.0800 
 38 H       -3.5700    -5.6220    -0.1300 H     1 <1>   0.0800 
 39 H        6.2350    -4.9080     1.6290 H     1 <1>   0.1500 
 40 H        4.7480    -2.7690    -1.7340 H     1 <1>   0.1500 
 41 H        5.7150    -6.3490    -1.3370 H     1 <1>   0.0800 
 42 H        4.8430    -7.7950    -0.8930 H     1 <1>   0.0800 
 43 H        5.8500    -6.9950     0.2880 H     1 <1>   0.0800 
 44 H        6.8680    -1.5540    -1.9030 H     1 <1>   0.1500 
 45 H        8.6860    -2.0160    -0.3190 H     1 <1>   0.1500 
 46 H        8.4990    -4.6410     2.3400 H     1 <1>   0.0800 
 47 H        8.8370    -2.9270     2.3950 H     1 <1>   0.0800 
 48 H        9.6310    -3.9410     1.2120 H     1 <1>   0.0800 
@<TRIPOS>BOND
  1   1   2  2   
  2   2   3  am  
  3   2   4  1   
  4   3   5  1   
  5   3   6  1   
  6   4  25  1   
  7   4  26  1   
  8   4  27  1   
  9   5   7  ar  
 10   5   8  ar  
 11   6   9  1   
 12   6  28  1   
 13   6  29  1   
 14   7  10  ar  
 15   7  30  1   
 16   8  11  ar  
 17   8  31  1   
 18   9  12  1   
 19   9  32  1   
 20   9  33  1   
 21  10  13  ar  
 22  10  14  1   
 23  11  13  ar  
 24  11  34  1   
 25  12  15  1   
 26  12  16  am  
 27  13  35  1   
 28  14  36  1   
 29  14  37  1   
 30  14  38  1   
 31  15  17  ar  
 32  15  18  ar  
 33  16  19  2   
 34  16  20  1   
 35  17  21  ar  
 36  17  39  1   
 37  18  22  ar  
 38  18  40  1   
 39  20  41  1   
 40  20  42  1   
 41  20  43  1   
 42  21  23  ar  
 43  21  24  1   
 44  22  23  ar  
 45  22  44  1   
 46  23  45  1   
 47  24  46  1   
 48  24  47  1   
 49  24  48  1   
@<TRIPOS>SUBSTRUCTURE
  1 ****   9 GROUP 4 **** **** 0

# MOE 2024.06 (io_trps.svl 2023.06)
