@<TRIPOS>MOLECULE
NONAME
42 43 1 0 0 
SMALL
USER_CHARGES


@<TRIPOS>ATOM
  1 O       -0.4650     1.6380     1.5890 O.2   1 <1>  -0.5700 
  2 C       -0.0140     1.7220     0.4640 C.2   1 <1>   0.7160 
  3 N        1.1910     1.1600     0.1920 N.am  1 <1>  -0.7300 
  4 C       -0.7300     2.4040    -0.5810 C.2   1 <1>  -0.0860 
  5 C        2.2100     0.8390     1.1900 C.3   1 <1>   0.3640 
  6 C       -2.0450     2.4250    -0.8830 C.2   1 <1>  -0.0400 
  7 C       -0.2170     3.2420    -1.5630 C.2   1 <1>   0.1080 
  8 C        3.4060     1.7410     0.9140 C.ar  1 <1>  -0.1440 
  9 C        2.5580    -0.6430     1.0820 C.3   1 <1>  -0.2400 
 10 O       -2.3030     3.1670    -1.9330 O.3   1 <1>  -0.0190 
 11 C       -3.2090     1.7310    -0.2010 C.3   1 <1>  -0.0600 
 12 N       -1.1510     3.6580    -2.3300 N.2   1 <1>  -0.4100 
 13 C        1.2320     3.6620    -1.7330 C.3   1 <1>  -0.0590 
 14 C        4.1100     1.6650    -0.2800 C.ar  1 <1>  -0.1500 
 15 C        3.7950     2.6800     1.8550 C.ar  1 <1>  -0.1500 
 16 C        5.1790     2.5040    -0.5460 C.ar  1 <1>   0.0820 
 17 C        4.8590     3.5290     1.6070 C.ar  1 <1>  -0.1500 
 18 O        5.7640     2.3060    -1.7610 O.3   1 <1>  -0.3630 
 19 C        5.5610     3.4640     0.4060 C.ar  1 <1>   0.0820 
 20 C        7.1420     2.5370    -1.9570 C.3   1 <1>   0.0400 
 21 O        6.5890     4.3210     0.1360 O.3   1 <1>  -0.3630 
 22 C        6.9650     5.3500     1.0260 C.3   1 <1>   0.0400 
 23 H        1.5520     1.2340    -0.7560 H     1 <1>   0.3700 
 24 H        1.8300     1.0350     2.1800 H     1 <1>   0.0800 
 25 H        2.8900    -0.8950     0.0920 H     1 <1>   0.0800 
 26 H        1.6960    -1.2360     1.3290 H     1 <1>   0.0800 
 27 H        3.3420    -0.8780     1.7780 H     1 <1>   0.0800 
 28 H       -2.8700     1.1380     0.6280 H     1 <1>   0.0800 
 29 H       -3.7130     1.0910    -0.9020 H     1 <1>   0.0800 
 30 H       -3.9040     2.4660     0.1630 H     1 <1>   0.0800 
 31 H        1.6790     3.8670    -0.7770 H     1 <1>   0.0800 
 32 H        1.2840     4.5540    -2.3310 H     1 <1>   0.0800 
 33 H        1.7880     2.8870    -2.2270 H     1 <1>   0.0800 
 34 H        3.8390     0.9450    -1.0300 H     1 <1>   0.1500 
 35 H        3.2640     2.7600     2.7890 H     1 <1>   0.1500 
 36 H        5.1170     4.2400     2.3680 H     1 <1>   0.1500 
 37 H        7.4510     1.9970    -2.8340 H     1 <1>   0.0800 
 38 H        7.6840     2.1860    -1.0970 H     1 <1>   0.0800 
 39 H        7.3000     3.5900    -2.1050 H     1 <1>   0.0800 
 40 H        7.7750     5.8990     0.5780 H     1 <1>   0.0800 
 41 H        7.2920     4.9110     1.9510 H     1 <1>   0.0800 
 42 H        6.1250     6.0030     1.1810 H     1 <1>   0.0800 
@<TRIPOS>BOND
  1   1   2  2   
  2   2   3  am  
  3   2   4  1   
  4   3   5  1   
  5   3  23  1   
  6   4   6  2   
  7   4   7  1   
  8   5   8  1   
  9   5   9  1   
 10   5  24  1   
 11   6  10  1   
 12   6  11  1   
 13   7  12  2   
 14   7  13  1   
 15   8  14  ar  
 16   8  15  ar  
 17   9  25  1   
 18   9  26  1   
 19   9  27  1   
 20  10  12  1   
 21  11  28  1   
 22  11  29  1   
 23  11  30  1   
 24  13  31  1   
 25  13  32  1   
 26  13  33  1   
 27  14  16  ar  
 28  14  34  1   
 29  15  17  ar  
 30  15  35  1   
 31  16  18  1   
 32  16  19  ar  
 33  17  19  ar  
 34  17  36  1   
 35  18  20  1   
 36  19  21  1   
 37  20  37  1   
 38  20  38  1   
 39  20  39  1   
 40  21  22  1   
 41  22  40  1   
 42  22  41  1   
 43  22  42  1   
@<TRIPOS>SUBSTRUCTURE
  1 ****   8 GROUP 4 **** **** 0

# MOE 2024.06 (io_trps.svl 2023.06)
