@<TRIPOS>MOLECULE
NONAME
53 55 1 0 0 
SMALL
USER_CHARGES


@<TRIPOS>ATOM
  1 O        0.2610     0.9550     0.5610 O.2   1 <1>  -0.5700 
  2 C       -0.1010    -0.1720     0.3210 C.2   1 <1>   0.5690 
  3 N        0.7480    -1.1600    -0.1030 N.am  1 <1>  -0.5470 
  4 C       -1.5710    -0.5180     0.5140 C.3   1 <1>   0.1810 
  5 C        2.1220    -1.1280    -0.3690 C.ar  1 <1>   0.1170 
  6 O       -1.8080    -1.8980     0.2630 O.3   1 <1>  -0.3630 
  7 C        2.8750    -2.2830    -0.2010 C.ar  1 <1>  -0.1500 
  8 C        2.7670     0.0220    -0.8100 C.ar  1 <1>  -0.1500 
  9 C       -3.0560    -2.4300     0.3490 C.ar  1 <1>   0.0830 
 10 C        4.2370    -2.2860    -0.4440 C.ar  1 <1>  -0.1500 
 11 C        4.1270     0.0250    -1.0580 C.ar  1 <1>  -0.1500 
 12 C       -3.2090    -3.7760     0.0270 C.ar  1 <1>  -0.1430 
 13 C       -4.1690    -1.6880     0.7410 C.ar  1 <1>  -0.1500 
 14 C        4.8750    -1.1280    -0.8650 C.ar  1 <1>  -0.1430 
 15 C       -4.4630    -4.3600     0.1000 C.ar  1 <1>  -0.1500 
 16 C       -2.0140    -4.6150    -0.4040 C.3   1 <1>  -0.0970 
 17 C       -5.4150    -2.2840     0.8090 C.ar  1 <1>  -0.1500 
 18 C        6.3720    -1.1140    -1.1010 C.3   1 <1>   0.4860 
 19 C       -5.5690    -3.6220     0.4880 C.ar  1 <1>  -0.1430 
 20 N        7.0100    -0.3380    -0.0040 N.4   1 <1>  -0.9590 
 21 C       -6.9360    -4.2780     0.5630 C.3   1 <1>  -0.0970 
 22 C        8.4710    -0.0940    -0.2580 C.3   1 <1>   0.3430 
 23 C        6.7970    -0.9900     1.3380 C.3   1 <1>   0.3430 
 24 C        9.1400     0.6130     0.9370 C.3   1 <1>   0.1200 
 25 C        7.5530    -0.2440     2.4550 C.3   1 <1>   0.1200 
 26 O        8.9020    -0.1010     2.1150 O.3   1 <1>  -0.5600 
 27 H        0.2850    -2.0680    -0.1940 H     1 <1>   0.3700 
 28 H       -2.1650     0.0600    -0.1700 H     1 <1>   0.0800 
 29 H       -1.8560    -0.3020     1.5270 H     1 <1>   0.0800 
 30 H        2.3890    -3.1840     0.1280 H     1 <1>   0.1500 
 31 H        2.1980     0.9220    -0.9640 H     1 <1>   0.1500 
 32 H        4.7870    -3.2020    -0.3020 H     1 <1>   0.1500 
 33 H        4.5830     0.9370    -1.4030 H     1 <1>   0.1500 
 34 H       -4.0930    -0.6500     0.9990 H     1 <1>   0.1500 
 35 H       -4.5850    -5.4000    -0.1460 H     1 <1>   0.1500 
 36 H       -1.2810    -4.6340     0.3820 H     1 <1>   0.0800 
 37 H       -1.5710    -4.1900    -1.2860 H     1 <1>   0.0800 
 38 H       -2.3080    -5.6250    -0.6220 H     1 <1>   0.0800 
 39 H       -6.2670    -1.7020     1.1140 H     1 <1>   0.1500 
 40 H        6.5770    -0.6510    -2.0530 H     1 <1>   0.0800 
 41 H        6.7550    -2.1210    -1.1200 H     1 <1>   0.0800 
 42 H        6.5270     0.5680     0.0340 H     1 <1>   0.4500 
 43 H       -7.0390    -5.0180    -0.2110 H     1 <1>   0.0800 
 44 H       -7.7150    -3.5480     0.4380 H     1 <1>   0.0800 
 45 H       -7.0580    -4.7560     1.5190 H     1 <1>   0.0800 
 46 H        8.5990     0.5070    -1.1430 H     1 <1>   0.0800 
 47 H        8.9760    -1.0330    -0.4170 H     1 <1>   0.0800 
 48 H        7.1530    -2.0070     1.3110 H     1 <1>   0.0800 
 49 H        5.7450    -1.0130     1.5750 H     1 <1>   0.0800 
 50 H        8.7670     1.6160     1.0570 H     1 <1>   0.0800 
 51 H       10.2060     0.6580     0.7930 H     1 <1>   0.0800 
 52 H        7.5030    -0.8040     3.3730 H     1 <1>   0.0800 
 53 H        7.1310     0.7310     2.6270 H     1 <1>   0.0800 
@<TRIPOS>BOND
  1   1   2  2   
  2   2   3  am  
  3   2   4  1   
  4   3   5  1   
  5   3  27  1   
  6   4   6  1   
  7   4  28  1   
  8   4  29  1   
  9   5   7  ar  
 10   5   8  ar  
 11   6   9  1   
 12   7  10  ar  
 13   7  30  1   
 14   8  11  ar  
 15   8  31  1   
 16   9  12  ar  
 17   9  13  ar  
 18  10  14  ar  
 19  10  32  1   
 20  11  14  ar  
 21  11  33  1   
 22  12  15  ar  
 23  12  16  1   
 24  13  17  ar  
 25  13  34  1   
 26  14  18  1   
 27  15  19  ar  
 28  15  35  1   
 29  16  36  1   
 30  16  37  1   
 31  16  38  1   
 32  17  19  ar  
 33  17  39  1   
 34  18  20  1   
 35  18  40  1   
 36  18  41  1   
 37  19  21  1   
 38  20  22  1   
 39  20  23  1   
 40  20  42  1   
 41  21  43  1   
 42  21  44  1   
 43  21  45  1   
 44  22  24  1   
 45  22  46  1   
 46  22  47  1   
 47  23  25  1   
 48  23  48  1   
 49  23  49  1   
 50  24  26  1   
 51  24  50  1   
 52  24  51  1   
 53  25  26  1   
 54  25  52  1   
 55  25  53  1   
@<TRIPOS>SUBSTRUCTURE
  1 ****   3 GROUP 4 **** **** 0

# MOE 2024.06 (io_trps.svl 2023.06)
