@<TRIPOS>MOLECULE
NONAME
51 52 1 0 0 
SMALL
USER_CHARGES


@<TRIPOS>ATOM
  1 O        0.7320    -1.3470     1.8390 O.2   1 <1>  -0.5700 
  2 C        0.1660    -1.9780     0.9680 C.2   1 <1>   0.7800 
  3 O        0.7430    -3.0650     0.4570 O.3   1 <1>  -0.4300 
  4 N       -1.0730    -1.6260     0.4920 N.am  1 <1>  -0.6600 
  5 C        2.0180    -3.4800     0.8920 C.3   1 <1>   0.1200 
  6 C       -1.8040    -2.4140    -0.5290 C.3   1 <1>   0.1400 
  7 C       -1.7780    -0.4220     0.9910 C.3   1 <1>   0.1400 
  8 C        2.3910    -4.7450     0.1250 C.3   1 <1>  -0.2400 
  9 C       -3.1260    -2.8850     0.0810 C.3   1 <1>  -0.1600 
 10 C       -3.0940    -0.8680     1.6290 C.3   1 <1>  -0.1600 
 11 C       -3.9230    -1.7010     0.6480 C.3   1 <1>   0.4230 
 12 N       -5.1160    -2.1950     1.3720 N.4   1 <1>  -0.9060 
 13 C       -6.1750    -2.8130     0.5430 C.3   1 <1>   0.4230 
 14 C       -6.9170    -1.7010    -0.2170 C.3   1 <1>  -0.1600 
 15 C       -7.0700    -3.6290     1.4840 C.3   1 <1>  -0.1600 
 16 C       -7.9380    -2.1980    -1.2530 C.3   1 <1>  -0.1600 
 17 C       -7.6940    -4.8630     0.8030 C.3   1 <1>  -0.1600 
 18 C       -9.3300    -2.5210    -0.6790 C.3   1 <1>  -0.1600 
 19 C       -9.2140    -4.7670     0.6170 C.3   1 <1>  -0.1600 
 20 C       -9.6660    -4.0180    -0.6440 C.3   1 <1>  -0.1600 
 21 H        1.9740    -3.6700     1.9520 H     1 <1>   0.0800 
 22 H        2.7200    -2.6870     0.6960 H     1 <1>   0.0800 
 23 H       -1.2270    -3.2660    -0.8500 H     1 <1>   0.0800 
 24 H       -1.9820    -1.7940    -1.3910 H     1 <1>   0.0800 
 25 H       -1.9590     0.2490     0.1680 H     1 <1>   0.0800 
 26 H       -1.1770     0.1000     1.7180 H     1 <1>   0.0800 
 27 H        1.6790    -5.5250     0.3250 H     1 <1>   0.0800 
 28 H        3.3640    -5.0820     0.4350 H     1 <1>   0.0800 
 29 H        2.4200    -4.5420    -0.9310 H     1 <1>   0.0800 
 30 H       -2.8990    -3.5940     0.8590 H     1 <1>   0.0800 
 31 H       -3.6850    -3.3850    -0.6880 H     1 <1>   0.0800 
 32 H       -3.6400     0.0080     1.9260 H     1 <1>   0.0800 
 33 H       -2.8560    -1.4420     2.5080 H     1 <1>   0.0800 
 34 H       -4.2220    -1.0620    -0.1670 H     1 <1>   0.0800 
 35 H       -5.5360    -1.4250     1.9010 H     1 <1>   0.4500 
 36 H       -4.8000    -2.8840     2.0610 H     1 <1>   0.4500 
 37 H       -5.7220    -3.4880    -0.1650 H     1 <1>   0.0800 
 38 H       -6.1970    -1.1240    -0.7680 H     1 <1>   0.0800 
 39 H       -7.4040    -1.0340     0.4730 H     1 <1>   0.0800 
 40 H       -7.8330    -3.0040     1.9150 H     1 <1>   0.0800 
 41 H       -6.4770    -4.0070     2.2990 H     1 <1>   0.0800 
 42 H       -7.5430    -3.0320    -1.8090 H     1 <1>   0.0800 
 43 H       -8.0760    -1.4020    -1.9660 H     1 <1>   0.0800 
 44 H       -7.5140    -5.7130     1.4420 H     1 <1>   0.0800 
 45 H       -7.2210    -5.0850    -0.1380 H     1 <1>   0.0800 
 46 H      -10.0520    -2.0600    -1.3320 H     1 <1>   0.0800 
 47 H       -9.4800    -2.0770     0.2900 H     1 <1>   0.0800 
 48 H       -9.6750    -4.3330     1.4880 H     1 <1>   0.0800 
 49 H       -9.5960    -5.7710     0.5380 H     1 <1>   0.0800 
 50 H       -9.2850    -4.5100    -1.5230 H     1 <1>   0.0800 
 51 H      -10.7390    -4.1080    -0.6900 H     1 <1>   0.0800 
@<TRIPOS>BOND
  1   1   2  2   
  2   2   3  1   
  3   2   4  am  
  4   3   5  1   
  5   4   6  1   
  6   4   7  1   
  7   5   8  1   
  8   5  21  1   
  9   5  22  1   
 10   6   9  1   
 11   6  23  1   
 12   6  24  1   
 13   7  10  1   
 14   7  25  1   
 15   7  26  1   
 16   8  27  1   
 17   8  28  1   
 18   8  29  1   
 19   9  11  1   
 20   9  30  1   
 21   9  31  1   
 22  10  11  1   
 23  10  32  1   
 24  10  33  1   
 25  11  12  1   
 26  11  34  1   
 27  12  13  1   
 28  12  35  1   
 29  12  36  1   
 30  13  14  1   
 31  13  15  1   
 32  13  37  1   
 33  14  16  1   
 34  14  38  1   
 35  14  39  1   
 36  15  17  1   
 37  15  40  1   
 38  15  41  1   
 39  16  18  1   
 40  16  42  1   
 41  16  43  1   
 42  17  19  1   
 43  17  44  1   
 44  17  45  1   
 45  18  20  1   
 46  18  46  1   
 47  18  47  1   
 48  19  20  1   
 49  19  48  1   
 50  19  49  1   
 51  20  50  1   
 52  20  51  1   
@<TRIPOS>SUBSTRUCTURE
  1 ****   9 GROUP 4 **** **** 0

# MOE 2024.06 (io_trps.svl 2023.06)
