@<TRIPOS>MOLECULE
NONAME
47 50 1 0 0 
SMALL
USER_CHARGES


@<TRIPOS>ATOM
  1 S       -0.1210    -0.1380    -0.6570 S.3   1 <1>  -0.3320 
  2 C        1.4700    -0.9480    -0.6040 C.ar  1 <1>   0.7220 
  3 C       -1.2440    -1.3840    -1.4590 C.3   1 <1>   0.1310 
  4 N        1.5030    -2.2140    -1.0840 N.ar  1 <1>  -0.3100 
  5 N        2.4490    -0.2450    -0.1000 N.ar  1 <1>  -0.5670 
  6 C       -2.6680    -0.8530    -1.5510 C.2   1 <1>   0.5690 
  7 N        2.6230    -2.8760    -1.0770 N.ar  1 <1>  -0.2560 
  8 C        3.5940    -0.9350    -0.1010 C.ar  1 <1>   0.1050 
  9 O       -3.1030    -0.6470    -2.6600 O.2   1 <1>  -0.5700 
 10 N       -3.4340    -0.6410    -0.4300 N.am  1 <1>  -0.6600 
 11 C        3.6840    -2.2280    -0.5800 C.ar  1 <1>   0.2560 
 12 N        4.8260    -0.5220     0.3450 N.pl3 1 <1>   0.0480 
 13 C       -3.0020    -0.8780     0.9820 C.3   1 <1>   0.1400 
 14 C       -4.8130    -0.0740    -0.5260 C.3   1 <1>   0.1400 
 15 C        5.0320    -2.6400    -0.4250 C.ar  1 <1>   0.0000 
 16 C        5.7200    -1.5720     0.1480 C.ar  1 <1>  -0.1520 
 17 C        5.0820     0.8290     0.9200 C.3   1 <1>   0.1760 
 18 C       -4.0900    -1.6330     1.7660 C.3   1 <1>   0.1200 
 19 C       -5.7950    -0.8800     0.3400 C.3   1 <1>   0.1200 
 20 C        5.6970    -3.8280    -0.7300 C.ar  1 <1>  -0.1500 
 21 C        7.0860    -1.6940     0.4200 C.ar  1 <1>  -0.1500 
 22 C        6.0800     1.6170     0.0620 C.3   1 <1>  -0.2400 
 23 C        5.5360     0.7320     2.3820 C.3   1 <1>  -0.2400 
 24 O       -5.3240    -0.9850     1.6550 O.3   1 <1>  -0.5600 
 25 C        7.0430    -3.9380    -0.4580 C.ar  1 <1>  -0.1500 
 26 C        7.7350    -2.8710     0.1160 C.ar  1 <1>  -0.1500 
 27 H       -1.2100    -2.2860    -0.8790 H     1 <1>   0.0800 
 28 H       -0.8550    -1.5700    -2.4430 H     1 <1>   0.0800 
 29 H       -2.8210     0.0700     1.4570 H     1 <1>   0.0800 
 30 H       -2.0910    -1.4460     1.0200 H     1 <1>   0.0800 
 31 H       -5.1560    -0.0800    -1.5450 H     1 <1>   0.0800 
 32 H       -4.7980     0.9470    -0.1880 H     1 <1>   0.0800 
 33 H        4.1510     1.3700     0.9070 H     1 <1>   0.0800 
 34 H       -3.8340    -1.6740     2.8100 H     1 <1>   0.0800 
 35 H       -4.1950    -2.6390     1.3960 H     1 <1>   0.0800 
 36 H       -5.9270    -1.8700    -0.0610 H     1 <1>   0.0800 
 37 H       -6.7510    -0.3880     0.3720 H     1 <1>   0.0800 
 38 H        5.1490    -4.6410    -1.1720 H     1 <1>   0.1500 
 39 H        7.6340    -0.8840     0.8620 H     1 <1>   0.1500 
 40 H        7.0500     1.1590     0.0650 H     1 <1>   0.0800 
 41 H        6.1780     2.6170     0.4440 H     1 <1>   0.0800 
 42 H        5.7230     1.6790    -0.9510 H     1 <1>   0.0800 
 43 H        6.4860     0.2400     2.4670 H     1 <1>   0.0800 
 44 H        4.8060     0.1910     2.9570 H     1 <1>   0.0800 
 45 H        5.6280     1.7180     2.8000 H     1 <1>   0.0800 
 46 H        7.5700    -4.8480    -0.6870 H     1 <1>   0.1500 
 47 H        8.7860    -2.9780     0.3210 H     1 <1>   0.1500 
@<TRIPOS>BOND
  1   1   2  1   
  2   1   3  1   
  3   2   4  ar  
  4   2   5  ar  
  5   3   6  1   
  6   3  27  1   
  7   3  28  1   
  8   4   7  ar  
  9   5   8  ar  
 10   6   9  2   
 11   6  10  am  
 12   7  11  ar  
 13   8  11  ar  
 14   8  12  1   
 15  10  13  1   
 16  10  14  1   
 17  11  15  1   
 18  12  16  1   
 19  12  17  1   
 20  13  18  1   
 21  13  29  1   
 22  13  30  1   
 23  14  19  1   
 24  14  31  1   
 25  14  32  1   
 26  15  16  ar  
 27  15  20  ar  
 28  16  21  ar  
 29  17  22  1   
 30  17  23  1   
 31  17  33  1   
 32  18  24  1   
 33  18  34  1   
 34  18  35  1   
 35  19  24  1   
 36  19  36  1   
 37  19  37  1   
 38  20  25  ar  
 39  20  38  1   
 40  21  26  ar  
 41  21  39  1   
 42  22  40  1   
 43  22  41  1   
 44  22  42  1   
 45  23  43  1   
 46  23  44  1   
 47  23  45  1   
 48  25  26  ar  
 49  25  46  1   
 50  26  47  1   
@<TRIPOS>SUBSTRUCTURE
  1 ****   2 GROUP 4 **** **** 0

# MOE 2024.06 (io_trps.svl 2023.06)
