@<TRIPOS>MOLECULE
NONAME
38 38 1 0 0 
SMALL
USER_CHARGES


@<TRIPOS>ATOM
  1 O        0.1960    -0.5900     2.2260 O.2   1 <1>  -0.5700 
  2 C        0.0880    -1.3980     1.3180 C.2   1 <1>   0.6160 
  3 N        1.1320    -1.5230     0.4480 N.am  1 <1>  -0.7300 
  4 C       -1.0930    -2.1920     1.1360 C.2   1 <1>   0.0790 
  5 C        2.3880    -0.7610     0.4500 C.3   1 <1>   0.2200 
  6 C       -2.2750    -1.5350     1.5960 C.1   1 <1>   0.4920 
  7 C       -1.1320    -3.4320     0.5380 C.2   1 <1>  -0.0380 
  8 C        2.6080    -0.1710    -0.9460 C.3   1 <1>  -0.1600 
  9 C        3.5380    -1.6930     0.8450 C.3   1 <1>  -0.1600 
 10 N       -3.2590    -1.0570     1.9270 N.1   1 <1>  -0.5570 
 11 N       -0.0250    -4.1750     0.1660 N.pl3 1 <1>  -0.8380 
 12 C       -2.4550    -4.1420     0.2390 C.3   1 <1>  -0.1020 
 13 C        3.9600     0.5540    -1.0350 C.3   1 <1>  -0.1600 
 14 C        4.8910    -0.9710     0.7630 C.3   1 <1>  -0.1600 
 15 C        0.0110    -5.0310    -1.0570 C.3   1 <1>   0.1290 
 16 C        1.0230    -4.5270     1.1720 C.3   1 <1>   0.1290 
 17 C        5.1150    -0.3730    -0.6330 C.3   1 <1>  -0.1600 
 18 H        1.0810    -2.3480    -0.1640 H     1 <1>   0.3700 
 19 H        2.3240     0.0430     1.1650 H     1 <1>   0.0800 
 20 H        2.5830    -0.9580    -1.6780 H     1 <1>   0.0800 
 21 H        1.8170     0.5250    -1.1640 H     1 <1>   0.0800 
 22 H        3.3810    -2.0410     1.8510 H     1 <1>   0.0800 
 23 H        3.5570    -2.5410     0.1840 H     1 <1>   0.0800 
 24 H       -2.3830    -5.1760     0.5250 H     1 <1>   0.0800 
 25 H       -2.6730    -4.0900    -0.8120 H     1 <1>   0.0800 
 26 H       -3.2920    -3.7280     0.7700 H     1 <1>   0.0800 
 27 H        4.1140     0.9080    -2.0400 H     1 <1>   0.0800 
 28 H        3.9470     1.4110    -0.3830 H     1 <1>   0.0800 
 29 H        4.9170    -0.1820     1.4970 H     1 <1>   0.0800 
 30 H        5.6840    -1.6600     0.9930 H     1 <1>   0.0800 
 31 H        1.0100    -5.0600    -1.4550 H     1 <1>   0.0800 
 32 H       -0.6440    -4.6300    -1.8110 H     1 <1>   0.0800 
 33 H       -0.3010    -6.0320    -0.8140 H     1 <1>   0.0800 
 34 H        0.9660    -5.5760     1.4070 H     1 <1>   0.0800 
 35 H        0.8790    -3.9680     2.0810 H     1 <1>   0.0800 
 36 H        2.0000    -4.3080     0.7800 H     1 <1>   0.0800 
 37 H        6.0400     0.1790    -0.6440 H     1 <1>   0.0800 
 38 H        5.2000    -1.1690    -1.3520 H     1 <1>   0.0800 
@<TRIPOS>BOND
  1   1   2  2   
  2   2   3  am  
  3   2   4  1   
  4   3   5  1   
  5   3  18  1   
  6   4   6  1   
  7   4   7  2   
  8   5   8  1   
  9   5   9  1   
 10   5  19  1   
 11   6  10  3   
 12   7  11  1   
 13   7  12  1   
 14   8  13  1   
 15   8  20  1   
 16   8  21  1   
 17   9  14  1   
 18   9  22  1   
 19   9  23  1   
 20  11  15  1   
 21  11  16  1   
 22  12  24  1   
 23  12  25  1   
 24  12  26  1   
 25  13  17  1   
 26  13  27  1   
 27  13  28  1   
 28  14  17  1   
 29  14  29  1   
 30  14  30  1   
 31  15  31  1   
 32  15  32  1   
 33  15  33  1   
 34  16  34  1   
 35  16  35  1   
 36  16  36  1   
 37  17  37  1   
 38  17  38  1   
@<TRIPOS>SUBSTRUCTURE
  1 ****   3 GROUP 4 **** **** 0

# MOE 2024.06 (io_trps.svl 2023.06)
