@<TRIPOS>MOLECULE
NONAME
43 44 1 0 0 
SMALL
USER_CHARGES


@<TRIPOS>ATOM
  1 S        0.0580     0.3110     2.4250 S.o2  1 <1>   1.4470 
  2 O       -0.5360     0.7360     3.6720 O.2   1 <1>  -0.6500 
  3 O        0.3110    -1.0880     2.1750 O.2   1 <1>  -0.6500 
  4 N       -1.0400     0.8010     1.2250 N.am  1 <1>  -0.8490 
  5 C        1.5170     1.3090     2.0160 C.ar  1 <1>  -0.0090 
  6 C       -2.1620    -0.1450     1.0670 C.3   1 <1>   0.1960 
  7 C       -1.5480     2.1750     1.4270 C.3   1 <1>   0.1960 
  8 C        1.8030     1.6130     0.6950 C.ar  1 <1>  -0.1500 
  9 C        2.3660     1.8140     2.9880 C.ar  1 <1>  -0.1500 
 10 C       -3.1680     0.3140    -0.0220 C.3   1 <1>   0.3430 
 11 C       -2.3890     2.6570     0.2180 C.3   1 <1>   0.3430 
 12 C        2.8510     2.4440     0.3080 C.ar  1 <1>   0.0860 
 13 C        3.4340     2.6230     2.6420 C.ar  1 <1>  -0.1500 
 14 N       -2.6850     1.5400    -0.7520 N.4   1 <1>  -0.9590 
 15 C        3.6760     2.9540     1.3190 C.ar  1 <1>  -0.1430 
 16 C        2.9760     2.7350    -1.1100 C.2   1 <1>   0.5440 
 17 C       -3.5660     1.9300    -1.8810 C.3   1 <1>   0.3430 
 18 C        4.8360     3.8960     1.0130 C.3   1 <1>  -0.0970 
 19 O        1.9930     3.0040    -1.7700 O.2   1 <1>  -0.5700 
 20 N        4.1540     2.6770    -1.7700 N.am  1 <1>  -0.8000 
 21 C       -2.8310     2.9100    -2.7890 C.3   1 <1>  -0.2400 
 22 H       -2.6780    -0.2650     2.0060 H     1 <1>   0.0800 
 23 H       -1.7770    -1.1120     0.7900 H     1 <1>   0.0800 
 24 H       -0.7270     2.8590     1.5670 H     1 <1>   0.0800 
 25 H       -2.1520     2.2160     2.3200 H     1 <1>   0.0800 
 26 H        1.1820     1.2020    -0.0810 H     1 <1>   0.1500 
 27 H        2.1870     1.5810     4.0260 H     1 <1>   0.1500 
 28 H       -4.1170     0.5200     0.4460 H     1 <1>   0.0800 
 29 H       -3.3180    -0.4950    -0.7180 H     1 <1>   0.0800 
 30 H       -1.8420     3.4360    -0.2890 H     1 <1>   0.0800 
 31 H       -3.3070     3.0890     0.5800 H     1 <1>   0.0800 
 32 H        4.0730     3.0020     3.4230 H     1 <1>   0.1500 
 33 H       -1.7620     1.2760    -1.1330 H     1 <1>   0.4500 
 34 H       -4.4750     2.3770    -1.5110 H     1 <1>   0.0800 
 35 H       -3.8280     1.0550    -2.4550 H     1 <1>   0.0800 
 36 H        5.6740     3.3400     0.6340 H     1 <1>   0.0800 
 37 H        5.1500     4.4180     1.8990 H     1 <1>   0.0800 
 38 H        4.5430     4.6320     0.2850 H     1 <1>   0.0800 
 39 H        4.1700     2.8510    -2.7760 H     1 <1>   0.3700 
 40 H        5.0220     2.3520    -1.3470 H     1 <1>   0.3700 
 41 H       -2.6410     3.8430    -2.2910 H     1 <1>   0.0800 
 42 H       -3.4420     3.1190    -3.6490 H     1 <1>   0.0800 
 43 H       -1.9040     2.4890    -3.1370 H     1 <1>   0.0800 
@<TRIPOS>BOND
  1   1   2  2   
  2   1   3  2   
  3   1   4  am  
  4   1   5  1   
  5   4   6  1   
  6   4   7  1   
  7   5   8  ar  
  8   5   9  ar  
  9   6  10  1   
 10   6  22  1   
 11   6  23  1   
 12   7  11  1   
 13   7  24  1   
 14   7  25  1   
 15   8  12  ar  
 16   8  26  1   
 17   9  13  ar  
 18   9  27  1   
 19  10  14  1   
 20  10  28  1   
 21  10  29  1   
 22  11  14  1   
 23  11  30  1   
 24  11  31  1   
 25  12  15  ar  
 26  12  16  1   
 27  13  15  ar  
 28  13  32  1   
 29  14  17  1   
 30  14  33  1   
 31  15  18  1   
 32  16  19  2   
 33  16  20  am  
 34  17  21  1   
 35  17  34  1   
 36  17  35  1   
 37  18  36  1   
 38  18  37  1   
 39  18  38  1   
 40  20  39  1   
 41  20  40  1   
 42  21  41  1   
 43  21  42  1   
 44  21  43  1   
@<TRIPOS>SUBSTRUCTURE
  1 ****   8 GROUP 4 **** **** 0

# MOE 2024.06 (io_trps.svl 2023.06)
