@<TRIPOS>MOLECULE
NONAME
40 40 1 0 0 
SMALL
USER_CHARGES


@<TRIPOS>ATOM
  1 O        0.7570    -7.2670    -0.3190 O.3   1 <1>  -0.3630 
  2 C       -0.4740    -6.7100    -0.1910 C.ar  1 <1>   0.0830 
  3 C        1.9190    -6.5480     0.0070 C.3   1 <1>   0.1200 
  4 C       -1.5580    -7.5180    -0.4840 C.ar  1 <1>  -0.1500 
  5 C       -0.6950    -5.3990     0.2120 C.ar  1 <1>  -0.1500 
  6 C        3.1080    -7.4850    -0.2270 C.3   1 <1>   0.3430 
  7 C       -2.8580    -7.0450    -0.3810 C.ar  1 <1>  -0.1440 
  8 C       -1.9880    -4.9240     0.3150 C.ar  1 <1>  -0.1500 
  9 N        4.4340    -6.8370     0.0640 N.4   1 <1>  -0.9590 
 10 C       -3.0840    -5.7290     0.0240 C.ar  1 <1>  -0.1430 
 11 C       -3.9900    -8.0050    -0.7230 C.3   1 <1>  -0.0970 
 12 C        5.5460    -7.7180    -0.4110 C.3   1 <1>   0.2630 
 13 C        4.6060    -6.5310     1.5210 C.3   1 <1>   0.2630 
 14 C       -4.4920    -5.1330     0.1620 C.3   1 <1>   0.0630 
 15 C       -4.6860    -3.9540    -0.7980 C.3   1 <1>  -0.2400 
 16 C       -4.7690    -4.7070     1.6080 C.3   1 <1>  -0.2400 
 17 H        1.8460    -6.2560     1.0390 H     1 <1>   0.0800 
 18 H        1.9710    -5.6890    -0.6380 H     1 <1>   0.0800 
 19 H       -1.3720    -8.5290    -0.7950 H     1 <1>   0.1500 
 20 H        0.1110    -4.7330     0.4470 H     1 <1>   0.1500 
 21 H        3.0840    -7.7990    -1.2580 H     1 <1>   0.0800 
 22 H        2.9880    -8.3580     0.3940 H     1 <1>   0.0800 
 23 H       -2.1400    -3.9070     0.6280 H     1 <1>   0.1500 
 24 H        4.4840    -5.9540    -0.4680 H     1 <1>   0.4500 
 25 H       -3.6110    -8.9680    -1.0140 H     1 <1>   0.0800 
 26 H       -4.5700    -7.6140    -1.5400 H     1 <1>   0.0800 
 27 H       -4.6280    -8.1410     0.1320 H     1 <1>   0.0800 
 28 H        5.5310    -8.6590     0.1150 H     1 <1>   0.0800 
 29 H        6.4990    -7.2440    -0.2400 H     1 <1>   0.0800 
 30 H        5.4460    -7.9120    -1.4670 H     1 <1>   0.0800 
 31 H        4.5410    -7.4350     2.1050 H     1 <1>   0.0800 
 32 H        3.8420    -5.8480     1.8580 H     1 <1>   0.0800 
 33 H        5.5680    -6.0770     1.6970 H     1 <1>   0.0800 
 34 H       -5.2330    -5.8660    -0.0930 H     1 <1>   0.0800 
 35 H       -4.0290    -3.1400    -0.5500 H     1 <1>   0.0800 
 36 H       -5.7000    -3.6010    -0.7530 H     1 <1>   0.0800 
 37 H       -4.4770    -4.2680    -1.8050 H     1 <1>   0.0800 
 38 H       -4.1150    -3.9090     1.9100 H     1 <1>   0.0800 
 39 H       -4.6180    -5.5420     2.2680 H     1 <1>   0.0800 
 40 H       -5.7850    -4.3710     1.7090 H     1 <1>   0.0800 
@<TRIPOS>BOND
  1   1   2  1   
  2   1   3  1   
  3   2   4  ar  
  4   2   5  ar  
  5   3   6  1   
  6   3  17  1   
  7   3  18  1   
  8   4   7  ar  
  9   4  19  1   
 10   5   8  ar  
 11   5  20  1   
 12   6   9  1   
 13   6  21  1   
 14   6  22  1   
 15   7  10  ar  
 16   7  11  1   
 17   8  10  ar  
 18   8  23  1   
 19   9  12  1   
 20   9  13  1   
 21   9  24  1   
 22  10  14  1   
 23  11  25  1   
 24  11  26  1   
 25  11  27  1   
 26  12  28  1   
 27  12  29  1   
 28  12  30  1   
 29  13  31  1   
 30  13  32  1   
 31  13  33  1   
 32  14  15  1   
 33  14  16  1   
 34  14  34  1   
 35  15  35  1   
 36  15  36  1   
 37  15  37  1   
 38  16  38  1   
 39  16  39  1   
 40  16  40  1   
@<TRIPOS>SUBSTRUCTURE
  1 ****   2 GROUP 4 **** **** 0

# MOE 2024.06 (io_trps.svl 2023.06)
