@<TRIPOS>MOLECULE
NONAME
39 40 1 0 0 
SMALL
USER_CHARGES


@<TRIPOS>ATOM
  1 O       -0.2860     1.0260     1.1370 O.2   1 <1>  -0.5700 
  2 C       -0.1770     1.6690     0.1120 C.2   1 <1>   0.5440 
  3 N       -1.2260     1.6810    -0.7670 N.am  1 <1>  -0.7300 
  4 C        1.0410     2.4040    -0.1820 C.ar  1 <1>   0.0860 
  5 C       -2.5100     0.9780    -0.5710 C.3   1 <1>   0.1400 
  6 C        2.2820     1.9320     0.2430 C.ar  1 <1>  -0.1500 
  7 C        1.0220     3.6030    -0.8980 C.ar  1 <1>  -0.1500 
  8 C       -3.6100     2.0140    -0.3480 C.3   1 <1>  -0.1600 
  9 C        3.4560     2.6070    -0.0390 C.ar  1 <1>   0.0830 
 10 C        2.1880     4.2890    -1.1870 C.ar  1 <1>  -0.1500 
 11 C       -4.9450     1.3320    -0.0300 C.3   1 <1>   0.0960 
 12 O        4.6050     2.0510     0.4190 O.3   1 <1>  -0.3630 
 13 C        3.4080     3.7940    -0.7620 C.ar  1 <1>  -0.1500 
 14 N       -6.0050     2.3410     0.1530 N.pl3 1 <1>   0.0480 
 15 C        5.8540     2.6700     0.2210 C.3   1 <1>   0.1200 
 16 C       -6.9310     2.7450    -0.7460 C.2   1 <1>   0.0360 
 17 C       -6.2610     3.0680     1.2550 C.2   1 <1>  -0.3020 
 18 C        6.9210     1.7970     0.8740 C.3   1 <1>  -0.2400 
 19 N       -7.7360     3.6560    -0.3010 N.2   1 <1>  -0.5650 
 20 C       -7.3150     3.8610     0.9610 C.2   1 <1>   0.0770 
 21 H       -1.1060     2.1530    -1.6640 H     1 <1>   0.3700 
 22 H       -2.4430     0.3250     0.2840 H     1 <1>   0.0800 
 23 H       -2.7240     0.3780    -1.4390 H     1 <1>   0.0800 
 24 H        2.3310     1.0180     0.8070 H     1 <1>   0.1500 
 25 H        0.0830     4.0110    -1.2250 H     1 <1>   0.1500 
 26 H       -3.7160     2.6190    -1.2310 H     1 <1>   0.0800 
 27 H       -3.3320     2.6420     0.4820 H     1 <1>   0.0800 
 28 H        2.1490     5.2110    -1.7410 H     1 <1>   0.1500 
 29 H       -4.8620     0.7550     0.8740 H     1 <1>   0.0800 
 30 H       -5.2300     0.6750    -0.8320 H     1 <1>   0.0800 
 31 H        4.3000     4.3430    -1.0000 H     1 <1>   0.1500 
 32 H        5.8280     3.6440     0.6770 H     1 <1>   0.0800 
 33 H        6.0280     2.7550    -0.8380 H     1 <1>   0.0800 
 34 H       -6.9800     2.3360    -1.7390 H     1 <1>   0.1500 
 35 H       -5.6960     2.9880     2.1650 H     1 <1>   0.1500 
 36 H        6.7270     1.7040     1.9270 H     1 <1>   0.0800 
 37 H        7.8900     2.2440     0.7410 H     1 <1>   0.0800 
 38 H        6.9270     0.8210     0.4220 H     1 <1>   0.0800 
 39 H       -7.8010     4.5790     1.6000 H     1 <1>   0.1500 
@<TRIPOS>BOND
  1   1   2  2   
  2   2   3  am  
  3   2   4  1   
  4   3   5  1   
  5   3  21  1   
  6   4   6  ar  
  7   4   7  ar  
  8   5   8  1   
  9   5  22  1   
 10   5  23  1   
 11   6   9  ar  
 12   6  24  1   
 13   7  10  ar  
 14   7  25  1   
 15   8  11  1   
 16   8  26  1   
 17   8  27  1   
 18   9  12  1   
 19   9  13  ar  
 20  10  13  ar  
 21  10  28  1   
 22  11  14  1   
 23  11  29  1   
 24  11  30  1   
 25  12  15  1   
 26  13  31  1   
 27  14  16  1   
 28  14  17  1   
 29  15  18  1   
 30  15  32  1   
 31  15  33  1   
 32  16  19  2   
 33  16  34  1   
 34  17  20  2   
 35  17  35  1   
 36  18  36  1   
 37  18  37  1   
 38  18  38  1   
 39  19  20  1   
 40  20  39  1   
@<TRIPOS>SUBSTRUCTURE
  1 ****   2 GROUP 4 **** **** 0

# MOE 2024.06 (io_trps.svl 2023.06)
