@<TRIPOS>MOLECULE
NONAME
38 40 1 0 0 
SMALL
USER_CHARGES


@<TRIPOS>ATOM
  1 O       -0.6900    -0.8550     1.8720 O.2   1 <1>  -0.5700 
  2 C       -1.0120    -1.3620     0.8160 C.2   1 <1>   0.5440 
  3 N       -0.0510    -1.9680     0.0560 N.am  1 <1>  -0.7300 
  4 C       -2.3890    -1.3100     0.3580 C.ar  1 <1>   0.0860 
  5 C        1.3720    -2.0950     0.4120 C.3   1 <1>   0.2200 
  6 C       -3.2170    -0.2420     0.7240 C.ar  1 <1>  -0.1500 
  7 C       -2.9330    -2.3160    -0.4590 C.ar  1 <1>  -0.1500 
  8 C        2.2010    -1.2350    -0.5460 C.3   1 <1>  -0.1600 
  9 C        1.7740    -3.5700     0.3230 C.3   1 <1>  -0.1600 
 10 C       -4.5160    -0.2080     0.2660 C.ar  1 <1>   0.0830 
 11 C       -4.2430    -2.2680    -0.9140 C.ar  1 <1>  -0.1500 
 12 C        3.7050    -1.4150    -0.2930 C.3   1 <1>  -0.1600 
 13 C        3.2780    -3.7520     0.5770 C.3   1 <1>  -0.1600 
 14 O       -5.4540     0.7180     0.4960 O.3   1 <1>  -0.3630 
 15 C       -5.0190    -1.1920    -0.5340 C.ar  1 <1>   0.0830 
 16 C        4.1170    -2.8940    -0.3840 C.3   1 <1>  -0.0800 
 17 C       -6.6270     0.2940    -0.1960 C.3   1 <1>   0.4000 
 18 O       -6.2890    -0.9320    -0.8420 O.3   1 <1>  -0.3630 
 19 C        5.6100    -3.0530    -0.0780 C.3   1 <1>  -0.2400 
 20 H       -0.2850    -2.2830    -0.8840 H     1 <1>   0.3700 
 21 H        1.5300    -1.7490     1.4220 H     1 <1>   0.0800 
 22 H       -2.8460     0.5440     1.3580 H     1 <1>   0.1500 
 23 H       -2.3220    -3.1570    -0.7360 H     1 <1>   0.1500 
 24 H        1.9390    -0.2000    -0.4060 H     1 <1>   0.0800 
 25 H        1.9820    -1.5100    -1.5620 H     1 <1>   0.0800 
 26 H        1.5360    -3.9510    -0.6540 H     1 <1>   0.0800 
 27 H        1.2200    -4.1320     1.0550 H     1 <1>   0.0800 
 28 H       -4.6580    -3.0380    -1.5390 H     1 <1>   0.1500 
 29 H        3.9450    -1.0340     0.6860 H     1 <1>   0.0800 
 30 H        4.2590    -0.8390    -1.0140 H     1 <1>   0.0800 
 31 H        3.5360    -4.7900     0.4570 H     1 <1>   0.0800 
 32 H        3.4980    -3.4740     1.5940 H     1 <1>   0.0800 
 33 H        3.9410    -3.2360    -1.3900 H     1 <1>   0.0800 
 34 H       -6.8980     1.0290    -0.9330 H     1 <1>   0.0800 
 35 H       -7.4210     0.1230     0.5100 H     1 <1>   0.0800 
 36 H        5.8300    -2.7220     0.9220 H     1 <1>   0.0800 
 37 H        6.1960    -2.4740    -0.7690 H     1 <1>   0.0800 
 38 H        5.9010    -4.0850    -0.1700 H     1 <1>   0.0800 
@<TRIPOS>BOND
  1   1   2  2   
  2   2   3  am  
  3   2   4  1   
  4   3   5  1   
  5   3  20  1   
  6   4   6  ar  
  7   4   7  ar  
  8   5   8  1   
  9   5   9  1   
 10   5  21  1   
 11   6  10  ar  
 12   6  22  1   
 13   7  11  ar  
 14   7  23  1   
 15   8  12  1   
 16   8  24  1   
 17   8  25  1   
 18   9  13  1   
 19   9  26  1   
 20   9  27  1   
 21  10  14  1   
 22  10  15  ar  
 23  11  15  ar  
 24  11  28  1   
 25  12  16  1   
 26  12  29  1   
 27  12  30  1   
 28  13  16  1   
 29  13  31  1   
 30  13  32  1   
 31  14  17  1   
 32  15  18  1   
 33  16  19  1   
 34  16  33  1   
 35  17  18  1   
 36  17  34  1   
 37  17  35  1   
 38  19  36  1   
 39  19  37  1   
 40  19  38  1   
@<TRIPOS>SUBSTRUCTURE
  1 ****   2 GROUP 4 **** **** 0

# MOE 2024.06 (io_trps.svl 2023.06)
