@<TRIPOS>MOLECULE
NONAME
49 50 1 0 0 
SMALL
USER_CHARGES


@<TRIPOS>ATOM
  1 O       -0.9510     0.8900    -1.0740 O.co2 1 <1>  -0.9000 
  2 C       -0.4030     1.9860    -0.9230 C.2   1 <1>   0.9060 
  3 O       -0.2150     2.7360    -1.8920 O.co2 1 <1>  -0.9000 
  4 C       -0.0520     2.4140     0.5030 C.3   1 <1>  -0.1860 
  5 C        0.2660     3.9120     0.7480 C.3   1 <1>  -0.0190 
  6 C        1.0950     1.5510     1.0610 C.3   1 <1>  -0.0220 
  7 C       -0.8790     4.8770     0.4380 C.2   1 <1>   0.5690 
  8 C        1.5720     4.3360     0.0600 C.3   1 <1>  -0.0220 
  9 C        2.4940     2.1060     0.7830 C.2   1 <1>  -0.2760 
 10 O       -1.3140     5.5820     1.3210 O.2   1 <1>  -0.5700 
 11 N       -1.3830     4.9240    -0.8130 N.am  1 <1>  -0.7300 
 12 C        2.7090     3.3480     0.3170 C.2   1 <1>  -0.2760 
 13 C        3.5570     1.0600     1.0980 C.3   1 <1>  -0.1020 
 14 C       -2.7220     5.4130    -1.1540 C.3   1 <1>   0.2840 
 15 C        4.0550     3.9640    -0.0460 C.3   1 <1>  -0.1020 
 16 C       -3.7400     4.3320    -0.8210 C.ar  1 <1>  -0.1430 
 17 C       -4.7660     4.5800     0.0770 C.ar  1 <1>  -0.1500 
 18 C       -3.6320     3.0750    -1.3950 C.ar  1 <1>  -0.1500 
 19 C       -5.6810     3.5830     0.4070 C.ar  1 <1>   0.0820 
 20 C       -4.5310     2.0760    -1.0750 C.ar  1 <1>  -0.1500 
 21 O       -6.6920     3.7990     1.2980 O.3   1 <1>  -0.3620 
 22 C       -5.5630     2.3170    -0.1740 C.ar  1 <1>   0.0820 
 23 C       -6.5790     4.8110     2.2730 C.3   1 <1>   0.0400 
 24 O       -6.4600     1.3510     0.1790 O.3   1 <1>  -0.3630 
 25 C       -6.1710    -0.0080    -0.0590 C.3   1 <1>   0.0400 
 26 H       -0.9320     2.1800     1.0730 H     1 <1>   0.0800 
 27 H        0.4450     4.0070     1.8040 H     1 <1>   0.0800 
 28 H        1.0080     0.5580     0.6510 H     1 <1>   0.0800 
 29 H        0.9750     1.4670     2.1260 H     1 <1>   0.0800 
 30 H        1.8420     5.3080     0.4320 H     1 <1>   0.0800 
 31 H        1.4220     4.4230    -1.0020 H     1 <1>   0.0800 
 32 H       -1.0120     4.1980    -1.4620 H     1 <1>   0.3700 
 33 H        3.4590     0.2330     0.4180 H     1 <1>   0.0800 
 34 H        3.4240     0.6980     2.1010 H     1 <1>   0.0800 
 35 H        4.5540     1.4420     1.0200 H     1 <1>   0.0800 
 36 H       -2.7590     5.6410    -2.2050 H     1 <1>   0.0800 
 37 H       -2.9260     6.3110    -0.5960 H     1 <1>   0.0800 
 38 H        4.0180     4.3310    -1.0570 H     1 <1>   0.0800 
 39 H        4.8630     3.2640     0.0120 H     1 <1>   0.0800 
 40 H        4.2700     4.7870     0.6110 H     1 <1>   0.0800 
 41 H       -4.8360     5.5550     0.5180 H     1 <1>   0.1500 
 42 H       -2.8310     2.8550    -2.0840 H     1 <1>   0.1500 
 43 H       -4.3890     1.1180    -1.5370 H     1 <1>   0.1500 
 44 H       -7.3690     4.6720     2.9880 H     1 <1>   0.0800 
 45 H       -6.6820     5.7680     1.7960 H     1 <1>   0.0800 
 46 H       -5.6230     4.7210     2.7590 H     1 <1>   0.0800 
 47 H       -6.9210    -0.6000     0.4340 H     1 <1>   0.0800 
 48 H       -5.1990    -0.2340     0.3440 H     1 <1>   0.0800 
 49 H       -6.1990    -0.1900    -1.1190 H     1 <1>   0.0800 
@<TRIPOS>BOND
  1   1   2  ar  
  2   2   3  ar  
  3   2   4  1   
  4   4   5  1   
  5   4   6  1   
  6   4  26  1   
  7   5   7  1   
  8   5   8  1   
  9   5  27  1   
 10   6   9  1   
 11   6  28  1   
 12   6  29  1   
 13   7  10  2   
 14   7  11  am  
 15   8  12  1   
 16   8  30  1   
 17   8  31  1   
 18   9  12  2   
 19   9  13  1   
 20  11  14  1   
 21  11  32  1   
 22  12  15  1   
 23  13  33  1   
 24  13  34  1   
 25  13  35  1   
 26  14  16  1   
 27  14  36  1   
 28  14  37  1   
 29  15  38  1   
 30  15  39  1   
 31  15  40  1   
 32  16  17  ar  
 33  16  18  ar  
 34  17  19  ar  
 35  17  41  1   
 36  18  20  ar  
 37  18  42  1   
 38  19  21  1   
 39  19  22  ar  
 40  20  22  ar  
 41  20  43  1   
 42  21  23  1   
 43  22  24  1   
 44  23  44  1   
 45  23  45  1   
 46  23  46  1   
 47  24  25  1   
 48  25  47  1   
 49  25  48  1   
 50  25  49  1   
@<TRIPOS>SUBSTRUCTURE
  1 ****   4 GROUP 4 **** **** 0

# MOE 2024.06 (io_trps.svl 2023.06)
