@<TRIPOS>MOLECULE
NONAME
33 33 1 0 0 
SMALL
USER_CHARGES


@<TRIPOS>ATOM
  1 S        0.1710     0.1430     0.4350 S.o2  1 <1>   1.4470 
  2 O        0.5160     0.5120     1.7890 O.2   1 <1>  -0.6500 
  3 O        0.2540     1.1280    -0.6190 O.2   1 <1>  -0.6500 
  4 N        1.2840    -1.0080    -0.0680 N.am  1 <1>  -0.9140 
  5 C       -1.4360    -0.7170     0.4090 C.ar  1 <1>  -0.0090 
  6 C        2.6490    -0.6860     0.3440 C.3   1 <1>   0.1960 
  7 C       -2.6510    -0.0350     0.3040 C.ar  1 <1>  -0.1430 
  8 C       -1.4850    -2.1040     0.5230 C.ar  1 <1>  -0.1500 
  9 C        3.6240    -1.7350    -0.1940 C.3   1 <1>   0.1200 
 10 C       -3.8500    -0.7320     0.2880 C.ar  1 <1>  -0.1500 
 11 C       -2.7030     1.4860     0.2080 C.3   1 <1>  -0.0970 
 12 C       -2.6820    -2.7960     0.5090 C.ar  1 <1>  -0.1500 
 13 O        4.9210    -1.3460     0.1350 O.3   1 <1>  -0.5600 
 14 C       -3.8750    -2.1110     0.3890 C.ar  1 <1>  -0.1430 
 15 C        5.9020    -2.2440    -0.2730 C.3   1 <1>   0.0400 
 16 C       -5.1970    -2.8570     0.3680 C.3   1 <1>  -0.0970 
 17 H        1.2530    -0.9070    -1.0810 H     1 <1>   0.4200 
 18 H        2.7110    -0.6760     1.4200 H     1 <1>   0.0800 
 19 H        2.9230     0.2860    -0.0310 H     1 <1>   0.0800 
 20 H       -0.5710    -2.6630     0.6290 H     1 <1>   0.1500 
 21 H        3.5530    -1.8010    -1.2650 H     1 <1>   0.0800 
 22 H        3.4240    -2.6910     0.2580 H     1 <1>   0.0800 
 23 H       -4.7800    -0.1980     0.1980 H     1 <1>   0.1500 
 24 H       -2.1110     1.9340     0.9870 H     1 <1>   0.0800 
 25 H       -3.7110     1.8460     0.3130 H     1 <1>   0.0800 
 26 H       -2.3280     1.8100    -0.7460 H     1 <1>   0.0800 
 27 H       -2.6790    -3.8690     0.5940 H     1 <1>   0.1500 
 28 H        6.8580    -1.8520     0.0260 H     1 <1>   0.0800 
 29 H        5.8700    -2.3440    -1.3440 H     1 <1>   0.0800 
 30 H        5.7350    -3.1950     0.2040 H     1 <1>   0.0800 
 31 H       -5.9520    -2.2930     0.8850 H     1 <1>   0.0800 
 32 H       -5.1000    -3.8140     0.8490 H     1 <1>   0.0800 
 33 H       -5.5120    -3.0100    -0.6480 H     1 <1>   0.0800 
@<TRIPOS>BOND
  1   1   2  2   
  2   1   3  2   
  3   1   4  am  
  4   1   5  1   
  5   4   6  1   
  6   4  17  1   
  7   5   7  ar  
  8   5   8  ar  
  9   6   9  1   
 10   6  18  1   
 11   6  19  1   
 12   7  10  ar  
 13   7  11  1   
 14   8  12  ar  
 15   8  20  1   
 16   9  13  1   
 17   9  21  1   
 18   9  22  1   
 19  10  14  ar  
 20  10  23  1   
 21  11  24  1   
 22  11  25  1   
 23  11  26  1   
 24  12  14  ar  
 25  12  27  1   
 26  13  15  1   
 27  14  16  1   
 28  15  28  1   
 29  15  29  1   
 30  15  30  1   
 31  16  31  1   
 32  16  32  1   
 33  16  33  1   
@<TRIPOS>SUBSTRUCTURE
  1 ****   5 GROUP 4 **** **** 0

# MOE 2024.06 (io_trps.svl 2023.06)
