@<TRIPOS>MOLECULE
NONAME
49 50 1 0 0 
SMALL
USER_CHARGES


@<TRIPOS>ATOM
  1 O        0.0710     1.8540    -1.7710 O.2   1 <1>  -0.5700 
  2 C       -0.0430     2.0350    -0.5870 C.2   1 <1>   0.6590 
  3 O       -1.1120     1.6630     0.0980 O.3   1 <1>  -0.4300 
  4 C        1.0620     2.7200     0.2130 C.3   1 <1>  -0.0190 
  5 C       -2.1990     1.0210    -0.5290 C.3   1 <1>   0.1200 
  6 C        1.3030     4.1510    -0.2980 C.3   1 <1>  -0.1600 
  7 C        2.3690     1.9100     0.1480 C.3   1 <1>  -0.1600 
  8 C       -3.2540     0.7300     0.5330 C.3   1 <1>  -0.2400 
  9 C        2.5000     4.8120     0.3800 C.3   1 <1>   0.3430 
 10 C        3.5330     2.6400     0.8130 C.3   1 <1>   0.3430 
 11 N        3.7340     3.9820     0.1670 N.4   1 <1>  -0.9590 
 12 C        5.0010     4.6700     0.5990 C.3   1 <1>   0.4230 
 13 C        5.1640     6.0150    -0.1310 C.3   1 <1>  -0.1600 
 14 C        6.2250     3.7840     0.3120 C.3   1 <1>  -0.1600 
 15 C        6.4990     6.6900     0.1890 C.3   1 <1>   0.3430 
 16 C        7.5430     4.4940     0.6230 C.3   1 <1>   0.3430 
 17 N        7.6270     5.7760    -0.1330 N.4   1 <1>  -0.9590 
 18 C        8.9250     6.4710     0.1130 C.3   1 <1>   0.3430 
 19 C       10.0500     5.7320    -0.6010 C.3   1 <1>  -0.2400 
 20 H        0.7410     2.7710     1.2390 H     1 <1>   0.0800 
 21 H       -1.8440     0.1090    -0.9810 H     1 <1>   0.0800 
 22 H       -2.5890     1.6740    -1.2920 H     1 <1>   0.0800 
 23 H        0.4220     4.7430    -0.1120 H     1 <1>   0.0800 
 24 H        1.4580     4.1420    -1.3640 H     1 <1>   0.0800 
 25 H        2.6220     1.6970    -0.8770 H     1 <1>   0.0800 
 26 H        2.2200     0.9640     0.6400 H     1 <1>   0.0800 
 27 H       -2.8500     0.0840     1.2930 H     1 <1>   0.0800 
 28 H       -4.0970     0.2390     0.0810 H     1 <1>   0.0800 
 29 H       -3.5930     1.6470     0.9820 H     1 <1>   0.0800 
 30 H        2.3050     4.9200     1.4360 H     1 <1>   0.0800 
 31 H        2.6230     5.7950    -0.0440 H     1 <1>   0.0800 
 32 H        4.4140     2.0290     0.7060 H     1 <1>   0.0800 
 33 H        3.3310     2.7630     1.8650 H     1 <1>   0.0800 
 34 H        3.7890     3.8060    -0.8470 H     1 <1>   0.4500 
 35 H        4.9540     4.8580     1.6610 H     1 <1>   0.0800 
 36 H        4.3960     6.7010     0.1730 H     1 <1>   0.0800 
 37 H        5.0920     5.8770    -1.1960 H     1 <1>   0.0800 
 38 H        6.2330     3.4750    -0.7190 H     1 <1>   0.0800 
 39 H        6.2020     2.9030     0.9270 H     1 <1>   0.0800 
 40 H        6.5330     6.9550     1.2340 H     1 <1>   0.0800 
 41 H        6.5880     7.5990    -0.3870 H     1 <1>   0.0800 
 42 H        8.3660     3.8510     0.3510 H     1 <1>   0.0800 
 43 H        7.6130     4.6910     1.6810 H     1 <1>   0.0800 
 44 H        7.6090     5.5690    -1.1440 H     1 <1>   0.4500 
 45 H        9.1300     6.5270     1.1710 H     1 <1>   0.0800 
 46 H        8.8780     7.4780    -0.2720 H     1 <1>   0.0800 
 47 H       10.2110     4.7530    -0.1870 H     1 <1>   0.0800 
 48 H       10.9640     6.2860    -0.4790 H     1 <1>   0.0800 
 49 H        9.8530     5.6550    -1.6560 H     1 <1>   0.0800 
@<TRIPOS>BOND
  1   1   2  2   
  2   2   3  1   
  3   2   4  1   
  4   3   5  1   
  5   4   6  1   
  6   4   7  1   
  7   4  20  1   
  8   5   8  1   
  9   5  21  1   
 10   5  22  1   
 11   6   9  1   
 12   6  23  1   
 13   6  24  1   
 14   7  10  1   
 15   7  25  1   
 16   7  26  1   
 17   8  27  1   
 18   8  28  1   
 19   8  29  1   
 20   9  11  1   
 21   9  30  1   
 22   9  31  1   
 23  10  11  1   
 24  10  32  1   
 25  10  33  1   
 26  11  12  1   
 27  11  34  1   
 28  12  13  1   
 29  12  14  1   
 30  12  35  1   
 31  13  15  1   
 32  13  36  1   
 33  13  37  1   
 34  14  16  1   
 35  14  38  1   
 36  14  39  1   
 37  15  17  1   
 38  15  40  1   
 39  15  41  1   
 40  16  17  1   
 41  16  42  1   
 42  16  43  1   
 43  17  18  1   
 44  17  44  1   
 45  18  19  1   
 46  18  45  1   
 47  18  46  1   
 48  19  47  1   
 49  19  48  1   
 50  19  49  1   
@<TRIPOS>SUBSTRUCTURE
  1 ****  11 GROUP 4 **** **** 0

# MOE 2024.06 (io_trps.svl 2023.06)
