@<TRIPOS>MOLECULE
NONAME
53 54 1 0 0 
SMALL
USER_CHARGES


@<TRIPOS>ATOM
  1 O        6.5690    -7.6510    -0.3400 O.2   1 <1>  -0.5700 
  2 C        5.5520    -8.3070    -0.2530 C.2   1 <1>   0.7800 
  3 O        5.5630    -9.4830     0.3710 O.3   1 <1>  -0.4300 
  4 N        4.3550    -7.8630    -0.7500 N.am  1 <1>  -0.6600 
  5 C        6.7600   -10.0080     0.9000 C.3   1 <1>   0.1200 
  6 C        3.0530    -8.5340    -0.4700 C.3   1 <1>   0.1400 
  7 C        4.2360    -6.5330    -1.4160 C.3   1 <1>   0.1400 
  8 C        6.4420   -11.3530     1.5460 C.3   1 <1>  -0.2400 
  9 C        2.1500    -7.6040     0.3630 C.3   1 <1>   0.3430 
 10 C        3.3370    -5.6030    -0.5820 C.3   1 <1>   0.3430 
 11 N        2.0100    -6.2400    -0.2630 N.4   1 <1>  -0.9590 
 12 C        1.1020    -5.3390     0.5150 C.3   1 <1>   0.3430 
 13 C       -0.3730    -5.7150     0.2580 C.3   1 <1>   0.2000 
 14 O       -0.5050    -6.1580    -1.0610 O.3   1 <1>  -0.6800 
 15 C       -1.3340    -4.5430     0.4880 C.3   1 <1>   0.1200 
 16 O       -2.6150    -4.9320     0.0440 O.3   1 <1>  -0.3630 
 17 C       -3.6870    -4.1000     0.1320 C.ar  1 <1>   0.0820 
 18 C       -4.9190    -4.5930    -0.2900 C.ar  1 <1>  -0.1440 
 19 C       -3.5970    -2.7980     0.6210 C.ar  1 <1>  -0.1500 
 20 C       -6.0390    -3.7810    -0.2190 C.ar  1 <1>  -0.1500 
 21 C       -5.0540    -6.0100    -0.8280 C.3   1 <1>  -0.0970 
 22 C       -4.7210    -1.9920     0.6910 C.ar  1 <1>  -0.1440 
 23 C       -5.9410    -2.4890     0.2670 C.ar  1 <1>  -0.1500 
 24 C       -4.6230    -0.5730     1.2220 C.3   1 <1>  -0.0970 
 25 H        7.1500    -9.3130     1.6240 H     1 <1>   0.0800 
 26 H        7.4670   -10.1250     0.0940 H     1 <1>   0.0800 
 27 H        3.2010    -9.4560     0.0650 H     1 <1>   0.0800 
 28 H        2.5690    -8.7740    -1.4010 H     1 <1>   0.0800 
 29 H        3.8190    -6.6630    -2.3990 H     1 <1>   0.0800 
 30 H        5.2050    -6.0780    -1.5340 H     1 <1>   0.0800 
 31 H        5.7310   -11.2250     2.3420 H     1 <1>   0.0800 
 32 H        7.3410   -11.7780     1.9560 H     1 <1>   0.0800 
 33 H        6.0480   -12.0330     0.8130 H     1 <1>   0.0800 
 34 H        2.5780    -7.5100     1.3470 H     1 <1>   0.0800 
 35 H        1.1780    -8.0600     0.4640 H     1 <1>   0.0800 
 36 H        3.1830    -4.6850    -1.1250 H     1 <1>   0.0800 
 37 H        3.8540    -5.3650     0.3330 H     1 <1>   0.0800 
 38 H        1.4860    -6.3820    -1.1490 H     1 <1>   0.4500 
 39 H        1.2480    -4.3230     0.1870 H     1 <1>   0.0800 
 40 H        1.3250    -5.3820     1.5680 H     1 <1>   0.0800 
 41 H       -0.6580    -6.5270     0.9050 H     1 <1>   0.0800 
 42 H       -1.4650    -6.1310    -1.2950 H     1 <1>   0.4000 
 43 H       -1.0280    -3.6790    -0.0780 H     1 <1>   0.0800 
 44 H       -1.3970    -4.2970     1.5330 H     1 <1>   0.0800 
 45 H       -2.6630    -2.3900     0.9510 H     1 <1>   0.1500 
 46 H       -6.9970    -4.1470    -0.5430 H     1 <1>   0.1500 
 47 H       -4.7160    -6.7150    -0.0910 H     1 <1>   0.0800 
 48 H       -4.4590    -6.1210    -1.7170 H     1 <1>   0.0800 
 49 H       -6.0760    -6.2370    -1.0710 H     1 <1>   0.0800 
 50 H       -6.8220    -1.8730     0.3130 H     1 <1>   0.1500 
 51 H       -3.8100    -0.4830     1.9190 H     1 <1>   0.0800 
 52 H       -5.5320    -0.2990     1.7270 H     1 <1>   0.0800 
 53 H       -4.4600     0.1090     0.4070 H     1 <1>   0.0800 
@<TRIPOS>BOND
  1   1   2  2   
  2   2   3  1   
  3   2   4  am  
  4   3   5  1   
  5   4   6  1   
  6   4   7  1   
  7   5   8  1   
  8   5  25  1   
  9   5  26  1   
 10   6   9  1   
 11   6  27  1   
 12   6  28  1   
 13   7  10  1   
 14   7  29  1   
 15   7  30  1   
 16   8  31  1   
 17   8  32  1   
 18   8  33  1   
 19   9  11  1   
 20   9  34  1   
 21   9  35  1   
 22  10  11  1   
 23  10  36  1   
 24  10  37  1   
 25  11  12  1   
 26  11  38  1   
 27  12  13  1   
 28  12  39  1   
 29  12  40  1   
 30  13  14  1   
 31  13  15  1   
 32  13  41  1   
 33  14  42  1   
 34  15  16  1   
 35  15  43  1   
 36  15  44  1   
 37  16  17  1   
 38  17  18  ar  
 39  17  19  ar  
 40  18  20  ar  
 41  18  21  1   
 42  19  22  ar  
 43  19  45  1   
 44  20  23  ar  
 45  20  46  1   
 46  21  47  1   
 47  21  48  1   
 48  21  49  1   
 49  22  23  ar  
 50  22  24  1   
 51  23  50  1   
 52  24  51  1   
 53  24  52  1   
 54  24  53  1   
@<TRIPOS>SUBSTRUCTURE
  1 ****  13 GROUP 4 **** **** 0

# MOE 2024.06 (io_trps.svl 2023.06)
