@<TRIPOS>MOLECULE
NONAME
52 54 1 0 0 
SMALL
USER_CHARGES


@<TRIPOS>ATOM
  1 S       -1.3730     0.8980    -2.4060 S.3   1 <1>  -0.0800 
  2 C        0.0490     1.2920    -1.4640 C.2   1 <1>   0.1040 
  3 C       -2.2530     0.3780    -0.9850 C.2   1 <1>  -0.1400 
  4 N        1.1740     1.7860    -2.1050 N.am  1 <1>  -0.4940 
  5 C       -0.1540     1.0280    -0.1340 C.2   1 <1>  -0.0860 
  6 C       -1.4890     0.5090     0.1180 C.2   1 <1>  -0.1810 
  7 C       -3.6670    -0.1030    -1.2570 C.3   1 <1>  -0.0600 
  8 C        1.4390     2.2310    -3.3730 C.2   1 <1>   0.5690 
  9 C        0.8720     1.2680     0.8540 C.2   1 <1>   0.8060 
 10 C       -1.9800     0.1570     1.5180 C.3   1 <1>  -0.0590 
 11 O        0.6360     2.2720    -4.2720 O.2   1 <1>  -0.5700 
 12 C        2.8670     2.7150    -3.6350 C.3   1 <1>   0.1710 
 13 O        1.8540     1.9570     0.6360 O.2   1 <1>  -0.5700 
 14 O        0.7710     0.7070     2.0660 O.3   1 <1>  -0.4300 
 15 N        3.6740     2.9190    -2.3950 N.3   1 <1>  -0.8100 
 16 C        1.7550     0.8910     3.0670 C.3   1 <1>   0.0400 
 17 C        5.1220     2.9630    -2.6970 C.3   1 <1>   0.1100 
 18 C        3.2890     4.1690    -1.6870 C.3   1 <1>   0.1100 
 19 C        5.9720     3.1390    -1.4220 C.3   1 <1>   0.2090 
 20 C        4.0960     4.3660    -0.3900 C.3   1 <1>   0.2090 
 21 N        5.5630     4.3570    -0.6640 N.pl3 1 <1>  -0.8380 
 22 C        6.3770     4.6970     0.4100 C.ar  1 <1>   0.1000 
 23 C        7.1460     5.8510     0.3480 C.ar  1 <1>  -0.1500 
 24 C        6.4430     3.9100     1.5550 C.ar  1 <1>  -0.1500 
 25 C        7.9640     6.2140     1.4020 C.ar  1 <1>  -0.1500 
 26 C        7.2590     4.2690     2.6120 C.ar  1 <1>  -0.1500 
 27 C        8.0220     5.4220     2.5370 C.ar  1 <1>  -0.1500 
 28 H        1.9990     1.9260    -1.5010 H     1 <1>   0.3700 
 29 H       -4.2430     0.6960    -1.6880 H     1 <1>   0.0800 
 30 H       -4.1530    -0.4330    -0.3600 H     1 <1>   0.0800 
 31 H       -3.6400    -0.9220    -1.9530 H     1 <1>   0.0800 
 32 H       -3.0190    -0.1120     1.5160 H     1 <1>   0.0800 
 33 H       -1.8600     0.9990     2.1750 H     1 <1>   0.0800 
 34 H       -1.4220    -0.6760     1.9060 H     1 <1>   0.0800 
 35 H        2.8280     3.6260    -4.2040 H     1 <1>   0.0800 
 36 H        3.3400     1.9660    -4.2450 H     1 <1>   0.0800 
 37 H        1.4550     0.3460     3.9440 H     1 <1>   0.0800 
 38 H        1.8320     1.9410     3.2910 H     1 <1>   0.0800 
 39 H        2.6970     0.5180     2.7030 H     1 <1>   0.0800 
 40 H        5.3340     3.7780    -3.3670 H     1 <1>   0.0800 
 41 H        5.4150     2.0460    -3.1780 H     1 <1>   0.0800 
 42 H        2.2430     4.1440    -1.4340 H     1 <1>   0.0800 
 43 H        3.4560     5.0190    -2.3250 H     1 <1>   0.0800 
 44 H        7.0100     3.2240    -1.6910 H     1 <1>   0.0800 
 45 H        5.8550     2.2700    -0.7990 H     1 <1>   0.0800 
 46 H        3.8510     3.5800     0.3030 H     1 <1>   0.0800 
 47 H        3.8260     5.3050     0.0610 H     1 <1>   0.0800 
 48 H        7.0920     6.4560    -0.5380 H     1 <1>   0.1500 
 49 H        5.8510     3.0170     1.6100 H     1 <1>   0.1500 
 50 H        8.5540     7.1110     1.3400 H     1 <1>   0.1500 
 51 H        7.3030     3.6520     3.4920 H     1 <1>   0.1500 
 52 H        8.6570     5.7030     3.3580 H     1 <1>   0.1500 
@<TRIPOS>BOND
  1   1   2  1   
  2   1   3  1   
  3   2   4  1   
  4   2   5  2   
  5   3   6  2   
  6   3   7  1   
  7   4   8  am  
  8   4  28  1   
  9   5   6  1   
 10   5   9  1   
 11   6  10  1   
 12   7  29  1   
 13   7  30  1   
 14   7  31  1   
 15   8  11  2   
 16   8  12  1   
 17   9  13  2   
 18   9  14  1   
 19  10  32  1   
 20  10  33  1   
 21  10  34  1   
 22  12  15  1   
 23  12  35  1   
 24  12  36  1   
 25  14  16  1   
 26  15  17  1   
 27  15  18  1   
 28  16  37  1   
 29  16  38  1   
 30  16  39  1   
 31  17  19  1   
 32  17  40  1   
 33  17  41  1   
 34  18  20  1   
 35  18  42  1   
 36  18  43  1   
 37  19  21  1   
 38  19  44  1   
 39  19  45  1   
 40  20  21  1   
 41  20  46  1   
 42  20  47  1   
 43  21  22  1   
 44  22  23  ar  
 45  22  24  ar  
 46  23  25  ar  
 47  23  48  1   
 48  24  26  ar  
 49  24  49  1   
 50  25  27  ar  
 51  25  50  1   
 52  26  27  ar  
 53  26  51  1   
 54  27  52  1   
@<TRIPOS>SUBSTRUCTURE
  1 ****  13 GROUP 4 **** **** 0

# MOE 2024.06 (io_trps.svl 2023.06)
