@<TRIPOS>MOLECULE
NONAME
47 50 1 0 0 
SMALL
USER_CHARGES


@<TRIPOS>ATOM
  1 O       -0.8080     0.2500     0.9910 O.3   1 <1>  -0.3630 
  2 C       -1.4010     1.4460     0.7920 C.ar  1 <1>   0.3920 
  3 C        0.4070     0.1270     1.7040 C.3   1 <1>   0.0400 
  4 N       -0.8330     2.5280     1.2760 N.ar  1 <1>  -0.3100 
  5 C       -2.6100     1.4550     0.0690 C.ar  1 <1>   0.0000 
  6 N       -1.3950     3.7140     1.0850 N.ar  1 <1>  -0.3100 
  7 C       -3.2080     2.7080    -0.1210 C.ar  1 <1>   0.0000 
  8 C       -3.2410     0.3050    -0.4560 C.ar  1 <1>  -0.1500 
  9 C       -2.5230     3.8280     0.4120 C.ar  1 <1>   0.3100 
 10 C       -4.4410     2.7640    -0.8130 C.ar  1 <1>  -0.1500 
 11 C       -4.4270     0.3910    -1.1310 C.ar  1 <1>  -0.1500 
 12 C       -3.0540     5.1560     0.2330 C.ar  1 <1>   0.0000 
 13 C       -5.0350     1.6360    -1.3090 C.ar  1 <1>  -0.1500 
 14 C       -3.1380     5.7410    -1.0310 C.ar  1 <1>  -0.1500 
 15 C       -3.5020     5.9030     1.3210 C.ar  1 <1>  -0.1500 
 16 C       -3.6620     7.0060    -1.2090 C.ar  1 <1>   0.1000 
 17 C       -4.0260     7.1720     1.1540 C.ar  1 <1>  -0.1500 
 18 N       -3.7400     7.5710    -2.4750 N.pl3 1 <1>  -0.9000 
 19 C       -4.1150     7.7470    -0.1060 C.ar  1 <1>   0.1000 
 20 N       -4.6480     9.0330    -0.2870 N.pl3 1 <1>  -0.8380 
 21 C       -4.0410    10.1520     0.4970 C.3   1 <1>   0.2090 
 22 C       -6.1240     9.0700    -0.4930 C.3   1 <1>   0.2090 
 23 C       -5.0670    10.7770     1.4470 C.3   1 <1>  -0.1600 
 24 C       -6.6140    10.5190    -0.5750 C.3   1 <1>  -0.1600 
 25 C       -6.3020    11.3170     0.7040 C.3   1 <1>  -0.1600 
 26 H        0.2630     0.4960     2.7050 H     1 <1>   0.0800 
 27 H        1.1670     0.6970     1.1990 H     1 <1>   0.0800 
 28 H        0.6810    -0.9120     1.7300 H     1 <1>   0.0800 
 29 H       -2.7710    -0.6520    -0.3140 H     1 <1>   0.1500 
 30 H       -4.9240     3.7150    -0.9520 H     1 <1>   0.1500 
 31 H       -4.9040    -0.4890    -1.5290 H     1 <1>   0.1500 
 32 H       -5.9720     1.6920    -1.8370 H     1 <1>   0.1500 
 33 H       -2.7930     5.1960    -1.8900 H     1 <1>   0.1500 
 34 H       -3.4370     5.4790     2.3080 H     1 <1>   0.1500 
 35 H       -4.3720     7.7250     2.0070 H     1 <1>   0.1500 
 36 H       -4.1050     8.5250    -2.3360 H     1 <1>   0.4000 
 37 H       -2.8280     7.6350    -2.9310 H     1 <1>   0.4000 
 38 H       -3.6870    10.9000    -0.1920 H     1 <1>   0.0800 
 39 H       -3.1940     9.7910     1.0550 H     1 <1>   0.0800 
 40 H       -6.6120     8.5630     0.3230 H     1 <1>   0.0800 
 41 H       -6.3640     8.5490    -1.4050 H     1 <1>   0.0800 
 42 H       -4.6050    11.5720     2.0050 H     1 <1>   0.0800 
 43 H       -5.3720    10.0240     2.1520 H     1 <1>   0.0800 
 44 H       -7.6730    10.5320    -0.7620 H     1 <1>   0.0800 
 45 H       -6.1310    10.9830    -1.4170 H     1 <1>   0.0800 
 46 H       -6.1430    12.3470     0.4360 H     1 <1>   0.0800 
 47 H       -7.1480    11.2810     1.3690 H     1 <1>   0.0800 
@<TRIPOS>BOND
  1   1   2  1   
  2   1   3  1   
  3   2   4  ar  
  4   2   5  ar  
  5   3  26  1   
  6   3  27  1   
  7   3  28  1   
  8   4   6  ar  
  9   5   7  ar  
 10   5   8  ar  
 11   6   9  ar  
 12   7   9  ar  
 13   7  10  ar  
 14   8  11  ar  
 15   8  29  1   
 16   9  12  1   
 17  10  13  ar  
 18  10  30  1   
 19  11  13  ar  
 20  11  31  1   
 21  12  14  ar  
 22  12  15  ar  
 23  13  32  1   
 24  14  16  ar  
 25  14  33  1   
 26  15  17  ar  
 27  15  34  1   
 28  16  18  1   
 29  16  19  ar  
 30  17  19  ar  
 31  17  35  1   
 32  18  36  1   
 33  18  37  1   
 34  19  20  1   
 35  20  21  1   
 36  20  22  1   
 37  21  23  1   
 38  21  38  1   
 39  21  39  1   
 40  22  24  1   
 41  22  40  1   
 42  22  41  1   
 43  23  25  1   
 44  23  42  1   
 45  23  43  1   
 46  24  25  1   
 47  24  44  1   
 48  24  45  1   
 49  25  46  1   
 50  25  47  1   
@<TRIPOS>SUBSTRUCTURE
  1 ****  12 GROUP 4 **** **** 0

# MOE 2024.06 (io_trps.svl 2023.06)
