@<TRIPOS>MOLECULE
NONAME
36 38 1 0 0 
SMALL
USER_CHARGES


@<TRIPOS>ATOM
  1 O       -1.9940    -0.5120     1.9100 O.co2 1 <1>  -0.9000 
  2 C       -1.7750    -1.7200     1.7580 C.2   1 <1>   0.9060 
  3 O       -2.6350    -2.4930     1.3220 O.co2 1 <1>  -0.9000 
  4 C       -0.4260    -2.2730     2.1690 C.3   1 <1>  -0.2660 
  5 C        0.6490    -2.3170     1.0600 C.3   1 <1>   0.0000 
  6 C        1.9800    -2.8440     1.6520 C.3   1 <1>  -0.1600 
  7 C        0.8960    -0.9100     0.4730 C.3   1 <1>  -0.1600 
  8 C        0.2250    -3.2600    -0.0880 C.3   1 <1>  -0.1600 
  9 C        3.0940    -2.9050     0.5820 C.3   1 <1>   0.0000 
 10 C        1.9850    -0.9560    -0.6130 C.3   1 <1>  -0.0800 
 11 C        1.3130    -3.3180    -1.1770 C.3   1 <1>  -0.0800 
 12 C        3.2920    -1.4850     0.0050 C.3   1 <1>  -0.1600 
 13 C        2.6250    -3.8350    -0.5580 C.3   1 <1>  -0.1600 
 14 C        4.4350    -3.3830     1.1830 C.3   1 <1>  -0.2660 
 15 C        1.5380    -1.9030    -1.7410 C.3   1 <1>  -0.1600 
 16 C        4.4570    -4.7920     1.7330 C.2   1 <1>   0.9060 
 17 O        4.7740    -5.7190     0.9790 O.co2 1 <1>  -0.9000 
 18 O        4.2230    -4.9680     2.9330 O.co2 1 <1>  -0.9000 
 19 H       -0.5900    -3.2640     2.5470 H     1 <1>   0.0800 
 20 H       -0.0740    -1.6700     2.9830 H     1 <1>   0.0800 
 21 H        2.2940    -2.2090     2.4600 H     1 <1>   0.0800 
 22 H        1.8250    -3.8270     2.0620 H     1 <1>   0.0800 
 23 H        1.1890    -0.2380     1.2600 H     1 <1>   0.0800 
 24 H       -0.0150    -0.5260     0.0470 H     1 <1>   0.0800 
 25 H       -0.7000    -2.9170    -0.5190 H     1 <1>   0.0800 
 26 H        0.0500    -4.2470     0.3040 H     1 <1>   0.0800 
 27 H        2.1420     0.0320    -1.0080 H     1 <1>   0.0800 
 28 H        0.9980    -3.9800    -1.9640 H     1 <1>   0.0800 
 29 H        4.0610    -1.5020    -0.7460 H     1 <1>   0.0800 
 30 H        3.6100    -0.8190     0.7880 H     1 <1>   0.0800 
 31 H        2.4670    -4.8290    -0.1730 H     1 <1>   0.0800 
 32 H        3.3880    -3.9020    -1.3120 H     1 <1>   0.0800 
 33 H        4.7230    -2.7290     1.9830 H     1 <1>   0.0800 
 34 H        5.2000    -3.3350     0.4320 H     1 <1>   0.0800 
 35 H        2.2860    -1.9340    -2.5120 H     1 <1>   0.0800 
 36 H        0.6240    -1.5400    -2.1770 H     1 <1>   0.0800 
@<TRIPOS>BOND
  1   1   2  ar  
  2   2   3  ar  
  3   2   4  1   
  4   4   5  1   
  5   4  19  1   
  6   4  20  1   
  7   5   6  1   
  8   5   7  1   
  9   5   8  1   
 10   6   9  1   
 11   6  21  1   
 12   6  22  1   
 13   7  10  1   
 14   7  23  1   
 15   7  24  1   
 16   8  11  1   
 17   8  25  1   
 18   8  26  1   
 19   9  12  1   
 20   9  13  1   
 21   9  14  1   
 22  10  12  1   
 23  10  15  1   
 24  10  27  1   
 25  11  13  1   
 26  11  15  1   
 27  11  28  1   
 28  12  29  1   
 29  12  30  1   
 30  13  31  1   
 31  13  32  1   
 32  14  16  1   
 33  14  33  1   
 34  14  34  1   
 35  15  35  1   
 36  15  36  1   
 37  16  17  ar  
 38  16  18  ar  
@<TRIPOS>SUBSTRUCTURE
  1 ****   6 GROUP 4 **** **** 0

# MOE 2024.06 (io_trps.svl 2023.06)
