@<TRIPOS>MOLECULE
NONAME
24 25 1 0 0 
SMALL
USER_CHARGES


@<TRIPOS>ATOM
  1 BR      -6.1610     4.6610     0.0120 Br    1 <1>  -0.1110 
  2 C       -4.4380     3.8060     0.0400 C.ar  1 <1>   0.1110 
  3 C       -4.3880     2.4170     0.0310 C.ar  1 <1>   0.2110 
  4 C       -3.3040     4.5950     0.0680 C.ar  1 <1>  -0.1500 
  5 N       -3.2000     1.7810     0.0510 N.ar  1 <1>  -0.1560 
  6 C       -2.0880     3.9140     0.0880 C.ar  1 <1>  -0.1520 
  7 C       -2.0550     2.5270     0.0790 C.ar  1 <1>   0.5340 
  8 C       -3.0780     0.3010     0.0420 C.3   1 <1>   0.2480 
  9 N       -0.7800     4.3010     0.1170 N.pl3 1 <1>   0.0480 
 10 N       -0.7940     2.0700     0.1010 N.2   1 <1>  -0.5650 
 11 C       -0.0510     3.1490     0.1230 C.2   1 <1>   0.0060 
 12 C       -0.3020     5.7070     0.1370 C.3   1 <1>   0.0160 
 13 C        1.4990     3.1860     0.1550 C.3   1 <1>   1.2000 
 14 F        2.0590     1.9840     0.1580 F     1 <1>  -0.3400 
 15 F        1.9970     3.8320    -0.8930 F     1 <1>  -0.3400 
 16 F        1.9540     3.8180     1.2300 F     1 <1>  -0.3400 
 17 H       -5.3050     1.8510     0.0090 H     1 <1>   0.1500 
 18 H       -3.3700     5.6710     0.0750 H     1 <1>   0.1500 
 19 H       -4.0490    -0.1610     0.0200 H     1 <1>   0.0800 
 20 H       -2.5550    -0.0240     0.9260 H     1 <1>   0.0800 
 21 H       -2.5210    -0.0120    -0.8240 H     1 <1>   0.0800 
 22 H       -1.1370     6.3830     0.1240 H     1 <1>   0.0800 
 23 H        0.3100     5.8950    -0.7280 H     1 <1>   0.0800 
 24 H        0.2740     5.8830     1.0280 H     1 <1>   0.0800 
@<TRIPOS>BOND
  1   1   2  1   
  2   2   3  ar  
  3   2   4  ar  
  4   3   5  ar  
  5   3  17  1   
  6   4   6  ar  
  7   4  18  1   
  8   5   7  ar  
  9   5   8  1   
 10   6   7  ar  
 11   6   9  1   
 12   7  10  1   
 13   8  19  1   
 14   8  20  1   
 15   8  21  1   
 16   9  11  1   
 17   9  12  1   
 18  10  11  2   
 19  11  13  1   
 20  12  22  1   
 21  12  23  1   
 22  12  24  1   
 23  13  14  1   
 24  13  15  1   
 25  13  16  1   
@<TRIPOS>SUBSTRUCTURE
  1 ****   6 GROUP 4 **** **** 0

# MOE 2024.06 (io_trps.svl 2023.06)
