@<TRIPOS>MOLECULE
NONAME
39 38 1 0 0 
SMALL
USER_CHARGES


@<TRIPOS>ATOM
  1 O        0.1110     0.4320    -0.5030 O.2   1 <1>  -0.5700 
  2 C        0.0470     1.6060    -0.1770 C.2   1 <1>   0.5410 
  3 C        1.2600     2.3910    -0.1400 C.2   1 <1>  -0.1240 
  4 C       -1.2410     2.1390     0.1650 C.2   1 <1>  -0.1360 
  5 C        2.5000     1.8260    -0.0990 C.2   1 <1>  -0.1500 
  6 C        1.1040     3.9150    -0.1630 C.3   1 <1>  -0.1020 
  7 C       -2.4460     1.5370    -0.0010 C.2   1 <1>  -0.1500 
  8 C        3.7960     2.4190    -0.0310 C.2   1 <1>  -0.1500 
  9 C       -3.7170     2.0790     0.3470 C.2   1 <1>  -0.1500 
 10 C        4.9690     1.7400    -0.0520 C.2   1 <1>  -0.0500 
 11 C       -4.9530     1.5150     0.3370 C.2   1 <1>  -0.0500 
 12 N        6.2410     2.2740     0.0200 N.pl3 1 <1>  -0.8380 
 13 N       -5.3360     0.2170     0.0490 N.pl3 1 <1>  -0.8380 
 14 C        7.4390     1.4060    -0.1170 C.3   1 <1>   0.1290 
 15 C        6.5100     3.7260     0.1990 C.3   1 <1>   0.1290 
 16 C       -6.7660    -0.1050    -0.2000 C.3   1 <1>   0.1290 
 17 C       -4.4390    -0.9630     0.1800 C.3   1 <1>   0.1290 
 18 H       -1.2290     3.1130     0.6100 H     1 <1>   0.1500 
 19 H        2.5420     0.7480    -0.1140 H     1 <1>   0.1500 
 20 H        0.3220     4.2000    -0.8440 H     1 <1>   0.0800 
 21 H        1.9970     4.4050    -0.5000 H     1 <1>   0.0800 
 22 H        0.8660     4.2780     0.8210 H     1 <1>   0.0800 
 23 H       -2.4620     0.5620    -0.4500 H     1 <1>   0.1500 
 24 H        3.8330     3.4860     0.0470 H     1 <1>   0.1500 
 25 H       -3.6740     3.1090     0.6520 H     1 <1>   0.1500 
 26 H        4.9300     0.6650    -0.1380 H     1 <1>   0.1500 
 27 H       -5.7770     2.1640     0.5860 H     1 <1>   0.1500 
 28 H        8.0380     1.7410    -0.9460 H     1 <1>   0.0800 
 29 H        7.1460     0.3860    -0.2910 H     1 <1>   0.0800 
 30 H        8.0240     1.4490     0.7860 H     1 <1>   0.0800 
 31 H        7.5010     3.8760     0.5900 H     1 <1>   0.0800 
 32 H        5.8050     4.1490     0.8920 H     1 <1>   0.0800 
 33 H        6.4240     4.2280    -0.7490 H     1 <1>   0.0800 
 34 H       -6.8520    -0.7100    -1.0860 H     1 <1>   0.0800 
 35 H       -7.3330     0.7980    -0.3430 H     1 <1>   0.0800 
 36 H       -7.1700    -0.6440     0.6400 H     1 <1>   0.0800 
 37 H       -4.9940    -1.8180     0.5230 H     1 <1>   0.0800 
 38 H       -3.6630    -0.7580     0.8970 H     1 <1>   0.0800 
 39 H       -3.9970    -1.1890    -0.7740 H     1 <1>   0.0800 
@<TRIPOS>BOND
  1   1   2  2   
  2   2   3  1   
  3   2   4  1   
  4   3   5  2   
  5   3   6  1   
  6   4   7  2   
  7   4  18  1   
  8   5   8  1   
  9   5  19  1   
 10   6  20  1   
 11   6  21  1   
 12   6  22  1   
 13   7   9  1   
 14   7  23  1   
 15   8  10  2   
 16   8  24  1   
 17   9  11  2   
 18   9  25  1   
 19  10  12  1   
 20  10  26  1   
 21  11  13  1   
 22  11  27  1   
 23  12  14  1   
 24  12  15  1   
 25  13  16  1   
 26  13  17  1   
 27  14  28  1   
 28  14  29  1   
 29  14  30  1   
 30  15  31  1   
 31  15  32  1   
 32  15  33  1   
 33  16  34  1   
 34  16  35  1   
 35  16  36  1   
 36  17  37  1   
 37  17  38  1   
 38  17  39  1   
@<TRIPOS>SUBSTRUCTURE
  1 ****   2 GROUP 4 **** **** 0

# MOE 2024.06 (io_trps.svl 2023.06)
