@<TRIPOS>MOLECULE
ka-07681
28 28 1 0 0 
SMALL
USER_CHARGES


@<TRIPOS>ATOM
  1 O        0.0250     0.3900     0.4100 O.3   1 <1>  -0.3630 
  2 C        1.2280     1.0120     0.3330 C.ar  1 <1>   0.0830 
  3 C       -1.1320     0.9660    -0.1390 C.3   1 <1>   0.1200 
  4 C        2.3070     0.3540     0.9000 C.ar  1 <1>  -0.1500 
  5 C        1.4260     2.2490    -0.2760 C.ar  1 <1>  -0.1500 
  6 C       -2.2820    -0.0070     0.1300 C.3   1 <1>   0.3430 
  7 C        3.5690     0.9180     0.8660 C.ar  1 <1>  -0.1500 
  8 C        2.6910     2.8090    -0.3080 C.ar  1 <1>  -0.1500 
  9 N       -3.5800     0.4960    -0.4090 N.4   1 <1>  -0.8530 
 10 C        3.7690     2.1490     0.2620 C.ar  1 <1>  -0.1430 
 11 C        5.1570     2.7680     0.2240 C.3   1 <1>  -0.0170 
 12 C        5.9020     2.3380    -1.0410 C.3   1 <1>  -0.2400 
 13 H       -0.9680     1.0970    -1.1940 H     1 <1>   0.0800 
 14 H       -1.2950     1.9110     0.3510 H     1 <1>   0.0800 
 15 H        2.1580    -0.6010     1.3700 H     1 <1>   0.1500 
 16 H        0.6220     2.7950    -0.7290 H     1 <1>   0.1500 
 17 H       -2.3650    -0.1550     1.1960 H     1 <1>   0.0800 
 18 H       -2.0430    -0.9550    -0.3260 H     1 <1>   0.0800 
 19 H        4.3980     0.3940     1.3090 H     1 <1>   0.1500 
 20 H        2.8400     3.7640    -0.7810 H     1 <1>   0.1500 
 21 H       -3.8430     1.3900     0.0230 H     1 <1>   0.4500 
 22 H       -4.3330    -0.1760    -0.2140 H     1 <1>   0.4500 
 23 H       -3.5370     0.6270    -1.4270 H     1 <1>   0.4500 
 24 H        5.7140     2.4640     1.0930 H     1 <1>   0.0800 
 25 H        5.0770     3.8410     0.2480 H     1 <1>   0.0800 
 26 H        6.0020     1.2670    -1.0660 H     1 <1>   0.0800 
 27 H        6.8830     2.7780    -1.0620 H     1 <1>   0.0800 
 28 H        5.3620     2.6530    -1.9160 H     1 <1>   0.0800 
@<TRIPOS>BOND
  1   1   2  1   
  2   1   3  1   
  3   2   4  ar  
  4   2   5  ar  
  5   3   6  1   
  6   3  13  1   
  7   3  14  1   
  8   4   7  ar  
  9   4  15  1   
 10   5   8  ar  
 11   5  16  1   
 12   6   9  1   
 13   6  17  1   
 14   6  18  1   
 15   7  10  ar  
 16   7  19  1   
 17   8  10  ar  
 18   8  20  1   
 19   9  21  1   
 20   9  22  1   
 21   9  23  1   
 22  10  11  1   
 23  11  12  1   
 24  11  24  1   
 25  11  25  1   
 26  12  26  1   
 27  12  27  1   
 28  12  28  1   
@<TRIPOS>SUBSTRUCTURE
  1 ****   2 GROUP 4 **** **** 0

# MOE 2024.06 (io_trps.svl 2023.06)
