@<TRIPOS>MOLECULE
NONAME
41 42 1 0 0 
SMALL
USER_CHARGES


@<TRIPOS>ATOM
  1 O        0.2520    -0.0400    -0.8740 O.3   1 <1>  -0.3630 
  2 C       -0.7870    -0.5720    -0.1700 C.ar  1 <1>   0.0830 
  3 C        1.5750    -0.4660    -0.6480 C.3   1 <1>   0.1200 
  4 C       -0.8740    -1.9020     0.2800 C.ar  1 <1>   0.0820 
  5 C       -1.8230     0.3080     0.0950 C.ar  1 <1>  -0.1500 
  6 C        2.5210     0.6280    -1.1390 C.3   1 <1>  -0.1600 
  7 O        0.1230    -2.7880    -0.0140 O.3   1 <1>  -0.3630 
  8 C       -1.9970    -2.2920     1.0090 C.ar  1 <1>  -0.1500 
  9 C       -2.9340    -0.0950     0.8130 C.ar  1 <1>  -0.1500 
 10 C        3.9780     0.2030    -0.9460 C.3   1 <1>   0.1200 
 11 C       -0.0190    -4.1740     0.2120 C.3   1 <1>   0.0400 
 12 C       -3.0180    -1.3950     1.2720 C.ar  1 <1>  -0.1500 
 13 O        4.8290     1.2000    -1.4720 O.3   1 <1>  -0.3630 
 14 C        5.0800     2.2800    -0.6880 C.ar  1 <1>   0.0830 
 15 C        5.7970     2.1940     0.5110 C.ar  1 <1>   0.0830 
 16 C        4.5980     3.5070    -1.1130 C.ar  1 <1>  -0.1500 
 17 O        6.3390     1.0360     0.9620 O.3   1 <1>  -0.3630 
 18 C        5.9760     3.3290     1.2850 C.ar  1 <1>  -0.1500 
 19 C        4.7930     4.6400    -0.3400 C.ar  1 <1>  -0.1500 
 20 C        7.3920     0.4990     0.1920 C.3   1 <1>   0.0400 
 21 C        5.4770     4.5500     0.8610 C.ar  1 <1>  -0.1500 
 22 H        1.7320    -1.3770    -1.1980 H     1 <1>   0.0800 
 23 H        1.7040    -0.6410     0.4070 H     1 <1>   0.0800 
 24 H       -1.7500     1.3190    -0.2640 H     1 <1>   0.1500 
 25 H        2.3320     1.5270    -0.5790 H     1 <1>   0.0800 
 26 H        2.3400     0.8070    -2.1830 H     1 <1>   0.0800 
 27 H       -2.1010    -3.2920     1.3830 H     1 <1>   0.1500 
 28 H       -3.7290     0.6030     1.0120 H     1 <1>   0.1500 
 29 H        4.1790    -0.7050    -1.4860 H     1 <1>   0.0800 
 30 H        4.2040     0.0510     0.0950 H     1 <1>   0.0800 
 31 H        0.8480    -4.6670    -0.1870 H     1 <1>   0.0800 
 32 H       -0.9020    -4.5220    -0.2940 H     1 <1>   0.0800 
 33 H       -0.0840    -4.3500     1.2710 H     1 <1>   0.0800 
 34 H       -3.8800    -1.7110     1.8340 H     1 <1>   0.1500 
 35 H        4.0640     3.5670    -2.0440 H     1 <1>   0.1500 
 36 H        6.5100     3.2520     2.2140 H     1 <1>   0.1500 
 37 H        4.4120     5.5900    -0.6730 H     1 <1>   0.1500 
 38 H        7.7950    -0.3470     0.7180 H     1 <1>   0.0800 
 39 H        8.1500     1.2530     0.0680 H     1 <1>   0.0800 
 40 H        7.0130     0.1900    -0.7650 H     1 <1>   0.0800 
 41 H        5.6230     5.4290     1.4650 H     1 <1>   0.1500 
@<TRIPOS>BOND
  1   1   2  1   
  2   1   3  1   
  3   2   4  ar  
  4   2   5  ar  
  5   3   6  1   
  6   3  22  1   
  7   3  23  1   
  8   4   7  1   
  9   4   8  ar  
 10   5   9  ar  
 11   5  24  1   
 12   6  10  1   
 13   6  25  1   
 14   6  26  1   
 15   7  11  1   
 16   8  12  ar  
 17   8  27  1   
 18   9  12  ar  
 19   9  28  1   
 20  10  13  1   
 21  10  29  1   
 22  10  30  1   
 23  11  31  1   
 24  11  32  1   
 25  11  33  1   
 26  12  34  1   
 27  13  14  1   
 28  14  15  ar  
 29  14  16  ar  
 30  15  17  1   
 31  15  18  ar  
 32  16  19  ar  
 33  16  35  1   
 34  17  20  1   
 35  18  21  ar  
 36  18  36  1   
 37  19  21  ar  
 38  19  37  1   
 39  20  38  1   
 40  20  39  1   
 41  20  40  1   
 42  21  41  1   
@<TRIPOS>SUBSTRUCTURE
  1 ****   6 GROUP 4 **** **** 0

# MOE 2024.06 (io_trps.svl 2023.06)
