@<TRIPOS>MOLECULE
NONAME
24 24 1 0 0 
SMALL
USER_CHARGES


@<TRIPOS>ATOM
  1 O       -0.5450     0.4650     2.0860 O.co2 1 <1>  -0.9000 
  2 C       -1.2980     0.3500     1.0890 C.2   1 <1>   0.9060 
  3 O       -2.1370    -0.5710     0.9330 O.co2 1 <1>  -0.9000 
  4 C       -1.1720     1.4470    -0.0090 C.3   1 <1>   0.1140 
  5 N        0.1360     2.1250     0.0870 N.am  1 <1>  -0.7300 
  6 C       -2.2960     2.4940     0.1280 C.3   1 <1>   0.0200 
  7 C        0.7580     2.7930    -0.8740 C.2   1 <1>   0.5690 
  8 C       -3.6700     2.0320    -0.3140 C.2   1 <1>  -0.3320 
  9 O        0.2590     3.0120    -1.9690 O.2   1 <1>  -0.5700 
 10 C        2.1490     3.2950    -0.5510 C.3   1 <1>  -0.1790 
 11 N       -4.2380     0.8110    -0.0290 N.pl3 1 <1>   0.0330 
 12 C       -4.5670     2.7240    -1.0840 C.2   1 <1>   0.0770 
 13 C       -5.4510     0.7760    -0.6040 C.2   1 <1>   0.0360 
 14 N       -5.7030     1.9250    -1.2550 N.2   1 <1>  -0.5650 
 15 H       -1.2580     0.9590    -0.9800 H     1 <1>   0.0800 
 16 H        0.6010     1.9310     0.9690 H     1 <1>   0.3700 
 17 H       -2.0300     3.3610    -0.4770 H     1 <1>   0.0800 
 18 H       -2.3460     2.8160     1.1680 H     1 <1>   0.0800 
 19 H        2.0960     3.9680     0.3030 H     1 <1>   0.0800 
 20 H        2.5500     3.8230    -1.4140 H     1 <1>   0.0800 
 21 H        2.7860     2.4460    -0.3090 H     1 <1>   0.0800 
 22 H       -3.7660     0.0510     0.4680 H     1 <1>   0.2700 
 23 H       -4.4240     3.7160    -1.4910 H     1 <1>   0.1500 
 24 H       -6.1250    -0.0660    -0.5560 H     1 <1>   0.1500 
@<TRIPOS>BOND
  1   1   2  ar  
  2   2   3  ar  
  3   2   4  1   
  4   4   5  1   
  5   4   6  1   
  6   4  15  1   
  7   5   7  am  
  8   5  16  1   
  9   6   8  1   
 10   6  17  1   
 11   6  18  1   
 12   7   9  2   
 13   7  10  1   
 14   8  11  1   
 15   8  12  2   
 16  10  19  1   
 17  10  20  1   
 18  10  21  1   
 19  11  13  1   
 20  11  22  1   
 21  12  14  1   
 22  12  23  1   
 23  13  14  2   
 24  13  24  1   
@<TRIPOS>SUBSTRUCTURE
  1 ****   4 GROUP 4 **** **** 0

# MOE 2024.06 (io_trps.svl 2023.06)
