@<TRIPOS>MOLECULE
NONAME
49 50 1 0 0 
SMALL
USER_CHARGES


@<TRIPOS>ATOM
  1 O       -4.0340     1.7030    -0.6010 O.3   1 <1>  -0.5600 
  2 C       -3.4410     2.9620    -0.4620 C.3   1 <1>   0.1200 
  3 C       -5.1160     1.4640     0.2510 C.3   1 <1>   0.1200 
  4 C       -4.4740     4.0700    -0.7450 C.3   1 <1>   0.3430 
  5 C       -6.2270     2.5020     0.0060 C.3   1 <1>   0.3430 
  6 N       -5.7050     3.9140     0.1080 N.4   1 <1>  -0.9590 
  7 C       -6.7350     4.9250    -0.2590 C.3   1 <1>   0.3430 
  8 C       -7.8110     5.0060     0.8200 C.3   1 <1>  -0.1600 
  9 C       -8.9110     5.9770     0.3970 C.3   1 <1>   0.1200 
 10 O       -9.9820     5.8090     1.2910 O.3   1 <1>  -0.3630 
 11 C      -11.2020     6.2020     0.8490 C.ar  1 <1>   0.0820 
 12 C      -11.8600     5.5560    -0.2040 C.ar  1 <1>   0.0820 
 13 C      -11.8010     7.2840     1.4730 C.ar  1 <1>  -0.1500 
 14 O      -11.3450     4.4640    -0.8250 O.3   1 <1>  -0.3620 
 15 C      -13.0810     6.0370    -0.6480 C.ar  1 <1>  -0.1500 
 16 C      -13.0300     7.7480     1.0340 C.ar  1 <1>  -0.1500 
 17 C      -11.2620     3.2680    -0.0790 C.3   1 <1>   0.2000 
 18 C      -13.6660     7.1290    -0.0290 C.ar  1 <1>  -0.1500 
 19 C      -10.2110     2.3840    -0.7660 C.3   1 <1>  -0.1600 
 20 C      -12.6500     2.6200    -0.0430 C.3   1 <1>  -0.2400 
 21 C       -9.7830     1.1830     0.0910 C.3   1 <1>  -0.2400 
 22 H       -2.6320     3.0200    -1.1690 H     1 <1>   0.0800 
 23 H       -3.0350     3.0480     0.5310 H     1 <1>   0.0800 
 24 H       -4.7690     1.4950     1.2700 H     1 <1>   0.0800 
 25 H       -5.4810     0.4730     0.0440 H     1 <1>   0.0800 
 26 H       -4.7440     4.0190    -1.7870 H     1 <1>   0.0800 
 27 H       -4.0200     5.0310    -0.5680 H     1 <1>   0.0800 
 28 H       -7.0180     2.3450     0.7200 H     1 <1>   0.0800 
 29 H       -6.6340     2.3350    -0.9780 H     1 <1>   0.0800 
 30 H       -5.4270     4.0750     1.0850 H     1 <1>   0.4500 
 31 H       -7.1840     4.6630    -1.2050 H     1 <1>   0.0800 
 32 H       -6.2740     5.8950    -0.3650 H     1 <1>   0.0800 
 33 H       -7.3840     5.3490     1.7460 H     1 <1>   0.0800 
 34 H       -8.2630     4.0440     0.9690 H     1 <1>   0.0800 
 35 H       -9.2490     5.7630    -0.6020 H     1 <1>   0.0800 
 36 H       -8.5870     7.0030     0.4520 H     1 <1>   0.0800 
 37 H      -11.3030     7.7630     2.2970 H     1 <1>   0.1500 
 38 H      -13.5710     5.5500    -1.4710 H     1 <1>   0.1500 
 39 H      -13.4900     8.5910     1.5190 H     1 <1>   0.1500 
 40 H      -10.9420     3.5100     0.9210 H     1 <1>   0.0800 
 41 H      -14.6180     7.4960    -0.3740 H     1 <1>   0.1500 
 42 H       -9.3450     2.9820    -0.9770 H     1 <1>   0.0800 
 43 H      -10.6050     2.0300    -1.7030 H     1 <1>   0.0800 
 44 H      -12.9900     2.4050    -1.0400 H     1 <1>   0.0800 
 45 H      -13.3530     3.2750     0.4380 H     1 <1>   0.0800 
 46 H      -12.6210     1.7030     0.5160 H     1 <1>   0.0800 
 47 H       -9.4170     1.5090     1.0490 H     1 <1>   0.0800 
 48 H       -9.0110     0.6270    -0.4100 H     1 <1>   0.0800 
 49 H      -10.6150     0.5200     0.2520 H     1 <1>   0.0800 
@<TRIPOS>BOND
  1   1   2  1   
  2   1   3  1   
  3   2   4  1   
  4   2  22  1   
  5   2  23  1   
  6   3   5  1   
  7   3  24  1   
  8   3  25  1   
  9   4   6  1   
 10   4  26  1   
 11   4  27  1   
 12   5   6  1   
 13   5  28  1   
 14   5  29  1   
 15   6   7  1   
 16   6  30  1   
 17   7   8  1   
 18   7  31  1   
 19   7  32  1   
 20   8   9  1   
 21   8  33  1   
 22   8  34  1   
 23   9  10  1   
 24   9  35  1   
 25   9  36  1   
 26  10  11  1   
 27  11  12  ar  
 28  11  13  ar  
 29  12  14  1   
 30  12  15  ar  
 31  13  16  ar  
 32  13  37  1   
 33  14  17  1   
 34  15  18  ar  
 35  15  38  1   
 36  16  18  ar  
 37  16  39  1   
 38  17  19  1   
 39  17  20  1   
 40  17  40  1   
 41  18  41  1   
 42  19  21  1   
 43  19  42  1   
 44  19  43  1   
 45  20  44  1   
 46  20  45  1   
 47  20  46  1   
 48  21  47  1   
 49  21  48  1   
 50  21  49  1   
@<TRIPOS>SUBSTRUCTURE
  1 ****   9 GROUP 4 **** **** 0

# MOE 2024.06 (io_trps.svl 2023.06)
