@<TRIPOS>MOLECULE
NONAME
54 55 1 0 0 
SMALL
USER_CHARGES


@<TRIPOS>ATOM
  1 S        0.8680     0.2200     1.0740 S.o2  1 <1>   1.3330 
  2 O        1.5390    -1.0450     0.8780 O.2   1 <1>  -0.6500 
  3 O       -0.3560     0.2900     1.8320 O.2   1 <1>  -0.6500 
  4 N        0.5460     0.8680    -0.4930 N.am  1 <1>  -0.6930 
  5 C        2.0480     1.3790     1.7300 C.3   1 <1>  -0.1350 
  6 C        0.0450     2.1600    -0.6480 C.ar  1 <1>   0.1990 
  7 C        0.8090     0.0300    -1.7040 C.3   1 <1>   0.2570 
  8 C        0.8740     3.2480    -0.9480 C.ar  1 <1>   0.0830 
  9 C       -1.3160     2.3820    -0.4940 C.ar  1 <1>  -0.1500 
 10 C        2.2810    -0.0210    -2.1270 C.2   1 <1>   0.5690 
 11 O        2.2170     3.0540    -1.0750 O.3   1 <1>  -0.3630 
 12 C        0.3330     4.5170    -1.0940 C.ar  1 <1>  -0.1500 
 13 C       -1.8600     3.6480    -0.6420 C.ar  1 <1>  -0.1440 
 14 O        2.6210     0.5240    -3.1510 O.2   1 <1>  -0.5700 
 15 N        3.1790    -0.6760    -1.3420 N.am  1 <1>  -0.7300 
 16 C        2.8240     3.5330    -2.2580 C.3   1 <1>   0.0400 
 17 C       -1.0290     4.7140    -0.9450 C.ar  1 <1>  -0.1500 
 18 C       -3.3520     3.8630    -0.4700 C.3   1 <1>  -0.0970 
 19 C        4.6480    -0.6170    -1.5010 C.3   1 <1>   0.1400 
 20 C        5.1680     0.5860    -0.7220 C.3   1 <1>   0.0700 
 21 S        7.0050     0.6620    -0.8770 S.3   1 <1>  -0.3320 
 22 C        7.5120     2.1550    -0.0050 C.ar  1 <1>   0.1020 
 23 C        8.8700     2.3970     0.0880 C.ar  1 <1>  -0.1500 
 24 C        6.5970     3.0340     0.5540 C.ar  1 <1>  -0.1500 
 25 C        9.3200     3.5270     0.7480 C.ar  1 <1>  -0.1500 
 26 C        7.0560     4.1630     1.2130 C.ar  1 <1>  -0.1500 
 27 C        8.4160     4.4140     1.3120 C.ar  1 <1>  -0.1430 
 28 C        8.9130     5.6520     2.0370 C.3   1 <1>  -0.0970 
 29 H        2.3770     1.0630     2.7000 H     1 <1>   0.0800 
 30 H        1.6010     2.3500     1.8190 H     1 <1>   0.0800 
 31 H        2.8960     1.4530     1.0800 H     1 <1>   0.0800 
 32 H        0.2410     0.4230    -2.5270 H     1 <1>   0.0800 
 33 H        0.4670    -0.9720    -1.5220 H     1 <1>   0.0800 
 34 H       -1.9490     1.5470    -0.2500 H     1 <1>   0.1500 
 35 H        0.9660     5.3560    -1.3130 H     1 <1>   0.1500 
 36 H        2.8280    -1.1230    -0.4790 H     1 <1>   0.3700 
 37 H        2.2330     3.2240    -3.1040 H     1 <1>   0.0800 
 38 H        3.8060     3.1050    -2.3340 H     1 <1>   0.0800 
 39 H        2.8960     4.6040    -2.2140 H     1 <1>   0.0800 
 40 H       -1.4400     5.7020    -1.0630 H     1 <1>   0.1500 
 41 H       -3.7620     3.1350     0.2070 H     1 <1>   0.0800 
 42 H       -3.8460     3.7690    -1.4210 H     1 <1>   0.0800 
 43 H       -3.5480     4.8420    -0.0720 H     1 <1>   0.0800 
 44 H        4.8970    -0.5110    -2.5440 H     1 <1>   0.0800 
 45 H        5.0890    -1.5260    -1.1280 H     1 <1>   0.0800 
 46 H        4.9460     0.5010     0.3250 H     1 <1>   0.0800 
 47 H        4.7760     1.4980    -1.1310 H     1 <1>   0.0800 
 48 H        9.5660     1.7060    -0.3520 H     1 <1>   0.1500 
 49 H        5.5410     2.8650     0.4890 H     1 <1>   0.1500 
 50 H       10.3780     3.7120     0.8210 H     1 <1>   0.1500 
 51 H        6.3490     4.8460     1.6490 H     1 <1>   0.1500 
 52 H        9.8360     5.9950     1.6050 H     1 <1>   0.0800 
 53 H        9.0790     5.4230     3.0740 H     1 <1>   0.0800 
 54 H        8.1920     6.4460     1.9670 H     1 <1>   0.0800 
@<TRIPOS>BOND
  1   1   2  2   
  2   1   3  2   
  3   1   4  am  
  4   1   5  1   
  5   4   6  1   
  6   4   7  1   
  7   5  29  1   
  8   5  30  1   
  9   5  31  1   
 10   6   8  ar  
 11   6   9  ar  
 12   7  10  1   
 13   7  32  1   
 14   7  33  1   
 15   8  11  1   
 16   8  12  ar  
 17   9  13  ar  
 18   9  34  1   
 19  10  14  2   
 20  10  15  am  
 21  11  16  1   
 22  12  17  ar  
 23  12  35  1   
 24  13  17  ar  
 25  13  18  1   
 26  15  19  1   
 27  15  36  1   
 28  16  37  1   
 29  16  38  1   
 30  16  39  1   
 31  17  40  1   
 32  18  41  1   
 33  18  42  1   
 34  18  43  1   
 35  19  20  1   
 36  19  44  1   
 37  19  45  1   
 38  20  21  1   
 39  20  46  1   
 40  20  47  1   
 41  21  22  1   
 42  22  23  ar  
 43  22  24  ar  
 44  23  25  ar  
 45  23  48  1   
 46  24  26  ar  
 47  24  49  1   
 48  25  27  ar  
 49  25  50  1   
 50  26  27  ar  
 51  26  51  1   
 52  27  28  1   
 53  28  52  1   
 54  28  53  1   
 55  28  54  1   
@<TRIPOS>SUBSTRUCTURE
  1 ****  11 GROUP 4 **** **** 0

# MOE 2024.06 (io_trps.svl 2023.06)
