@<TRIPOS>MOLECULE
NONAME
36 37 1 0 0 
SMALL
USER_CHARGES


@<TRIPOS>ATOM
  1 O        0.5080     0.5790     2.0630 O.2   1 <1>  -0.5700 
  2 C        0.4890     1.1520     0.9970 C.2   1 <1>   0.6900 
  3 N       -0.6500     1.3530     0.2720 N.am  1 <1>  -0.5470 
  4 N        1.6740     1.5990     0.5140 N.am  1 <1>  -0.4900 
  5 C       -1.9980     1.0250     0.4780 C.ar  1 <1>   0.1170 
  6 C        1.9970     2.2010    -0.6620 C.2   1 <1>   0.5690 
  7 C       -2.8940     1.2540    -0.5600 C.ar  1 <1>  -0.1500 
  8 C       -2.4900     0.4880     1.6650 C.ar  1 <1>  -0.1500 
  9 O        1.1810     2.4670    -1.5120 O.2   1 <1>  -0.5700 
 10 C        3.4720     2.5410    -0.8820 C.3   1 <1>   0.1710 
 11 C       -4.2380     0.9560    -0.4230 C.ar  1 <1>  -0.1500 
 12 C       -3.8330     0.1880     1.8070 C.ar  1 <1>  -0.1500 
 13 N        4.3980     1.7330    -0.0370 N.3   1 <1>  -0.8100 
 14 C       -4.7100     0.4210     0.7620 C.ar  1 <1>  -0.1500 
 15 C        5.7340     2.3600     0.0320 C.3   1 <1>   0.1100 
 16 C        4.5390     0.3520    -0.5550 C.3   1 <1>   0.1100 
 17 C        6.7110     1.4950     0.8500 C.3   1 <1>   0.1200 
 18 C        5.5500    -0.4540     0.2820 C.3   1 <1>   0.1200 
 19 O        6.7830     0.2040     0.3180 O.3   1 <1>  -0.5600 
 20 H       -0.4460     1.8230    -0.6160 H     1 <1>   0.3700 
 21 H        2.4710     1.3960     1.1160 H     1 <1>   0.3700 
 22 H       -2.5380     1.6680    -1.4850 H     1 <1>   0.1500 
 23 H       -1.8300     0.3020     2.4910 H     1 <1>   0.1500 
 24 H        3.5920     3.5830    -0.6440 H     1 <1>   0.0800 
 25 H        3.7130     2.4120    -1.9230 H     1 <1>   0.0800 
 26 H       -4.9180     1.1390    -1.2380 H     1 <1>   0.1500 
 27 H       -4.1950    -0.2270     2.7310 H     1 <1>   0.1500 
 28 H       -5.7550     0.1870     0.8730 H     1 <1>   0.1500 
 29 H        5.6550     3.3280     0.4950 H     1 <1>   0.0800 
 30 H        6.1350     2.4920    -0.9590 H     1 <1>   0.0800 
 31 H        4.8790     0.3710    -1.5770 H     1 <1>   0.0800 
 32 H        3.5880    -0.1520    -0.5300 H     1 <1>   0.0800 
 33 H        6.3920     1.4290     1.8760 H     1 <1>   0.0800 
 34 H        7.7000     1.9180     0.8200 H     1 <1>   0.0800 
 35 H        5.7080    -1.4240    -0.1530 H     1 <1>   0.0800 
 36 H        5.1940    -0.5780     1.2910 H     1 <1>   0.0800 
@<TRIPOS>BOND
  1   1   2  2   
  2   2   3  am  
  3   2   4  am  
  4   3   5  1   
  5   3  20  1   
  6   4   6  am  
  7   4  21  1   
  8   5   7  ar  
  9   5   8  ar  
 10   6   9  2   
 11   6  10  1   
 12   7  11  ar  
 13   7  22  1   
 14   8  12  ar  
 15   8  23  1   
 16  10  13  1   
 17  10  24  1   
 18  10  25  1   
 19  11  14  ar  
 20  11  26  1   
 21  12  14  ar  
 22  12  27  1   
 23  13  15  1   
 24  13  16  1   
 25  14  28  1   
 26  15  17  1   
 27  15  29  1   
 28  15  30  1   
 29  16  18  1   
 30  16  31  1   
 31  16  32  1   
 32  17  19  1   
 33  17  33  1   
 34  17  34  1   
 35  18  19  1   
 36  18  35  1   
 37  18  36  1   
@<TRIPOS>SUBSTRUCTURE
  1 ****   4 GROUP 4 **** **** 0

# MOE 2024.06 (io_trps.svl 2023.06)
