@<TRIPOS>MOLECULE
NONAME
47 49 1 0 0 
SMALL
USER_CHARGES


@<TRIPOS>ATOM
  1 O       -0.1060     0.8240    -1.8110 O.2   1 <1>  -0.5700 
  2 C       -1.0720     1.2420    -1.1920 C.2   1 <1>   0.5440 
  3 N       -1.9750     0.3290    -0.6910 N.am  1 <1>  -0.6600 
  4 C       -1.2260     2.6660    -0.9670 C.ar  1 <1>   0.0860 
  5 C       -1.9710    -1.1080    -1.1040 C.3   1 <1>   0.1400 
  6 C       -2.8100     0.5830     0.5230 C.3   1 <1>   0.1400 
  7 C       -0.1620     3.4380    -0.4730 C.ar  1 <1>   0.1170 
  8 C       -2.4440     3.2980    -1.2240 C.ar  1 <1>  -0.1500 
  9 C       -1.6700    -2.0130     0.1010 C.3   1 <1>   0.1200 
 10 C       -2.4670    -0.4250     1.6340 C.3   1 <1>   0.1200 
 11 N        1.0810     2.8280    -0.2620 N.am  1 <1>  -0.5470 
 12 C       -0.3580     4.7940    -0.2280 C.ar  1 <1>  -0.1500 
 13 C       -2.6240     4.6450    -0.9790 C.ar  1 <1>  -0.1500 
 14 O       -2.5490    -1.7380     1.1550 O.3   1 <1>  -0.5600 
 15 C        2.0770     3.0380     0.6610 C.2   1 <1>   0.5440 
 16 C       -1.5760     5.3950    -0.4740 C.ar  1 <1>  -0.1500 
 17 O        1.9710     3.9490     1.4580 O.2   1 <1>  -0.5700 
 18 C        3.2380     2.1620     0.6800 C.ar  1 <1>   0.0860 
 19 C        3.2310     0.8950     0.0880 C.ar  1 <1>  -0.1500 
 20 C        4.4210     2.5590     1.3000 C.ar  1 <1>  -0.1500 
 21 C        4.3430     0.0680     0.1000 C.ar  1 <1>  -0.1430 
 22 C        5.5360     1.7440     1.3210 C.ar  1 <1>  -0.1500 
 23 C        5.5090     0.4960     0.7220 C.ar  1 <1>  -0.1430 
 24 C        4.2570    -1.2950    -0.5720 C.3   1 <1>  -0.0970 
 25 C        6.7580    -0.3730     0.7640 C.3   1 <1>  -0.0970 
 26 H       -1.2420    -1.2830    -1.8750 H     1 <1>   0.0800 
 27 H       -2.9370    -1.3630    -1.5030 H     1 <1>   0.0800 
 28 H       -3.8500     0.4860     0.2660 H     1 <1>   0.0800 
 29 H       -2.6480     1.5770     0.8990 H     1 <1>   0.0800 
 30 H       -3.2590     2.7180    -1.6210 H     1 <1>   0.1500 
 31 H       -0.6600    -1.8620     0.4430 H     1 <1>   0.0800 
 32 H       -1.7940    -3.0460    -0.1700 H     1 <1>   0.0800 
 33 H       -3.1600    -0.3290     2.4500 H     1 <1>   0.0800 
 34 H       -1.4710    -0.2550     2.0040 H     1 <1>   0.0800 
 35 H        1.2150     2.0000    -0.8560 H     1 <1>   0.3700 
 36 H        0.4540     5.3870     0.1550 H     1 <1>   0.1500 
 37 H       -3.5720     5.1150    -1.1800 H     1 <1>   0.1500 
 38 H       -1.7080     6.4460    -0.2770 H     1 <1>   0.1500 
 39 H        2.3350     0.5400    -0.3890 H     1 <1>   0.1500 
 40 H        4.4630     3.5250     1.7730 H     1 <1>   0.1500 
 41 H        6.4290     2.0920     1.8110 H     1 <1>   0.1500 
 42 H        3.2910    -1.4500    -1.0170 H     1 <1>   0.0800 
 43 H        4.4240    -2.0730     0.1510 H     1 <1>   0.0800 
 44 H        4.9980    -1.3710    -1.3470 H     1 <1>   0.0800 
 45 H        6.5450    -1.3030     1.2600 H     1 <1>   0.0800 
 46 H        7.5530     0.1170     1.2970 H     1 <1>   0.0800 
 47 H        7.0990    -0.5780    -0.2350 H     1 <1>   0.0800 
@<TRIPOS>BOND
  1   1   2  2   
  2   2   3  am  
  3   2   4  1   
  4   3   5  1   
  5   3   6  1   
  6   4   7  ar  
  7   4   8  ar  
  8   5   9  1   
  9   5  26  1   
 10   5  27  1   
 11   6  10  1   
 12   6  28  1   
 13   6  29  1   
 14   7  11  1   
 15   7  12  ar  
 16   8  13  ar  
 17   8  30  1   
 18   9  14  1   
 19   9  31  1   
 20   9  32  1   
 21  10  14  1   
 22  10  33  1   
 23  10  34  1   
 24  11  15  am  
 25  11  35  1   
 26  12  16  ar  
 27  12  36  1   
 28  13  16  ar  
 29  13  37  1   
 30  15  17  2   
 31  15  18  1   
 32  16  38  1   
 33  18  19  ar  
 34  18  20  ar  
 35  19  21  ar  
 36  19  39  1   
 37  20  22  ar  
 38  20  40  1   
 39  21  23  ar  
 40  21  24  1   
 41  22  23  ar  
 42  22  41  1   
 43  23  25  1   
 44  24  42  1   
 45  24  43  1   
 46  24  44  1   
 47  25  45  1   
 48  25  46  1   
 49  25  47  1   
@<TRIPOS>SUBSTRUCTURE
  1 ****  11 GROUP 4 **** **** 0

# MOE 2024.06 (io_trps.svl 2023.06)
