@<TRIPOS>MOLECULE
NONAME
33 36 1 0 0 
SMALL
USER_CHARGES


@<TRIPOS>ATOM
  1 O       -0.2480     0.3440    -0.1070 O.2   1 <1>  -0.5700 
  2 C       -0.6060     1.4920    -0.0380 C.2   1 <1>   0.5690 
  3 N        0.1160     2.6630    -0.2130 N.am  1 <1>  -0.2370 
  4 C       -1.9840     1.8960     0.3480 C.3   1 <1>  -0.0190 
  5 C        1.5220     2.7560    -0.3180 C.ar  1 <1>   0.1170 
  6 C       -0.7810     3.7260    -0.2530 C.2   1 <1>   0.5690 
  7 C       -3.4100     1.3740     0.3960 C.3   1 <1>   0.4180 
  8 C       -2.1480     3.1530    -0.4890 C.3   1 <1>  -0.0190 
  9 C        2.2280     3.7380     0.3720 C.ar  1 <1>  -0.1500 
 10 C        2.2370     1.8680    -1.1160 C.ar  1 <1>  -0.1500 
 11 O       -0.5570     4.9030    -0.1510 O.2   1 <1>  -0.5700 
 12 O       -3.9440     2.5860     0.8450 O.3   1 <1>  -0.5600 
 13 C       -4.1390     1.3280    -0.9370 C.2   1 <1>  -0.2880 
 14 C       -3.6730     0.2150     1.3700 C.3   1 <1>   0.1200 
 15 C       -3.6480     3.4270    -0.2360 C.3   1 <1>   0.3380 
 16 C        3.6050     3.8310     0.2670 C.ar  1 <1>  -0.1500 
 17 C        3.6140     1.9580    -1.2230 C.ar  1 <1>  -0.1500 
 18 C       -4.3440     2.5940    -1.2940 C.2   1 <1>  -0.2880 
 19 O       -3.0520    -0.9560     0.9250 O.3   1 <1>  -0.6800 
 20 C        4.3000     2.9400    -0.5310 C.ar  1 <1>  -0.1500 
 21 H       -1.8130     2.1770     1.3780 H     1 <1>   0.0800 
 22 H       -2.0800     2.9170    -1.5400 H     1 <1>   0.0800 
 23 H        1.7030     4.4400     0.9960 H     1 <1>   0.1500 
 24 H        1.7190     1.0970    -1.6580 H     1 <1>   0.1500 
 25 H       -4.3990     0.3850    -1.3890 H     1 <1>   0.1500 
 26 H       -3.2900     0.4450     2.3480 H     1 <1>   0.0800 
 27 H       -4.7300     0.0220     1.4330 H     1 <1>   0.0800 
 28 H       -3.9890     4.4370    -0.0790 H     1 <1>   0.0800 
 29 H        4.1350     4.5970     0.8060 H     1 <1>   0.1500 
 30 H        4.1520     1.2620    -1.8430 H     1 <1>   0.1500 
 31 H       -4.8340     3.0460    -2.1390 H     1 <1>   0.1500 
 32 H       -2.0850    -0.8380     0.7950 H     1 <1>   0.4000 
 33 H        5.3710     3.0110    -0.6140 H     1 <1>   0.1500 
@<TRIPOS>BOND
  1   1   2  2   
  2   2   3  am  
  3   2   4  1   
  4   3   5  1   
  5   3   6  am  
  6   4   7  1   
  7   4   8  1   
  8   4  21  1   
  9   5   9  ar  
 10   5  10  ar  
 11   6   8  1   
 12   6  11  2   
 13   7  12  1   
 14   7  13  1   
 15   7  14  1   
 16   8  15  1   
 17   8  22  1   
 18   9  16  ar  
 19   9  23  1   
 20  10  17  ar  
 21  10  24  1   
 22  12  15  1   
 23  13  18  2   
 24  13  25  1   
 25  14  19  1   
 26  14  26  1   
 27  14  27  1   
 28  15  18  1   
 29  15  28  1   
 30  16  20  ar  
 31  16  29  1   
 32  17  20  ar  
 33  17  30  1   
 34  18  31  1   
 35  19  32  1   
 36  20  33  1   
@<TRIPOS>SUBSTRUCTURE
  1 ****   2 GROUP 4 **** **** 0

# MOE 2024.06 (io_trps.svl 2023.06)
