@<TRIPOS>MOLECULE
NONAME
53 55 1 0 0 
SMALL
USER_CHARGES


@<TRIPOS>ATOM
  1 O        1.1080    -4.9160    -0.8510 O.3   1 <1>  -0.3630 
  2 C       -0.2030    -5.2410    -0.7170 C.ar  1 <1>   0.0830 
  3 C        1.6790    -3.8530    -0.1190 C.3   1 <1>   0.1200 
  4 C       -1.0750    -4.6110     0.1660 C.ar  1 <1>  -0.1500 
  5 C       -0.6750    -6.2640    -1.5200 C.ar  1 <1>  -0.1500 
  6 C        3.1560    -3.7360    -0.5130 C.3   1 <1>   0.2000 
  7 C       -2.4040    -5.0000     0.2450 C.ar  1 <1>  -0.1440 
  8 C       -1.9980    -6.6560    -1.4440 C.ar  1 <1>  -0.1500 
  9 O        3.7590    -4.9890    -0.3910 O.3   1 <1>  -0.6800 
 10 C        3.9290    -2.7220     0.3590 C.3   1 <1>   0.3430 
 11 C       -2.8690    -6.0300    -0.5660 C.ar  1 <1>  -0.1440 
 12 C       -3.3280    -4.2880     1.2230 C.3   1 <1>  -0.0970 
 13 N        5.3930    -3.0280     0.3490 N.4   1 <1>  -0.9590 
 14 C       -4.3190    -6.4920    -0.5140 C.3   1 <1>  -0.0970 
 15 C        6.1130    -2.5230     1.5720 C.3   1 <1>   0.3430 
 16 C        6.0800    -2.5950    -0.9210 C.3   1 <1>   0.3430 
 17 C        7.6160    -2.8710     1.5590 C.3   1 <1>   0.2090 
 18 C        7.5820    -2.9460    -0.9280 C.3   1 <1>   0.2090 
 19 N        8.2690    -2.4270     0.2920 N.pl3 1 <1>  -0.8380 
 20 C        9.6360    -2.5930     0.2780 C.ar  1 <1>   0.4100 
 21 N       10.0740    -3.8440     0.3130 N.ar  1 <1>  -0.6200 
 22 C       10.4710    -1.4810     0.2310 C.ar  1 <1>  -0.1500 
 23 C       11.3900    -3.9880     0.3000 C.ar  1 <1>   0.1600 
 24 C       11.8360    -1.6470     0.2190 C.ar  1 <1>  -0.1500 
 25 C       12.3000    -2.9470     0.2540 C.ar  1 <1>  -0.1500 
 26 H        1.5790    -4.0730     0.9300 H     1 <1>   0.0800 
 27 H        1.1450    -2.9500    -0.3600 H     1 <1>   0.0800 
 28 H       -0.7370    -3.8160     0.8000 H     1 <1>   0.1500 
 29 H       -0.0070    -6.7540    -2.2040 H     1 <1>   0.1500 
 30 H        3.2170    -3.4440    -1.5470 H     1 <1>   0.0800 
 31 H       -2.3450    -7.4540    -2.0770 H     1 <1>   0.1500 
 32 H        3.1290    -5.6690    -0.7320 H     1 <1>   0.4000 
 33 H        3.5580    -2.8030     1.3670 H     1 <1>   0.0800 
 34 H        3.7450    -1.7160     0.0190 H     1 <1>   0.0800 
 35 H       -2.8060    -3.5220     1.7660 H     1 <1>   0.0800 
 36 H       -3.7250    -4.9920     1.9330 H     1 <1>   0.0800 
 37 H       -4.1420    -3.8290     0.6920 H     1 <1>   0.0800 
 38 H        5.4230    -4.0670     0.3520 H     1 <1>   0.4500 
 39 H       -4.9740    -5.6790    -0.7680 H     1 <1>   0.0800 
 40 H       -4.5590    -6.8430     0.4730 H     1 <1>   0.0800 
 41 H       -4.4940    -7.2940    -1.2080 H     1 <1>   0.0800 
 42 H        5.6670    -2.9410     2.4590 H     1 <1>   0.0800 
 43 H        6.0210    -1.4510     1.6260 H     1 <1>   0.0800 
 44 H        5.9860    -1.5280    -1.0360 H     1 <1>   0.0800 
 45 H        5.6100    -3.0660    -1.7680 H     1 <1>   0.0800 
 46 H        7.7430    -3.9350     1.6760 H     1 <1>   0.0800 
 47 H        8.1010    -2.3920     2.3920 H     1 <1>   0.0800 
 48 H        8.0440    -2.5200    -1.8020 H     1 <1>   0.0800 
 49 H        7.7030    -4.0150    -0.9830 H     1 <1>   0.0800 
 50 H       10.0330    -0.5020     0.2060 H     1 <1>   0.1500 
 51 H       11.7670    -4.9970     0.3270 H     1 <1>   0.1500 
 52 H       12.5100    -0.8090     0.1830 H     1 <1>   0.1500 
 53 H       13.3560    -3.1490     0.2470 H     1 <1>   0.1500 
@<TRIPOS>BOND
  1   1   2  1   
  2   1   3  1   
  3   2   4  ar  
  4   2   5  ar  
  5   3   6  1   
  6   3  26  1   
  7   3  27  1   
  8   4   7  ar  
  9   4  28  1   
 10   5   8  ar  
 11   5  29  1   
 12   6   9  1   
 13   6  10  1   
 14   6  30  1   
 15   7  11  ar  
 16   7  12  1   
 17   8  11  ar  
 18   8  31  1   
 19   9  32  1   
 20  10  13  1   
 21  10  33  1   
 22  10  34  1   
 23  11  14  1   
 24  12  35  1   
 25  12  36  1   
 26  12  37  1   
 27  13  15  1   
 28  13  16  1   
 29  13  38  1   
 30  14  39  1   
 31  14  40  1   
 32  14  41  1   
 33  15  17  1   
 34  15  42  1   
 35  15  43  1   
 36  16  18  1   
 37  16  44  1   
 38  16  45  1   
 39  17  19  1   
 40  17  46  1   
 41  17  47  1   
 42  18  19  1   
 43  18  48  1   
 44  18  49  1   
 45  19  20  1   
 46  20  21  ar  
 47  20  22  ar  
 48  21  23  ar  
 49  22  24  ar  
 50  22  50  1   
 51  23  25  ar  
 52  23  51  1   
 53  24  25  ar  
 54  24  52  1   
 55  25  53  1   
@<TRIPOS>SUBSTRUCTURE
  1 ****   6 GROUP 4 **** **** 0

# MOE 2024.06 (io_trps.svl 2023.06)
