@<TRIPOS>MOLECULE
NONAME
31 31 1 0 0 
SMALL
USER_CHARGES


@<TRIPOS>ATOM
  1 S        0.2450     0.1220    -0.6490 S.o2  1 <1>   1.3330 
  2 O        1.5500    -0.1130    -1.2220 O.2   1 <1>  -0.6500 
  3 O       -0.3770    -0.8110     0.2580 O.2   1 <1>  -0.6500 
  4 N        0.2160     1.7250     0.0050 N.am  1 <1>  -0.6930 
  5 C       -0.8550     0.3020    -2.0360 C.3   1 <1>  -0.1350 
  6 C       -0.9960     2.3400     0.3080 C.ar  1 <1>   0.1990 
  7 C        1.4050     2.1150     0.8530 C.3   1 <1>   0.0900 
  8 C       -1.4450     3.4470    -0.4170 C.ar  1 <1>  -0.1440 
  9 C       -1.7920     1.8460     1.3330 C.ar  1 <1>  -0.1500 
 10 C        1.6100     1.3840     2.1870 C.2   1 <1>   0.9060 
 11 C       -2.6800     4.0060    -0.1290 C.ar  1 <1>  -0.1500 
 12 C       -0.5870     4.0570    -1.5190 C.3   1 <1>  -0.0970 
 13 C       -3.0200     2.4100     1.6170 C.ar  1 <1>  -0.1500 
 14 O        0.8430     1.6130     3.1330 O.co2 1 <1>  -0.9000 
 15 O        2.5970     0.6500     2.3160 O.co2 1 <1>  -0.9000 
 16 C       -3.4760     3.4900     0.8810 C.ar  1 <1>  -0.1440 
 17 C       -4.8250     4.1120     1.1930 C.3   1 <1>  -0.0970 
 18 H       -0.9370    -0.6300    -2.5580 H     1 <1>   0.0800 
 19 H       -0.4780     1.0440    -2.7100 H     1 <1>   0.0800 
 20 H       -1.8290     0.5960    -1.6990 H     1 <1>   0.0800 
 21 H        1.3330     3.1590     1.0860 H     1 <1>   0.0800 
 22 H        2.2990     1.9700     0.2760 H     1 <1>   0.0800 
 23 H       -1.4280     1.0160     1.9180 H     1 <1>   0.1500 
 24 H       -3.0270     4.8550    -0.6890 H     1 <1>   0.1500 
 25 H       -0.4780     3.3620    -2.3300 H     1 <1>   0.0800 
 26 H        0.3890     4.2890    -1.1310 H     1 <1>   0.0800 
 27 H       -1.0250     4.9630    -1.8960 H     1 <1>   0.0800 
 28 H       -3.6090     2.0030     2.4200 H     1 <1>   0.1500 
 29 H       -4.7020     4.8920     1.9230 H     1 <1>   0.0800 
 30 H       -5.4970     3.3710     1.5850 H     1 <1>   0.0800 
 31 H       -5.2610     4.5310     0.3040 H     1 <1>   0.0800 
@<TRIPOS>BOND
  1   1   2  2   
  2   1   3  2   
  3   1   4  am  
  4   1   5  1   
  5   4   6  1   
  6   4   7  1   
  7   5  18  1   
  8   5  19  1   
  9   5  20  1   
 10   6   8  ar  
 11   6   9  ar  
 12   7  10  1   
 13   7  21  1   
 14   7  22  1   
 15   8  11  ar  
 16   8  12  1   
 17   9  13  ar  
 18   9  23  1   
 19  10  14  ar  
 20  10  15  ar  
 21  11  16  ar  
 22  11  24  1   
 23  12  25  1   
 24  12  26  1   
 25  12  27  1   
 26  13  16  ar  
 27  13  28  1   
 28  16  17  1   
 29  17  29  1   
 30  17  30  1   
 31  17  31  1   
@<TRIPOS>SUBSTRUCTURE
  1 ****   6 GROUP 4 **** **** 0

# MOE 2024.06 (io_trps.svl 2023.06)
