@<TRIPOS>MOLECULE
NONAME
48 48 1 0 0 
SMALL
USER_CHARGES


@<TRIPOS>ATOM
  1 N        0.0150     0.0800    -0.5160 N.4   1 <1>  -0.9590 
  2 C        1.1920    -0.7230    -0.9740 C.3   1 <1>   0.4860 
  3 C       -1.2290    -0.7720    -0.4520 C.3   1 <1>   0.3430 
  4 C       -0.1080     1.3130    -1.3500 C.3   1 <1>   0.3430 
  5 C        2.4390     0.0270    -0.5610 C.ar  1 <1>  -0.1440 
  6 C       -2.4550    -0.0910     0.2260 C.3   1 <1>   0.3430 
  7 C       -0.3230     2.5070    -0.4300 C.3   1 <1>  -0.2400 
  8 C        3.2000     0.7000    -1.5040 C.ar  1 <1>  -0.1500 
  9 C        2.8280     0.0580     0.7710 C.ar  1 <1>  -0.1500 
 10 N       -3.6590    -0.9870     0.4050 N.4   1 <1>  -0.9590 
 11 C        4.3220     1.4110    -1.1160 C.ar  1 <1>  -0.1500 
 12 C        3.9500     0.7700     1.1530 C.ar  1 <1>  -0.1500 
 13 C       -4.2820    -1.4310    -0.8900 C.3   1 <1>   0.2630 
 14 C       -4.7060    -0.2890     1.2280 C.3   1 <1>   0.2630 
 15 C        4.7050     1.4570     0.2150 C.ar  1 <1>  -0.1430 
 16 C        5.9420     2.2380     0.6570 C.3   1 <1>   0.0630 
 17 C        5.7870     3.7300     0.3460 C.3   1 <1>  -0.2400 
 18 C        7.2080     1.6750     0.0030 C.3   1 <1>  -0.2400 
 19 H        0.3070     0.4010     0.4200 H     1 <1>   0.4500 
 20 H        1.1730    -0.8590    -2.0440 H     1 <1>   0.0800 
 21 H        1.1990    -1.6920    -0.5020 H     1 <1>   0.0800 
 22 H       -0.9990    -1.6680     0.1010 H     1 <1>   0.0800 
 23 H       -1.5040    -1.0610    -1.4530 H     1 <1>   0.0800 
 24 H       -0.9190     1.2240    -2.0550 H     1 <1>   0.0800 
 25 H        0.8000     1.4800    -1.9090 H     1 <1>   0.0800 
 26 H       -2.7450     0.7660    -0.3600 H     1 <1>   0.0800 
 27 H       -2.1460     0.2620     1.1970 H     1 <1>   0.0800 
 28 H       -1.2300     2.4290     0.1380 H     1 <1>   0.0800 
 29 H       -0.3860     3.4000    -1.0270 H     1 <1>   0.0800 
 30 H        0.5160     2.6260     0.2350 H     1 <1>   0.0800 
 31 H        2.9420     0.6840    -2.5500 H     1 <1>   0.1500 
 32 H        2.2780    -0.4720     1.5300 H     1 <1>   0.1500 
 33 H       -3.3960    -1.8340     0.9390 H     1 <1>   0.4500 
 34 H        4.9020     1.9300    -1.8590 H     1 <1>   0.1500 
 35 H        4.2400     0.7860     2.1900 H     1 <1>   0.1500 
 36 H       -4.6040    -0.5780    -1.4670 H     1 <1>   0.0800 
 37 H       -5.1430    -2.0510    -0.6950 H     1 <1>   0.0800 
 38 H       -3.5820    -2.0040    -1.4770 H     1 <1>   0.0800 
 39 H       -5.0530     0.6000     0.7260 H     1 <1>   0.0800 
 40 H       -4.3080    -0.0080     2.1900 H     1 <1>   0.0800 
 41 H       -5.5510    -0.9390     1.3900 H     1 <1>   0.0800 
 42 H        6.0550     2.1370     1.7240 H     1 <1>   0.0800 
 43 H        5.7230     3.8980    -0.7130 H     1 <1>   0.0800 
 44 H        6.6290     4.2790     0.7290 H     1 <1>   0.0800 
 45 H        4.8940     4.1110     0.8100 H     1 <1>   0.0800 
 46 H        7.1770     1.7980    -1.0650 H     1 <1>   0.0800 
 47 H        7.2990     0.6270     0.2250 H     1 <1>   0.0800 
 48 H        8.0780     2.1810     0.3810 H     1 <1>   0.0800 
@<TRIPOS>BOND
  1   1   2  1   
  2   1   3  1   
  3   1   4  1   
  4   1  19  1   
  5   2   5  1   
  6   2  20  1   
  7   2  21  1   
  8   3   6  1   
  9   3  22  1   
 10   3  23  1   
 11   4   7  1   
 12   4  24  1   
 13   4  25  1   
 14   5   8  ar  
 15   5   9  ar  
 16   6  10  1   
 17   6  26  1   
 18   6  27  1   
 19   7  28  1   
 20   7  29  1   
 21   7  30  1   
 22   8  11  ar  
 23   8  31  1   
 24   9  12  ar  
 25   9  32  1   
 26  10  13  1   
 27  10  14  1   
 28  10  33  1   
 29  11  15  ar  
 30  11  34  1   
 31  12  15  ar  
 32  12  35  1   
 33  13  36  1   
 34  13  37  1   
 35  13  38  1   
 36  14  39  1   
 37  14  40  1   
 38  14  41  1   
 39  15  16  1   
 40  16  17  1   
 41  16  18  1   
 42  16  42  1   
 43  17  43  1   
 44  17  44  1   
 45  17  45  1   
 46  18  46  1   
 47  18  47  1   
 48  18  48  1   
@<TRIPOS>SUBSTRUCTURE
  1 ****   5 GROUP 4 **** **** 0

# MOE 2024.06 (io_trps.svl 2023.06)
