@<TRIPOS>MOLECULE
NONAME
44 45 1 0 0 
SMALL
USER_CHARGES


@<TRIPOS>ATOM
  1 CL       0.1160     0.0900     1.0460 Cl    1 <1>  -0.1770 
  2 C        0.0710    -1.5800     0.5370 C.ar  1 <1>   0.1770 
  3 C       -1.1460    -2.2280     0.3770 C.ar  1 <1>  -0.0090 
  4 C        1.2860    -2.2010     0.3050 C.ar  1 <1>  -0.1500 
  5 S       -2.6900    -1.3450     0.6990 S.o2  1 <1>   1.4470 
  6 C       -1.1100    -3.5520    -0.0510 C.ar  1 <1>  -0.1500 
  7 C        1.3110    -3.5270    -0.1120 C.ar  1 <1>   0.0830 
  8 O       -3.0080    -0.4530    -0.3900 O.2   1 <1>  -0.6500 
  9 O       -2.7840    -0.9060     2.0680 O.2   1 <1>  -0.6500 
 10 N       -3.8870    -2.5270     0.6720 N.am  1 <1>  -0.9140 
 11 C        0.0970    -4.1840    -0.2860 C.ar  1 <1>   0.1770 
 12 O        2.4570    -4.2100    -0.3580 O.3   1 <1>  -0.3620 
 13 C       -5.2150    -1.9430     0.4780 C.3   1 <1>   0.1960 
 14 CL       0.0600    -5.8510    -0.8140 Cl    1 <1>  -0.1770 
 15 C        3.7270    -3.6150    -0.2180 C.3   1 <1>   0.1200 
 16 C       -6.2950    -3.0330     0.3480 C.3   1 <1>   0.3430 
 17 C        4.7780    -4.6600    -0.5770 C.3   1 <1>  -0.2400 
 18 N       -7.6620    -2.4740     0.0770 N.4   1 <1>  -0.9590 
 19 C       -8.7380    -3.5210     0.1670 C.3   1 <1>   0.3430 
 20 C       -7.7820    -1.7310    -1.2300 C.3   1 <1>   0.3430 
 21 C      -10.1370    -2.9160    -0.0960 C.3   1 <1>   0.1200 
 22 C       -9.2270    -1.2310    -1.4650 C.3   1 <1>   0.1200 
 23 O      -10.0520    -1.5440    -0.3760 O.3   1 <1>  -0.5600 
 24 H        2.1870    -1.6350     0.4540 H     1 <1>   0.1500 
 25 H       -2.0160    -4.1090    -0.2110 H     1 <1>   0.1500 
 26 H       -3.8380    -2.8780     1.6310 H     1 <1>   0.4200 
 27 H       -5.2110    -1.3630    -0.4300 H     1 <1>   0.0800 
 28 H       -5.4430    -1.2890     1.3040 H     1 <1>   0.0800 
 29 H        3.8450    -3.2940     0.8030 H     1 <1>   0.0800 
 30 H        3.7860    -2.7730    -0.8860 H     1 <1>   0.0800 
 31 H       -6.3180    -3.6000     1.2640 H     1 <1>   0.0800 
 32 H       -6.0160    -3.6980    -0.4540 H     1 <1>   0.0800 
 33 H        4.7020    -5.5050     0.0840 H     1 <1>   0.0800 
 34 H        5.7620    -4.2380    -0.4810 H     1 <1>   0.0800 
 35 H        4.6430    -4.9880    -1.5930 H     1 <1>   0.0800 
 36 H       -7.9180    -1.7810     0.7990 H     1 <1>   0.4500 
 37 H       -8.7330    -3.9750     1.1450 H     1 <1>   0.0800 
 38 H       -8.5550    -4.3010    -0.5530 H     1 <1>   0.0800 
 39 H       -7.4980    -2.3720    -2.0490 H     1 <1>   0.0800 
 40 H       -7.1190    -0.8820    -1.2390 H     1 <1>   0.0800 
 41 H      -10.7620    -3.0340     0.7730 H     1 <1>   0.0800 
 42 H      -10.6180    -3.4090    -0.9240 H     1 <1>   0.0800 
 43 H       -9.6450    -1.6720    -2.3540 H     1 <1>   0.0800 
 44 H       -9.2340    -0.1610    -1.5870 H     1 <1>   0.0800 
@<TRIPOS>BOND
  1   1   2  1   
  2   2   3  ar  
  3   2   4  ar  
  4   3   5  1   
  5   3   6  ar  
  6   4   7  ar  
  7   4  24  1   
  8   5   8  2   
  9   5   9  2   
 10   5  10  am  
 11   6  11  ar  
 12   6  25  1   
 13   7  11  ar  
 14   7  12  1   
 15  10  13  1   
 16  10  26  1   
 17  11  14  1   
 18  12  15  1   
 19  13  16  1   
 20  13  27  1   
 21  13  28  1   
 22  15  17  1   
 23  15  29  1   
 24  15  30  1   
 25  16  18  1   
 26  16  31  1   
 27  16  32  1   
 28  17  33  1   
 29  17  34  1   
 30  17  35  1   
 31  18  19  1   
 32  18  20  1   
 33  18  36  1   
 34  19  21  1   
 35  19  37  1   
 36  19  38  1   
 37  20  22  1   
 38  20  39  1   
 39  20  40  1   
 40  21  23  1   
 41  21  41  1   
 42  21  42  1   
 43  22  23  1   
 44  22  43  1   
 45  22  44  1   
@<TRIPOS>SUBSTRUCTURE
  1 ****  10 GROUP 4 **** **** 0

# MOE 2024.06 (io_trps.svl 2023.06)
