@<TRIPOS>MOLECULE
NONAME
41 44 1 0 0 
SMALL
USER_CHARGES


@<TRIPOS>ATOM
  1 S       -0.0370     0.4370     0.4110 S.3   1 <1>  -0.2860 
  2 C       -1.2020    -0.8740     0.7780 C.2   1 <1>   0.5340 
  3 C       -0.6590     1.1800    -1.1780 C.3   1 <1>   0.1310 
  4 O       -2.1370    -1.1090    -0.0830 O.3   1 <1>  -0.2800 
  5 N       -1.2070    -1.5790     1.8370 N.2   1 <1>  -0.3380 
  6 C       -2.1190     1.5910    -1.0520 C.2   1 <1>   0.5690 
  7 C       -2.8090    -2.0220     0.5750 C.2   1 <1>   0.4250 
  8 N       -2.2700    -2.3460     1.7050 N.2   1 <1>  -0.3380 
  9 O       -2.8830     1.2150    -1.9080 O.2   1 <1>  -0.5700 
 10 N       -2.5070     2.3220     0.0300 N.am  1 <1>  -0.7300 
 11 C       -4.0430    -2.5210     0.0160 C.ar  1 <1>   0.0530 
 12 C       -3.8870     2.6820     0.4630 C.3   1 <1>   0.2200 
 13 C       -4.6430    -1.9560    -1.1040 C.ar  1 <1>  -0.1500 
 14 C       -4.7380    -3.5890     0.5680 C.ar  1 <1>  -0.1500 
 15 C       -4.7020     1.4030     1.0790 C.3   1 <1>  -0.0800 
 16 C       -4.8270     3.3480    -0.7470 C.3   1 <1>  -0.1600 
 17 C       -5.8370    -2.4540    -1.5860 C.ar  1 <1>   0.1600 
 18 C       -5.9280    -4.0140     0.0090 C.ar  1 <1>   0.1600 
 19 C       -5.5090     2.0080     0.1960 C.3   1 <1>  -0.1600 
 20 C       -6.1610     0.6640     1.1250 C.3   1 <1>  -0.1600 
 21 C       -6.2830     2.5960    -0.7200 C.3   1 <1>  -0.0800 
 22 N       -6.4960    -3.4710    -1.0550 N.ar  1 <1>  -0.6200 
 23 C       -7.1090     1.3350    -0.0810 C.3   1 <1>  -0.1600 
 24 H       -0.5440     0.4350    -1.9430 H     1 <1>   0.0800 
 25 H       -0.0440     2.0320    -1.3980 H     1 <1>   0.0800 
 26 H       -1.8000     2.5200     0.7410 H     1 <1>   0.3700 
 27 H       -3.7890     3.4220     1.2440 H     1 <1>   0.0800 
 28 H       -4.1870    -1.1180    -1.6040 H     1 <1>   0.1500 
 29 H       -4.3500    -4.0880     1.4380 H     1 <1>   0.1500 
 30 H       -4.0710     0.5770     0.7900 H     1 <1>   0.0800 
 31 H       -4.3700     3.2270    -1.7150 H     1 <1>   0.0800 
 32 H       -4.9460     4.4060    -0.5770 H     1 <1>   0.0800 
 33 H       -6.2770    -1.9910    -2.4530 H     1 <1>   0.1500 
 34 H       -6.4430    -4.8450     0.4610 H     1 <1>   0.1500 
 35 H       -5.1030     1.2820    -0.6400 H     1 <1>   0.0800 
 36 H       -5.9110     2.7450     1.0190 H     1 <1>   0.0800 
 37 H       -6.6240     0.8160     2.0890 H     1 <1>   0.0800 
 38 H       -6.0650    -0.4000     0.9800 H     1 <1>   0.0800 
 39 H       -6.9360     3.4190    -0.4630 H     1 <1>   0.0800 
 40 H       -8.0600     1.6540     0.3190 H     1 <1>   0.0800 
 41 H       -7.3100     0.5990    -0.8450 H     1 <1>   0.0800 
@<TRIPOS>BOND
  1   1   2  1   
  2   1   3  1   
  3   2   4  1   
  4   2   5  2   
  5   3   6  1   
  6   3  24  1   
  7   3  25  1   
  8   4   7  1   
  9   5   8  1   
 10   6   9  2   
 11   6  10  am  
 12   7   8  2   
 13   7  11  1   
 14  10  12  1   
 15  10  26  1   
 16  11  13  ar  
 17  11  14  ar  
 18  12  15  1   
 19  12  16  1   
 20  12  27  1   
 21  13  17  ar  
 22  13  28  1   
 23  14  18  ar  
 24  14  29  1   
 25  15  19  1   
 26  15  20  1   
 27  15  30  1   
 28  16  21  1   
 29  16  31  1   
 30  16  32  1   
 31  17  22  ar  
 32  17  33  1   
 33  18  22  ar  
 34  18  34  1   
 35  19  21  1   
 36  19  35  1   
 37  19  36  1   
 38  20  23  1   
 39  20  37  1   
 40  20  38  1   
 41  21  23  1   
 42  21  39  1   
 43  23  40  1   
 44  23  41  1   
@<TRIPOS>SUBSTRUCTURE
  1 ****   4 GROUP 4 **** **** 0

# MOE 2024.06 (io_trps.svl 2023.06)
