@<TRIPOS>MOLECULE
NONAME
40 41 1 0 0 
SMALL
USER_CHARGES


@<TRIPOS>ATOM
  1 CL       1.4110    -1.7940     1.9910 Cl    1 <1>  -0.1770 
  2 C        0.5280    -2.4710     0.6440 C.ar  1 <1>   0.1770 
  3 C        1.0760    -2.5000    -0.6300 C.ar  1 <1>  -0.0090 
  4 C       -0.7300    -2.9760     0.9130 C.ar  1 <1>  -0.1500 
  5 S        2.7260    -1.8500    -0.9810 S.o2  1 <1>   1.4470 
  6 C        0.2970    -3.0590    -1.6390 C.ar  1 <1>  -0.1500 
  7 C       -1.5010    -3.5380    -0.0960 C.ar  1 <1>   0.1170 
  8 O        3.0690    -2.1570    -2.3540 O.2   1 <1>  -0.6500 
  9 O        2.8140    -0.4730    -0.5470 O.2   1 <1>  -0.6500 
 10 N        3.7630    -2.7980    -0.0250 N.am  1 <1>  -0.8490 
 11 C       -0.9640    -3.5670    -1.3790 C.ar  1 <1>  -0.1500 
 12 N       -2.7780    -4.0680     0.1700 N.am  1 <1>  -0.4770 
 13 C        3.9210    -4.1550    -0.5450 C.3   1 <1>   0.1960 
 14 C        5.0500    -2.1400     0.2150 C.3   1 <1>   0.1960 
 15 C       -3.7110    -3.6060     1.0560 C.2   1 <1>   0.5690 
 16 C       -3.2610    -5.2900    -0.5070 C.3   1 <1>   0.1400 
 17 C        4.3020    -5.1010     0.5920 C.3   1 <1>  -0.2400 
 18 C        5.0260    -1.5060     1.6020 C.3   1 <1>  -0.2400 
 19 O       -3.6250    -2.6210     1.7470 O.2   1 <1>  -0.5700 
 20 C       -4.9270    -4.4910     1.0860 C.3   1 <1>  -0.0990 
 21 C       -4.4900    -5.7310     0.2970 C.3   1 <1>  -0.1600 
 22 H       -1.1090    -2.9280     1.9180 H     1 <1>   0.1500 
 23 H        0.6810    -3.0930    -2.6460 H     1 <1>   0.1500 
 24 H       -1.5370    -3.9800    -2.1890 H     1 <1>   0.1500 
 25 H        4.6600    -4.1740    -1.3300 H     1 <1>   0.0800 
 26 H        2.9880    -4.4980    -0.9610 H     1 <1>   0.0800 
 27 H        5.2440    -1.3900    -0.5350 H     1 <1>   0.0800 
 28 H        5.8590    -2.8500     0.1790 H     1 <1>   0.0800 
 29 H       -2.4990    -6.0500    -0.5090 H     1 <1>   0.0800 
 30 H       -3.5420    -5.0470    -1.5180 H     1 <1>   0.0800 
 31 H        5.2640    -4.8550     1.0010 H     1 <1>   0.0800 
 32 H        4.3420    -6.1100     0.2230 H     1 <1>   0.0800 
 33 H        3.5630    -5.0520     1.3720 H     1 <1>   0.0800 
 34 H        4.2710    -0.7430     1.6530 H     1 <1>   0.0800 
 35 H        5.9780    -1.0550     1.8120 H     1 <1>   0.0800 
 36 H        4.8250    -2.2540     2.3470 H     1 <1>   0.0800 
 37 H       -5.7390    -3.9840     0.5980 H     1 <1>   0.0800 
 38 H       -5.1990    -4.7320     2.0970 H     1 <1>   0.0800 
 39 H       -4.1980    -6.5100     0.9790 H     1 <1>   0.0800 
 40 H       -5.2710    -6.1040    -0.3420 H     1 <1>   0.0800 
@<TRIPOS>BOND
  1   1   2  1   
  2   2   3  ar  
  3   2   4  ar  
  4   3   5  1   
  5   3   6  ar  
  6   4   7  ar  
  7   4  22  1   
  8   5   8  2   
  9   5   9  2   
 10   5  10  am  
 11   6  11  ar  
 12   6  23  1   
 13   7  11  ar  
 14   7  12  1   
 15  10  13  1   
 16  10  14  1   
 17  11  24  1   
 18  12  15  am  
 19  12  16  1   
 20  13  17  1   
 21  13  25  1   
 22  13  26  1   
 23  14  18  1   
 24  14  27  1   
 25  14  28  1   
 26  15  19  2   
 27  15  20  1   
 28  16  21  1   
 29  16  29  1   
 30  16  30  1   
 31  17  31  1   
 32  17  32  1   
 33  17  33  1   
 34  18  34  1   
 35  18  35  1   
 36  18  36  1   
 37  20  21  1   
 38  20  37  1   
 39  20  38  1   
 40  21  39  1   
 41  21  40  1   
@<TRIPOS>SUBSTRUCTURE
  1 ****   2 GROUP 4 **** **** 0

# MOE 2024.06 (io_trps.svl 2023.06)
