@<TRIPOS>MOLECULE
NONAME
44 45 1 0 0 
SMALL
USER_CHARGES


@<TRIPOS>ATOM
  1 O       -0.4680    -1.0540     0.8560 O.3   1 <1>  -0.3630 
  2 C        0.7180    -1.2800     0.2310 C.ar  1 <1>   0.0830 
  3 C       -1.6050    -1.2780     0.0640 C.3   1 <1>   0.1200 
  4 C        1.3530    -0.2370    -0.4450 C.ar  1 <1>   0.0820 
  5 C        1.2990    -2.5480     0.2870 C.ar  1 <1>   0.0820 
  6 C       -2.8440    -0.9820     0.9080 C.3   1 <1>  -0.1600 
  7 O        0.7360     0.9800    -0.4820 O.3   1 <1>  -0.3630 
  8 C        2.5810    -0.4720    -1.0590 C.ar  1 <1>  -0.1500 
  9 O        0.6300    -3.5360     0.9490 O.3   1 <1>  -0.3620 
 10 C        2.5270    -2.7610    -0.3340 C.ar  1 <1>  -0.1500 
 11 C       -4.1140    -1.2110     0.0910 C.3   1 <1>   0.1200 
 12 C        1.4260     2.1390    -0.8910 C.3   1 <1>   0.0400 
 13 C        3.1610    -1.7270    -1.0000 C.ar  1 <1>  -0.1500 
 14 C        1.2650    -4.7480     1.2890 C.3   1 <1>   0.0400 
 15 O       -5.2250    -0.9270     0.9090 O.3   1 <1>  -0.3630 
 16 C       -6.4920    -1.0470     0.4390 C.ar  1 <1>   0.0830 
 17 C       -7.5160    -0.7440     1.3220 C.ar  1 <1>  -0.1500 
 18 C       -6.8070    -1.4490    -0.8560 C.ar  1 <1>  -0.1500 
 19 C       -8.8380    -0.8410     0.9260 C.ar  1 <1>  -0.1500 
 20 C       -8.1310    -1.5440    -1.2490 C.ar  1 <1>  -0.1500 
 21 C       -9.1520    -1.2430    -0.3630 C.ar  1 <1>  -0.1430 
 22 C      -10.6020    -1.3470    -0.7990 C.3   1 <1>  -0.0970 
 23 H       -1.5930    -2.3050    -0.2570 H     1 <1>   0.0800 
 24 H       -1.5530    -0.6240    -0.7890 H     1 <1>   0.0800 
 25 H       -2.8100     0.0420     1.2340 H     1 <1>   0.0800 
 26 H       -2.8490    -1.6330     1.7640 H     1 <1>   0.0800 
 27 H        3.0960     0.3050    -1.5890 H     1 <1>   0.1500 
 28 H        3.0020    -3.7230    -0.3130 H     1 <1>   0.1500 
 29 H       -4.1820    -2.2380    -0.2260 H     1 <1>   0.0800 
 30 H       -4.1430    -0.5520    -0.7590 H     1 <1>   0.0800 
 31 H        0.7820     2.9840    -0.7280 H     1 <1>   0.0800 
 32 H        1.6610     2.0550    -1.9370 H     1 <1>   0.0800 
 33 H        2.3190     2.2400    -0.3000 H     1 <1>   0.0800 
 34 H        4.1100    -1.9000    -1.4770 H     1 <1>   0.1500 
 35 H        0.5880    -5.3170     1.9010 H     1 <1>   0.0800 
 36 H        2.1600    -4.5290     1.8430 H     1 <1>   0.0800 
 37 H        1.4880    -5.2920     0.3890 H     1 <1>   0.0800 
 38 H       -7.2680    -0.4340     2.3210 H     1 <1>   0.1500 
 39 H       -6.0410    -1.6900    -1.5670 H     1 <1>   0.1500 
 40 H       -9.6200    -0.6010     1.6250 H     1 <1>   0.1500 
 41 H       -8.3640    -1.8550    -2.2530 H     1 <1>   0.1500 
 42 H      -10.9260    -0.4080    -1.2080 H     1 <1>   0.0800 
 43 H      -11.2290    -1.5970     0.0380 H     1 <1>   0.0800 
 44 H      -10.7160    -2.1110    -1.5470 H     1 <1>   0.0800 
@<TRIPOS>BOND
  1   1   2  1   
  2   1   3  1   
  3   2   4  ar  
  4   2   5  ar  
  5   3   6  1   
  6   3  23  1   
  7   3  24  1   
  8   4   7  1   
  9   4   8  ar  
 10   5   9  1   
 11   5  10  ar  
 12   6  11  1   
 13   6  25  1   
 14   6  26  1   
 15   7  12  1   
 16   8  13  ar  
 17   8  27  1   
 18   9  14  1   
 19  10  13  ar  
 20  10  28  1   
 21  11  15  1   
 22  11  29  1   
 23  11  30  1   
 24  12  31  1   
 25  12  32  1   
 26  12  33  1   
 27  13  34  1   
 28  14  35  1   
 29  14  36  1   
 30  14  37  1   
 31  15  16  1   
 32  16  17  ar  
 33  16  18  ar  
 34  17  19  ar  
 35  17  38  1   
 36  18  20  ar  
 37  18  39  1   
 38  19  21  ar  
 39  19  40  1   
 40  20  21  ar  
 41  20  41  1   
 42  21  22  1   
 43  22  42  1   
 44  22  43  1   
 45  22  44  1   
@<TRIPOS>SUBSTRUCTURE
  1 ****   3 GROUP 4 **** **** 0

# MOE 2024.06 (io_trps.svl 2023.06)
