@<TRIPOS>MOLECULE
NONAME
51 53 1 0 0 
SMALL
USER_CHARGES


@<TRIPOS>ATOM
  1 S        0.4500    -0.1050    -0.0300 S.o2  1 <1>   1.5760 
  2 O        0.7620     0.5430    -1.2840 O.2   1 <1>  -0.6500 
  3 O       -0.2410     0.6130     1.0180 O.2   1 <1>  -0.6500 
  4 N        1.8740    -0.7490     0.6000 N.am  1 <1>  -0.8490 
  5 N       -0.3990    -1.5280    -0.3440 N.am  1 <1>  -0.8490 
  6 C        2.6990     0.3060     1.2090 C.3   1 <1>   0.1960 
  7 C        2.6500    -1.4530    -0.4340 C.3   1 <1>   0.1960 
  8 C       -0.8190    -2.1860     0.8970 C.3   1 <1>   0.1960 
  9 C       -1.5460    -1.2660    -1.2130 C.3   1 <1>   0.1960 
 10 C        3.9690    -0.2780     1.8500 C.3   1 <1>   0.1400 
 11 C        3.9240    -2.0890     0.1470 C.3   1 <1>   0.1400 
 12 C       -1.4650    -3.5400     0.5850 C.3   1 <1>  -0.1600 
 13 C       -2.2270    -2.5830    -1.6040 C.3   1 <1>  -0.1600 
 14 N        4.7510    -1.0670     0.8530 N.am  1 <1>  -0.6600 
 15 C       -2.6560    -3.3820    -0.3670 C.3   1 <1>  -0.1600 
 16 C        5.8330    -0.5020     0.2280 C.2   1 <1>   0.6900 
 17 O        5.9490     0.7120     0.2160 O.2   1 <1>  -0.5700 
 18 N        6.7660    -1.2890    -0.4000 N.am  1 <1>  -0.6600 
 19 C        7.1690    -2.6200     0.1300 C.3   1 <1>   0.1400 
 20 C        7.6820    -0.7200    -1.4240 C.3   1 <1>   0.1400 
 21 C        8.5940    -2.5500     0.6910 C.3   1 <1>  -0.1600 
 22 C        9.1060    -0.6350    -0.8630 C.3   1 <1>  -0.1600 
 23 C        9.5870    -1.9940    -0.3390 C.3   1 <1>  -0.1600 
 24 H        2.1320     0.8140     1.9710 H     1 <1>   0.0800 
 25 H        2.9820     1.0330     0.4650 H     1 <1>   0.0800 
 26 H        2.9300    -0.7680    -1.2180 H     1 <1>   0.0800 
 27 H        2.0470    -2.2290    -0.8740 H     1 <1>   0.0800 
 28 H       -1.5190    -1.5610     1.4280 H     1 <1>   0.0800 
 29 H        0.0360    -2.3450     1.5320 H     1 <1>   0.0800 
 30 H       -1.2160    -0.7690    -2.1110 H     1 <1>   0.0800 
 31 H       -2.2480    -0.6210    -0.7100 H     1 <1>   0.0800 
 32 H        3.6920    -0.9180     2.6680 H     1 <1>   0.0800 
 33 H        4.5720     0.5210     2.2450 H     1 <1>   0.0800 
 34 H        4.4850    -2.5350    -0.6540 H     1 <1>   0.0800 
 35 H        3.6510    -2.8650     0.8400 H     1 <1>   0.0800 
 36 H       -1.7910    -4.0000     1.5010 H     1 <1>   0.0800 
 37 H       -0.7240    -4.1810     0.1400 H     1 <1>   0.0800 
 38 H       -1.5390    -3.1640    -2.1920 H     1 <1>   0.0800 
 39 H       -3.0860    -2.3730    -2.2150 H     1 <1>   0.0800 
 40 H       -3.4500    -2.8600     0.1380 H     1 <1>   0.0800 
 41 H       -3.0240    -4.3500    -0.6620 H     1 <1>   0.0800 
 42 H        7.1240    -3.3410    -0.6670 H     1 <1>   0.0800 
 43 H        6.4990    -2.9350     0.9110 H     1 <1>   0.0800 
 44 H        7.3490     0.2600    -1.7220 H     1 <1>   0.0800 
 45 H        7.6690    -1.3540    -2.2930 H     1 <1>   0.0800 
 46 H        8.9040    -3.5320     1.0010 H     1 <1>   0.0800 
 47 H        8.5890    -1.9180     1.5630 H     1 <1>   0.0800 
 48 H        9.1170     0.0890    -0.0670 H     1 <1>   0.0800 
 49 H        9.7700    -0.2860    -1.6330 H     1 <1>   0.0800 
 50 H        9.6760    -2.6850    -1.1600 H     1 <1>   0.0800 
 51 H       10.5580    -1.8860     0.1130 H     1 <1>   0.0800 
@<TRIPOS>BOND
  1   1   2  2   
  2   1   3  2   
  3   1   4  am  
  4   1   5  am  
  5   4   6  1   
  6   4   7  1   
  7   5   8  1   
  8   5   9  1   
  9   6  10  1   
 10   6  24  1   
 11   6  25  1   
 12   7  11  1   
 13   7  26  1   
 14   7  27  1   
 15   8  12  1   
 16   8  28  1   
 17   8  29  1   
 18   9  13  1   
 19   9  30  1   
 20   9  31  1   
 21  10  14  1   
 22  10  32  1   
 23  10  33  1   
 24  11  14  1   
 25  11  34  1   
 26  11  35  1   
 27  12  15  1   
 28  12  36  1   
 29  12  37  1   
 30  13  15  1   
 31  13  38  1   
 32  13  39  1   
 33  14  16  am  
 34  15  40  1   
 35  15  41  1   
 36  16  17  2   
 37  16  18  am  
 38  18  19  1   
 39  18  20  1   
 40  19  21  1   
 41  19  42  1   
 42  19  43  1   
 43  20  22  1   
 44  20  44  1   
 45  20  45  1   
 46  21  23  1   
 47  21  46  1   
 48  21  47  1   
 49  22  23  1   
 50  22  48  1   
 51  22  49  1   
 52  23  50  1   
 53  23  51  1   
@<TRIPOS>SUBSTRUCTURE
  1 ****   7 GROUP 4 **** **** 0

# MOE 2024.06 (io_trps.svl 2023.06)
