@<TRIPOS>MOLECULE
NONAME
38 40 1 0 0 
SMALL
USER_CHARGES


@<TRIPOS>ATOM
  1 CL      -1.3190    -3.3230    -2.1860 Cl    1 <1>  -0.1770 
  2 C        0.1390    -3.7090    -1.3030 C.ar  1 <1>   0.1770 
  3 C        0.1160    -3.7940     0.0880 C.ar  1 <1>   0.0860 
  4 C        1.2960    -3.9240    -2.0280 C.ar  1 <1>  -0.1500 
  5 C       -1.0840    -3.5540     0.8580 C.2   1 <1>   0.5440 
  6 C        1.3180    -4.0900     0.7290 C.ar  1 <1>  -0.1500 
  7 C        2.4730    -4.2230    -1.3670 C.ar  1 <1>  -0.1500 
  8 O       -1.1180    -2.5760     1.5740 O.2   1 <1>  -0.5700 
  9 N       -2.1840    -4.3920     0.8380 N.am  1 <1>  -0.6600 
 10 C        2.4970    -4.3050     0.0220 C.ar  1 <1>  -0.0230 
 11 C       -3.4370    -4.0400     1.5810 C.3   1 <1>   0.1400 
 12 C       -2.2940    -5.6490     0.0350 C.3   1 <1>   0.1400 
 13 N        3.7090    -4.5940     0.7070 N.pl3 1 <1>   0.3260 
 14 C       -4.6320    -3.9680     0.6150 C.3   1 <1>   0.3430 
 15 C       -3.5160    -5.5910    -0.9090 C.3   1 <1>   0.3430 
 16 C        4.6270    -5.5360     0.4460 C.2   1 <1>   0.0360 
 17 C        4.2400    -3.9970     1.7820 C.2   1 <1>   0.0360 
 18 N       -4.7910    -5.2380    -0.1840 N.4   1 <1>  -0.9590 
 19 N        5.6090    -5.5120     1.2770 N.2   1 <1>  -0.3380 
 20 N        5.3600    -4.5220     2.1370 N.2   1 <1>  -0.3380 
 21 C       -5.9300    -5.1190    -1.1440 C.3   1 <1>   0.2630 
 22 H        1.2760    -3.8490    -3.1020 H     1 <1>   0.1500 
 23 H        1.3200    -4.1430     1.8060 H     1 <1>   0.1500 
 24 H        3.3750    -4.3800    -1.9370 H     1 <1>   0.1500 
 25 H       -3.3390    -3.0890     2.0770 H     1 <1>   0.0800 
 26 H       -3.6210    -4.7790     2.3410 H     1 <1>   0.0800 
 27 H       -2.3960    -6.4860     0.7040 H     1 <1>   0.0800 
 28 H       -1.4050    -5.8110    -0.5480 H     1 <1>   0.0800 
 29 H       -4.4760    -3.1360    -0.0520 H     1 <1>   0.0800 
 30 H       -5.5290    -3.7750     1.1800 H     1 <1>   0.0800 
 31 H       -3.6270    -6.5440    -1.3990 H     1 <1>   0.0800 
 32 H       -3.3230    -4.8530    -1.6700 H     1 <1>   0.0800 
 33 H        4.5310    -6.2260    -0.3700 H     1 <1>   0.1500 
 34 H        3.7670    -3.1680     2.2760 H     1 <1>   0.1500 
 35 H       -4.9960    -5.9980     0.4810 H     1 <1>   0.4500 
 36 H       -5.7420    -4.3270    -1.8510 H     1 <1>   0.0800 
 37 H       -6.8440    -4.8990    -0.6160 H     1 <1>   0.0800 
 38 H       -6.0620    -6.0410    -1.6870 H     1 <1>   0.0800 
@<TRIPOS>BOND
  1   1   2  1   
  2   2   3  ar  
  3   2   4  ar  
  4   3   5  1   
  5   3   6  ar  
  6   4   7  ar  
  7   4  22  1   
  8   5   8  2   
  9   5   9  am  
 10   6  10  ar  
 11   6  23  1   
 12   7  10  ar  
 13   7  24  1   
 14   9  11  1   
 15   9  12  1   
 16  10  13  1   
 17  11  14  1   
 18  11  25  1   
 19  11  26  1   
 20  12  15  1   
 21  12  27  1   
 22  12  28  1   
 23  13  16  1   
 24  13  17  1   
 25  14  18  1   
 26  14  29  1   
 27  14  30  1   
 28  15  18  1   
 29  15  31  1   
 30  15  32  1   
 31  16  19  2   
 32  16  33  1   
 33  17  20  2   
 34  17  34  1   
 35  18  21  1   
 36  18  35  1   
 37  19  20  1   
 38  21  36  1   
 39  21  37  1   
 40  21  38  1   
@<TRIPOS>SUBSTRUCTURE
  1 ****   3 GROUP 4 **** **** 0

# MOE 2024.06 (io_trps.svl 2023.06)
