@<TRIPOS>MOLECULE
NONAME
42 43 1 0 0 
SMALL
USER_CHARGES


@<TRIPOS>ATOM
  1 O        1.7190     3.0890     1.0940 O.2   1 <1>  -0.5700 
  2 C        0.6860     2.5660     0.7480 C.2   1 <1>   0.5690 
  3 N        0.5430     2.0040    -0.4860 N.am  1 <1>  -0.7300 
  4 C       -0.4770     2.5110     1.7280 C.3   1 <1>   0.0440 
  5 C        1.3770     2.1000    -1.7310 C.3   1 <1>   0.1400 
  6 C       -1.5780     1.5670     1.2550 C.ar  1 <1>  -0.1430 
  7 C        2.8640     2.4840    -1.5450 C.3   1 <1>   0.3430 
  8 C       -2.5930     2.0360     0.4350 C.ar  1 <1>  -0.1500 
  9 C       -1.5580     0.2300     1.6200 C.ar  1 <1>  -0.1500 
 10 N        3.5290     1.7440    -0.4320 N.4   1 <1>  -0.9590 
 11 C       -3.5750     1.1790    -0.0330 C.ar  1 <1>  -0.1430 
 12 C       -2.5390    -0.6300     1.1590 C.ar  1 <1>  -0.1500 
 13 C        4.9150     2.2440    -0.1590 C.3   1 <1>   0.3430 
 14 C        3.4910     0.2490    -0.5540 C.3   1 <1>   0.3430 
 15 C       -3.5420    -0.1570     0.3330 C.ar  1 <1>  -0.1500 
 16 C       -4.6880     1.6910    -0.9290 C.3   1 <1>  -0.0970 
 17 C        5.5680     1.4680     1.0010 C.3   1 <1>   0.1200 
 18 C        4.2180    -0.4240     0.6250 C.3   1 <1>   0.1200 
 19 O        5.5120     0.0910     0.7580 O.3   1 <1>  -0.5600 
 20 H       -0.3810     1.5690    -0.6400 H     1 <1>   0.3700 
 21 H       -0.8720     3.5030     1.8470 H     1 <1>   0.0800 
 22 H       -0.1100     2.1920     2.6860 H     1 <1>   0.0800 
 23 H        0.9220     2.8230    -2.3870 H     1 <1>   0.0800 
 24 H        1.3330     1.1520    -2.2380 H     1 <1>   0.0800 
 25 H        2.9080     3.5410    -1.3350 H     1 <1>   0.0800 
 26 H        3.3930     2.3130    -2.4680 H     1 <1>   0.0800 
 27 H       -2.6240     3.0760     0.1560 H     1 <1>   0.1500 
 28 H       -0.7850    -0.1520     2.2640 H     1 <1>   0.1500 
 29 H        2.9580     2.0050     0.4000 H     1 <1>   0.4500 
 30 H       -2.5250    -1.6680     1.4440 H     1 <1>   0.1500 
 31 H        4.8850     3.2920     0.0890 H     1 <1>   0.0800 
 32 H        5.5270     2.1240    -1.0370 H     1 <1>   0.0800 
 33 H        3.9700    -0.0550    -1.4690 H     1 <1>   0.0800 
 34 H        2.4690    -0.0920    -0.5800 H     1 <1>   0.0800 
 35 H       -4.3030    -0.8320    -0.0200 H     1 <1>   0.1500 
 36 H       -4.4150     2.6250    -1.3850 H     1 <1>   0.0800 
 37 H       -5.5820     1.8370    -0.3500 H     1 <1>   0.0800 
 38 H       -4.8930     0.9800    -1.7100 H     1 <1>   0.0800 
 39 H        5.0730     1.6780     1.9330 H     1 <1>   0.0800 
 40 H        6.6050     1.7420     1.0940 H     1 <1>   0.0800 
 41 H        4.3030    -1.4830     0.4530 H     1 <1>   0.0800 
 42 H        3.6850    -0.2680     1.5480 H     1 <1>   0.0800 
@<TRIPOS>BOND
  1   1   2  2   
  2   2   3  am  
  3   2   4  1   
  4   3   5  1   
  5   3  20  1   
  6   4   6  1   
  7   4  21  1   
  8   4  22  1   
  9   5   7  1   
 10   5  23  1   
 11   5  24  1   
 12   6   8  ar  
 13   6   9  ar  
 14   7  10  1   
 15   7  25  1   
 16   7  26  1   
 17   8  11  ar  
 18   8  27  1   
 19   9  12  ar  
 20   9  28  1   
 21  10  13  1   
 22  10  14  1   
 23  10  29  1   
 24  11  15  ar  
 25  11  16  1   
 26  12  15  ar  
 27  12  30  1   
 28  13  17  1   
 29  13  31  1   
 30  13  32  1   
 31  14  18  1   
 32  14  33  1   
 33  14  34  1   
 34  15  35  1   
 35  16  36  1   
 36  16  37  1   
 37  16  38  1   
 38  17  19  1   
 39  17  39  1   
 40  17  40  1   
 41  18  19  1   
 42  18  41  1   
 43  18  42  1   
@<TRIPOS>SUBSTRUCTURE
  1 ****   3 GROUP 4 **** **** 0

# MOE 2024.06 (io_trps.svl 2023.06)
