@<TRIPOS>MOLECULE
NONAME
47 49 1 0 0 
SMALL
USER_CHARGES


@<TRIPOS>ATOM
  1 CL       0.6710    -1.9920    -0.0290 Cl    1 <1>  -0.1770 
  2 C        2.1540    -1.0970     0.2030 C.ar  1 <1>   0.1770 
  3 C        2.2040    -0.1020     1.1620 C.ar  1 <1>  -0.1500 
  4 C        3.2560    -1.3970    -0.5770 C.ar  1 <1>  -0.1500 
  5 C        3.3810     0.6030     1.3390 C.ar  1 <1>  -0.1500 
  6 C        4.4290    -0.6860    -0.3920 C.ar  1 <1>  -0.1500 
  7 C        4.5020     0.3210     0.5680 C.ar  1 <1>   0.1000 
  8 N        5.6670     1.0500     0.7740 N.pl3 1 <1>  -0.8380 
  9 C        6.8180     0.3690     1.4410 C.3   1 <1>   0.2090 
 10 C        6.0720     2.0440    -0.2640 C.3   1 <1>   0.2090 
 11 C        7.8810    -0.1170     0.4370 C.3   1 <1>   0.1960 
 12 C        7.1620     1.5030    -1.2100 C.3   1 <1>   0.1960 
 13 N        8.3230     0.9430    -0.4900 N.am  1 <1>  -0.8490 
 14 S        9.5480     0.4210    -1.5390 S.o2  1 <1>   1.5760 
 15 O        9.1660     0.7640    -2.8920 O.2   1 <1>  -0.6500 
 16 O        9.8900    -0.9430    -1.1990 O.2   1 <1>  -0.6500 
 17 N       10.7980     1.4460    -1.0430 N.am  1 <1>  -0.8490 
 18 C       11.1960     1.2150     0.3480 C.3   1 <1>   0.1960 
 19 C       10.5270     2.8450    -1.3820 C.3   1 <1>   0.1960 
 20 C       12.6680     1.5810     0.5590 C.3   1 <1>  -0.1600 
 21 C       11.7330     3.7750    -1.1980 C.3   1 <1>  -0.1600 
 22 C       12.9260     3.0410     0.9620 C.3   1 <1>  -0.1600 
 23 C       12.0380     4.0870     0.2740 C.3   1 <1>  -0.1600 
 24 H        1.3350     0.1140     1.7560 H     1 <1>   0.1500 
 25 H        3.1910    -2.1750    -1.3160 H     1 <1>   0.1500 
 26 H        3.4460     1.3820     2.0780 H     1 <1>   0.1500 
 27 H        5.2890    -0.9100    -0.9920 H     1 <1>   0.1500 
 28 H        6.4550    -0.4710     2.0090 H     1 <1>   0.0800 
 29 H        7.2750     1.0570     2.1300 H     1 <1>   0.0800 
 30 H        6.4420     2.9260     0.2280 H     1 <1>   0.0800 
 31 H        5.2090     2.3290    -0.8410 H     1 <1>   0.0800 
 32 H        7.4800    -0.9450    -0.1220 H     1 <1>   0.0800 
 33 H        8.7270    -0.4810     0.9940 H     1 <1>   0.0800 
 34 H        7.4870     2.3110    -1.8430 H     1 <1>   0.0800 
 35 H        6.7300     0.7480    -1.8450 H     1 <1>   0.0800 
 36 H       11.1040     0.1660     0.5730 H     1 <1>   0.0800 
 37 H       10.5530     1.7510     1.0260 H     1 <1>   0.0800 
 38 H        9.6960     3.2080    -0.8010 H     1 <1>   0.0800 
 39 H       10.2450     2.8980    -2.4210 H     1 <1>   0.0800 
 40 H       13.2140     1.3430    -0.3370 H     1 <1>   0.0800 
 41 H       13.0630     0.9530     1.3380 H     1 <1>   0.0800 
 42 H       11.4890     4.7030    -1.6830 H     1 <1>   0.0800 
 43 H       12.5940     3.3730    -1.7020 H     1 <1>   0.0800 
 44 H       13.9570     3.2650     0.7470 H     1 <1>   0.0800 
 45 H       12.7980     3.1420     2.0260 H     1 <1>   0.0800 
 46 H       11.1140     4.1890     0.8160 H     1 <1>   0.0800 
 47 H       12.5410     5.0380     0.3320 H     1 <1>   0.0800 
@<TRIPOS>BOND
  1   1   2  1   
  2   2   3  ar  
  3   2   4  ar  
  4   3   5  ar  
  5   3  24  1   
  6   4   6  ar  
  7   4  25  1   
  8   5   7  ar  
  9   5  26  1   
 10   6   7  ar  
 11   6  27  1   
 12   7   8  1   
 13   8   9  1   
 14   8  10  1   
 15   9  11  1   
 16   9  28  1   
 17   9  29  1   
 18  10  12  1   
 19  10  30  1   
 20  10  31  1   
 21  11  13  1   
 22  11  32  1   
 23  11  33  1   
 24  12  13  1   
 25  12  34  1   
 26  12  35  1   
 27  13  14  am  
 28  14  15  2   
 29  14  16  2   
 30  14  17  am  
 31  17  18  1   
 32  17  19  1   
 33  18  20  1   
 34  18  36  1   
 35  18  37  1   
 36  19  21  1   
 37  19  38  1   
 38  19  39  1   
 39  20  22  1   
 40  20  40  1   
 41  20  41  1   
 42  21  23  1   
 43  21  42  1   
 44  21  43  1   
 45  22  23  1   
 46  22  44  1   
 47  22  45  1   
 48  23  46  1   
 49  23  47  1   
@<TRIPOS>SUBSTRUCTURE
  1 ****  13 GROUP 4 **** **** 0

# MOE 2024.06 (io_trps.svl 2023.06)
