@<TRIPOS>MOLECULE
NONAME
46 48 1 0 0 
SMALL
USER_CHARGES


@<TRIPOS>ATOM
  1 O       -0.7330    -0.1960    -0.7430 O.2   1 <1>  -0.5700 
  2 C       -1.5760    -1.0750    -0.7620 C.2   1 <1>   0.7150 
  3 N       -2.8260    -0.7650    -1.2160 N.am  1 <1>  -0.7300 
  4 C       -1.3120    -2.4170    -0.2880 C.2   1 <1>   0.0550 
  5 C       -3.3340     0.5980    -1.5330 C.3   1 <1>   0.1400 
  6 O       -0.1190    -2.7660     0.1840 O.3   1 <1>  -0.2800 
  7 C       -2.1290    -3.5060    -0.2140 C.2   1 <1>  -0.1500 
  8 C       -4.2800     1.1080    -0.4130 C.3   1 <1>   0.1430 
  9 C       -0.1490    -4.0260     0.5500 C.2   1 <1>  -0.0400 
 10 C       -1.3760    -4.5480     0.3280 C.2   1 <1>  -0.1810 
 11 C       -5.3260     0.0000    -0.1400 C.ar  1 <1>  -0.1430 
 12 C       -3.4400     1.4810     0.8320 C.3   1 <1>  -0.1600 
 13 C       -5.0180     2.3960    -0.8680 C.3   1 <1>  -0.1600 
 14 C        1.1200    -4.6250     1.1180 C.3   1 <1>  -0.0600 
 15 C       -1.9100    -5.9450     0.5790 C.3   1 <1>  -0.0590 
 16 C       -5.3700    -0.7250     1.0490 C.ar  1 <1>  -0.1500 
 17 C       -6.2520    -0.3180    -1.1290 C.ar  1 <1>  -0.1500 
 18 C       -2.4730     2.6500     0.5630 C.3   1 <1>   0.1200 
 19 C       -4.2950     3.7000    -0.5000 C.3   1 <1>   0.1200 
 20 C       -6.3070    -1.7250     1.2410 C.ar  1 <1>  -0.1500 
 21 C       -7.1900    -1.3170    -0.9400 C.ar  1 <1>  -0.1500 
 22 O       -2.9260     3.4700    -0.4780 O.3   1 <1>  -0.5600 
 23 C       -7.2190    -2.0230     0.2470 C.ar  1 <1>  -0.1500 
 24 H       -3.5690    -1.4470    -1.0540 H     1 <1>   0.3700 
 25 H       -3.8710     0.5430    -2.4630 H     1 <1>   0.0800 
 26 H       -2.5100     1.2740    -1.6840 H     1 <1>   0.0800 
 27 H       -3.1600    -3.5810    -0.5090 H     1 <1>   0.1500 
 28 H       -2.8640     0.6420     1.1770 H     1 <1>   0.0800 
 29 H       -4.0990     1.7680     1.6310 H     1 <1>   0.0800 
 30 H       -5.9900     2.4350    -0.4090 H     1 <1>   0.0800 
 31 H       -5.1780     2.3780    -1.9310 H     1 <1>   0.0800 
 32 H        1.9060    -4.5590     0.3880 H     1 <1>   0.0800 
 33 H        0.9730    -5.6550     1.3810 H     1 <1>   0.0800 
 34 H        1.4140    -4.0780     1.9950 H     1 <1>   0.0800 
 35 H       -2.7410    -5.9000     1.2590 H     1 <1>   0.0800 
 36 H       -1.1510    -6.5740     1.0040 H     1 <1>   0.0800 
 37 H       -2.2400    -6.3800    -0.3470 H     1 <1>   0.0800 
 38 H       -4.6790    -0.5350     1.8490 H     1 <1>   0.1500 
 39 H       -6.2520     0.2110    -2.0650 H     1 <1>   0.1500 
 40 H       -1.5080     2.2730     0.2660 H     1 <1>   0.0800 
 41 H       -2.3480     3.2550     1.4440 H     1 <1>   0.0800 
 42 H       -4.5930     4.0530     0.4730 H     1 <1>   0.0800 
 43 H       -4.4950     4.4680    -1.2260 H     1 <1>   0.0800 
 44 H       -6.3260    -2.2720     2.1670 H     1 <1>   0.1500 
 45 H       -7.8990    -1.5440    -1.7180 H     1 <1>   0.1500 
 46 H       -7.9500    -2.8000     0.3970 H     1 <1>   0.1500 
@<TRIPOS>BOND
  1   1   2  2   
  2   2   3  am  
  3   2   4  1   
  4   3   5  1   
  5   3  24  1   
  6   4   6  1   
  7   4   7  2   
  8   5   8  1   
  9   5  25  1   
 10   5  26  1   
 11   6   9  1   
 12   7  10  1   
 13   7  27  1   
 14   8  11  1   
 15   8  12  1   
 16   8  13  1   
 17   9  10  2   
 18   9  14  1   
 19  10  15  1   
 20  11  16  ar  
 21  11  17  ar  
 22  12  18  1   
 23  12  28  1   
 24  12  29  1   
 25  13  19  1   
 26  13  30  1   
 27  13  31  1   
 28  14  32  1   
 29  14  33  1   
 30  14  34  1   
 31  15  35  1   
 32  15  36  1   
 33  15  37  1   
 34  16  20  ar  
 35  16  38  1   
 36  17  21  ar  
 37  17  39  1   
 38  18  22  1   
 39  18  40  1   
 40  18  41  1   
 41  19  22  1   
 42  19  42  1   
 43  19  43  1   
 44  20  23  ar  
 45  20  44  1   
 46  21  23  ar  
 47  21  45  1   
 48  23  46  1   
@<TRIPOS>SUBSTRUCTURE
  1 ****   3 GROUP 4 **** **** 0

# MOE 2024.06 (io_trps.svl 2023.06)
