@<TRIPOS>MOLECULE
NONAME
36 37 1 0 0 
SMALL
USER_CHARGES


@<TRIPOS>ATOM
  1 BR      -1.5160     0.0870     3.7400 Br    1 <1>  -0.1110 
  2 C       -3.0460     0.0540     2.5690 C.ar  1 <1>   0.1110 
  3 C       -3.7490    -1.1260     2.4220 C.ar  1 <1>  -0.1500 
  4 C       -3.4030     1.2110     1.9060 C.ar  1 <1>  -0.1500 
  5 C       -4.8450    -1.1400     1.5780 C.ar  1 <1>  -0.1500 
  6 C       -4.5030     1.1800     1.0660 C.ar  1 <1>  -0.1500 
  7 C       -5.2370     0.0060     0.8860 C.ar  1 <1>   0.1170 
  8 N       -6.3430    -0.0190     0.0150 N.am  1 <1>  -0.4770 
  9 C       -7.5030    -0.7550     0.0920 C.2   1 <1>   0.6900 
 10 C       -6.3560     0.7140    -1.2790 C.3   1 <1>   0.2010 
 11 O       -7.8210    -1.4640     1.0240 O.2   1 <1>  -0.5700 
 12 N       -8.2710    -0.6040    -1.0280 N.am  1 <1>  -0.4200 
 13 C       -7.6670     0.2550    -1.8830 C.2   1 <1>   0.5690 
 14 C       -9.6690    -1.0840    -1.1770 C.3   1 <1>   0.2810 
 15 O       -8.0880     0.6110    -2.9550 O.2   1 <1>  -0.5700 
 16 C      -10.5500    -0.6160    -0.0040 C.2   1 <1>   0.6590 
 17 C       -9.6530    -2.6050    -1.4140 C.3   1 <1>  -0.2400 
 18 O      -10.6210     0.5510     0.2950 O.2   1 <1>  -0.5700 
 19 O      -11.2380    -1.5440     0.6550 O.3   1 <1>  -0.4300 
 20 C      -12.0190    -1.2210     1.7810 C.3   1 <1>   0.1200 
 21 C      -12.6610    -2.5060     2.2940 C.3   1 <1>  -0.2400 
 22 H       -3.4470    -2.0090     2.9570 H     1 <1>   0.1500 
 23 H       -2.8340     2.1120     2.0490 H     1 <1>   0.1500 
 24 H       -5.4010    -2.0530     1.4560 H     1 <1>   0.1500 
 25 H       -4.7930     2.0800     0.5570 H     1 <1>   0.1500 
 26 H       -5.5260     0.4200    -1.8950 H     1 <1>   0.0800 
 27 H       -6.3700     1.7770    -1.1220 H     1 <1>   0.0800 
 28 H      -10.0850    -0.6260    -2.0570 H     1 <1>   0.0800 
 29 H       -9.2750    -3.1190    -0.5480 H     1 <1>   0.0800 
 30 H       -9.0420    -2.8430    -2.2660 H     1 <1>   0.0800 
 31 H      -10.6510    -2.9550    -1.6050 H     1 <1>   0.0800 
 32 H      -12.7670    -0.5050     1.4850 H     1 <1>   0.0800 
 33 H      -11.3750    -0.7860     2.5260 H     1 <1>   0.0800 
 34 H      -13.2910    -2.9360     1.5360 H     1 <1>   0.0800 
 35 H      -13.2620    -2.2910     3.1580 H     1 <1>   0.0800 
 36 H      -11.8990    -3.2120     2.5740 H     1 <1>   0.0800 
@<TRIPOS>BOND
  1   1   2  1   
  2   2   3  ar  
  3   2   4  ar  
  4   3   5  ar  
  5   3  22  1   
  6   4   6  ar  
  7   4  23  1   
  8   5   7  ar  
  9   5  24  1   
 10   6   7  ar  
 11   6  25  1   
 12   7   8  1   
 13   8   9  am  
 14   8  10  1   
 15   9  11  2   
 16   9  12  am  
 17  10  13  1   
 18  10  26  1   
 19  10  27  1   
 20  12  13  am  
 21  12  14  1   
 22  13  15  2   
 23  14  16  1   
 24  14  17  1   
 25  14  28  1   
 26  16  18  2   
 27  16  19  1   
 28  17  29  1   
 29  17  30  1   
 30  17  31  1   
 31  19  20  1   
 32  20  21  1   
 33  20  32  1   
 34  20  33  1   
 35  21  34  1   
 36  21  35  1   
 37  21  36  1   
@<TRIPOS>SUBSTRUCTURE
  1 ****   9 GROUP 4 **** **** 0

# MOE 2024.06 (io_trps.svl 2023.06)
