@<TRIPOS>MOLECULE
NONAME
46 47 1 0 0 
SMALL
USER_CHARGES


@<TRIPOS>ATOM
  1 S       -0.1030    -0.2290    -1.9640 S.o2  1 <1>   1.4470 
  2 O       -0.4580     0.9890    -2.6630 O.2   1 <1>  -0.6500 
  3 O        0.2040    -1.4160    -2.7320 O.2   1 <1>  -0.6500 
  4 N        1.2690     0.1380    -1.0350 N.am  1 <1>  -0.8490 
  5 C       -1.3590    -0.6270    -0.7160 C.ar  1 <1>  -0.0090 
  6 C        1.1140     1.4000    -0.3050 C.3   1 <1>   0.1960 
  7 C        2.4820     0.1330    -1.8560 C.3   1 <1>   0.1960 
  8 C       -1.0830    -1.5140     0.3170 C.ar  1 <1>  -0.1500 
  9 C       -2.6280    -0.0610    -0.7620 C.ar  1 <1>  -0.1500 
 10 C        2.3030     1.6190     0.6320 C.3   1 <1>  -0.1600 
 11 C        3.7220     0.3240    -0.9770 C.3   1 <1>  -0.1600 
 12 C       -2.0340    -1.8200     1.2750 C.ar  1 <1>  -0.1500 
 13 C       -3.5830    -0.3610     0.1930 C.ar  1 <1>  -0.1500 
 14 C        3.6290     1.6140    -0.1460 C.3   1 <1>  -0.0190 
 15 C       -3.2900    -1.2420     1.2190 C.ar  1 <1>  -0.1430 
 16 C        4.8320     1.7720     0.7830 C.2   1 <1>   0.5690 
 17 C       -4.3360    -1.5760     2.2680 C.3   1 <1>  -0.0970 
 18 O        5.0170     0.9660     1.6620 O.2   1 <1>  -0.5700 
 19 N        5.6660     2.8280     0.5900 N.am  1 <1>  -0.7300 
 20 C        6.8760     3.1110     1.3910 C.3   1 <1>   0.1400 
 21 C        8.0670     3.2890     0.4500 C.3   1 <1>  -0.1600 
 22 C        9.3510     3.5940     1.2300 C.3   1 <1>  -0.2400 
 23 H        0.2110     1.3720     0.2830 H     1 <1>   0.0800 
 24 H        1.0380     2.2210    -0.9990 H     1 <1>   0.0800 
 25 H        2.4250     0.9140    -2.5970 H     1 <1>   0.0800 
 26 H        2.5710    -0.8110    -2.3690 H     1 <1>   0.0800 
 27 H       -0.1090    -1.9700     0.3700 H     1 <1>   0.1500 
 28 H       -2.8710     0.6260    -1.5560 H     1 <1>   0.1500 
 29 H        2.3110     0.8390     1.3740 H     1 <1>   0.0800 
 30 H        2.1880     2.5570     1.1450 H     1 <1>   0.0800 
 31 H        4.5990     0.3540    -1.5980 H     1 <1>   0.0800 
 32 H        3.8140    -0.5250    -0.3220 H     1 <1>   0.0800 
 33 H       -1.7900    -2.5110     2.0640 H     1 <1>   0.1500 
 34 H       -4.5580     0.0920     0.1310 H     1 <1>   0.1500 
 35 H        3.6180     2.4460    -0.8250 H     1 <1>   0.0800 
 36 H       -3.8680    -1.7930     3.2110 H     1 <1>   0.0800 
 37 H       -4.9020    -2.4360     1.9550 H     1 <1>   0.0800 
 38 H       -5.0090    -0.7490     2.4060 H     1 <1>   0.0800 
 39 H        5.4770     3.4940    -0.1590 H     1 <1>   0.3700 
 40 H        7.0650     2.2980     2.0730 H     1 <1>   0.0800 
 41 H        6.7180     4.0070     1.9680 H     1 <1>   0.0800 
 42 H        7.8710     4.0980    -0.2320 H     1 <1>   0.0800 
 43 H        8.2080     2.3850    -0.1160 H     1 <1>   0.0800 
 44 H        9.2440     4.5030     1.7950 H     1 <1>   0.0800 
 45 H       10.1760     3.7100     0.5490 H     1 <1>   0.0800 
 46 H        9.5790     2.7890     1.9070 H     1 <1>   0.0800 
@<TRIPOS>BOND
  1   1   2  2   
  2   1   3  2   
  3   1   4  am  
  4   1   5  1   
  5   4   6  1   
  6   4   7  1   
  7   5   8  ar  
  8   5   9  ar  
  9   6  10  1   
 10   6  23  1   
 11   6  24  1   
 12   7  11  1   
 13   7  25  1   
 14   7  26  1   
 15   8  12  ar  
 16   8  27  1   
 17   9  13  ar  
 18   9  28  1   
 19  10  14  1   
 20  10  29  1   
 21  10  30  1   
 22  11  14  1   
 23  11  31  1   
 24  11  32  1   
 25  12  15  ar  
 26  12  33  1   
 27  13  15  ar  
 28  13  34  1   
 29  14  16  1   
 30  14  35  1   
 31  15  17  1   
 32  16  18  2   
 33  16  19  am  
 34  17  36  1   
 35  17  37  1   
 36  17  38  1   
 37  19  20  1   
 38  19  39  1   
 39  20  21  1   
 40  20  40  1   
 41  20  41  1   
 42  21  22  1   
 43  21  42  1   
 44  21  43  1   
 45  22  44  1   
 46  22  45  1   
 47  22  46  1   
@<TRIPOS>SUBSTRUCTURE
  1 ****   6 GROUP 4 **** **** 0

# MOE 2024.06 (io_trps.svl 2023.06)
