@<TRIPOS>MOLECULE
NONAME
41 43 1 0 0 
SMALL
USER_CHARGES


@<TRIPOS>ATOM
  1 S       -0.6450     1.1000    -2.0180 S.2   1 <1>  -0.3800 
  2 C       -2.0570     0.9600    -1.2440 C.2   1 <1>   0.5900 
  3 O       -3.0540     1.7710    -1.4780 O.3   1 <1>  -0.2270 
  4 N       -2.3800     0.0490    -0.3150 N.am  1 <1>  -0.4200 
  5 C       -4.1160     1.4300    -0.6960 C.2   1 <1>   0.0910 
  6 C       -3.6700     0.3130     0.0550 C.2   1 <1>   0.6160 
  7 C       -1.5320    -1.0280     0.2400 C.3   1 <1>   0.1400 
  8 C       -5.2840     2.1650    -0.7390 C.2   1 <1>   0.1000 
  9 O       -4.2440    -0.3650     0.9000 O.2   1 <1>  -0.5700 
 10 C       -0.8060    -0.5210     1.4840 C.3   1 <1>  -0.2400 
 11 N       -6.4490     1.8310    -0.0400 N.pl3 1 <1>  -0.5690 
 12 C       -5.3680     3.3840    -1.4870 C.2   1 <1>  -0.1500 
 13 C       -7.3400     2.8370     0.3840 C.ar  1 <1>   0.1000 
 14 C       -6.9530     0.4250    -0.1030 C.3   1 <1>   0.2090 
 15 C       -6.3410     4.3000    -1.2740 C.2   1 <1>  -0.1780 
 16 C       -7.3250     4.0830    -0.2640 C.ar  1 <1>   0.0280 
 17 C       -8.2470     2.6360     1.4260 C.ar  1 <1>  -0.1500 
 18 C       -8.1890     0.3310    -1.0000 C.3   1 <1>  -0.2400 
 19 C       -8.2460     5.0650     0.1030 C.ar  1 <1>  -0.1500 
 20 C       -9.1440     3.6180     1.7870 C.ar  1 <1>  -0.1500 
 21 C       -9.1570     4.8370     1.1230 C.ar  1 <1>   0.0820 
 22 O      -10.0830     5.7420     1.5360 O.3   1 <1>  -0.3630 
 23 C      -10.1700     7.0150     0.9350 C.3   1 <1>   0.0400 
 24 H       -2.1510    -1.8720     0.4950 H     1 <1>   0.0800 
 25 H       -0.8170    -1.3430    -0.5010 H     1 <1>   0.0800 
 26 H       -1.5160    -0.2240     2.2360 H     1 <1>   0.0800 
 27 H       -0.1720     0.3130     1.2380 H     1 <1>   0.0800 
 28 H       -0.1920    -1.3050     1.8890 H     1 <1>   0.0800 
 29 H       -4.6140     3.5650    -2.2310 H     1 <1>   0.1500 
 30 H       -6.2050    -0.2180    -0.5250 H     1 <1>   0.0800 
 31 H       -7.1690     0.0710     0.8900 H     1 <1>   0.0800 
 32 H       -6.3920     5.2130    -1.8390 H     1 <1>   0.1500 
 33 H       -8.2450     1.7040     1.9580 H     1 <1>   0.1500 
 34 H       -7.9630     0.7220    -1.9760 H     1 <1>   0.0800 
 35 H       -9.0130     0.8780    -0.5810 H     1 <1>   0.0800 
 36 H       -8.4830    -0.6970    -1.1010 H     1 <1>   0.0800 
 37 H       -8.2210     5.9980    -0.4220 H     1 <1>   0.1500 
 38 H       -9.8440     3.4550     2.5870 H     1 <1>   0.1500 
 39 H      -10.9620     7.5580     1.4170 H     1 <1>   0.0800 
 40 H      -10.3930     6.8930    -0.1100 H     1 <1>   0.0800 
 41 H       -9.2360     7.5310     1.0740 H     1 <1>   0.0800 
@<TRIPOS>BOND
  1   1   2  2   
  2   2   3  1   
  3   2   4  am  
  4   3   5  1   
  5   4   6  am  
  6   4   7  1   
  7   5   6  1   
  8   5   8  2   
  9   6   9  2   
 10   7  10  1   
 11   7  24  1   
 12   7  25  1   
 13   8  11  1   
 14   8  12  1   
 15  10  26  1   
 16  10  27  1   
 17  10  28  1   
 18  11  13  1   
 19  11  14  1   
 20  12  15  2   
 21  12  29  1   
 22  13  16  ar  
 23  13  17  ar  
 24  14  18  1   
 25  14  30  1   
 26  14  31  1   
 27  15  16  1   
 28  15  32  1   
 29  16  19  ar  
 30  17  20  ar  
 31  17  33  1   
 32  18  34  1   
 33  18  35  1   
 34  18  36  1   
 35  19  21  ar  
 36  19  37  1   
 37  20  21  ar  
 38  20  38  1   
 39  21  22  1   
 40  22  23  1   
 41  23  39  1   
 42  23  40  1   
 43  23  41  1   
@<TRIPOS>SUBSTRUCTURE
  1 ****   8 GROUP 4 **** **** 0

# MOE 2024.06 (io_trps.svl 2023.06)
