@<TRIPOS>MOLECULE
NONAME
46 48 1 0 0 
SMALL
USER_CHARGES


@<TRIPOS>ATOM
  1 F        0.0040    -0.6940     1.8900 F     1 <1>  -0.1900 
  2 C       -0.6110    -1.5910     1.1560 C.ar  1 <1>   0.1900 
  3 C        0.1300    -2.4350     0.3190 C.ar  1 <1>   0.1000 
  4 C       -1.9820    -1.6580     1.2660 C.ar  1 <1>  -0.1500 
  5 N        1.5160    -2.4160     0.1610 N.pl3 1 <1>  -0.8380 
  6 C       -0.6040    -3.3660    -0.4070 C.ar  1 <1>  -0.1500 
  7 C       -2.7180    -2.5930     0.5320 C.ar  1 <1>   0.0860 
  8 C        2.3210    -3.5310     0.7440 C.3   1 <1>   0.2090 
  9 C        2.2650    -1.1230     0.1170 C.3   1 <1>   0.2090 
 10 C       -1.9810    -3.4440    -0.3040 C.ar  1 <1>  -0.1500 
 11 C       -4.1580    -2.6410     0.6650 C.2   1 <1>   0.4230 
 12 C        3.6370    -3.7090    -0.0310 C.3   1 <1>   0.1400 
 13 C        3.6000    -1.2750    -0.6360 C.3   1 <1>   0.1400 
 14 O       -4.7610    -1.9570     1.4540 O.2   1 <1>  -0.5700 
 15 C       -5.0030    -3.5700    -0.1990 C.3   1 <1>  -0.0990 
 16 N        4.4060    -2.4240    -0.1090 N.am  1 <1>  -0.6600 
 17 C       -5.0760    -4.9910     0.3820 C.3   1 <1>  -0.1600 
 18 C        5.6740    -2.3010     0.4280 C.2   1 <1>   0.7150 
 19 C       -5.9160    -5.9130    -0.5070 C.3   1 <1>  -0.2400 
 20 O        6.0300    -3.1370     1.2430 O.2   1 <1>  -0.5700 
 21 C        6.5940    -1.2340     0.0830 C.2   1 <1>   0.0550 
 22 O        6.4800    -0.5160    -1.0350 O.3   1 <1>  -0.2800 
 23 C        7.6950    -0.7950     0.7550 C.2   1 <1>  -0.1500 
 24 C        7.4610     0.3560    -1.0850 C.2   1 <1>  -0.0100 
 25 C        8.2540     0.2370     0.0000 C.2   1 <1>  -0.1500 
 26 H       -2.4900    -0.9800     1.9300 H     1 <1>   0.1500 
 27 H       -0.0740    -4.0300    -1.0650 H     1 <1>   0.1500 
 28 H        1.7570    -4.4460     0.7100 H     1 <1>   0.0800 
 29 H        2.5430    -3.3120     1.7740 H     1 <1>   0.0800 
 30 H        2.4660    -0.7930     1.1210 H     1 <1>   0.0800 
 31 H        1.6620    -0.3750    -0.3680 H     1 <1>   0.0800 
 32 H       -2.4830    -4.1900    -0.8920 H     1 <1>   0.1500 
 33 H        3.4090    -4.0380    -1.0290 H     1 <1>   0.0800 
 34 H        4.2240    -4.4770     0.4400 H     1 <1>   0.0800 
 35 H        4.1400    -0.3520    -0.5390 H     1 <1>   0.0800 
 36 H        3.4000    -1.4360    -1.6800 H     1 <1>   0.0800 
 37 H       -4.6190    -3.5880    -1.2020 H     1 <1>   0.0800 
 38 H       -5.9980    -3.1640    -0.2520 H     1 <1>   0.0800 
 39 H       -5.5160    -4.9470     1.3640 H     1 <1>   0.0800 
 40 H       -4.0870    -5.4020     0.4840 H     1 <1>   0.0800 
 41 H       -6.9210    -5.5370    -0.5960 H     1 <1>   0.0800 
 42 H       -5.9600    -6.8980    -0.0760 H     1 <1>   0.0800 
 43 H       -5.4850    -5.9900    -1.4900 H     1 <1>   0.0800 
 44 H        8.0760    -1.1710     1.6890 H     1 <1>   0.1500 
 45 H        7.5250     1.0250    -1.9260 H     1 <1>   0.1500 
 46 H        9.1350     0.7980     0.2550 H     1 <1>   0.1500 
@<TRIPOS>BOND
  1   1   2  1   
  2   2   3  ar  
  3   2   4  ar  
  4   3   5  1   
  5   3   6  ar  
  6   4   7  ar  
  7   4  26  1   
  8   5   8  1   
  9   5   9  1   
 10   6  10  ar  
 11   6  27  1   
 12   7  10  ar  
 13   7  11  1   
 14   8  12  1   
 15   8  28  1   
 16   8  29  1   
 17   9  13  1   
 18   9  30  1   
 19   9  31  1   
 20  10  32  1   
 21  11  14  2   
 22  11  15  1   
 23  12  16  1   
 24  12  33  1   
 25  12  34  1   
 26  13  16  1   
 27  13  35  1   
 28  13  36  1   
 29  15  17  1   
 30  15  37  1   
 31  15  38  1   
 32  16  18  am  
 33  17  19  1   
 34  17  39  1   
 35  17  40  1   
 36  18  20  2   
 37  18  21  1   
 38  19  41  1   
 39  19  42  1   
 40  19  43  1   
 41  21  22  1   
 42  21  23  2   
 43  22  24  1   
 44  23  25  1   
 45  23  44  1   
 46  24  25  2   
 47  24  45  1   
 48  25  46  1   
@<TRIPOS>SUBSTRUCTURE
  1 ****   5 GROUP 4 **** **** 0

# MOE 2024.06 (io_trps.svl 2023.06)
