@<TRIPOS>MOLECULE
NONAME
46 49 1 0 0 
SMALL
USER_CHARGES


@<TRIPOS>ATOM
  1 O        0.6820    -1.3370    -1.4180 O.2   1 <1>  -0.5700 
  2 C        0.6720    -2.1680    -0.5420 C.2   1 <1>   0.5690 
  3 N        1.6700    -2.3830     0.3640 N.am  1 <1>  -0.2370 
  4 C       -0.4830    -3.1680    -0.3510 C.3   1 <1>   0.2510 
  5 C        2.8240    -1.5890     0.4920 C.ar  1 <1>   0.1170 
  6 C        1.3710    -3.4690     1.1360 C.2   1 <1>   0.5690 
  7 N       -1.8130    -2.6080     0.0740 N.3   1 <1>  -0.8100 
  8 C        0.0560    -4.0960     0.7470 C.3   1 <1>  -0.0990 
  9 C        4.0790    -2.0360    -0.0090 C.ar  1 <1>   0.0000 
 10 C        2.7230    -0.3610     1.1030 C.ar  1 <1>  -0.1500 
 11 O        2.0430    -3.9210     2.0240 O.2   1 <1>  -0.5700 
 12 C       -2.8900    -3.6210    -0.0510 C.3   1 <1>   0.1100 
 13 C       -2.1760    -1.3640    -0.6540 C.3   1 <1>   0.1100 
 14 C        5.2040    -1.1900     0.1350 C.ar  1 <1>   0.0000 
 15 C        4.2740    -3.2820    -0.6490 C.ar  1 <1>  -0.1500 
 16 C        3.8370     0.4670     1.2450 C.ar  1 <1>  -0.1500 
 17 C       -4.2570    -3.0750     0.4130 C.3   1 <1>   0.3430 
 18 C       -3.5450    -0.8020    -0.2170 C.3   1 <1>   0.3430 
 19 C        5.0500     0.0570     0.7690 C.ar  1 <1>  -0.1500 
 20 C        6.4540    -1.6150    -0.3600 C.ar  1 <1>  -0.1500 
 21 C        5.4980    -3.6690    -1.1200 C.ar  1 <1>  -0.1500 
 22 N       -4.6370    -1.8270    -0.3330 N.4   1 <1>  -0.9590 
 23 C        6.6030    -2.8260    -0.9750 C.ar  1 <1>  -0.1500 
 24 C       -5.9410    -1.2820     0.1490 C.3   1 <1>   0.2630 
 25 H       -0.5960    -3.7090    -1.2750 H     1 <1>   0.0800 
 26 H        0.2360    -5.0840     0.3680 H     1 <1>   0.0800 
 27 H       -0.5810    -4.1370     1.6110 H     1 <1>   0.0800 
 28 H        1.7780    -0.0180     1.4830 H     1 <1>   0.1500 
 29 H       -2.6510    -4.4800     0.5530 H     1 <1>   0.0800 
 30 H       -2.9680    -3.9520    -1.0730 H     1 <1>   0.0800 
 31 H       -2.1770    -1.5420    -1.7170 H     1 <1>   0.0800 
 32 H       -1.4450    -0.6000    -0.4510 H     1 <1>   0.0800 
 33 H        3.4400    -3.9470    -0.7670 H     1 <1>   0.1500 
 34 H        3.7270     1.4220     1.7290 H     1 <1>   0.1500 
 35 H       -4.1990    -2.8640     1.4680 H     1 <1>   0.0800 
 36 H       -5.0100    -3.8330     0.2670 H     1 <1>   0.0800 
 37 H       -3.7810     0.0580    -0.8220 H     1 <1>   0.0800 
 38 H       -3.4630    -0.4750     0.8060 H     1 <1>   0.0800 
 39 H        5.9130     0.6900     0.8730 H     1 <1>   0.1500 
 40 H        7.2990    -0.9610    -0.2440 H     1 <1>   0.1500 
 41 H        5.6290    -4.6220    -1.6030 H     1 <1>   0.1500 
 42 H       -4.7240    -2.0720    -1.3300 H     1 <1>   0.4500 
 43 H        7.5600    -3.1440    -1.3500 H     1 <1>   0.1500 
 44 H       -5.8730    -1.0150     1.1920 H     1 <1>   0.0800 
 45 H       -6.7220    -2.0170     0.0330 H     1 <1>   0.0800 
 46 H       -6.2120    -0.4030    -0.4140 H     1 <1>   0.0800 
@<TRIPOS>BOND
  1   1   2  2   
  2   2   3  am  
  3   2   4  1   
  4   3   5  1   
  5   3   6  am  
  6   4   7  1   
  7   4   8  1   
  8   4  25  1   
  9   5   9  ar  
 10   5  10  ar  
 11   6   8  1   
 12   6  11  2   
 13   7  12  1   
 14   7  13  1   
 15   8  26  1   
 16   8  27  1   
 17   9  14  ar  
 18   9  15  ar  
 19  10  16  ar  
 20  10  28  1   
 21  12  17  1   
 22  12  29  1   
 23  12  30  1   
 24  13  18  1   
 25  13  31  1   
 26  13  32  1   
 27  14  19  ar  
 28  14  20  ar  
 29  15  21  ar  
 30  15  33  1   
 31  16  19  ar  
 32  16  34  1   
 33  17  22  1   
 34  17  35  1   
 35  17  36  1   
 36  18  22  1   
 37  18  37  1   
 38  18  38  1   
 39  19  39  1   
 40  20  23  ar  
 41  20  40  1   
 42  21  23  ar  
 43  21  41  1   
 44  22  24  1   
 45  22  42  1   
 46  23  43  1   
 47  24  44  1   
 48  24  45  1   
 49  24  46  1   
@<TRIPOS>SUBSTRUCTURE
  1 ****   3 GROUP 4 **** **** 0

# MOE 2024.06 (io_trps.svl 2023.06)
