@<TRIPOS>MOLECULE
NONAME
51 53 1 0 0 
SMALL
USER_CHARGES


@<TRIPOS>ATOM
  1 S       -0.6480    -1.1020     0.9730 S.o2  1 <1>   1.4470 
  2 O       -0.8630     0.3220     1.1340 O.2   1 <1>  -0.6500 
  3 O       -1.1120    -1.9660     2.0390 O.2   1 <1>  -0.6500 
  4 N       -1.5290    -1.5480    -0.4090 N.am  1 <1>  -0.8490 
  5 C        1.0890    -1.3580     0.5070 C.ar  1 <1>  -0.0090 
  6 C       -2.9160    -1.0710    -0.3070 C.3   1 <1>   0.1960 
  7 C       -1.4660    -2.9940    -0.6510 C.3   1 <1>   0.1960 
  8 C        1.7530    -2.5670     0.7080 C.ar  1 <1>   0.0820 
  9 C        1.7930    -0.3210    -0.0980 C.ar  1 <1>  -0.1500 
 10 C       -3.7240    -1.3980    -1.5700 C.3   1 <1>  -0.0190 
 11 C       -2.1920    -3.3540    -1.9500 C.3   1 <1>  -0.1600 
 12 O        1.0690    -3.5920     1.2730 O.3   1 <1>  -0.3630 
 13 C        3.0840    -2.7120     0.3240 C.ar  1 <1>  -0.1500 
 14 C        3.1150    -0.4590    -0.4850 C.ar  1 <1>  -0.1440 
 15 C       -5.1550    -0.9050    -1.4140 C.2   1 <1>   0.5690 
 16 C       -3.6550    -2.8980    -1.9140 C.3   1 <1>  -0.1600 
 17 C        1.7290    -4.6620     1.9150 C.3   1 <1>   0.0400 
 18 C        3.7600    -1.6620    -0.2670 C.ar  1 <1>  -0.1500 
 19 C        3.8470     0.7010    -1.1360 C.3   1 <1>  -0.0970 
 20 O       -5.5390    -0.0340    -2.1530 O.2   1 <1>  -0.5700 
 21 N       -5.9370    -1.4830    -0.4470 N.am  1 <1>  -0.5470 
 22 C       -7.2600    -1.2420    -0.0450 C.ar  1 <1>   0.1170 
 23 C       -7.8890    -2.1920     0.7530 C.ar  1 <1>  -0.1500 
 24 C       -7.9740    -0.0980    -0.3900 C.ar  1 <1>  -0.1500 
 25 C       -9.1890    -2.0110     1.1890 C.ar  1 <1>  -0.1500 
 26 C       -9.2750     0.0870     0.0420 C.ar  1 <1>  -0.1500 
 27 C       -9.8860    -0.8700     0.8330 C.ar  1 <1>  -0.1500 
 28 H       -2.9200    -0.0010    -0.1720 H     1 <1>   0.0800 
 29 H       -3.3800    -1.5140     0.5600 H     1 <1>   0.0800 
 30 H       -1.9030    -3.5280     0.1780 H     1 <1>   0.0800 
 31 H       -0.4390    -3.3020    -0.7450 H     1 <1>   0.0800 
 32 H        1.2900     0.6170    -0.2670 H     1 <1>   0.1500 
 33 H       -3.2810    -0.8460    -2.3810 H     1 <1>   0.0800 
 34 H       -2.1470    -4.4180    -2.1000 H     1 <1>   0.0800 
 35 H       -1.6810    -2.8850    -2.7740 H     1 <1>   0.0800 
 36 H        3.6090    -3.6370     0.4690 H     1 <1>   0.1500 
 37 H       -4.1160    -3.0730    -2.8710 H     1 <1>   0.0800 
 38 H       -4.1820    -3.4780    -1.1770 H     1 <1>   0.0800 
 39 H        0.9910    -5.2390     2.4430 H     1 <1>   0.0800 
 40 H        2.4460    -4.2630     2.6110 H     1 <1>   0.0800 
 41 H        2.2090    -5.2750     1.1740 H     1 <1>   0.0800 
 42 H        4.7880    -1.7850    -0.5590 H     1 <1>   0.1500 
 43 H        3.1620     1.3140    -1.6940 H     1 <1>   0.0800 
 44 H        4.6030     0.3390    -1.8100 H     1 <1>   0.0800 
 45 H        4.3170     1.3050    -0.3800 H     1 <1>   0.0800 
 46 H       -5.4930    -2.2500     0.0520 H     1 <1>   0.3700 
 47 H       -7.3620    -3.0840     1.0370 H     1 <1>   0.1500 
 48 H       -7.5190     0.6620    -0.9980 H     1 <1>   0.1500 
 49 H       -9.6610    -2.7570     1.8050 H     1 <1>   0.1500 
 50 H       -9.8100     0.9770    -0.2370 H     1 <1>   0.1500 
 51 H      -10.8990    -0.7270     1.1690 H     1 <1>   0.1500 
@<TRIPOS>BOND
  1   1   2  2   
  2   1   3  2   
  3   1   4  am  
  4   1   5  1   
  5   4   6  1   
  6   4   7  1   
  7   5   8  ar  
  8   5   9  ar  
  9   6  10  1   
 10   6  28  1   
 11   6  29  1   
 12   7  11  1   
 13   7  30  1   
 14   7  31  1   
 15   8  12  1   
 16   8  13  ar  
 17   9  14  ar  
 18   9  32  1   
 19  10  15  1   
 20  10  16  1   
 21  10  33  1   
 22  11  16  1   
 23  11  34  1   
 24  11  35  1   
 25  12  17  1   
 26  13  18  ar  
 27  13  36  1   
 28  14  18  ar  
 29  14  19  1   
 30  15  20  2   
 31  15  21  am  
 32  16  37  1   
 33  16  38  1   
 34  17  39  1   
 35  17  40  1   
 36  17  41  1   
 37  18  42  1   
 38  19  43  1   
 39  19  44  1   
 40  19  45  1   
 41  21  22  1   
 42  21  46  1   
 43  22  23  ar  
 44  22  24  ar  
 45  23  25  ar  
 46  23  47  1   
 47  24  26  ar  
 48  24  48  1   
 49  25  27  ar  
 50  25  49  1   
 51  26  27  ar  
 52  26  50  1   
 53  27  51  1   
@<TRIPOS>SUBSTRUCTURE
  1 ****   6 GROUP 4 **** **** 0

# MOE 2024.06 (io_trps.svl 2023.06)
