@<TRIPOS>MOLECULE
NONAME
47 48 1 0 0 
SMALL
USER_CHARGES


@<TRIPOS>ATOM
  1 S       -0.1980    -0.0310    -0.0980 S.o2  1 <1>   1.4470 
  2 O       -0.5290    -0.1430    -1.5040 O.2   1 <1>  -0.6500 
  3 O       -0.8680    -0.8850     0.8590 O.2   1 <1>  -0.6500 
  4 N       -0.5290     1.5740     0.3520 N.am  1 <1>  -0.8490 
  5 C        1.5950    -0.1630     0.1450 C.ar  1 <1>  -0.0090 
  6 C       -1.9600     1.7960     0.5710 C.3   1 <1>   0.1160 
  7 C       -0.0100     2.5560    -0.6050 C.3   1 <1>   0.1160 
  8 C        2.1570    -0.0020     1.4050 C.ar  1 <1>  -0.1500 
  9 C        2.4570    -0.4160    -0.9160 C.ar  1 <1>  -0.1500 
 10 C        3.5240    -0.0840     1.6000 C.ar  1 <1>  -0.1500 
 11 C        3.8250    -0.4990    -0.7260 C.ar  1 <1>  -0.1500 
 12 C        4.3830    -0.3290     0.5360 C.ar  1 <1>   0.1170 
 13 N        5.7600    -0.4120     0.7820 N.am  1 <1>  -0.5470 
 14 C        6.8280    -0.2060    -0.0510 C.2   1 <1>   0.5690 
 15 O        6.7110     0.1360    -1.2020 O.2   1 <1>  -0.5700 
 16 C        8.2260    -0.4230     0.5320 C.3   1 <1>  -0.0190 
 17 C        9.2940     0.4730    -0.1290 C.3   1 <1>  -0.1600 
 18 C        8.6430    -1.9020     0.4220 C.3   1 <1>  -0.1600 
 19 C       10.6870     0.2150     0.4500 C.3   1 <1>   0.1400 
 20 C       10.0440    -2.1400     0.9920 C.3   1 <1>   0.1400 
 21 N       11.0160    -1.2320     0.3230 N.am  1 <1>  -0.6600 
 22 C       12.0920    -1.7380    -0.3620 C.2   1 <1>   0.5690 
 23 O       12.3290    -2.9210    -0.4070 O.2   1 <1>  -0.5700 
 24 C       13.0400    -0.8210    -1.0990 C.3   1 <1>  -0.1790 
 25 H       -2.3200     1.1390     1.3460 H     1 <1>   0.0800 
 26 H       -2.5130     1.5990    -0.3320 H     1 <1>   0.0800 
 27 H       -2.1370     2.8110     0.8830 H     1 <1>   0.0800 
 28 H        1.0520     2.4260    -0.7320 H     1 <1>   0.0800 
 29 H       -0.1850     3.5540    -0.2410 H     1 <1>   0.0800 
 30 H       -0.4900     2.4430    -1.5630 H     1 <1>   0.0800 
 31 H        1.5070     0.1940     2.2420 H     1 <1>   0.1500 
 32 H        2.0530    -0.5500    -1.9060 H     1 <1>   0.1500 
 33 H        3.9220     0.0500     2.5890 H     1 <1>   0.1500 
 34 H        4.4590    -0.7010    -1.5710 H     1 <1>   0.1500 
 35 H        6.0020    -0.6350     1.7440 H     1 <1>   0.3700 
 36 H        8.1890    -0.1630     1.5750 H     1 <1>   0.0800 
 37 H        9.0340     1.5070     0.0110 H     1 <1>   0.0800 
 38 H        9.3230     0.2860    -1.1890 H     1 <1>   0.0800 
 39 H        8.6360    -2.2040    -0.6120 H     1 <1>   0.0800 
 40 H        7.9400    -2.5240     0.9470 H     1 <1>   0.0800 
 41 H       10.7060     0.4850     1.4920 H     1 <1>   0.0800 
 42 H       11.4050     0.8280    -0.0630 H     1 <1>   0.0800 
 43 H       10.3190    -3.1710     0.8430 H     1 <1>   0.0800 
 44 H       10.0550    -1.9460     2.0500 H     1 <1>   0.0800 
 45 H       13.5180    -0.1560    -0.4050 H     1 <1>   0.0800 
 46 H       12.5020    -0.2590    -1.8380 H     1 <1>   0.0800 
 47 H       13.7950    -1.4030    -1.5940 H     1 <1>   0.0800 
@<TRIPOS>BOND
  1   1   2  2   
  2   1   3  2   
  3   1   4  am  
  4   1   5  1   
  5   4   6  1   
  6   4   7  1   
  7   5   8  ar  
  8   5   9  ar  
  9   6  25  1   
 10   6  26  1   
 11   6  27  1   
 12   7  28  1   
 13   7  29  1   
 14   7  30  1   
 15   8  10  ar  
 16   8  31  1   
 17   9  11  ar  
 18   9  32  1   
 19  10  12  ar  
 20  10  33  1   
 21  11  12  ar  
 22  11  34  1   
 23  12  13  1   
 24  13  14  am  
 25  13  35  1   
 26  14  15  2   
 27  14  16  1   
 28  16  17  1   
 29  16  18  1   
 30  16  36  1   
 31  17  19  1   
 32  17  37  1   
 33  17  38  1   
 34  18  20  1   
 35  18  39  1   
 36  18  40  1   
 37  19  21  1   
 38  19  41  1   
 39  19  42  1   
 40  20  21  1   
 41  20  43  1   
 42  20  44  1   
 43  21  22  am  
 44  22  23  2   
 45  22  24  1   
 46  24  45  1   
 47  24  46  1   
 48  24  47  1   
@<TRIPOS>SUBSTRUCTURE
  1 ****  13 GROUP 4 **** **** 0

# MOE 2024.06 (io_trps.svl 2023.06)
