@<TRIPOS>MOLECULE
NONAME
45 46 1 0 0 
SMALL
USER_CHARGES


@<TRIPOS>ATOM
  1 O       -1.1480     1.2750     1.0490 O.3   1 <1>  -0.3630 
  2 C       -2.1310     1.2640     0.1170 C.ar  1 <1>   0.0830 
  3 C        0.0660     0.6370     0.7080 C.3   1 <1>   0.0400 
  4 C       -2.0060     1.8560    -1.1450 C.ar  1 <1>   0.0830 
  5 C       -3.3110     0.6270     0.4610 C.ar  1 <1>  -0.1500 
  6 O       -0.9060     2.5400    -1.5370 O.3   1 <1>  -0.3630 
  7 C       -3.0460     1.7530    -2.0530 C.ar  1 <1>  -0.1500 
  8 C       -4.3640     0.5520    -0.4400 C.ar  1 <1>  -0.1430 
  9 C       -0.6370     3.7490    -0.8590 C.3   1 <1>   0.0400 
 10 C       -4.2200     1.1050    -1.7060 C.ar  1 <1>  -0.1500 
 11 C       -5.6620    -0.1180    -0.0380 C.3   1 <1>   0.4860 
 12 N       -6.6780     0.9460     0.1920 N.4   1 <1>  -0.9590 
 13 C       -6.3250     1.7950     1.3580 C.3   1 <1>   0.4380 
 14 C       -8.0680     0.4250     0.2880 C.3   1 <1>   0.3430 
 15 C       -6.9480     3.1690     1.1310 C.3   1 <1>  -0.1950 
 16 C       -8.5630    -0.0330    -1.0850 C.3   1 <1>  -0.1600 
 17 C       -6.4070     4.0950     0.0840 C.3   1 <1>  -0.2000 
 18 C       -6.2090     4.4050     1.5390 C.3   1 <1>  -0.2000 
 19 C      -10.0330    -0.4610    -1.0200 C.3   1 <1>  -0.2400 
 20 H        0.6780     0.5860     1.5900 H     1 <1>   0.0800 
 21 H        0.5710     1.2070    -0.0510 H     1 <1>   0.0800 
 22 H       -0.1480    -0.3540     0.3490 H     1 <1>   0.0800 
 23 H       -3.3790     0.1930     1.4430 H     1 <1>   0.1500 
 24 H       -2.9280     2.1870    -3.0300 H     1 <1>   0.1500 
 25 H        0.2170     4.2100    -1.3210 H     1 <1>   0.0800 
 26 H       -0.4260     3.5410     0.1740 H     1 <1>   0.0800 
 27 H       -1.4950     4.3930    -0.9440 H     1 <1>   0.0800 
 28 H       -5.0090     1.0420    -2.4360 H     1 <1>   0.1500 
 29 H       -5.5210    -0.7040     0.8550 H     1 <1>   0.0800 
 30 H       -5.9760    -0.7740    -0.8330 H     1 <1>   0.0800 
 31 H       -6.6240     1.5820    -0.6140 H     1 <1>   0.4500 
 32 H       -5.2550     1.9170     1.4160 H     1 <1>   0.0800 
 33 H       -6.6720     1.3600     2.2810 H     1 <1>   0.0800 
 34 H       -8.7230     1.2050     0.6420 H     1 <1>   0.0800 
 35 H       -8.1140    -0.3930     0.9900 H     1 <1>   0.0800 
 36 H       -8.0070     3.1830     1.3220 H     1 <1>   0.1000 
 37 H       -7.9850    -0.8680    -1.4390 H     1 <1>   0.0800 
 38 H       -8.4750     0.7760    -1.7910 H     1 <1>   0.0800 
 39 H       -7.0860     4.7160    -0.4760 H     1 <1>   0.1000 
 40 H       -5.5290     3.8340    -0.4860 H     1 <1>   0.1000 
 41 H       -5.2120     4.3350     1.9400 H     1 <1>   0.1000 
 42 H       -6.7590     5.2300     1.9620 H     1 <1>   0.1000 
 43 H      -10.1640    -1.2850    -0.3390 H     1 <1>   0.0800 
 44 H      -10.3680    -0.7760    -1.9940 H     1 <1>   0.0800 
 45 H      -10.6580     0.3560    -0.7000 H     1 <1>   0.0800 
@<TRIPOS>BOND
  1   1   2  1   
  2   1   3  1   
  3   2   4  ar  
  4   2   5  ar  
  5   3  20  1   
  6   3  21  1   
  7   3  22  1   
  8   4   6  1   
  9   4   7  ar  
 10   5   8  ar  
 11   5  23  1   
 12   6   9  1   
 13   7  10  ar  
 14   7  24  1   
 15   8  10  ar  
 16   8  11  1   
 17   9  25  1   
 18   9  26  1   
 19   9  27  1   
 20  10  28  1   
 21  11  12  1   
 22  11  29  1   
 23  11  30  1   
 24  12  13  1   
 25  12  14  1   
 26  12  31  1   
 27  13  15  1   
 28  13  32  1   
 29  13  33  1   
 30  14  16  1   
 31  14  34  1   
 32  14  35  1   
 33  15  17  1   
 34  15  18  1   
 35  15  36  1   
 36  16  19  1   
 37  16  37  1   
 38  16  38  1   
 39  17  18  1   
 40  17  39  1   
 41  17  40  1   
 42  18  41  1   
 43  18  42  1   
 44  19  43  1   
 45  19  44  1   
 46  19  45  1   
@<TRIPOS>SUBSTRUCTURE
  1 ****   8 GROUP 4 **** **** 0

# MOE 2024.06 (io_trps.svl 2023.06)
