@<TRIPOS>MOLECULE
NONAME
42 44 1 0 0 
SMALL
USER_CHARGES


@<TRIPOS>ATOM
  1 S       -0.6410     0.5610     0.5870 S.3   1 <1>  -0.2860 
  2 C        1.1380     0.7320     0.4200 C.2   1 <1>   0.2420 
  3 C       -1.1520     2.2320     1.2290 C.3   1 <1>   0.1310 
  4 N        1.7750     1.8170     0.6820 N.2   1 <1>  -0.3380 
  5 N        1.9220    -0.2630     0.0070 N.pl3 1 <1>   0.0480 
  6 C       -2.6620     2.3390     1.3740 C.2   1 <1>   0.5690 
  7 N        3.0610     1.5480     0.4340 N.2   1 <1>  -0.3380 
  8 C        3.1290     0.3180     0.0380 C.2   1 <1>   0.1010 
  9 C        1.5480    -1.6410    -0.3790 C.3   1 <1>   0.0960 
 10 O       -3.1110     3.1740     2.1210 O.2   1 <1>  -0.5700 
 11 N       -3.4660     1.5090     0.6610 N.am  1 <1>  -0.7300 
 12 C        4.4140    -0.3950    -0.3530 C.3   1 <1>  -0.0150 
 13 C        1.2270    -1.7150    -1.8740 C.3   1 <1>  -0.2400 
 14 C       -4.9360     1.4820     0.7010 C.3   1 <1>   0.2200 
 15 C        5.0030    -1.4330     0.5520 C.3   1 <1>  -0.2000 
 16 C        5.6890    -0.1140     0.3810 C.3   1 <1>  -0.2000 
 17 C       -5.3870     0.1000     1.1540 C.3   1 <1>  -0.1600 
 18 C       -5.4650     1.5750    -0.7240 C.3   1 <1>  -0.1600 
 19 C       -5.3150    -0.7910    -0.0920 C.3   1 <1>  -0.1600 
 20 C       -5.3690     0.1570    -1.2980 C.3   1 <1>  -0.1600 
 21 H       -0.7920     2.9660     0.5330 H     1 <1>   0.0800 
 22 H       -0.6730     2.3670     2.1800 H     1 <1>   0.0800 
 23 H        0.6920    -1.9450     0.1980 H     1 <1>   0.0800 
 24 H        2.3610    -2.3040    -0.1430 H     1 <1>   0.0800 
 25 H       -3.0430     0.7850     0.0780 H     1 <1>   0.3700 
 26 H        4.4930    -0.5410    -1.4160 H     1 <1>   0.1000 
 27 H        0.4000    -1.0690    -2.1120 H     1 <1>   0.0800 
 28 H        0.9570    -2.7220    -2.1390 H     1 <1>   0.0800 
 29 H        2.0830    -1.4270    -2.4590 H     1 <1>   0.0800 
 30 H       -5.3160     2.2680     1.3350 H     1 <1>   0.0800 
 31 H        5.4560    -2.3080     0.1180 H     1 <1>   0.1000 
 32 H        4.5320    -1.6350     1.4990 H     1 <1>   0.1000 
 33 H        5.6650     0.5980     1.1880 H     1 <1>   0.1000 
 34 H        6.6040    -0.0650    -0.1840 H     1 <1>   0.1000 
 35 H       -6.4110     0.1660     1.4770 H     1 <1>   0.0800 
 36 H       -4.7940    -0.2740     1.9700 H     1 <1>   0.0800 
 37 H       -4.9300     2.3010    -1.3100 H     1 <1>   0.0800 
 38 H       -6.5010     1.8650    -0.6820 H     1 <1>   0.0800 
 39 H       -6.1290    -1.4950    -0.1070 H     1 <1>   0.0800 
 40 H       -4.3850    -1.3340    -0.1000 H     1 <1>   0.0800 
 41 H       -4.4680     0.0570    -1.8790 H     1 <1>   0.0800 
 42 H       -6.2140    -0.0590    -1.9300 H     1 <1>   0.0800 
@<TRIPOS>BOND
  1   1   2  1   
  2   1   3  1   
  3   2   4  2   
  4   2   5  1   
  5   3   6  1   
  6   3  21  1   
  7   3  22  1   
  8   4   7  1   
  9   5   8  1   
 10   5   9  1   
 11   6  10  2   
 12   6  11  am  
 13   7   8  2   
 14   8  12  1   
 15   9  13  1   
 16   9  23  1   
 17   9  24  1   
 18  11  14  1   
 19  11  25  1   
 20  12  15  1   
 21  12  16  1   
 22  12  26  1   
 23  13  27  1   
 24  13  28  1   
 25  13  29  1   
 26  14  17  1   
 27  14  18  1   
 28  14  30  1   
 29  15  16  1   
 30  15  31  1   
 31  15  32  1   
 32  16  33  1   
 33  16  34  1   
 34  17  19  1   
 35  17  35  1   
 36  17  36  1   
 37  18  20  1   
 38  18  37  1   
 39  18  38  1   
 40  19  20  1   
 41  19  39  1   
 42  19  40  1   
 43  20  41  1   
 44  20  42  1   
@<TRIPOS>SUBSTRUCTURE
  1 ****   1 GROUP 4 **** **** 0

# MOE 2024.06 (io_trps.svl 2023.06)
