@<TRIPOS>MOLECULE
NONAME
50 52 1 0 0 
SMALL
USER_CHARGES


@<TRIPOS>ATOM
  1 O       -1.2210    -3.1560     1.4150 O.2   1 <1>  -0.5700 
  2 C       -0.1810    -3.2980     0.8220 C.2   1 <1>   0.5690 
  3 N        0.9780    -3.1070     1.5100 N.am  1 <1>  -0.5470 
  4 C       -0.1550    -3.6950    -0.6590 C.3   1 <1>  -0.0190 
  5 C        2.3060    -3.2520     1.0980 C.ar  1 <1>   0.1170 
  6 C       -1.3960    -3.2320    -1.4630 C.3   1 <1>  -0.0190 
  7 C        0.1180    -5.2040    -0.8450 C.3   1 <1>  -0.0220 
  8 C        2.9210    -2.3100     0.2270 C.ar  1 <1>   0.0000 
  9 C        3.0180    -4.3330     1.5590 C.ar  1 <1>  -0.1500 
 10 C       -1.5050    -1.7000    -1.4750 C.2   1 <1>   0.5690 
 11 C       -2.6680    -4.0400    -1.1260 C.3   1 <1>  -0.0220 
 12 C       -1.1470    -6.0380    -0.9620 C.2   1 <1>  -0.2880 
 13 C        4.2560    -2.5360    -0.1790 C.ar  1 <1>   0.0000 
 14 C        2.2710    -1.1530    -0.2590 C.ar  1 <1>  -0.1500 
 15 C        4.3400    -4.5430     1.1660 C.ar  1 <1>  -0.1500 
 16 O       -0.6390    -1.1110    -2.0700 O.2   1 <1>  -0.5700 
 17 N       -2.4690    -0.9390    -0.8960 N.am  1 <1>  -0.7300 
 18 C       -2.3740    -5.5280    -1.0830 C.2   1 <1>  -0.2880 
 19 C        4.9420    -3.6630     0.3110 C.ar  1 <1>  -0.1500 
 20 C        4.8690    -1.6240    -1.0630 C.ar  1 <1>  -0.1500 
 21 C        2.8890    -0.2860    -1.1180 C.ar  1 <1>  -0.1500 
 22 C       -3.5570    -1.2430     0.0550 C.3   1 <1>   0.1400 
 23 C        4.2030    -0.5240    -1.5260 C.ar  1 <1>  -0.1500 
 24 C       -4.2660     0.0490     0.4620 C.3   1 <1>  -0.1600 
 25 C       -4.9630     0.7220    -0.7230 C.3   1 <1>   0.1200 
 26 O       -5.5760     1.8730    -0.2680 O.3   1 <1>  -0.6800 
 27 H        0.8220    -2.9050     2.4970 H     1 <1>   0.3700 
 28 H        0.6850    -3.1900    -1.0950 H     1 <1>   0.0800 
 29 H       -1.1790    -3.4860    -2.4860 H     1 <1>   0.0800 
 30 H        0.7150    -5.5710    -0.0280 H     1 <1>   0.0800 
 31 H        0.6890    -5.3450    -1.7460 H     1 <1>   0.0800 
 32 H        2.5580    -5.0390     2.2270 H     1 <1>   0.1500 
 33 H       -3.4180    -3.8410    -1.8710 H     1 <1>   0.0800 
 34 H       -3.0630    -3.7780    -0.1650 H     1 <1>   0.0800 
 35 H       -0.9570    -7.0990    -0.9390 H     1 <1>   0.1500 
 36 H        1.2610    -0.9490     0.0460 H     1 <1>   0.1500 
 37 H        4.8720    -5.4010     1.5410 H     1 <1>   0.1500 
 38 H       -2.3070     0.0630    -1.0220 H     1 <1>   0.3700 
 39 H       -3.2590    -6.1410    -1.1480 H     1 <1>   0.1500 
 40 H        5.9590    -3.8200     0.0000 H     1 <1>   0.1500 
 41 H        5.8820    -1.8110    -1.3710 H     1 <1>   0.1500 
 42 H        2.3690     0.5810    -1.4880 H     1 <1>   0.1500 
 43 H       -3.1460    -1.7130     0.9320 H     1 <1>   0.0800 
 44 H       -4.2660    -1.9110    -0.4030 H     1 <1>   0.0800 
 45 H        4.6740     0.1670    -2.2030 H     1 <1>   0.1500 
 46 H       -3.5500     0.7220     0.9000 H     1 <1>   0.0800 
 47 H       -5.0000    -0.1950     1.2090 H     1 <1>   0.0800 
 48 H       -5.7140     0.0820    -1.1540 H     1 <1>   0.0800 
 49 H       -4.2570     1.0050    -1.4850 H     1 <1>   0.0800 
 50 H       -6.2520     1.6650     0.4050 H     1 <1>   0.4000 
@<TRIPOS>BOND
  1   1   2  2   
  2   2   3  am  
  3   2   4  1   
  4   3   5  1   
  5   3  27  1   
  6   4   6  1   
  7   4   7  1   
  8   4  28  1   
  9   5   8  ar  
 10   5   9  ar  
 11   6  10  1   
 12   6  11  1   
 13   6  29  1   
 14   7  12  1   
 15   7  30  1   
 16   7  31  1   
 17   8  13  ar  
 18   8  14  ar  
 19   9  15  ar  
 20   9  32  1   
 21  10  16  2   
 22  10  17  am  
 23  11  18  1   
 24  11  33  1   
 25  11  34  1   
 26  12  18  2   
 27  12  35  1   
 28  13  19  ar  
 29  13  20  ar  
 30  14  21  ar  
 31  14  36  1   
 32  15  19  ar  
 33  15  37  1   
 34  17  22  1   
 35  17  38  1   
 36  18  39  1   
 37  19  40  1   
 38  20  23  ar  
 39  20  41  1   
 40  21  23  ar  
 41  21  42  1   
 42  22  24  1   
 43  22  43  1   
 44  22  44  1   
 45  23  45  1   
 46  24  25  1   
 47  24  46  1   
 48  24  47  1   
 49  25  26  1   
 50  25  48  1   
 51  25  49  1   
 52  26  50  1   
@<TRIPOS>SUBSTRUCTURE
  1 ****   4 GROUP 4 **** **** 0

# MOE 2024.06 (io_trps.svl 2023.06)
