@<TRIPOS>MOLECULE
NONAME
41 41 1 0 0 
SMALL
USER_CHARGES


@<TRIPOS>ATOM
  1 BR      -0.1200    -0.9210    -0.7200 Br    1 <1>  -0.1110 
  2 C        1.7460    -1.3020    -0.4140 C.ar  1 <1>   0.1110 
  3 C        2.4390    -2.1240    -1.2910 C.ar  1 <1>  -0.1440 
  4 C        2.3410    -0.7290     0.6950 C.ar  1 <1>  -0.1500 
  5 C        3.7780    -2.3660    -1.0250 C.ar  1 <1>  -0.1500 
  6 C        1.7670    -2.7450    -2.5050 C.3   1 <1>  -0.0960 
  7 C        3.6790    -0.9810     0.9450 C.ar  1 <1>  -0.1500 
  8 C        4.4020    -1.8040     0.0810 C.ar  1 <1>   0.0830 
  9 O        5.7150    -2.1030     0.2520 O.3   1 <1>  -0.3630 
 10 C        6.4540    -1.5680     1.3430 C.3   1 <1>   0.1810 
 11 C        7.9030    -2.0430     1.3130 C.2   1 <1>   0.5690 
 12 O        8.6930    -1.5680     2.0950 O.2   1 <1>  -0.5700 
 13 N        8.2890    -2.9850     0.4090 N.am  1 <1>  -0.7300 
 14 C        9.6300    -3.5920     0.3530 C.3   1 <1>   0.1400 
 15 C       10.5800    -2.6270    -0.3570 C.3   1 <1>  -0.1600 
 16 C       12.0290    -3.0620    -0.1590 C.3   1 <1>   0.3430 
 17 N       12.9580    -1.9840    -0.6090 N.4   1 <1>  -0.9590 
 18 C       12.9490    -1.8000    -2.0950 C.3   1 <1>   0.2630 
 19 C       14.3460    -2.2510    -0.1220 C.3   1 <1>   0.2630 
 20 H        1.7640    -0.0980     1.3470 H     1 <1>   0.1500 
 21 H        4.3550    -2.9970    -1.6770 H     1 <1>   0.1500 
 22 H        1.3900    -1.9730    -3.1520 H     1 <1>   0.0800 
 23 H        0.9480    -3.3690    -2.1940 H     1 <1>   0.0800 
 24 H        2.4600    -3.3480    -3.0630 H     1 <1>   0.0800 
 25 H        4.1290    -0.5310     1.8090 H     1 <1>   0.1500 
 26 H        5.9940    -1.8920     2.2580 H     1 <1>   0.0800 
 27 H        6.4310    -0.4960     1.2770 H     1 <1>   0.0800 
 28 H        7.5710    -3.3410    -0.2320 H     1 <1>   0.3700 
 29 H        9.5790    -4.5380    -0.1610 H     1 <1>   0.0800 
 30 H        9.9640    -3.7690     1.3630 H     1 <1>   0.0800 
 31 H       10.4530    -1.6470     0.0690 H     1 <1>   0.0800 
 32 H       10.3290    -2.5980    -1.4020 H     1 <1>   0.0800 
 33 H       12.2220    -3.9750    -0.6980 H     1 <1>   0.0800 
 34 H       12.1890    -3.2500     0.8920 H     1 <1>   0.0800 
 35 H       12.6330    -1.1060    -0.1720 H     1 <1>   0.4500 
 36 H       13.2560    -2.7080    -2.5880 H     1 <1>   0.0800 
 37 H       13.6250    -1.0080    -2.3770 H     1 <1>   0.0800 
 38 H       11.9600    -1.5390    -2.4360 H     1 <1>   0.0800 
 39 H       14.7230    -3.1680    -0.5450 H     1 <1>   0.0800 
 40 H       14.3560    -2.3370     0.9530 H     1 <1>   0.0800 
 41 H       15.0040    -1.4450    -0.4060 H     1 <1>   0.0800 
@<TRIPOS>BOND
  1   1   2  1   
  2   2   3  ar  
  3   2   4  ar  
  4   3   5  ar  
  5   3   6  1   
  6   4   7  ar  
  7   4  20  1   
  8   5   8  ar  
  9   5  21  1   
 10   6  22  1   
 11   6  23  1   
 12   6  24  1   
 13   7   8  ar  
 14   7  25  1   
 15   8   9  1   
 16   9  10  1   
 17  10  11  1   
 18  10  26  1   
 19  10  27  1   
 20  11  12  2   
 21  11  13  am  
 22  13  14  1   
 23  13  28  1   
 24  14  15  1   
 25  14  29  1   
 26  14  30  1   
 27  15  16  1   
 28  15  31  1   
 29  15  32  1   
 30  16  17  1   
 31  16  33  1   
 32  16  34  1   
 33  17  18  1   
 34  17  19  1   
 35  17  35  1   
 36  18  36  1   
 37  18  37  1   
 38  18  38  1   
 39  19  39  1   
 40  19  40  1   
 41  19  41  1   
@<TRIPOS>SUBSTRUCTURE
  1 ****   9 GROUP 4 **** **** 0

# MOE 2024.06 (io_trps.svl 2023.06)
