@<TRIPOS>MOLECULE
NONAME
46 49 1 0 0 
SMALL
USER_CHARGES


@<TRIPOS>ATOM
  1 O        2.9890    -3.9730     1.1830 O.2   1 <1>  -0.5700 
  2 C        2.2760    -3.1700     0.6070 C.2   1 <1>   0.5440 
  3 N        1.2830    -3.6360    -0.2320 N.am  1 <1>  -0.5090 
  4 C        2.5060    -1.7540     0.8300 C.ar  1 <1>   0.0860 
  5 C        0.2700    -2.7620    -0.8800 C.3   1 <1>   0.0490 
  6 C        1.2710    -5.0590    -0.6760 C.3   1 <1>   0.2840 
  7 C        2.7270    -0.8650    -0.2220 C.ar  1 <1>  -0.1500 
  8 C        2.5190    -1.2340     2.1240 C.ar  1 <1>  -0.1500 
  9 C       -0.5260    -1.8100    -0.0550 C.3   1 <1>  -0.1950 
 10 C       -1.1870    -3.0180    -0.6540 C.3   1 <1>  -0.1950 
 11 C        0.2010    -5.8760     0.0410 C.ar  1 <1>  -0.1430 
 12 C        2.9330     0.4840     0.0040 C.ar  1 <1>  -0.1500 
 13 C        2.7240     0.1140     2.3590 C.ar  1 <1>  -0.1500 
 14 C       -1.5090    -0.6520    -0.2000 C.3   1 <1>  -0.0650 
 15 C       -2.1930    -3.4950     0.3920 C.3   1 <1>  -0.0650 
 16 C        0.2200    -5.9970     1.4230 C.ar  1 <1>  -0.1500 
 17 C       -0.7960    -6.5160    -0.6810 C.ar  1 <1>  -0.1500 
 18 C        2.9300     0.9760     1.2970 C.ar  1 <1>  -0.1500 
 19 C       -2.7060    -0.9730     0.7240 C.3   1 <1>  -0.1600 
 20 C       -3.2810    -2.4010     0.5150 C.3   1 <1>  -0.1600 
 21 C       -0.7460    -6.7430     2.0750 C.ar  1 <1>  -0.1500 
 22 C       -1.7620    -7.2640    -0.0300 C.ar  1 <1>  -0.1500 
 23 C       -1.7380    -7.3770     1.3490 C.ar  1 <1>  -0.1500 
 24 H        0.5820    -2.4400    -1.8590 H     1 <1>   0.1000 
 25 H        2.2300    -5.5110    -0.4930 H     1 <1>   0.0800 
 26 H        1.1020    -5.0880    -1.7370 H     1 <1>   0.0800 
 27 H        2.7370    -1.2410    -1.2290 H     1 <1>   0.1500 
 28 H        2.3650    -1.9050     2.9510 H     1 <1>   0.1500 
 29 H       -0.2190    -1.8450     0.9760 H     1 <1>   0.1000 
 30 H       -1.7110    -2.9350    -1.5910 H     1 <1>   0.1000 
 31 H        3.0980     1.1520    -0.8240 H     1 <1>   0.1500 
 32 H        2.7270     0.4910     3.3670 H     1 <1>   0.1500 
 33 H       -1.8380    -0.5560    -1.2200 H     1 <1>   0.0800 
 34 H       -1.0410     0.2700     0.0970 H     1 <1>   0.0800 
 35 H       -1.7070    -3.6560     1.3390 H     1 <1>   0.0800 
 36 H       -2.6370    -4.4250     0.0840 H     1 <1>   0.0800 
 37 H        0.9920    -5.5080     1.9920 H     1 <1>   0.1500 
 38 H       -0.8270    -6.4330    -1.7520 H     1 <1>   0.1500 
 39 H        3.0900     2.0250     1.4770 H     1 <1>   0.1500 
 40 H       -3.4840    -0.2440     0.5770 H     1 <1>   0.0800 
 41 H       -2.3760    -0.8900     1.7450 H     1 <1>   0.0800 
 42 H       -3.9460    -2.6450     1.3240 H     1 <1>   0.0800 
 43 H       -3.8620    -2.4010    -0.3910 H     1 <1>   0.0800 
 44 H       -0.7220    -6.8280     3.1470 H     1 <1>   0.1500 
 45 H       -2.5330    -7.7580    -0.5960 H     1 <1>   0.1500 
 46 H       -2.4890    -7.9570     1.8560 H     1 <1>   0.1500 
@<TRIPOS>BOND
  1   1   2  2   
  2   2   3  am  
  3   2   4  1   
  4   3   5  1   
  5   3   6  1   
  6   4   7  ar  
  7   4   8  ar  
  8   5   9  1   
  9   5  10  1   
 10   5  24  1   
 11   6  11  1   
 12   6  25  1   
 13   6  26  1   
 14   7  12  ar  
 15   7  27  1   
 16   8  13  ar  
 17   8  28  1   
 18   9  10  1   
 19   9  14  1   
 20   9  29  1   
 21  10  15  1   
 22  10  30  1   
 23  11  16  ar  
 24  11  17  ar  
 25  12  18  ar  
 26  12  31  1   
 27  13  18  ar  
 28  13  32  1   
 29  14  19  1   
 30  14  33  1   
 31  14  34  1   
 32  15  20  1   
 33  15  35  1   
 34  15  36  1   
 35  16  21  ar  
 36  16  37  1   
 37  17  22  ar  
 38  17  38  1   
 39  18  39  1   
 40  19  20  1   
 41  19  40  1   
 42  19  41  1   
 43  20  42  1   
 44  20  43  1   
 45  21  23  ar  
 46  21  44  1   
 47  22  23  ar  
 48  22  45  1   
 49  23  46  1   
@<TRIPOS>SUBSTRUCTURE
  1 ****   3 GROUP 4 **** **** 0

# MOE 2024.06 (io_trps.svl 2023.06)
