@<TRIPOS>MOLECULE
NONAME
42 42 1 0 0 
SMALL
USER_CHARGES


@<TRIPOS>ATOM
  1 BR      -2.1230     1.2340     2.1270 Br    1 <1>  -0.1110 
  2 C       -1.0100     2.4460     1.1200 C.ar  1 <1>   0.1110 
  3 C       -1.3710     2.7900    -0.1740 C.ar  1 <1>  -0.1440 
  4 C        0.1240     2.9400     1.7340 C.ar  1 <1>  -0.1500 
  5 C       -0.5510     3.6710    -0.8660 C.ar  1 <1>  -0.1500 
  6 C       -2.6220     2.2280    -0.8180 C.3   1 <1>   0.4870 
  7 C        0.9370     3.8110     1.0310 C.ar  1 <1>   0.0830 
  8 C        0.5850     4.1990    -0.2710 C.ar  1 <1>   0.0830 
  9 N       -3.8180     2.8730    -0.2030 N.4   1 <1>  -0.9590 
 10 O        2.0590     4.2450     1.6480 O.3   1 <1>  -0.3620 
 11 O        1.2930     5.0840    -1.0180 O.3   1 <1>  -0.3620 
 12 C       -5.0860     2.1630    -0.5770 C.3   1 <1>   0.3430 
 13 C       -3.8750     4.3250    -0.5410 C.3   1 <1>   0.3430 
 14 C        3.2670     3.6700     1.2000 C.3   1 <1>   0.0400 
 15 C        1.6590     6.3200    -0.4370 C.3   1 <1>   0.0400 
 16 C       -5.2230     0.7910     0.1000 C.3   1 <1>   0.1200 
 17 C       -4.7700     5.0660     0.4540 C.3   1 <1>  -0.1600 
 18 O       -6.3920     0.2160    -0.3590 O.3   1 <1>  -0.6800 
 19 C       -4.7430     6.5750     0.1900 C.3   1 <1>  -0.2400 
 20 H        0.3820     2.6530     2.7380 H     1 <1>   0.1500 
 21 H       -0.7740     3.9700    -1.8760 H     1 <1>   0.1500 
 22 H       -2.6460     1.1620    -0.6580 H     1 <1>   0.0800 
 23 H       -2.6050     2.4090    -1.8810 H     1 <1>   0.0800 
 24 H       -3.6890     2.8100     0.8170 H     1 <1>   0.4500 
 25 H       -5.1280     2.0320    -1.6460 H     1 <1>   0.0800 
 26 H       -5.9340     2.7570    -0.2810 H     1 <1>   0.0800 
 27 H       -4.2430     4.4630    -1.5450 H     1 <1>   0.0800 
 28 H       -2.8870     4.7540    -0.4850 H     1 <1>   0.0800 
 29 H        4.0750     4.1050     1.7600 H     1 <1>   0.0800 
 30 H        3.3920     3.8770     0.1520 H     1 <1>   0.0800 
 31 H        3.2310     2.6080     1.3700 H     1 <1>   0.0800 
 32 H        1.8670     7.0150    -1.2310 H     1 <1>   0.0800 
 33 H        2.5410     6.1850     0.1610 H     1 <1>   0.0800 
 34 H        0.8480     6.6830     0.1680 H     1 <1>   0.0800 
 35 H       -5.2980     0.8930     1.1690 H     1 <1>   0.0800 
 36 H       -4.4110     0.1330    -0.1580 H     1 <1>   0.0800 
 37 H       -4.4230     4.8900     1.4580 H     1 <1>   0.0800 
 38 H       -5.7880     4.7270     0.3740 H     1 <1>   0.0800 
 39 H       -6.5670    -0.6520     0.0660 H     1 <1>   0.4000 
 40 H       -3.7440     6.9650     0.2900 H     1 <1>   0.0800 
 41 H       -5.3730     7.0840     0.9000 H     1 <1>   0.0800 
 42 H       -5.1050     6.7990    -0.7990 H     1 <1>   0.0800 
@<TRIPOS>BOND
  1   1   2  1   
  2   2   3  ar  
  3   2   4  ar  
  4   3   5  ar  
  5   3   6  1   
  6   4   7  ar  
  7   4  20  1   
  8   5   8  ar  
  9   5  21  1   
 10   6   9  1   
 11   6  22  1   
 12   6  23  1   
 13   7   8  ar  
 14   7  10  1   
 15   8  11  1   
 16   9  12  1   
 17   9  13  1   
 18   9  24  1   
 19  10  14  1   
 20  11  15  1   
 21  12  16  1   
 22  12  25  1   
 23  12  26  1   
 24  13  17  1   
 25  13  27  1   
 26  13  28  1   
 27  14  29  1   
 28  14  30  1   
 29  14  31  1   
 30  15  32  1   
 31  15  33  1   
 32  15  34  1   
 33  16  18  1   
 34  16  35  1   
 35  16  36  1   
 36  17  19  1   
 37  17  37  1   
 38  17  38  1   
 39  18  39  1   
 40  19  40  1   
 41  19  41  1   
 42  19  42  1   
@<TRIPOS>SUBSTRUCTURE
  1 ****   3 GROUP 4 **** **** 0

# MOE 2024.06 (io_trps.svl 2023.06)
