@<TRIPOS>MOLECULE
NONAME
50 52 1 0 0 
SMALL
USER_CHARGES


@<TRIPOS>ATOM
  1 CL       8.4640     1.2370    -4.2870 Cl    1 <1>  -0.1770 
  2 C        7.6980     0.5250    -2.8910 C.ar  1 <1>   0.1770 
  3 C        7.1240    -0.7280    -2.9970 C.ar  1 <1>  -0.1500 
  4 C        7.6780     1.2240    -1.6990 C.ar  1 <1>  -0.1500 
  5 C        6.5200    -1.2930    -1.8870 C.ar  1 <1>  -0.1500 
  6 C        7.0730     0.6540    -0.5910 C.ar  1 <1>  -0.1500 
  7 C        6.4920    -0.6050    -0.6810 C.ar  1 <1>  -0.1430 
  8 C        5.8540    -1.2240     0.5500 C.3   1 <1>   0.2840 
  9 N        6.9260    -1.8740     1.3150 N.am  1 <1>  -0.7300 
 10 C        7.4980    -1.3750     2.4360 C.2   1 <1>   0.5690 
 11 O        7.0040    -0.4720     3.0690 O.2   1 <1>  -0.5700 
 12 C        8.8460    -1.9650     2.8620 C.3   1 <1>   0.1710 
 13 N        9.6590    -2.4820     1.7200 N.3   1 <1>  -0.8100 
 14 C       10.8250    -3.2530     2.2070 C.3   1 <1>   0.1100 
 15 C       10.1390    -1.3670     0.8620 C.3   1 <1>   0.1100 
 16 C       11.6840    -3.7990     1.0480 C.3   1 <1>   0.2090 
 17 C       10.9800    -1.8670    -0.3270 C.3   1 <1>   0.2090 
 18 N       12.1250    -2.7000     0.1410 N.pl3 1 <1>  -0.8380 
 19 C       13.0660    -3.0440    -0.8230 C.ar  1 <1>   0.1000 
 20 C       14.3560    -2.5430    -0.7330 C.ar  1 <1>  -0.1500 
 21 C       12.7470    -3.8840    -1.8840 C.ar  1 <1>  -0.1500 
 22 C       15.3170    -2.8650    -1.6750 C.ar  1 <1>   0.0830 
 23 C       13.6980    -4.2130    -2.8330 C.ar  1 <1>  -0.1500 
 24 O       16.5520    -2.3260    -1.5020 O.3   1 <1>  -0.3630 
 25 C       14.9830    -3.7070    -2.7340 C.ar  1 <1>  -0.1500 
 26 C       17.5990    -2.5910    -2.4080 C.3   1 <1>   0.0400 
 27 H        7.1520    -1.2490    -3.9370 H     1 <1>   0.1500 
 28 H        8.1300     2.1980    -1.6410 H     1 <1>   0.1500 
 29 H        6.0750    -2.2710    -1.9650 H     1 <1>   0.1500 
 30 H        7.0570     1.1870     0.3460 H     1 <1>   0.1500 
 31 H        5.1150    -1.9540     0.2710 H     1 <1>   0.0800 
 32 H        5.3770    -0.4650     1.1480 H     1 <1>   0.0800 
 33 H        7.5140    -2.5280     0.7890 H     1 <1>   0.3700 
 34 H        8.6390    -2.7700     3.5430 H     1 <1>   0.0800 
 35 H        9.4000    -1.2130     3.3950 H     1 <1>   0.0800 
 36 H       10.4830    -4.0830     2.8010 H     1 <1>   0.0800 
 37 H       11.4450    -2.6290     2.8270 H     1 <1>   0.0800 
 38 H       10.7410    -0.6900     1.4430 H     1 <1>   0.0800 
 39 H        9.3020    -0.8150     0.4730 H     1 <1>   0.0800 
 40 H       11.1110    -4.5190     0.4910 H     1 <1>   0.0800 
 41 H       12.5510    -4.2950     1.4470 H     1 <1>   0.0800 
 42 H       11.3580    -1.0240    -0.8790 H     1 <1>   0.0800 
 43 H       10.3540    -2.4450    -0.9840 H     1 <1>   0.0800 
 44 H       14.6060    -1.8940     0.0840 H     1 <1>   0.1500 
 45 H       11.7510    -4.2760    -1.9610 H     1 <1>   0.1500 
 46 H       13.4370    -4.8630    -3.6500 H     1 <1>   0.1500 
 47 H       15.7030    -3.9770    -3.4820 H     1 <1>   0.1500 
 48 H       18.4730    -2.0620    -2.0720 H     1 <1>   0.0800 
 49 H       17.3120    -2.2420    -3.3840 H     1 <1>   0.0800 
 50 H       17.7920    -3.6490    -2.4170 H     1 <1>   0.0800 
@<TRIPOS>BOND
  1   1   2  1   
  2   2   3  ar  
  3   2   4  ar  
  4   3   5  ar  
  5   3  27  1   
  6   4   6  ar  
  7   4  28  1   
  8   5   7  ar  
  9   5  29  1   
 10   6   7  ar  
 11   6  30  1   
 12   7   8  1   
 13   8   9  1   
 14   8  31  1   
 15   8  32  1   
 16   9  10  am  
 17   9  33  1   
 18  10  11  2   
 19  10  12  1   
 20  12  13  1   
 21  12  34  1   
 22  12  35  1   
 23  13  14  1   
 24  13  15  1   
 25  14  16  1   
 26  14  36  1   
 27  14  37  1   
 28  15  17  1   
 29  15  38  1   
 30  15  39  1   
 31  16  18  1   
 32  16  40  1   
 33  16  41  1   
 34  17  18  1   
 35  17  42  1   
 36  17  43  1   
 37  18  19  1   
 38  19  20  ar  
 39  19  21  ar  
 40  20  22  ar  
 41  20  44  1   
 42  21  23  ar  
 43  21  45  1   
 44  22  24  1   
 45  22  25  ar  
 46  23  25  ar  
 47  23  46  1   
 48  24  26  1   
 49  25  47  1   
 50  26  48  1   
 51  26  49  1   
 52  26  50  1   
@<TRIPOS>SUBSTRUCTURE
  1 ****  17 GROUP 4 **** **** 0

# MOE 2024.06 (io_trps.svl 2023.06)
