@<TRIPOS>MOLECULE
NONAME
43 45 1 0 0 
SMALL
USER_CHARGES


@<TRIPOS>ATOM
  1 F       -1.6320     0.8270     0.9590 F     1 <1>  -0.1900 
  2 C       -0.9990     1.9040     0.5770 C.ar  1 <1>   0.1900 
  3 C       -1.5310     2.6510    -0.4580 C.ar  1 <1>  -0.1440 
  4 C        0.1690     2.2580     1.2320 C.ar  1 <1>  -0.1500 
  5 C       -0.8410     3.7940    -0.8140 C.ar  1 <1>   0.1900 
  6 C       -2.8000     2.2330    -1.1680 C.3   1 <1>   0.4860 
  7 C        0.8370     3.4100     0.8430 C.ar  1 <1>  -0.1500 
  8 F       -1.3200     4.5410    -1.7720 F     1 <1>  -0.1900 
  9 C        0.3300     4.1880    -0.1880 C.ar  1 <1>  -0.1500 
 10 N       -3.9610     2.4430    -0.2630 N.4   1 <1>  -0.9590 
 11 C       -5.2150     1.8140    -0.8140 C.3   1 <1>   0.3430 
 12 C       -4.1830     3.9080     0.0380 C.3   1 <1>   0.3430 
 13 C       -6.4300     1.9940     0.1220 C.3   1 <1>   0.2090 
 14 C       -5.3820     4.1500     0.9800 C.3   1 <1>   0.2090 
 15 N       -6.6030     3.4230     0.5160 N.pl3 1 <1>  -0.8380 
 16 C       -7.7050     4.1220     0.0290 C.ar  1 <1>   0.1000 
 17 C       -8.9790     3.7790     0.4620 C.ar  1 <1>  -0.1500 
 18 C       -7.5720     5.1560    -0.8910 C.ar  1 <1>  -0.1500 
 19 C      -10.1120     4.4370    -0.0020 C.ar  1 <1>  -0.1430 
 20 C       -8.6850     5.8250    -1.3610 C.ar  1 <1>  -0.1500 
 21 C       -9.9480     5.4700    -0.9210 C.ar  1 <1>  -0.1500 
 22 C      -11.5080     4.0370     0.5010 C.3   1 <1>   1.1630 
 23 F      -11.8270     4.6570     1.6290 F     1 <1>  -0.3400 
 24 F      -12.4730     4.3200    -0.3670 F     1 <1>  -0.3400 
 25 F      -11.6060     2.7350     0.7490 F     1 <1>  -0.3400 
 26 H        0.5500     1.6440     2.0310 H     1 <1>   0.1500 
 27 H       -2.7240     1.1910    -1.4330 H     1 <1>   0.0800 
 28 H       -2.9240     2.8040    -2.0740 H     1 <1>   0.0800 
 29 H        1.7490     3.6990     1.3410 H     1 <1>   0.1500 
 30 H        0.8370     5.0850    -0.5010 H     1 <1>   0.1500 
 31 H       -3.7370     1.9730     0.6260 H     1 <1>   0.4500 
 32 H       -5.0580     0.7610    -0.9800 H     1 <1>   0.0800 
 33 H       -5.4580     2.2650    -1.7620 H     1 <1>   0.0800 
 34 H       -4.3670     4.4380    -0.8820 H     1 <1>   0.0800 
 35 H       -3.2990     4.3310     0.4870 H     1 <1>   0.0800 
 36 H       -6.3010     1.3960     1.0070 H     1 <1>   0.0800 
 37 H       -7.3170     1.6460    -0.3810 H     1 <1>   0.0800 
 38 H       -5.5870     5.2060     1.0390 H     1 <1>   0.0800 
 39 H       -5.1340     3.8160     1.9720 H     1 <1>   0.0800 
 40 H       -9.0710     2.9860     1.1840 H     1 <1>   0.1500 
 41 H       -6.6010     5.4400    -1.2450 H     1 <1>   0.1500 
 42 H       -8.5740     6.6260    -2.0720 H     1 <1>   0.1500 
 43 H      -10.8030     6.0070    -1.2990 H     1 <1>   0.1500 
@<TRIPOS>BOND
  1   1   2  1   
  2   2   3  ar  
  3   2   4  ar  
  4   3   5  ar  
  5   3   6  1   
  6   4   7  ar  
  7   4  26  1   
  8   5   8  1   
  9   5   9  ar  
 10   6  10  1   
 11   6  27  1   
 12   6  28  1   
 13   7   9  ar  
 14   7  29  1   
 15   9  30  1   
 16  10  11  1   
 17  10  12  1   
 18  10  31  1   
 19  11  13  1   
 20  11  32  1   
 21  11  33  1   
 22  12  14  1   
 23  12  34  1   
 24  12  35  1   
 25  13  15  1   
 26  13  36  1   
 27  13  37  1   
 28  14  15  1   
 29  14  38  1   
 30  14  39  1   
 31  15  16  1   
 32  16  17  ar  
 33  16  18  ar  
 34  17  19  ar  
 35  17  40  1   
 36  18  20  ar  
 37  18  41  1   
 38  19  21  ar  
 39  19  22  1   
 40  20  21  ar  
 41  20  42  1   
 42  21  43  1   
 43  22  23  1   
 44  22  24  1   
 45  22  25  1   
@<TRIPOS>SUBSTRUCTURE
  1 ****  15 GROUP 4 **** **** 0

# MOE 2024.06 (io_trps.svl 2023.06)
