@<TRIPOS>MOLECULE
NONAME
33 33 1 0 0 
SMALL
USER_CHARGES


@<TRIPOS>ATOM
  1 O       -2.6430     0.6880    -1.7210 O.2   1 <1>  -0.5700 
  2 C       -2.8100     1.2840    -0.6760 C.2   1 <1>   0.5440 
  3 N       -3.4420     0.6370     0.3490 N.am  1 <1>  -0.7300 
  4 C       -2.3390     2.6480    -0.5120 C.ar  1 <1>   0.0860 
  5 C       -3.8530    -0.7820     0.3310 C.3   1 <1>   0.2200 
  6 C       -2.9950     3.5600     0.3170 C.ar  1 <1>  -0.1500 
  7 C       -1.2010     3.0920    -1.1860 C.ar  1 <1>  -0.1500 
  8 C       -5.1120    -0.9540    -0.5380 C.3   1 <1>   0.1200 
  9 C       -4.0670    -1.2090     1.7840 C.3   1 <1>  -0.2400 
 10 C       -2.5250     4.8580     0.4790 C.ar  1 <1>   0.0830 
 11 C       -0.7250     4.3810    -1.0320 C.ar  1 <1>  -0.1500 
 12 O       -5.5890    -2.2650    -0.4470 O.3   1 <1>  -0.5600 
 13 O       -3.1190     5.7840     1.2710 O.3   1 <1>  -0.3630 
 14 C       -1.3860     5.2620    -0.1970 C.ar  1 <1>  -0.1500 
 15 C       -6.6710    -2.5250    -1.2800 C.3   1 <1>   0.0400 
 16 C       -4.3340     5.5200     1.9370 C.3   1 <1>   0.0400 
 17 H       -3.4570     1.0690     1.2720 H     1 <1>   0.3700 
 18 H       -3.0580    -1.3670    -0.1040 H     1 <1>   0.0800 
 19 H       -3.8830     3.2380     0.8250 H     1 <1>   0.1500 
 20 H       -0.6850     2.4090    -1.8400 H     1 <1>   0.1500 
 21 H       -4.8690    -0.7480    -1.5670 H     1 <1>   0.0800 
 22 H       -5.8870    -0.2890    -0.2020 H     1 <1>   0.0800 
 23 H       -4.8780    -0.6590     2.2250 H     1 <1>   0.0800 
 24 H       -3.1690    -1.0600     2.3550 H     1 <1>   0.0800 
 25 H       -4.3130    -2.2550     1.8190 H     1 <1>   0.0800 
 26 H        0.1570     4.6990    -1.5610 H     1 <1>   0.1500 
 27 H       -1.0260     6.2670    -0.0670 H     1 <1>   0.1500 
 28 H       -6.3740    -2.3770    -2.3040 H     1 <1>   0.0800 
 29 H       -7.4850    -1.8700    -1.0220 H     1 <1>   0.0800 
 30 H       -6.9680    -3.5490    -1.1330 H     1 <1>   0.0800 
 31 H       -4.6230     6.4090     2.4680 H     1 <1>   0.0800 
 32 H       -4.1830     4.7140     2.6330 H     1 <1>   0.0800 
 33 H       -5.0850     5.2700     1.2090 H     1 <1>   0.0800 
@<TRIPOS>BOND
  1   1   2  2   
  2   2   3  am  
  3   2   4  1   
  4   3   5  1   
  5   3  17  1   
  6   4   6  ar  
  7   4   7  ar  
  8   5   8  1   
  9   5   9  1   
 10   5  18  1   
 11   6  10  ar  
 12   6  19  1   
 13   7  11  ar  
 14   7  20  1   
 15   8  12  1   
 16   8  21  1   
 17   8  22  1   
 18   9  23  1   
 19   9  24  1   
 20   9  25  1   
 21  10  13  1   
 22  10  14  ar  
 23  11  14  ar  
 24  11  26  1   
 25  12  15  1   
 26  13  16  1   
 27  14  27  1   
 28  15  28  1   
 29  15  29  1   
 30  15  30  1   
 31  16  31  1   
 32  16  32  1   
 33  16  33  1   
@<TRIPOS>SUBSTRUCTURE
  1 ****   2 GROUP 4 **** **** 0

# MOE 2024.06 (io_trps.svl 2023.06)
