@<TRIPOS>MOLECULE
NONAME
46 48 1 0 0 
SMALL
USER_CHARGES


@<TRIPOS>ATOM
  1 BR      -2.7220    -3.0760     0.0340 Br    1 <1>  -0.1110 
  2 C       -2.9180    -1.2240    -0.4650 C.ar  1 <1>   0.1110 
  3 C       -4.1840    -0.7380    -0.7350 C.ar  1 <1>  -0.1500 
  4 C       -1.7880    -0.4320    -0.5420 C.ar  1 <1>  -0.1500 
  5 C       -4.3160     0.5930    -1.0910 C.ar  1 <1>  -0.1500 
  6 C       -1.9370     0.8970    -0.8990 C.ar  1 <1>  -0.1500 
  7 C       -3.1990     1.4190    -1.1670 C.ar  1 <1>   0.1000 
  8 N       -3.3420     2.7540    -1.5030 N.pl3 1 <1>  -0.8690 
  9 C       -3.8340     3.6700    -0.4130 C.3   1 <1>   0.4330 
 10 P       -5.4980     4.4120    -0.5520 P.3   1 <1>   1.2420 
 11 C       -2.7030     4.6810    -0.2370 C.ar  1 <1>  -0.1440 
 12 O       -5.7570     5.3470    -1.6490 O.2   1 <1>  -0.7000 
 13 O       -6.5530     3.1930    -0.5280 O.3   1 <1>  -0.5510 
 14 O       -5.7880     5.0830     0.8820 O.3   1 <1>  -0.5510 
 15 C       -2.5080     5.6940    -1.1670 C.ar  1 <1>  -0.1500 
 16 C       -1.8420     4.5890     0.8490 C.ar  1 <1>  -0.1500 
 17 C       -7.0840     2.7600     0.6760 C.3   1 <1>   0.1200 
 18 C       -7.1120     5.2820     1.2310 C.3   1 <1>   0.1200 
 19 C       -1.4740     6.6000    -1.0080 C.ar  1 <1>  -0.1500 
 20 C       -0.8070     5.4940     1.0090 C.ar  1 <1>  -0.1500 
 21 C       -7.8190     3.9220     1.3640 C.3   1 <1>  -0.1600 
 22 C       -0.6180     6.5100     0.0760 C.ar  1 <1>   0.0830 
 23 O        0.3680     7.4370     0.1560 O.3   1 <1>  -0.3630 
 24 C        1.2620     7.4670     1.2430 C.3   1 <1>   0.1200 
 25 C        2.2160     8.6400     1.0360 C.3   1 <1>  -0.2400 
 26 H       -5.0390    -1.3860    -0.6730 H     1 <1>   0.1500 
 27 H       -0.8200    -0.8470    -0.3300 H     1 <1>   0.1500 
 28 H       -5.2840     0.9980    -1.3230 H     1 <1>   0.1500 
 29 H       -1.0750     1.5360    -0.9670 H     1 <1>   0.1500 
 30 H       -2.4880     3.1710    -1.8910 H     1 <1>   0.4000 
 31 H       -3.8490     3.0810     0.4860 H     1 <1>   0.0800 
 32 H       -3.1580     5.7880    -2.0220 H     1 <1>   0.1500 
 33 H       -1.9680     3.8080     1.5790 H     1 <1>   0.1500 
 34 H       -6.2740     2.4040     1.2910 H     1 <1>   0.0800 
 35 H       -7.7570     1.9440     0.4750 H     1 <1>   0.0800 
 36 H       -7.5710     5.8790     0.4590 H     1 <1>   0.0800 
 37 H       -7.1390     5.8260     2.1590 H     1 <1>   0.0800 
 38 H       -1.3260     7.3850    -1.7270 H     1 <1>   0.1500 
 39 H       -0.1620     5.3940     1.8610 H     1 <1>   0.1500 
 40 H       -7.9400     3.6860     2.4060 H     1 <1>   0.0800 
 41 H       -8.8100     4.0070     0.9530 H     1 <1>   0.0800 
 42 H        1.8030     6.5370     1.2660 H     1 <1>   0.0800 
 43 H        0.6940     7.5940     2.1480 H     1 <1>   0.0800 
 44 H        2.7660     8.5120     0.1210 H     1 <1>   0.0800 
 45 H        2.9140     8.6920     1.8520 H     1 <1>   0.0800 
 46 H        1.6630     9.5620     0.9970 H     1 <1>   0.0800 
@<TRIPOS>BOND
  1   1   2  1   
  2   2   3  ar  
  3   2   4  ar  
  4   3   5  ar  
  5   3  26  1   
  6   4   6  ar  
  7   4  27  1   
  8   5   7  ar  
  9   5  28  1   
 10   6   7  ar  
 11   6  29  1   
 12   7   8  1   
 13   8   9  1   
 14   8  30  1   
 15   9  10  1   
 16   9  11  1   
 17   9  31  1   
 18  10  12  2   
 19  10  13  1   
 20  10  14  1   
 21  11  15  ar  
 22  11  16  ar  
 23  13  17  1   
 24  14  18  1   
 25  15  19  ar  
 26  15  32  1   
 27  16  20  ar  
 28  16  33  1   
 29  17  21  1   
 30  17  34  1   
 31  17  35  1   
 32  18  21  1   
 33  18  36  1   
 34  18  37  1   
 35  19  22  ar  
 36  19  38  1   
 37  20  22  ar  
 38  20  39  1   
 39  21  40  1   
 40  21  41  1   
 41  22  23  1   
 42  23  24  1   
 43  24  25  1   
 44  24  42  1   
 45  24  43  1   
 46  25  44  1   
 47  25  45  1   
 48  25  46  1   
@<TRIPOS>SUBSTRUCTURE
  1 ****   9 GROUP 4 **** **** 0

# MOE 2024.06 (io_trps.svl 2023.06)
