@<TRIPOS>MOLECULE
NONAME
28 29 1 0 0 
SMALL
USER_CHARGES


@<TRIPOS>ATOM
  1 BR       0.0820    -0.5190     0.0070 Br    1 <1>  -0.1110 
  2 C       -1.8180    -0.2020     0.0050 C.ar  1 <1>   0.1110 
  3 C       -2.6730    -1.2810    -0.0980 C.ar  1 <1>  -0.1500 
  4 C       -2.2800     1.0970     0.1080 C.ar  1 <1>  -0.1500 
  5 C       -4.0300    -1.0260    -0.0980 C.ar  1 <1>   0.1770 
  6 C       -3.6470     1.3250     0.1060 C.ar  1 <1>  -0.1500 
  7 CL      -5.1300    -2.3860    -0.2210 Cl    1 <1>  -0.1770 
  8 C       -4.5510     0.2670    -0.0020 C.ar  1 <1>   0.1170 
  9 N       -5.9480     0.4400    -0.0080 N.am  1 <1>  -0.5470 
 10 C       -6.7580     1.5290    -0.1540 C.2   1 <1>   0.6900 
 11 O       -6.3030     2.6430    -0.3270 O.2   1 <1>  -0.5700 
 12 N       -8.1130     1.3410    -0.1100 N.am  1 <1>  -0.6600 
 13 C       -8.8210     0.0620     0.1140 C.3   1 <1>   0.1400 
 14 C       -9.0650     2.4670    -0.2170 C.3   1 <1>   0.1400 
 15 C      -10.2960     0.3940    -0.0870 C.3   1 <1>  -0.1600 
 16 C      -10.4040     1.8850     0.2220 C.3   1 <1>  -0.1600 
 17 H       -2.2950    -2.2840    -0.1750 H     1 <1>   0.1500 
 18 H       -1.5850     1.9140     0.1890 H     1 <1>   0.1500 
 19 H       -4.0020     2.3360     0.1920 H     1 <1>   0.1500 
 20 H       -6.4760    -0.4270     0.0300 H     1 <1>   0.3700 
 21 H       -8.6460    -0.2670     1.1240 H     1 <1>   0.0800 
 22 H       -8.4950    -0.6910    -0.5830 H     1 <1>   0.0800 
 23 H       -9.1070     2.7920    -1.2430 H     1 <1>   0.0800 
 24 H       -8.7610     3.2890     0.4090 H     1 <1>   0.0800 
 25 H      -10.9310    -0.2030     0.5440 H     1 <1>   0.0800 
 26 H      -10.5570     0.2160    -1.1160 H     1 <1>   0.0800 
 27 H      -11.2280     2.3530    -0.2870 H     1 <1>   0.0800 
 28 H      -10.5160     2.0330     1.2820 H     1 <1>   0.0800 
@<TRIPOS>BOND
  1   1   2  1   
  2   2   3  ar  
  3   2   4  ar  
  4   3   5  ar  
  5   3  17  1   
  6   4   6  ar  
  7   4  18  1   
  8   5   7  1   
  9   5   8  ar  
 10   6   8  ar  
 11   6  19  1   
 12   8   9  1   
 13   9  10  am  
 14   9  20  1   
 15  10  11  2   
 16  10  12  am  
 17  12  13  1   
 18  12  14  1   
 19  13  15  1   
 20  13  21  1   
 21  13  22  1   
 22  14  16  1   
 23  14  23  1   
 24  14  24  1   
 25  15  16  1   
 26  15  25  1   
 27  15  26  1   
 28  16  27  1   
 29  16  28  1   
@<TRIPOS>SUBSTRUCTURE
  1 ****   9 GROUP 4 **** **** 0

# MOE 2024.06 (io_trps.svl 2023.06)
