@<TRIPOS>MOLECULE
NONAME
59 62 1 0 0 
SMALL
USER_CHARGES


@<TRIPOS>ATOM
  1 F        0.5880     0.2460     0.8450 F     1 <1>  -0.1900 
  2 C        1.6590    -0.4160     0.4800 C.ar  1 <1>   0.1900 
  3 C        2.8720     0.2680     0.3660 C.ar  1 <1>   0.1170 
  4 C        1.5210    -1.7650     0.2210 C.ar  1 <1>  -0.1500 
  5 N        2.9390     1.6450     0.6540 N.am  1 <1>  -0.5470 
  6 C        3.9890    -0.4700    -0.0260 C.ar  1 <1>  -0.1500 
  7 C        2.6570    -2.4480    -0.1680 C.ar  1 <1>   0.1900 
  8 C        3.7670     2.6320     0.1900 C.2   1 <1>   0.5690 
  9 C        3.8870    -1.8270    -0.2960 C.ar  1 <1>  -0.1500 
 10 F        2.5660    -3.7260    -0.4230 F     1 <1>  -0.1900 
 11 O        4.6950     2.4090    -0.5530 O.2   1 <1>  -0.5700 
 12 C        3.4610     4.0810     0.6380 C.3   1 <1>   0.2810 
 13 N        2.0620     4.4820     0.3240 N.am  1 <1>  -0.7300 
 14 C        4.3810     5.1400     0.0200 C.3   1 <1>  -0.2400 
 15 C        0.9720     4.0850     1.0300 C.2   1 <1>   0.5690 
 16 O        1.1150     3.3830     2.0040 O.2   1 <1>  -0.5700 
 17 C       -0.4340     4.4880     0.5400 C.3   1 <1>   0.0610 
 18 C       -1.5340     4.0440     1.5380 C.3   1 <1>  -0.1600 
 19 C       -0.5350     6.0240     0.3660 C.3   1 <1>  -0.1600 
 20 C       -0.7240     3.8140    -0.8230 C.3   1 <1>  -0.1600 
 21 C       -2.9380     4.4350     1.0370 C.3   1 <1>   0.0000 
 22 C       -1.9280     6.4350    -0.1520 C.3   1 <1>   0.0000 
 23 C       -2.1180     4.2060    -1.3520 C.3   1 <1>   0.0000 
 24 C       -2.9940     5.9650     0.8580 C.3   1 <1>  -0.1600 
 25 C       -3.1810     3.7620    -0.3280 C.3   1 <1>  -0.1600 
 26 C       -4.0020     3.9830     2.0450 C.3   1 <1>  -0.2400 
 27 C       -2.1820     5.7390    -1.5040 C.3   1 <1>  -0.1600 
 28 C       -1.9990     7.9580    -0.3200 C.3   1 <1>  -0.2400 
 29 C       -2.3750     3.5290    -2.7040 C.3   1 <1>  -0.2400 
 30 H        0.5750    -2.2620     0.3160 H     1 <1>   0.1500 
 31 H        2.1530     2.0020     1.2210 H     1 <1>   0.3700 
 32 H        4.9460     0.0130    -0.1210 H     1 <1>   0.1500 
 33 H        4.7470    -2.3960    -0.6010 H     1 <1>   0.1500 
 34 H        3.5880     4.1120     1.7070 H     1 <1>   0.0800 
 35 H        1.9390     4.9940    -0.5500 H     1 <1>   0.3700 
 36 H        4.2970     5.1320    -1.0520 H     1 <1>   0.0800 
 37 H        5.4020     4.9230     0.2770 H     1 <1>   0.0800 
 38 H        4.1370     6.1170     0.3980 H     1 <1>   0.0800 
 39 H       -1.3510     4.4980     2.4970 H     1 <1>   0.0800 
 40 H       -1.4860     2.9770     1.6740 H     1 <1>   0.0800 
 41 H        0.2120     6.3660    -0.3280 H     1 <1>   0.0800 
 42 H       -0.3440     6.5010     1.3110 H     1 <1>   0.0800 
 43 H       -0.6660     2.7450    -0.7090 H     1 <1>   0.0800 
 44 H        0.0220     4.1030    -1.5410 H     1 <1>   0.0800 
 45 H       -2.8310     6.4460     1.8070 H     1 <1>   0.0800 
 46 H       -3.9710     6.2520     0.5110 H     1 <1>   0.0800 
 47 H       -4.1610     4.0230    -0.6890 H     1 <1>   0.0800 
 48 H       -3.1500     2.6930    -0.2140 H     1 <1>   0.0800 
 49 H       -3.8370     4.4490     3.0010 H     1 <1>   0.0800 
 50 H       -3.9660     2.9160     2.1770 H     1 <1>   0.0800 
 51 H       -4.9850     4.2510     1.7010 H     1 <1>   0.0800 
 52 H       -3.1500     6.0230    -1.8780 H     1 <1>   0.0800 
 53 H       -1.4490     6.0630    -2.2230 H     1 <1>   0.0800 
 54 H       -1.2600     8.2940    -1.0260 H     1 <1>   0.0800 
 55 H       -1.8210     8.4490     0.6200 H     1 <1>   0.0800 
 56 H       -2.9700     8.2510    -0.6790 H     1 <1>   0.0800 
 57 H       -1.6380     3.8340    -3.4260 H     1 <1>   0.0800 
 58 H       -3.3480     3.7960    -3.0790 H     1 <1>   0.0800 
 59 H       -2.3320     2.4590    -2.6040 H     1 <1>   0.0800 
@<TRIPOS>BOND
  1   1   2  1   
  2   2   3  ar  
  3   2   4  ar  
  4   3   5  1   
  5   3   6  ar  
  6   4   7  ar  
  7   4  30  1   
  8   5   8  am  
  9   5  31  1   
 10   6   9  ar  
 11   6  32  1   
 12   7   9  ar  
 13   7  10  1   
 14   8  11  2   
 15   8  12  1   
 16   9  33  1   
 17  12  13  1   
 18  12  14  1   
 19  12  34  1   
 20  13  15  am  
 21  13  35  1   
 22  14  36  1   
 23  14  37  1   
 24  14  38  1   
 25  15  16  2   
 26  15  17  1   
 27  17  18  1   
 28  17  19  1   
 29  17  20  1   
 30  18  21  1   
 31  18  39  1   
 32  18  40  1   
 33  19  22  1   
 34  19  41  1   
 35  19  42  1   
 36  20  23  1   
 37  20  43  1   
 38  20  44  1   
 39  21  24  1   
 40  21  25  1   
 41  21  26  1   
 42  22  24  1   
 43  22  27  1   
 44  22  28  1   
 45  23  25  1   
 46  23  27  1   
 47  23  29  1   
 48  24  45  1   
 49  24  46  1   
 50  25  47  1   
 51  25  48  1   
 52  26  49  1   
 53  26  50  1   
 54  26  51  1   
 55  27  52  1   
 56  27  53  1   
 57  28  54  1   
 58  28  55  1   
 59  28  56  1   
 60  29  57  1   
 61  29  58  1   
 62  29  59  1   
@<TRIPOS>SUBSTRUCTURE
  1 ****  15 GROUP 4 **** **** 0

# MOE 2024.06 (io_trps.svl 2023.06)
