@<TRIPOS>MOLECULE
NONAME
47 48 1 0 0 
SMALL
USER_CHARGES


@<TRIPOS>ATOM
  1 CL      -0.9540     0.7310     2.6330 Cl    1 <1>  -0.1770 
  2 C       -1.9440     1.2920     1.3030 C.ar  1 <1>   0.1770 
  3 C       -1.5470     2.3870     0.5440 C.ar  1 <1>   0.0830 
  4 C       -3.1200     0.6160     1.0390 C.ar  1 <1>  -0.1500 
  5 O       -0.3800     3.0060     0.8590 O.3   1 <1>  -0.3630 
  6 C       -2.3700     2.7950    -0.5020 C.ar  1 <1>  -0.1500 
  7 C       -3.9480     1.0210    -0.0010 C.ar  1 <1>  -0.0090 
  8 C        0.1020     4.1070     0.1200 C.3   1 <1>   0.0400 
  9 C       -3.5500     2.1150    -0.7620 C.ar  1 <1>  -0.1500 
 10 S       -5.5030     0.1580    -0.3580 S.o2  1 <1>   1.4470 
 11 O       -5.8510    -0.7400     0.7220 O.2   1 <1>  -0.6500 
 12 O       -5.4730    -0.3450    -1.7130 O.2   1 <1>  -0.6500 
 13 N       -6.6480     1.4050    -0.3190 N.am  1 <1>  -0.8490 
 14 C       -7.8670     1.0080    -1.0770 C.3   1 <1>   0.2570 
 15 C       -6.9290     1.8950     1.0360 C.3   1 <1>   0.1160 
 16 C       -9.1050     1.9150    -0.9400 C.2   1 <1>   0.5690 
 17 O       -9.1780     2.8530    -1.7020 O.2   1 <1>  -0.5700 
 18 N      -10.0950     1.6780    -0.0060 N.am  1 <1>  -0.6600 
 19 C      -11.3000     2.5540     0.0160 C.3   1 <1>   0.1400 
 20 C      -10.0830     0.5820     1.0100 C.3   1 <1>   0.1400 
 21 C      -12.3240     2.0540    -1.0080 C.3   1 <1>  -0.1600 
 22 C      -11.4030    -0.2010     1.0890 C.3   1 <1>  -0.1600 
 23 C      -13.0480     0.7550    -0.6190 C.3   1 <1>  -0.1600 
 24 C      -12.1210    -0.4170    -0.2540 C.3   1 <1>  -0.1600 
 25 H       -3.3890    -0.2280     1.6500 H     1 <1>   0.1500 
 26 H       -2.1130     3.6340    -1.1210 H     1 <1>   0.1500 
 27 H        1.0380     4.4120     0.5520 H     1 <1>   0.0800 
 28 H       -0.6090     4.9110     0.1850 H     1 <1>   0.0800 
 29 H        0.2530     3.8040    -0.9010 H     1 <1>   0.0800 
 30 H       -4.1810     2.4410    -1.5730 H     1 <1>   0.1500 
 31 H       -8.1380    -0.0010    -0.8310 H     1 <1>   0.0800 
 32 H       -7.6130     0.9980    -2.1230 H     1 <1>   0.0800 
 33 H       -6.0130     2.1980     1.5150 H     1 <1>   0.0800 
 34 H       -7.3880     1.1250     1.6320 H     1 <1>   0.0800 
 35 H       -7.5790     2.7530     0.9990 H     1 <1>   0.0800 
 36 H      -11.0100     3.5600    -0.2380 H     1 <1>   0.0800 
 37 H      -11.7300     2.5800     1.0020 H     1 <1>   0.0800 
 38 H       -9.8740     1.0080     1.9760 H     1 <1>   0.0800 
 39 H       -9.2990    -0.1190     0.7990 H     1 <1>   0.0800 
 40 H      -11.8340     1.9270    -1.9580 H     1 <1>   0.0800 
 41 H      -13.0660     2.8220    -1.1400 H     1 <1>   0.0800 
 42 H      -12.0650     0.2860     1.7820 H     1 <1>   0.0800 
 43 H      -11.1780    -1.1640     1.5150 H     1 <1>   0.0800 
 44 H      -13.6630     0.4560    -1.4500 H     1 <1>   0.0800 
 45 H      -13.7100     0.9520     0.2060 H     1 <1>   0.0800 
 46 H      -12.7310    -1.3000    -0.1690 H     1 <1>   0.0800 
 47 H      -11.4090    -0.5930    -1.0430 H     1 <1>   0.0800 
@<TRIPOS>BOND
  1   1   2  1   
  2   2   3  ar  
  3   2   4  ar  
  4   3   5  1   
  5   3   6  ar  
  6   4   7  ar  
  7   4  25  1   
  8   5   8  1   
  9   6   9  ar  
 10   6  26  1   
 11   7   9  ar  
 12   7  10  1   
 13   8  27  1   
 14   8  28  1   
 15   8  29  1   
 16   9  30  1   
 17  10  11  2   
 18  10  12  2   
 19  10  13  am  
 20  13  14  1   
 21  13  15  1   
 22  14  16  1   
 23  14  31  1   
 24  14  32  1   
 25  15  33  1   
 26  15  34  1   
 27  15  35  1   
 28  16  17  2   
 29  16  18  am  
 30  18  19  1   
 31  18  20  1   
 32  19  21  1   
 33  19  36  1   
 34  19  37  1   
 35  20  22  1   
 36  20  38  1   
 37  20  39  1   
 38  21  23  1   
 39  21  40  1   
 40  21  41  1   
 41  22  24  1   
 42  22  42  1   
 43  22  43  1   
 44  23  24  1   
 45  23  44  1   
 46  23  45  1   
 47  24  46  1   
 48  24  47  1   
@<TRIPOS>SUBSTRUCTURE
  1 ****  13 GROUP 4 **** **** 0

# MOE 2024.06 (io_trps.svl 2023.06)
