@<TRIPOS>MOLECULE
NONAME
51 54 1 0 0 
SMALL
USER_CHARGES


@<TRIPOS>ATOM
  1 O        0.5960    -1.3940    -0.7870 O.2   1 <1>  -0.5700 
  2 C        0.5870    -1.9030     0.3090 C.2   1 <1>   0.5690 
  3 N        1.5220    -1.6870     1.2650 N.am  1 <1>  -0.4200 
  4 C       -0.4500    -2.9390     0.7890 C.3   1 <1>   0.2510 
  5 C        1.3210    -2.4810     2.3420 C.2   1 <1>   0.5690 
  6 C        2.7070    -0.8310     1.0870 C.3   1 <1>   0.2840 
  7 N       -1.8500    -2.4580     1.0000 N.3   1 <1>  -0.8100 
  8 C        0.1350    -3.3880     2.1430 C.3   1 <1>  -0.0990 
  9 O        1.9930    -2.4930     3.3400 O.2   1 <1>  -0.5700 
 10 C        3.8380    -1.6590     0.4990 C.ar  1 <1>  -0.1430 
 11 C       -2.7730    -3.6010     1.2260 C.3   1 <1>   0.1100 
 12 C       -2.3470    -1.6380    -0.1360 C.3   1 <1>   0.1100 
 13 C        3.9920    -1.7420    -0.8820 C.ar  1 <1>  -0.1500 
 14 C        4.7160    -2.3410     1.3420 C.ar  1 <1>  -0.1500 
 15 C       -4.2110    -3.1380     1.5050 C.3   1 <1>   0.1400 
 16 C       -3.7880    -1.1430     0.0790 C.3   1 <1>   0.1400 
 17 C        5.0320    -2.5040    -1.3770 C.ar  1 <1>   0.0830 
 18 C        5.7550    -3.1040     0.8250 C.ar  1 <1>  -0.1500 
 19 N       -4.6980    -2.2800     0.3920 N.am  1 <1>  -0.6600 
 20 O        5.3670    -2.7210    -2.6530 O.3   1 <1>  -0.3630 
 21 C        5.8900    -3.1660    -0.5480 C.ar  1 <1>   0.0830 
 22 C       -5.8200    -2.5840    -0.3270 C.2   1 <1>   0.7800 
 23 C        6.5120    -3.5720    -2.6360 C.3   1 <1>   0.4000 
 24 O        6.8040    -3.8290    -1.2640 O.3   1 <1>  -0.3630 
 25 O       -6.5060    -3.5610    -0.0910 O.2   1 <1>  -0.5700 
 26 O       -6.1560    -1.7680    -1.3280 O.3   1 <1>  -0.4300 
 27 C       -7.3000    -2.0180    -2.1100 C.3   1 <1>   0.1200 
 28 C       -7.4050    -0.9180    -3.1610 C.3   1 <1>  -0.2400 
 29 H       -0.4480    -3.7560     0.0880 H     1 <1>   0.0800 
 30 H        3.0010    -0.4240     2.0390 H     1 <1>   0.0800 
 31 H        2.4650    -0.0130     0.4310 H     1 <1>   0.0800 
 32 H        0.4710    -4.4060     2.1000 H     1 <1>   0.0800 
 33 H       -0.5490    -3.2530     2.9600 H     1 <1>   0.0800 
 34 H       -2.4420    -4.1830     2.0670 H     1 <1>   0.0800 
 35 H       -2.7810    -4.2430     0.3610 H     1 <1>   0.0800 
 36 H       -2.3020    -2.2070    -1.0490 H     1 <1>   0.0800 
 37 H       -1.7270    -0.7670    -0.2560 H     1 <1>   0.0800 
 38 H        3.3260    -1.2380    -1.5600 H     1 <1>   0.1500 
 39 H        4.5880    -2.2840     2.4110 H     1 <1>   0.1500 
 40 H       -4.2340    -2.5760     2.4220 H     1 <1>   0.0800 
 41 H       -4.8470    -3.9980     1.6250 H     1 <1>   0.0800 
 42 H       -4.1160    -0.6200    -0.8010 H     1 <1>   0.0800 
 43 H       -3.8020    -0.4480     0.9000 H     1 <1>   0.0800 
 44 H        6.4380    -3.6350     1.4630 H     1 <1>   0.1500 
 45 H        7.3440    -3.0670    -3.0930 H     1 <1>   0.0800 
 46 H        6.2820    -4.4960    -3.1350 H     1 <1>   0.0800 
 47 H       -8.1610    -2.0190    -1.4630 H     1 <1>   0.0800 
 48 H       -7.1930    -2.9860    -2.5720 H     1 <1>   0.0800 
 49 H       -7.4990     0.0410    -2.6840 H     1 <1>   0.0800 
 50 H       -8.2720    -1.0830    -3.7740 H     1 <1>   0.0800 
 51 H       -6.5330    -0.9230    -3.7910 H     1 <1>   0.0800 
@<TRIPOS>BOND
  1   1   2  2   
  2   2   3  am  
  3   2   4  1   
  4   3   5  am  
  5   3   6  1   
  6   4   7  1   
  7   4   8  1   
  8   4  29  1   
  9   5   8  1   
 10   5   9  2   
 11   6  10  1   
 12   6  30  1   
 13   6  31  1   
 14   7  11  1   
 15   7  12  1   
 16   8  32  1   
 17   8  33  1   
 18  10  13  ar  
 19  10  14  ar  
 20  11  15  1   
 21  11  34  1   
 22  11  35  1   
 23  12  16  1   
 24  12  36  1   
 25  12  37  1   
 26  13  17  ar  
 27  13  38  1   
 28  14  18  ar  
 29  14  39  1   
 30  15  19  1   
 31  15  40  1   
 32  15  41  1   
 33  16  19  1   
 34  16  42  1   
 35  16  43  1   
 36  17  20  1   
 37  17  21  ar  
 38  18  21  ar  
 39  18  44  1   
 40  19  22  am  
 41  20  23  1   
 42  21  24  1   
 43  22  25  2   
 44  22  26  1   
 45  23  24  1   
 46  23  45  1   
 47  23  46  1   
 48  26  27  1   
 49  27  28  1   
 50  27  47  1   
 51  27  48  1   
 52  28  49  1   
 53  28  50  1   
 54  28  51  1   
@<TRIPOS>SUBSTRUCTURE
  1 ****   2 GROUP 4 **** **** 0

# MOE 2024.06 (io_trps.svl 2023.06)
