@<TRIPOS>MOLECULE
NONAME
38 39 1 0 0 
SMALL
USER_CHARGES


@<TRIPOS>ATOM
  1 O        0.6380    -0.4480    -0.8930 O.2   1 <1>  -0.5700 
  2 C        0.4730    -1.5870    -0.5370 C.2   1 <1>   0.5690 
  3 N        1.4180    -2.2420     0.2120 N.am  1 <1>  -0.6600 
  4 C       -0.8030    -2.2770    -0.9600 C.3   1 <1>  -0.1790 
  5 C        1.4540    -3.7150     0.4560 C.3   1 <1>   0.1400 
  6 C        2.6040    -1.5040     0.7470 C.3   1 <1>   0.1400 
  7 C        2.7810    -4.3140    -0.0590 C.3   1 <1>   0.3430 
  8 C        3.9070    -2.1130     0.2030 C.3   1 <1>   0.3430 
  9 N        3.9950    -3.5970     0.4790 N.4   1 <1>  -0.9590 
 10 C        5.2410    -4.2030    -0.0870 C.3   1 <1>   0.3430 
 11 C        6.5020    -3.7180     0.6310 C.3   1 <1>  -0.0170 
 12 C        7.6920    -4.4670     0.0660 C.ar  1 <1>  -0.1440 
 13 C        8.3490    -3.9880    -1.0580 C.ar  1 <1>  -0.1500 
 14 C        8.1270    -5.6420     0.6600 C.ar  1 <1>  -0.1500 
 15 C        9.4250    -4.6810    -1.5860 C.ar  1 <1>  -0.1500 
 16 C        9.2030    -6.3350     0.1310 C.ar  1 <1>  -0.1500 
 17 C        9.8510    -5.8550    -0.9930 C.ar  1 <1>  -0.1500 
 18 H       -1.2720    -2.7410    -0.1140 H     1 <1>   0.0800 
 19 H       -0.5930    -3.0100    -1.7150 H     1 <1>   0.0800 
 20 H       -1.4830    -1.5510    -1.3690 H     1 <1>   0.0800 
 21 H        0.6370    -4.2060    -0.0410 H     1 <1>   0.0800 
 22 H        1.3540    -3.9020     1.5110 H     1 <1>   0.0800 
 23 H        2.5970    -1.5490     1.8220 H     1 <1>   0.0800 
 24 H        2.5640    -0.4630     0.4720 H     1 <1>   0.0800 
 25 H        2.7790    -4.2570    -1.1360 H     1 <1>   0.0800 
 26 H        2.8230    -5.3570     0.2120 H     1 <1>   0.0800 
 27 H        4.7420    -1.6020     0.6530 H     1 <1>   0.0800 
 28 H        3.9440    -1.9360    -0.8590 H     1 <1>   0.0800 
 29 H        4.0030    -3.7270     1.4990 H     1 <1>   0.4500 
 30 H        5.3210    -3.9730    -1.1370 H     1 <1>   0.0800 
 31 H        5.1950    -5.2760     0.0100 H     1 <1>   0.0800 
 32 H        6.4300    -3.9100     1.6870 H     1 <1>   0.0800 
 33 H        6.6500    -2.6640     0.4800 H     1 <1>   0.0800 
 34 H        8.0390    -3.0740    -1.5340 H     1 <1>   0.1500 
 35 H        7.6420    -6.0320     1.5380 H     1 <1>   0.1500 
 36 H        9.9340    -4.3080    -2.4580 H     1 <1>   0.1500 
 37 H        9.5400    -7.2460     0.5950 H     1 <1>   0.1500 
 38 H       10.6880    -6.3940    -1.4030 H     1 <1>   0.1500 
@<TRIPOS>BOND
  1   1   2  2   
  2   2   3  am  
  3   2   4  1   
  4   3   5  1   
  5   3   6  1   
  6   4  18  1   
  7   4  19  1   
  8   4  20  1   
  9   5   7  1   
 10   5  21  1   
 11   5  22  1   
 12   6   8  1   
 13   6  23  1   
 14   6  24  1   
 15   7   9  1   
 16   7  25  1   
 17   7  26  1   
 18   8   9  1   
 19   8  27  1   
 20   8  28  1   
 21   9  10  1   
 22   9  29  1   
 23  10  11  1   
 24  10  30  1   
 25  10  31  1   
 26  11  12  1   
 27  11  32  1   
 28  11  33  1   
 29  12  13  ar  
 30  12  14  ar  
 31  13  15  ar  
 32  13  34  1   
 33  14  16  ar  
 34  14  35  1   
 35  15  17  ar  
 36  15  36  1   
 37  16  17  ar  
 38  16  37  1   
 39  17  38  1   
@<TRIPOS>SUBSTRUCTURE
  1 ****  10 GROUP 4 **** **** 0

# MOE 2024.06 (io_trps.svl 2023.06)
