@<TRIPOS>MOLECULE
NONAME
38 39 1 0 0 
SMALL
USER_CHARGES


@<TRIPOS>ATOM
  1 S       -0.6300     0.3240    -0.0580 S.3   1 <1>  -0.0800 
  2 C        0.2520     1.6190    -0.8510 C.2   1 <1>  -0.1400 
  3 C       -0.5070     1.1240     1.4950 C.2   1 <1>  -0.1400 
  4 C        0.6030     2.5710     0.0380 C.2   1 <1>  -0.1810 
  5 C        0.4510     1.4610    -2.3470 C.3   1 <1>  -0.0600 
  6 C        0.1640     2.2830     1.3750 C.2   1 <1>  -0.1500 
  7 C       -1.1390     0.4330     2.6840 C.3   1 <1>  -0.0600 
  8 C        1.3720     3.8530    -0.2650 C.3   1 <1>   0.5390 
  9 N        2.5720     3.8580     0.5910 N.am  1 <1>  -0.7300 
 10 C        0.4860     5.0800    -0.0510 C.2   1 <1>  -0.1240 
 11 C        2.7440     4.7070     1.6160 C.2   1 <1>   0.6900 
 12 C        0.7830     5.9570     0.9480 C.2   1 <1>  -0.0290 
 13 C       -0.5920     5.1160    -0.9870 C.2   1 <1>   0.7060 
 14 O        3.6450     4.5500     2.4070 O.2   1 <1>  -0.5700 
 15 N        1.8740     5.7360     1.7640 N.am  1 <1>  -0.5390 
 16 C        0.0220     7.2300     1.2820 C.3   1 <1>  -0.1020 
 17 O       -0.5030     4.6680    -2.1150 O.2   1 <1>  -0.5700 
 18 O       -1.7540     5.6570    -0.6070 O.3   1 <1>  -0.4300 
 19 C       -2.8740     5.6760    -1.4630 C.3   1 <1>   0.1200 
 20 C       -4.0200     6.3580    -0.7240 C.3   1 <1>  -0.2400 
 21 H       -0.5060     1.3990    -2.8320 H     1 <1>   0.0800 
 22 H        1.0030     0.5610    -2.5490 H     1 <1>   0.0800 
 23 H        0.9860     2.2970    -2.7580 H     1 <1>   0.0800 
 24 H        0.3730     2.9610     2.1840 H     1 <1>   0.1500 
 25 H       -0.6890    -0.5330     2.8260 H     1 <1>   0.0800 
 26 H       -2.1930     0.3070     2.5150 H     1 <1>   0.0800 
 27 H       -0.9950     1.0190     3.5730 H     1 <1>   0.0800 
 28 H        1.7070     3.8410    -1.2880 H     1 <1>   0.0800 
 29 H        3.0850     2.9810     0.6340 H     1 <1>   0.3700 
 30 H        2.0990     6.3530     2.5440 H     1 <1>   0.3700 
 31 H        0.7110     8.0340     1.4710 H     1 <1>   0.0800 
 32 H       -0.5780     7.0760     2.1610 H     1 <1>   0.0800 
 33 H       -0.6180     7.5410     0.4780 H     1 <1>   0.0800 
 34 H       -3.1270     4.6590    -1.7140 H     1 <1>   0.0800 
 35 H       -2.6130     6.2160    -2.3580 H     1 <1>   0.0800 
 36 H       -4.2600     5.8130     0.1710 H     1 <1>   0.0800 
 37 H       -4.8920     6.3840    -1.3530 H     1 <1>   0.0800 
 38 H       -3.7500     7.3670    -0.4710 H     1 <1>   0.0800 
@<TRIPOS>BOND
  1   1   2  1   
  2   1   3  1   
  3   2   4  2   
  4   2   5  1   
  5   3   6  2   
  6   3   7  1   
  7   4   6  1   
  8   4   8  1   
  9   5  21  1   
 10   5  22  1   
 11   5  23  1   
 12   6  24  1   
 13   7  25  1   
 14   7  26  1   
 15   7  27  1   
 16   8   9  1   
 17   8  10  1   
 18   8  28  1   
 19   9  11  am  
 20   9  29  1   
 21  10  12  2   
 22  10  13  1   
 23  11  14  2   
 24  11  15  am  
 25  12  15  1   
 26  12  16  1   
 27  13  17  2   
 28  13  18  1   
 29  15  30  1   
 30  16  31  1   
 31  16  32  1   
 32  16  33  1   
 33  18  19  1   
 34  19  20  1   
 35  19  34  1   
 36  19  35  1   
 37  20  36  1   
 38  20  37  1   
 39  20  38  1   
@<TRIPOS>SUBSTRUCTURE
  1 ****  10 GROUP 4 **** **** 0

# MOE 2024.06 (io_trps.svl 2023.06)
