@<TRIPOS>MOLECULE
NONAME
50 51 1 0 0 
SMALL
USER_CHARGES


@<TRIPOS>ATOM
  1 O       -0.1150    -0.3930    -0.8660 O.2   1 <1>  -0.5700 
  2 C       -0.0360    -1.4160    -0.2170 C.2   1 <1>   0.5440 
  3 N        1.1670    -1.8110     0.3220 N.am  1 <1>  -0.5470 
  4 C       -1.2140    -2.2310     0.0040 C.ar  1 <1>   0.0860 
  5 C        2.4510    -1.2460     0.2770 C.ar  1 <1>   0.1170 
  6 C       -2.4630    -1.6340     0.1690 C.ar  1 <1>  -0.1500 
  7 C       -1.1470    -3.6240     0.0600 C.ar  1 <1>  -0.1500 
  8 C        3.6160    -2.0390     0.2330 C.ar  1 <1>  -0.1440 
  9 C        2.5620     0.1420     0.3170 C.ar  1 <1>  -0.1500 
 10 C       -3.6070    -2.3850     0.4080 C.ar  1 <1>   0.0830 
 11 C       -2.2740    -4.3990     0.2990 C.ar  1 <1>   0.0830 
 12 C        4.8430    -1.3710     0.2360 C.ar  1 <1>  -0.1500 
 13 C        3.5820    -3.5990     0.1670 C.3   1 <1>   0.1440 
 14 C        3.7870     0.7710     0.3130 C.ar  1 <1>  -0.1500 
 15 O       -4.8360    -1.8160     0.5780 O.3   1 <1>  -0.3630 
 16 C       -3.5080    -3.7750     0.4810 C.ar  1 <1>   0.0830 
 17 O       -2.2300    -5.7620     0.3550 O.3   1 <1>  -0.3620 
 18 C        4.9330     0.0080     0.2750 C.ar  1 <1>  -0.1500 
 19 C        4.9860    -4.2370     0.1210 C.3   1 <1>  -0.2400 
 20 C        2.8750    -4.0690    -1.1170 C.3   1 <1>  -0.2400 
 21 C        2.8980    -4.2020     1.4110 C.3   1 <1>  -0.2400 
 22 C       -5.0120    -0.4160     0.5760 C.3   1 <1>   0.0400 
 23 O       -4.6040    -4.5270     0.7480 O.3   1 <1>  -0.3630 
 24 C       -1.0270    -6.4830     0.2050 C.3   1 <1>   0.0400 
 25 C       -5.4330    -4.8190    -0.3510 C.3   1 <1>   0.0400 
 26 H        1.1360    -2.6900     0.8260 H     1 <1>   0.3700 
 27 H       -2.5080    -0.5630     0.1050 H     1 <1>   0.1500 
 28 H       -0.1980    -4.0940    -0.0980 H     1 <1>   0.1500 
 29 H        1.6740     0.7460     0.3550 H     1 <1>   0.1500 
 30 H        5.7790    -1.8920     0.2060 H     1 <1>   0.1500 
 31 H        3.8470     1.8450     0.3410 H     1 <1>   0.1500 
 32 H        5.8970     0.4870     0.2730 H     1 <1>   0.1500 
 33 H        5.5290    -3.9020    -0.7440 H     1 <1>   0.0800 
 34 H        4.9210    -5.3090     0.0640 H     1 <1>   0.0800 
 35 H        5.5450    -3.9910     1.0070 H     1 <1>   0.0800 
 36 H        3.3830    -3.6670    -1.9760 H     1 <1>   0.0800 
 37 H        1.8560    -3.7460    -1.1660 H     1 <1>   0.0800 
 38 H        2.8860    -5.1420    -1.1880 H     1 <1>   0.0800 
 39 H        3.3300    -3.7780     2.3010 H     1 <1>   0.0800 
 40 H        3.0440    -5.2670     1.4440 H     1 <1>   0.0800 
 41 H        1.8430    -4.0330     1.4340 H     1 <1>   0.0800 
 42 H       -6.0530    -0.2110     0.7480 H     1 <1>   0.0800 
 43 H       -4.7160    -0.0270    -0.3820 H     1 <1>   0.0800 
 44 H       -4.4210     0.0110     1.3670 H     1 <1>   0.0800 
 45 H       -1.2550    -7.5300     0.2990 H     1 <1>   0.0800 
 46 H       -0.3440    -6.1890     0.9820 H     1 <1>   0.0800 
 47 H       -0.6190    -6.2860    -0.7700 H     1 <1>   0.0800 
 48 H       -6.2500    -5.4240    -0.0030 H     1 <1>   0.0800 
 49 H       -4.8590    -5.3570    -1.0830 H     1 <1>   0.0800 
 50 H       -5.8050    -3.8970    -0.7620 H     1 <1>   0.0800 
@<TRIPOS>BOND
  1   1   2  2   
  2   2   3  am  
  3   2   4  1   
  4   3   5  1   
  5   3  26  1   
  6   4   6  ar  
  7   4   7  ar  
  8   5   8  ar  
  9   5   9  ar  
 10   6  10  ar  
 11   6  27  1   
 12   7  11  ar  
 13   7  28  1   
 14   8  12  ar  
 15   8  13  1   
 16   9  14  ar  
 17   9  29  1   
 18  10  15  1   
 19  10  16  ar  
 20  11  16  ar  
 21  11  17  1   
 22  12  18  ar  
 23  12  30  1   
 24  13  19  1   
 25  13  20  1   
 26  13  21  1   
 27  14  18  ar  
 28  14  31  1   
 29  15  22  1   
 30  16  23  1   
 31  17  24  1   
 32  18  32  1   
 33  19  33  1   
 34  19  34  1   
 35  19  35  1   
 36  20  36  1   
 37  20  37  1   
 38  20  38  1   
 39  21  39  1   
 40  21  40  1   
 41  21  41  1   
 42  22  42  1   
 43  22  43  1   
 44  22  44  1   
 45  23  25  1   
 46  24  45  1   
 47  24  46  1   
 48  24  47  1   
 49  25  48  1   
 50  25  49  1   
 51  25  50  1   
@<TRIPOS>SUBSTRUCTURE
  1 ****   2 GROUP 4 **** **** 0

# MOE 2024.06 (io_trps.svl 2023.06)
