@<TRIPOS>MOLECULE
NONAME
30 30 1 0 0 
SMALL
USER_CHARGES


@<TRIPOS>ATOM
  1 O       -1.3610     1.2250    -2.1330 O.2   1 <1>  -0.5700 
  2 C       -1.6600     1.4460    -0.9790 C.2   1 <1>   0.5690 
  3 N       -1.3410     2.6520    -0.4120 N.am  1 <1>  -0.6600 
  4 C       -2.4250     0.3470    -0.1810 C.3   1 <1>   0.0610 
  5 C       -0.0370     3.3010    -0.6550 C.3   1 <1>   0.1140 
  6 C       -2.2170     3.5220     0.3440 C.3   1 <1>   0.1400 
  7 C       -1.8610     0.1960     1.2460 C.3   1 <1>  -0.2400 
  8 C       -3.9340     0.6490    -0.0980 C.3   1 <1>  -0.2400 
  9 C       -2.2700    -1.0310    -0.8630 C.3   1 <1>  -0.2400 
 10 C        1.2600     2.5150    -0.2840 C.2   1 <1>   0.9060 
 11 C       -0.1270     4.6180     0.1280 C.3   1 <1>  -0.1600 
 12 C       -1.6260     4.9170     0.1510 C.3   1 <1>  -0.1600 
 13 O        2.2750     2.7400    -0.9840 O.co2 1 <1>  -0.9000 
 14 O        1.2460     1.7670     0.7250 O.co2 1 <1>  -0.9000 
 15 H        0.0340     3.5280    -1.7180 H     1 <1>   0.0800 
 16 H       -2.1870     3.2540     1.4010 H     1 <1>   0.0800 
 17 H       -3.2380     3.4940    -0.0370 H     1 <1>   0.0800 
 18 H       -2.0100     1.0890     1.8210 H     1 <1>   0.0800 
 19 H       -0.8000     0.0150     1.1990 H     1 <1>   0.0800 
 20 H       -2.3270    -0.6220     1.7650 H     1 <1>   0.0800 
 21 H       -4.3270     0.8180    -1.0860 H     1 <1>   0.0800 
 22 H       -4.1190     1.5210     0.4990 H     1 <1>   0.0800 
 23 H       -4.4610    -0.1750     0.3460 H     1 <1>   0.0800 
 24 H       -1.2260    -1.2770    -0.9490 H     1 <1>   0.0800 
 25 H       -2.6900    -1.0090    -1.8530 H     1 <1>   0.0800 
 26 H       -2.7600    -1.8040    -0.3000 H     1 <1>   0.0800 
 27 H        0.4490     5.4050    -0.3600 H     1 <1>   0.0800 
 28 H        0.2370     4.4540     1.1450 H     1 <1>   0.0800 
 29 H       -1.8970     5.5890     0.9640 H     1 <1>   0.0800 
 30 H       -1.9380     5.3160    -0.8150 H     1 <1>   0.0800 
@<TRIPOS>BOND
  1   1   2  2   
  2   2   3  am  
  3   2   4  1   
  4   3   5  1   
  5   3   6  1   
  6   4   7  1   
  7   4   8  1   
  8   4   9  1   
  9   5  10  1   
 10   5  11  1   
 11   5  15  1   
 12   6  12  1   
 13   6  16  1   
 14   6  17  1   
 15   7  18  1   
 16   7  19  1   
 17   7  20  1   
 18   8  21  1   
 19   8  22  1   
 20   8  23  1   
 21   9  24  1   
 22   9  25  1   
 23   9  26  1   
 24  10  13  ar  
 25  10  14  ar  
 26  11  12  1   
 27  11  27  1   
 28  11  28  1   
 29  12  29  1   
 30  12  30  1   
@<TRIPOS>SUBSTRUCTURE
  1 ****   3 GROUP 4 **** **** 0

# MOE 2024.06 (io_trps.svl 2023.06)
