@<TRIPOS>MOLECULE
NONAME
38 39 1 0 0 
SMALL
USER_CHARGES


@<TRIPOS>ATOM
  1 CL      -0.1670     1.2470    -1.3210 Cl    1 <1>  -0.1770 
  2 C        0.1400     2.1180     0.1640 C.ar  1 <1>   0.1770 
  3 C       -0.8440     2.9240     0.7580 C.ar  1 <1>   0.0860 
  4 C        1.3970     1.9540     0.7150 C.ar  1 <1>  -0.1500 
  5 C       -2.1730     3.1300     0.2060 C.2   1 <1>   0.5440 
  6 C       -0.4970     3.5550     1.9610 C.ar  1 <1>  -0.1500 
  7 C        1.6840     2.6060     1.8950 C.ar  1 <1>   0.1900 
  8 O       -3.1160     3.3520     0.9400 O.2   1 <1>  -0.5700 
  9 N       -2.4240     3.1440    -1.1390 N.am  1 <1>  -0.7300 
 10 C        0.7540     3.4050     2.5320 C.ar  1 <1>  -0.1500 
 11 F        2.8640     2.4630     2.4260 F     1 <1>  -0.1900 
 12 C       -3.7600     2.9660    -1.7850 C.3   1 <1>   0.1400 
 13 C       -4.5370     4.2930    -1.9130 C.3   1 <1>   0.3430 
 14 N       -4.8620     4.8620    -0.5740 N.4   1 <1>  -0.9590 
 15 C       -6.1240     4.3110    -0.0050 C.3   1 <1>   0.3430 
 16 C       -4.8200     6.3480    -0.5570 C.3   1 <1>   0.3430 
 17 C       -6.2880     4.7870     1.4400 C.3   1 <1>  -0.1600 
 18 C       -4.9560     6.8490     0.8810 C.3   1 <1>  -0.1600 
 19 C       -6.2300     6.3160     1.5500 C.3   1 <1>  -0.1600 
 20 H        2.1360     1.3330     0.2420 H     1 <1>   0.1500 
 21 H       -1.2250     4.1730     2.4600 H     1 <1>   0.1500 
 22 H       -1.6330     2.8920    -1.7460 H     1 <1>   0.3700 
 23 H        1.0120     3.8940     3.4560 H     1 <1>   0.1500 
 24 H       -4.3410     2.2570    -1.2200 H     1 <1>   0.0800 
 25 H       -3.6120     2.5540    -2.7680 H     1 <1>   0.0800 
 26 H       -5.4440     4.1330    -2.4710 H     1 <1>   0.0800 
 27 H       -3.9250     4.9860    -2.4660 H     1 <1>   0.0800 
 28 H       -4.1100     4.5200     0.0630 H     1 <1>   0.4500 
 29 H       -6.0960     3.2340    -0.0200 H     1 <1>   0.0800 
 30 H       -6.9650     4.6430    -0.5910 H     1 <1>   0.0800 
 31 H       -5.6250     6.7430    -1.1550 H     1 <1>   0.0800 
 32 H       -3.8850     6.6940    -0.9680 H     1 <1>   0.0800 
 33 H       -5.5120     4.3460     2.0440 H     1 <1>   0.0800 
 34 H       -7.2300     4.4350     1.8230 H     1 <1>   0.0800 
 35 H       -4.9760     7.9250     0.8800 H     1 <1>   0.0800 
 36 H       -4.0920     6.5420     1.4460 H     1 <1>   0.0800 
 37 H       -6.2480     6.6080     2.5880 H     1 <1>   0.0800 
 38 H       -7.0950     6.7450     1.0730 H     1 <1>   0.0800 
@<TRIPOS>BOND
  1   1   2  1   
  2   2   3  ar  
  3   2   4  ar  
  4   3   5  1   
  5   3   6  ar  
  6   4   7  ar  
  7   4  20  1   
  8   5   8  2   
  9   5   9  am  
 10   6  10  ar  
 11   6  21  1   
 12   7  10  ar  
 13   7  11  1   
 14   9  12  1   
 15   9  22  1   
 16  10  23  1   
 17  12  13  1   
 18  12  24  1   
 19  12  25  1   
 20  13  14  1   
 21  13  26  1   
 22  13  27  1   
 23  14  15  1   
 24  14  16  1   
 25  14  28  1   
 26  15  17  1   
 27  15  29  1   
 28  15  30  1   
 29  16  18  1   
 30  16  31  1   
 31  16  32  1   
 32  17  19  1   
 33  17  33  1   
 34  17  34  1   
 35  18  19  1   
 36  18  35  1   
 37  18  36  1   
 38  19  37  1   
 39  19  38  1   
@<TRIPOS>SUBSTRUCTURE
  1 ****   5 GROUP 4 **** **** 0

# MOE 2024.06 (io_trps.svl 2023.06)
