@<TRIPOS>MOLECULE
NONAME
43 46 1 0 0 
SMALL
USER_CHARGES


@<TRIPOS>ATOM
  1 O        0.0120    -0.4310    -0.6160 O.3   1 <1>  -0.3630 
  2 C       -1.2790    -0.7340    -0.3330 C.ar  1 <1>   0.0830 
  3 C        1.0730    -1.2400    -0.1530 C.3   1 <1>   0.1200 
  4 C       -2.2360     0.1870    -0.7370 C.ar  1 <1>  -0.1500 
  5 C       -1.6760    -1.8970     0.3300 C.ar  1 <1>  -0.1500 
  6 C        2.4140    -0.6100    -0.5530 C.3   1 <1>   0.2000 
  7 C       -3.5690    -0.0570    -0.4710 C.ar  1 <1>  -0.1440 
  8 C       -3.0170    -2.1310     0.5910 C.ar  1 <1>  -0.1500 
  9 O        2.6010    -0.7480    -1.9240 O.3   1 <1>  -0.6800 
 10 C        3.5850    -1.2740     0.1800 C.3   1 <1>   0.0960 
 11 C       -3.9540    -1.1990     0.1840 C.ar  1 <1>  -0.1430 
 12 C       -4.7580     0.8040    -0.8180 C.3   1 <1>  -0.0170 
 13 N        4.8640    -0.6470    -0.2020 N.pl3 1 <1>   0.0480 
 14 C       -5.4510    -1.2510     0.3610 C.3   1 <1>  -0.0170 
 15 C       -5.9050     0.1720    -0.0090 C.3   1 <1>  -0.1600 
 16 C        5.3520     0.5440     0.2330 C.ar  1 <1>  -0.1520 
 17 C        5.7470    -1.0790    -1.1390 C.2   1 <1>   0.0360 
 18 C        6.5180     0.7480    -0.4820 C.ar  1 <1>   0.2270 
 19 C        4.9080     1.4810     1.1720 C.ar  1 <1>  -0.1500 
 20 N        6.7410    -0.2870    -1.3370 N.2   1 <1>  -0.5650 
 21 C        7.2740     1.9000    -0.2710 C.ar  1 <1>  -0.1500 
 22 C        5.6610     2.6170     1.3730 C.ar  1 <1>  -0.1500 
 23 C        6.8440     2.8280     0.6530 C.ar  1 <1>  -0.1500 
 24 H        0.9740    -2.2210    -0.5830 H     1 <1>   0.0800 
 25 H        0.9920    -1.2940     0.9180 H     1 <1>   0.0800 
 26 H       -1.9300     1.0790    -1.2510 H     1 <1>   0.1500 
 27 H       -0.9610    -2.6310     0.6460 H     1 <1>   0.1500 
 28 H        2.3870     0.4420    -0.3180 H     1 <1>   0.0800 
 29 H       -3.3280    -3.0260     1.1000 H     1 <1>   0.1500 
 30 H        3.3000    -0.1390    -2.2390 H     1 <1>   0.4000 
 31 H        3.6180    -2.3220    -0.0570 H     1 <1>   0.0800 
 32 H        3.4600    -1.1690     1.2420 H     1 <1>   0.0800 
 33 H       -4.9520     0.7340    -1.8740 H     1 <1>   0.0800 
 34 H       -4.5970     1.8310    -0.5410 H     1 <1>   0.0800 
 35 H       -5.7220    -1.5020     1.3720 H     1 <1>   0.0800 
 36 H       -5.8660    -1.9720    -0.3210 H     1 <1>   0.0800 
 37 H       -6.8280     0.1670    -0.5610 H     1 <1>   0.0800 
 38 H       -6.0400     0.7380     0.8960 H     1 <1>   0.0800 
 39 H        5.6010    -2.0070    -1.6650 H     1 <1>   0.1500 
 40 H        4.0010     1.3170     1.7240 H     1 <1>   0.1500 
 41 H        8.1760     2.0340    -0.8380 H     1 <1>   0.1500 
 42 H        5.3470     3.3570     2.0890 H     1 <1>   0.1500 
 43 H        7.4150     3.7220     0.8280 H     1 <1>   0.1500 
@<TRIPOS>BOND
  1   1   2  1   
  2   1   3  1   
  3   2   4  ar  
  4   2   5  ar  
  5   3   6  1   
  6   3  24  1   
  7   3  25  1   
  8   4   7  ar  
  9   4  26  1   
 10   5   8  ar  
 11   5  27  1   
 12   6   9  1   
 13   6  10  1   
 14   6  28  1   
 15   7  11  ar  
 16   7  12  1   
 17   8  11  ar  
 18   8  29  1   
 19   9  30  1   
 20  10  13  1   
 21  10  31  1   
 22  10  32  1   
 23  11  14  1   
 24  12  15  1   
 25  12  33  1   
 26  12  34  1   
 27  13  16  1   
 28  13  17  1   
 29  14  15  1   
 30  14  35  1   
 31  14  36  1   
 32  15  37  1   
 33  15  38  1   
 34  16  18  ar  
 35  16  19  ar  
 36  17  20  2   
 37  17  39  1   
 38  18  20  1   
 39  18  21  ar  
 40  19  22  ar  
 41  19  40  1   
 42  21  23  ar  
 43  21  41  1   
 44  22  23  ar  
 45  22  42  1   
 46  23  43  1   
@<TRIPOS>SUBSTRUCTURE
  1 ****   3 GROUP 4 **** **** 0

# MOE 2024.06 (io_trps.svl 2023.06)
