@<TRIPOS>MOLECULE
NONAME
39 41 1 0 0 
SMALL
USER_CHARGES


@<TRIPOS>ATOM
  1 O        0.4310    -0.5060     0.6990 O.2   1 <1>  -0.5700 
  2 C       -0.0300    -1.5970     0.4590 C.2   1 <1>   0.5690 
  3 N        0.7160    -2.5130    -0.2120 N.am  1 <1>  -0.5470 
  4 C       -1.4610    -1.9690     0.9190 C.3   1 <1>   0.3500 
  5 C        0.2830    -3.8160    -0.4980 C.ar  1 <1>   0.1170 
  6 N       -1.9250    -3.3350     0.4640 N.pl3 1 <1>  -0.8690 
  7 C       -2.4690    -0.9310     0.4270 C.3   1 <1>  -0.0990 
  8 C       -1.0170    -4.2130    -0.1440 C.ar  1 <1>   0.1000 
  9 C        1.1360    -4.7180    -1.1140 C.ar  1 <1>  -0.1500 
 10 C       -3.8340    -1.2120     0.9950 C.2   1 <1>   0.5690 
 11 C       -1.4180    -5.5140    -0.4120 C.ar  1 <1>  -0.1500 
 12 C        0.7190    -6.0120    -1.3770 C.ar  1 <1>  -0.1500 
 13 O       -4.1330    -0.7360     2.0620 O.2   1 <1>  -0.5700 
 14 N       -4.6680    -2.0160     0.2960 N.am  1 <1>  -0.7300 
 15 C       -0.5580    -6.4100    -1.0240 C.ar  1 <1>  -0.1500 
 16 C       -6.0010    -2.4590     0.7270 C.3   1 <1>   0.2200 
 17 C       -5.9190    -3.9260     1.1270 C.3   1 <1>  -0.1600 
 18 C       -6.9210    -2.4810    -0.4870 C.3   1 <1>  -0.1600 
 19 C       -5.9420    -4.7130    -0.1880 C.3   1 <1>  -0.1600 
 20 C       -6.6240    -3.7980    -1.2150 C.3   1 <1>  -0.1600 
 21 H        1.6500    -2.2150    -0.4860 H     1 <1>   0.3700 
 22 H       -1.4570    -1.9550     1.9950 H     1 <1>   0.0800 
 23 H       -2.5690    -3.7700     1.1350 H     1 <1>   0.4000 
 24 H       -2.5010    -0.9310    -0.6460 H     1 <1>   0.0800 
 25 H       -2.1640     0.0480     0.7500 H     1 <1>   0.0800 
 26 H        2.1300    -4.4150    -1.3880 H     1 <1>   0.1500 
 27 H       -2.4110    -5.8260    -0.1450 H     1 <1>   0.1500 
 28 H        1.3870    -6.7080    -1.8550 H     1 <1>   0.1500 
 29 H       -4.3030    -2.5100    -0.5210 H     1 <1>   0.3700 
 30 H       -0.8840    -7.4160    -1.2270 H     1 <1>   0.1500 
 31 H       -6.3740    -1.8310     1.5210 H     1 <1>   0.0800 
 32 H       -6.7970    -4.1720     1.6980 H     1 <1>   0.0800 
 33 H       -5.0510    -4.1360     1.7270 H     1 <1>   0.0800 
 34 H       -6.7870    -1.6170    -1.1150 H     1 <1>   0.0800 
 35 H       -7.9400    -2.4960    -0.1400 H     1 <1>   0.0800 
 36 H       -6.4700    -5.6440    -0.0730 H     1 <1>   0.0800 
 37 H       -4.9340    -4.9210    -0.5050 H     1 <1>   0.0800 
 38 H       -5.9580    -3.6210    -2.0420 H     1 <1>   0.0800 
 39 H       -7.5320    -4.2390    -1.5900 H     1 <1>   0.0800 
@<TRIPOS>BOND
  1   1   2  2   
  2   2   3  am  
  3   2   4  1   
  4   3   5  1   
  5   3  21  1   
  6   4   6  1   
  7   4   7  1   
  8   4  22  1   
  9   5   8  ar  
 10   5   9  ar  
 11   6   8  1   
 12   6  23  1   
 13   7  10  1   
 14   7  24  1   
 15   7  25  1   
 16   8  11  ar  
 17   9  12  ar  
 18   9  26  1   
 19  10  13  2   
 20  10  14  am  
 21  11  15  ar  
 22  11  27  1   
 23  12  15  ar  
 24  12  28  1   
 25  14  16  1   
 26  14  29  1   
 27  15  30  1   
 28  16  17  1   
 29  16  18  1   
 30  16  31  1   
 31  17  19  1   
 32  17  32  1   
 33  17  33  1   
 34  18  20  1   
 35  18  34  1   
 36  18  35  1   
 37  19  20  1   
 38  19  36  1   
 39  19  37  1   
 40  20  38  1   
 41  20  39  1   
@<TRIPOS>SUBSTRUCTURE
  1 ****   6 GROUP 4 **** **** 0

# MOE 2024.06 (io_trps.svl 2023.06)
