@<TRIPOS>MOLECULE
NONAME
33 34 1 0 0 
SMALL
USER_CHARGES


@<TRIPOS>ATOM
  1 F        0.4730    -0.5100    -0.9500 F     1 <1>  -0.1900 
  2 C        1.6430    -1.0070    -0.6470 C.ar  1 <1>   0.1900 
  3 C        2.7660    -0.2300    -0.8420 C.ar  1 <1>  -0.1500 
  4 C        1.7060    -2.2900    -0.1430 C.ar  1 <1>  -0.1500 
  5 C        4.0270    -0.7350    -0.5230 C.ar  1 <1>   0.0860 
  6 C        2.9490    -2.8090     0.1720 C.ar  1 <1>  -0.1500 
  7 C        5.2190     0.0750    -0.7150 C.2   1 <1>   0.5440 
  8 C        4.0870    -2.0410    -0.0190 C.ar  1 <1>  -0.1500 
  9 O        5.2280     0.9850    -1.5210 O.2   1 <1>  -0.5700 
 10 N        6.3510    -0.1670     0.0070 N.am  1 <1>  -0.7300 
 11 C        7.6590     0.4890    -0.1640 C.3   1 <1>   0.2200 
 12 C        8.7170    -0.6110    -0.4260 C.3   1 <1>   0.2000 
 13 C        7.9050     1.3200     1.0990 C.3   1 <1>  -0.2400 
 14 O        8.7110    -1.5700     0.5950 O.3   1 <1>  -0.5600 
 15 C       10.1700    -0.1650    -0.5360 C.3   1 <1>  -0.1600 
 16 C        9.9560    -2.1900     0.7130 C.3   1 <1>   0.1200 
 17 C       10.9150    -1.4440    -0.2120 C.3   1 <1>  -0.1600 
 18 H        2.6680     0.7640    -1.2400 H     1 <1>   0.1500 
 19 H        0.8070    -2.8640    -0.0060 H     1 <1>   0.1500 
 20 H        3.0310    -3.8090     0.5630 H     1 <1>   0.1500 
 21 H        5.0440    -2.4700     0.2240 H     1 <1>   0.1500 
 22 H        6.3970    -0.9470     0.6650 H     1 <1>   0.3700 
 23 H        7.6250     1.1480    -1.0150 H     1 <1>   0.0800 
 24 H        8.4500    -1.1260    -1.3340 H     1 <1>   0.0800 
 25 H        8.0300     0.6800     1.9540 H     1 <1>   0.0800 
 26 H        7.0730     1.9800     1.2670 H     1 <1>   0.0800 
 27 H        8.7850     1.9250     0.9880 H     1 <1>   0.0800 
 28 H       10.4010     0.5830     0.2000 H     1 <1>   0.0800 
 29 H       10.4020     0.2140    -1.5160 H     1 <1>   0.0800 
 30 H        9.8560    -3.2250     0.4370 H     1 <1>   0.0800 
 31 H       10.2640    -2.1120     1.7410 H     1 <1>   0.0800 
 32 H       11.8650    -1.2610     0.2590 H     1 <1>   0.0800 
 33 H       11.0700    -2.0260    -1.1040 H     1 <1>   0.0800 
@<TRIPOS>BOND
  1   1   2  1   
  2   2   3  ar  
  3   2   4  ar  
  4   3   5  ar  
  5   3  18  1   
  6   4   6  ar  
  7   4  19  1   
  8   5   7  1   
  9   5   8  ar  
 10   6   8  ar  
 11   6  20  1   
 12   7   9  2   
 13   7  10  am  
 14   8  21  1   
 15  10  11  1   
 16  10  22  1   
 17  11  12  1   
 18  11  13  1   
 19  11  23  1   
 20  12  14  1   
 21  12  15  1   
 22  12  24  1   
 23  13  25  1   
 24  13  26  1   
 25  13  27  1   
 26  14  16  1   
 27  15  17  1   
 28  15  28  1   
 29  15  29  1   
 30  16  17  1   
 31  16  30  1   
 32  16  31  1   
 33  17  32  1   
 34  17  33  1   
@<TRIPOS>SUBSTRUCTURE
  1 ****  10 GROUP 4 **** **** 0

# MOE 2024.06 (io_trps.svl 2023.06)
