@<TRIPOS>MOLECULE
NONAME
44 45 1 0 0 
SMALL
USER_CHARGES


@<TRIPOS>ATOM
  1 S        0.6740     0.8220    -1.1060 S.3   1 <1>  -0.0800 
  2 C       -0.2230    -0.6790    -0.8870 C.2   1 <1>   0.1040 
  3 C       -0.7490     1.7850    -0.7670 C.2   1 <1>  -0.1400 
  4 N        0.4310    -1.8970    -0.9770 N.am  1 <1>  -0.4940 
  5 C       -1.5330    -0.4130    -0.5890 C.2   1 <1>  -0.0860 
  6 C       -1.8030     1.0020    -0.5050 C.2   1 <1>  -0.1810 
  7 C       -0.6820     3.2950    -0.7950 C.3   1 <1>   0.0200 
  8 C        1.6360    -2.2830    -1.5060 C.2   1 <1>   0.6160 
  9 C       -2.5480    -1.4060    -0.4050 C.2   1 <1>   0.8060 
 10 C       -3.1600     1.6030    -0.1710 C.3   1 <1>   0.0210 
 11 C       -2.1170     3.8710    -0.8030 C.3   1 <1>  -0.0800 
 12 O        2.2720    -1.5220    -2.2100 O.2   1 <1>  -0.5700 
 13 C        2.1720    -3.6010    -1.2680 C.2   1 <1>  -0.1360 
 14 O       -2.9780    -2.0940    -1.3130 O.2   1 <1>  -0.5700 
 15 O       -3.0960    -1.5110     0.8130 O.3   1 <1>  -0.4300 
 16 C       -3.0300     3.1000     0.1790 C.3   1 <1>  -0.1600 
 17 C       -2.1390     5.3770    -0.4780 C.3   1 <1>  -0.1600 
 18 C        1.7590    -4.6780    -0.5440 C.2   1 <1>  -0.4000 
 19 C       -4.0610    -2.4910     1.1320 C.3   1 <1>   0.1200 
 20 C       -1.3630     6.2260    -1.4930 C.3   1 <1>  -0.2400 
 21 C        0.6130    -4.9280     0.2790 C.2   1 <1>   1.0500 
 22 C       -3.3610    -3.8180     1.4160 C.3   1 <1>  -0.2400 
 23 O        0.5000    -6.0200     0.8490 O.co2 1 <1>  -0.9000 
 24 O       -0.2670    -4.0670     0.4280 O.co2 1 <1>  -0.9000 
 25 H       -0.0370    -2.6880    -0.4940 H     1 <1>   0.3700 
 26 H       -0.1430     3.6310     0.0720 H     1 <1>   0.0800 
 27 H       -0.1510     3.6100    -1.6750 H     1 <1>   0.0800 
 28 H       -3.8080     1.4810    -1.0210 H     1 <1>   0.0800 
 29 H       -3.5980     1.0870     0.6650 H     1 <1>   0.0800 
 30 H       -2.5190     3.7330    -1.7920 H     1 <1>   0.0800 
 31 H        3.1000    -3.7130    -1.7950 H     1 <1>   0.1500 
 32 H       -2.6220     3.1860     1.1710 H     1 <1>   0.0800 
 33 H       -4.0130     3.5380     0.1900 H     1 <1>   0.0800 
 34 H       -3.1610     5.7170    -0.4680 H     1 <1>   0.0800 
 35 H       -1.7340     5.5430     0.5060 H     1 <1>   0.0800 
 36 H        2.3790    -5.5510    -0.5490 H     1 <1>   0.1500 
 37 H       -4.5840    -2.1540     2.0100 H     1 <1>   0.0800 
 38 H       -4.7610    -2.5830     0.3180 H     1 <1>   0.0800 
 39 H       -1.7260     6.0460    -2.4900 H     1 <1>   0.0800 
 40 H       -0.3110     6.0030    -1.4600 H     1 <1>   0.0800 
 41 H       -1.4900     7.2700    -1.2680 H     1 <1>   0.0800 
 42 H       -2.6030    -3.6930     2.1700 H     1 <1>   0.0800 
 43 H       -2.8950    -4.1950     0.5220 H     1 <1>   0.0800 
 44 H       -4.0710    -4.5480     1.7570 H     1 <1>   0.0800 
@<TRIPOS>BOND
  1   1   2  1   
  2   1   3  1   
  3   2   4  1   
  4   2   5  2   
  5   3   6  2   
  6   3   7  1   
  7   4   8  am  
  8   4  25  1   
  9   5   6  1   
 10   5   9  1   
 11   6  10  1   
 12   7  11  1   
 13   7  26  1   
 14   7  27  1   
 15   8  12  2   
 16   8  13  1   
 17   9  14  2   
 18   9  15  1   
 19  10  16  1   
 20  10  28  1   
 21  10  29  1   
 22  11  16  1   
 23  11  17  1   
 24  11  30  1   
 25  13  18  2   
 26  13  31  1   
 27  15  19  1   
 28  16  32  1   
 29  16  33  1   
 30  17  20  1   
 31  17  34  1   
 32  17  35  1   
 33  18  21  1   
 34  18  36  1   
 35  19  22  1   
 36  19  37  1   
 37  19  38  1   
 38  20  39  1   
 39  20  40  1   
 40  20  41  1   
 41  21  23  ar  
 42  21  24  ar  
 43  22  42  1   
 44  22  43  1   
 45  22  44  1   
@<TRIPOS>SUBSTRUCTURE
  1 ****   5 GROUP 4 **** **** 0

# MOE 2024.06 (io_trps.svl 2023.06)
