@<TRIPOS>MOLECULE
NONAME
47 48 1 0 0 
SMALL
USER_CHARGES


@<TRIPOS>ATOM
  1 S        0.4470    -0.6420     1.9270 S.o2  1 <1>   1.4470 
  2 O        1.2160     0.5000     2.3630 O.2   1 <1>  -0.6500 
  3 O        0.2230    -1.7500     2.8280 O.2   1 <1>  -0.6500 
  4 N        1.2950    -1.2530     0.6190 N.am  1 <1>  -0.9140 
  5 C       -1.1170    -0.1070     1.1830 C.ar  1 <1>  -0.0090 
  6 C        2.4840    -1.9770     1.0110 C.3   1 <1>   0.3390 
  7 C       -1.3740     1.2320     0.9210 C.ar  1 <1>  -0.1500 
  8 C       -2.0940    -1.0260     0.8300 C.ar  1 <1>  -0.1500 
  9 C        3.6690    -1.0660     0.7530 C.ar  1 <1>  -0.1440 
 10 C       -2.5600     1.6380     0.3340 C.ar  1 <1>  -0.1500 
 11 C       -3.2810    -0.6240     0.2440 C.ar  1 <1>  -0.1500 
 12 C        4.2270    -0.9860    -0.5120 C.ar  1 <1>  -0.1500 
 13 C        4.1940    -0.2900     1.7720 C.ar  1 <1>  -0.1500 
 14 C       -3.5410     0.7160    -0.0170 C.ar  1 <1>  -0.1430 
 15 C        5.2940    -0.1380    -0.7500 C.ar  1 <1>  -0.1500 
 16 C        5.2610     0.5560     1.5270 C.ar  1 <1>  -0.1500 
 17 C       -4.8800     1.1160    -0.6740 C.3   1 <1>   0.1430 
 18 C        5.8270     0.6510     0.2620 C.ar  1 <1>  -0.0090 
 19 C       -5.0160     2.6320    -0.8970 C.3   1 <1>  -0.2400 
 20 C       -5.0040     0.4340    -2.0450 C.3   1 <1>  -0.2400 
 21 C       -6.0450     0.6740     0.2230 C.3   1 <1>  -0.2400 
 22 S        7.2350     1.7480    -0.0550 S.o2  1 <1>   1.4470 
 23 O        7.4240     2.7180     0.9940 O.2   1 <1>  -0.6500 
 24 O        7.3110     2.1360    -1.4420 O.2   1 <1>  -0.6500 
 25 N        8.5550     0.7690     0.1180 N.am  1 <1>  -0.9780 
 26 H        1.6590    -0.4180     0.1640 H     1 <1>   0.4200 
 27 H        2.5720    -2.8610     0.4030 H     1 <1>   0.0800 
 28 H        2.4570    -2.2880     2.0430 H     1 <1>   0.0800 
 29 H       -0.6370     1.9730     1.1820 H     1 <1>   0.1500 
 30 H       -1.9220    -2.0730     1.0180 H     1 <1>   0.1500 
 31 H       -2.6930     2.6900     0.1630 H     1 <1>   0.1500 
 32 H       -4.0050    -1.3780    -0.0080 H     1 <1>   0.1500 
 33 H        3.8320    -1.5820    -1.3190 H     1 <1>   0.1500 
 34 H        3.7700    -0.3300     2.7630 H     1 <1>   0.1500 
 35 H        5.7190    -0.0870    -1.7390 H     1 <1>   0.1500 
 36 H        5.6560     1.1540     2.3310 H     1 <1>   0.1500 
 37 H       -4.2360     2.9910    -1.5450 H     1 <1>   0.0800 
 38 H       -4.9630     3.1580     0.0400 H     1 <1>   0.0800 
 39 H       -5.9610     2.8640    -1.3550 H     1 <1>   0.0800 
 40 H       -4.1730     0.7110    -2.6690 H     1 <1>   0.0800 
 41 H       -5.9140     0.7290    -2.5360 H     1 <1>   0.0800 
 42 H       -5.0100    -0.6360    -1.9480 H     1 <1>   0.0800 
 43 H       -6.0610    -0.3940     0.3410 H     1 <1>   0.0800 
 44 H       -5.9480     1.1190     1.1970 H     1 <1>   0.0800 
 45 H       -6.9870     0.9760    -0.1990 H     1 <1>   0.0800 
 46 H        9.1020     1.2440     0.8320 H     1 <1>   0.4200 
 47 H        9.0540     0.9000    -0.7580 H     1 <1>   0.4200 
@<TRIPOS>BOND
  1   1   2  2   
  2   1   3  2   
  3   1   4  am  
  4   1   5  1   
  5   4   6  1   
  6   4  26  1   
  7   5   7  ar  
  8   5   8  ar  
  9   6   9  1   
 10   6  27  1   
 11   6  28  1   
 12   7  10  ar  
 13   7  29  1   
 14   8  11  ar  
 15   8  30  1   
 16   9  12  ar  
 17   9  13  ar  
 18  10  14  ar  
 19  10  31  1   
 20  11  14  ar  
 21  11  32  1   
 22  12  15  ar  
 23  12  33  1   
 24  13  16  ar  
 25  13  34  1   
 26  14  17  1   
 27  15  18  ar  
 28  15  35  1   
 29  16  18  ar  
 30  16  36  1   
 31  17  19  1   
 32  17  20  1   
 33  17  21  1   
 34  18  22  1   
 35  19  37  1   
 36  19  38  1   
 37  19  39  1   
 38  20  40  1   
 39  20  41  1   
 40  20  42  1   
 41  21  43  1   
 42  21  44  1   
 43  21  45  1   
 44  22  23  2   
 45  22  24  2   
 46  22  25  am  
 47  25  46  1   
 48  25  47  1   
@<TRIPOS>SUBSTRUCTURE
  1 ****   4 GROUP 4 **** **** 0

# MOE 2024.06 (io_trps.svl 2023.06)
