@<TRIPOS>MOLECULE
NONAME
39 40 1 0 0 
SMALL
USER_CHARGES


@<TRIPOS>ATOM
  1 O        0.5230     0.5270     1.0310 O.2   1 <1>  -0.5700 
  2 C        0.8010     1.4370     0.2890 C.2   1 <1>   0.5690 
  3 N       -0.1050     2.3690    -0.1390 N.am  1 <1>  -0.5470 
  4 C        2.2410     1.5960    -0.2030 C.3   1 <1>  -0.0190 
  5 C       -1.4800     2.5190     0.1100 C.ar  1 <1>   0.1170 
  6 C        3.0280     0.2680    -0.1970 C.3   1 <1>  -0.1600 
  7 C        2.9940     2.6530     0.6260 C.3   1 <1>  -0.1600 
  8 C       -2.0710     3.7770    -0.0320 C.ar  1 <1>  -0.1440 
  9 C       -2.2830     1.4420     0.4760 C.ar  1 <1>  -0.1500 
 10 C        4.4710     0.4620    -0.6690 C.3   1 <1>   0.1400 
 11 C        4.4400     2.8240     0.1500 C.3   1 <1>   0.1400 
 12 C       -3.4300     3.9320     0.1930 C.ar  1 <1>  -0.1500 
 13 C       -1.2510     5.0000    -0.4270 C.3   1 <1>  -0.0970 
 14 C       -3.6360     1.6040     0.7010 C.ar  1 <1>  -0.1500 
 15 N        5.1290     1.5050     0.1660 N.am  1 <1>  -0.6600 
 16 C       -4.2130     2.8520     0.5590 C.ar  1 <1>  -0.1500 
 17 C        6.2550     1.3120     0.9260 C.2   1 <1>   0.5690 
 18 O        6.7630     2.2020     1.5650 O.2   1 <1>  -0.5700 
 19 C        6.9170    -0.0450     0.9960 C.3   1 <1>  -0.1790 
 20 H        0.2870     3.1270    -0.6890 H     1 <1>   0.3700 
 21 H        2.1970     1.9370    -1.2220 H     1 <1>   0.0800 
 22 H        2.5360    -0.4450    -0.8340 H     1 <1>   0.0800 
 23 H        3.0440    -0.1420     0.7980 H     1 <1>   0.0800 
 24 H        3.0050     2.3580     1.6620 H     1 <1>   0.0800 
 25 H        2.4910     3.6010     0.5650 H     1 <1>   0.0800 
 26 H       -1.8540     0.4630     0.5860 H     1 <1>   0.1500 
 27 H        4.4800     0.7830    -1.6970 H     1 <1>   0.0800 
 28 H        4.9930    -0.4750    -0.6120 H     1 <1>   0.0800 
 29 H        4.9450     3.5280     0.7900 H     1 <1>   0.0800 
 30 H        4.4580     3.2160    -0.8520 H     1 <1>   0.0800 
 31 H       -3.8950     4.8970     0.0860 H     1 <1>   0.1500 
 32 H       -0.4370     5.1360     0.2620 H     1 <1>   0.0800 
 33 H       -1.8550     5.8900    -0.4070 H     1 <1>   0.0800 
 34 H       -0.8630     4.8800    -1.4220 H     1 <1>   0.0800 
 35 H       -4.2390     0.7590     0.9860 H     1 <1>   0.1500 
 36 H       -5.2670     2.9820     0.7320 H     1 <1>   0.1500 
 37 H        7.2590    -0.3350     0.0210 H     1 <1>   0.0800 
 38 H        6.2220    -0.7700     1.3740 H     1 <1>   0.0800 
 39 H        7.7620    -0.0020     1.6580 H     1 <1>   0.0800 
@<TRIPOS>BOND
  1   1   2  2   
  2   2   3  am  
  3   2   4  1   
  4   3   5  1   
  5   3  20  1   
  6   4   6  1   
  7   4   7  1   
  8   4  21  1   
  9   5   8  ar  
 10   5   9  ar  
 11   6  10  1   
 12   6  22  1   
 13   6  23  1   
 14   7  11  1   
 15   7  24  1   
 16   7  25  1   
 17   8  12  ar  
 18   8  13  1   
 19   9  14  ar  
 20   9  26  1   
 21  10  15  1   
 22  10  27  1   
 23  10  28  1   
 24  11  15  1   
 25  11  29  1   
 26  11  30  1   
 27  12  16  ar  
 28  12  31  1   
 29  13  32  1   
 30  13  33  1   
 31  13  34  1   
 32  14  16  ar  
 33  14  35  1   
 34  15  17  am  
 35  16  36  1   
 36  17  18  2   
 37  17  19  1   
 38  19  37  1   
 39  19  38  1   
 40  19  39  1   
@<TRIPOS>SUBSTRUCTURE
  1 ****   2 GROUP 4 **** **** 0

# MOE 2024.06 (io_trps.svl 2023.06)
