@<TRIPOS>MOLECULE
NONAME
39 39 1 0 0 
SMALL
USER_CHARGES


@<TRIPOS>ATOM
  1 O        6.0480    -0.5610     0.1990 O.3   1 <1>  -0.3630 
  2 C        7.3720    -0.5340    -0.1290 C.ar  1 <1>   0.0830 
  3 C        5.4170     0.4740     0.9230 C.3   1 <1>   0.0400 
  4 C        7.9660    -1.6640    -0.7160 C.ar  1 <1>   0.0830 
  5 C        8.1590     0.5870     0.1240 C.ar  1 <1>  -0.1500 
  6 O        7.3330    -2.8300    -1.0330 O.3   1 <1>  -0.3630 
  7 C        9.3180    -1.6510    -1.0110 C.ar  1 <1>  -0.1500 
  8 C        9.5160     0.5890    -0.1830 C.ar  1 <1>   0.0830 
  9 C        5.9780    -2.8450    -1.4270 C.3   1 <1>   0.0400 
 10 C       10.0970    -0.5380    -0.7510 C.ar  1 <1>  -0.1440 
 11 O       10.3350     1.6530     0.0590 O.3   1 <1>  -0.3630 
 12 C       11.5700    -0.5510    -1.0830 C.3   1 <1>   0.4860 
 13 C        9.7980     2.9260     0.3630 C.3   1 <1>   0.0400 
 14 N       12.2940    -0.4320     0.1960 N.4   1 <1>  -0.9060 
 15 C       13.7490    -0.3190     0.0950 C.3   1 <1>   0.4230 
 16 C       14.3160    -0.4870     1.4980 C.3   1 <1>  -0.2400 
 17 C       14.1100     1.0510    -0.4730 C.3   1 <1>  -0.2400 
 18 H        4.3980     0.1800     1.1040 H     1 <1>   0.0800 
 19 H        5.4350     1.3740     0.3360 H     1 <1>   0.0800 
 20 H        5.9270     0.6080     1.8600 H     1 <1>   0.0800 
 21 H        7.7160     1.4550     0.5660 H     1 <1>   0.1500 
 22 H        9.7400    -2.5370    -1.4540 H     1 <1>   0.1500 
 23 H        5.7930    -3.7620    -1.9560 H     1 <1>   0.0800 
 24 H        5.7860    -2.0030    -2.0690 H     1 <1>   0.0800 
 25 H        5.3600    -2.8040    -0.5480 H     1 <1>   0.0800 
 26 H       11.7970     0.2860    -1.7240 H     1 <1>   0.0800 
 27 H       11.8350    -1.4660    -1.5880 H     1 <1>   0.0800 
 28 H       10.6060     3.6370     0.3920 H     1 <1>   0.0800 
 29 H        9.3170     2.8880     1.3250 H     1 <1>   0.0800 
 30 H        9.0970     3.2060    -0.4040 H     1 <1>   0.0800 
 31 H       12.0280    -1.2210     0.7930 H     1 <1>   0.4500 
 32 H       11.9070     0.4110     0.6450 H     1 <1>   0.4500 
 33 H       14.1400    -1.0970    -0.5430 H     1 <1>   0.0800 
 34 H       13.9460     0.2740     2.1630 H     1 <1>   0.0800 
 35 H       15.3880    -0.4080     1.4660 H     1 <1>   0.0800 
 36 H       14.0730    -1.4580     1.8930 H     1 <1>   0.0800 
 37 H       13.6980     1.8430     0.1290 H     1 <1>   0.0800 
 38 H       13.7690     1.1570    -1.4860 H     1 <1>   0.0800 
 39 H       15.1800     1.1650    -0.4820 H     1 <1>   0.0800 
@<TRIPOS>BOND
  1   1   2  1   
  2   1   3  1   
  3   2   4  ar  
  4   2   5  ar  
  5   3  18  1   
  6   3  19  1   
  7   3  20  1   
  8   4   6  1   
  9   4   7  ar  
 10   5   8  ar  
 11   5  21  1   
 12   6   9  1   
 13   7  10  ar  
 14   7  22  1   
 15   8  10  ar  
 16   8  11  1   
 17   9  23  1   
 18   9  24  1   
 19   9  25  1   
 20  10  12  1   
 21  11  13  1   
 22  12  14  1   
 23  12  26  1   
 24  12  27  1   
 25  13  28  1   
 26  13  29  1   
 27  13  30  1   
 28  14  15  1   
 29  14  31  1   
 30  14  32  1   
 31  15  16  1   
 32  15  17  1   
 33  15  33  1   
 34  16  34  1   
 35  16  35  1   
 36  16  36  1   
 37  17  37  1   
 38  17  38  1   
 39  17  39  1   
@<TRIPOS>SUBSTRUCTURE
  1 ****  10 GROUP 4 **** **** 0

# MOE 2024.06 (io_trps.svl 2023.06)
