@<TRIPOS>MOLECULE
NONAME
32 32 1 0 0 
SMALL
USER_CHARGES


@<TRIPOS>ATOM
  1 BR      -1.6330     0.5860     1.6210 Br    1 <1>  -0.1110 
  2 C       -0.6960     2.0440     0.7860 C.ar  1 <1>   0.1110 
  3 C        0.5140     2.4460     1.3200 C.ar  1 <1>  -0.1500 
  4 C       -1.2550     2.6490    -0.3220 C.ar  1 <1>  -0.1500 
  5 C        1.1930     3.4950     0.7190 C.ar  1 <1>  -0.1440 
  6 C       -0.5750     3.6950    -0.9200 C.ar  1 <1>  -0.1500 
  7 C        0.6500     4.1220    -0.4040 C.ar  1 <1>   0.0830 
  8 C        2.5160     3.9630     1.2850 C.3   1 <1>   0.4870 
  9 O        1.3670     5.1380    -0.9570 O.3   1 <1>  -0.3630 
 10 N        3.5330     3.7560     0.2360 N.4   1 <1>  -0.9060 
 11 C        0.7860     5.9960    -1.9220 C.3   1 <1>   0.0400 
 12 C        4.8750     4.2860     0.6020 C.3   1 <1>   0.3430 
 13 C        5.8810     4.1180    -0.5390 C.3   1 <1>   0.1200 
 14 O        7.0900     4.6240    -0.0900 O.3   1 <1>  -0.5600 
 15 C        8.1270     4.5540    -1.0190 C.3   1 <1>   0.0400 
 16 H        0.8940     1.9360     2.1890 H     1 <1>   0.1500 
 17 H       -2.2000     2.3060    -0.7050 H     1 <1>   0.1500 
 18 H       -1.0160     4.1580    -1.7840 H     1 <1>   0.1500 
 19 H        2.7660     3.4040     2.1720 H     1 <1>   0.0800 
 20 H        2.4470     5.0100     1.5360 H     1 <1>   0.0800 
 21 H        3.1520     4.2470    -0.5900 H     1 <1>   0.4500 
 22 H        3.5620     2.7590    -0.0010 H     1 <1>   0.4500 
 23 H        1.4820     6.7870    -2.1380 H     1 <1>   0.0800 
 24 H       -0.1220     6.4130    -1.5210 H     1 <1>   0.0800 
 25 H        0.5840     5.4360    -2.8190 H     1 <1>   0.0800 
 26 H        5.2500     3.7640     1.4680 H     1 <1>   0.0800 
 27 H        4.8000     5.3350     0.8390 H     1 <1>   0.0800 
 28 H        5.5780     4.6800    -1.4070 H     1 <1>   0.0800 
 29 H        6.0190     3.0780    -0.7850 H     1 <1>   0.0800 
 30 H        9.0110     4.9710    -0.5670 H     1 <1>   0.0800 
 31 H        7.8670     5.1280    -1.8920 H     1 <1>   0.0800 
 32 H        8.3080     3.5260    -1.2800 H     1 <1>   0.0800 
@<TRIPOS>BOND
  1   1   2  1   
  2   2   3  ar  
  3   2   4  ar  
  4   3   5  ar  
  5   3  16  1   
  6   4   6  ar  
  7   4  17  1   
  8   5   7  ar  
  9   5   8  1   
 10   6   7  ar  
 11   6  18  1   
 12   7   9  1   
 13   8  10  1   
 14   8  19  1   
 15   8  20  1   
 16   9  11  1   
 17  10  12  1   
 18  10  21  1   
 19  10  22  1   
 20  11  23  1   
 21  11  24  1   
 22  11  25  1   
 23  12  13  1   
 24  12  26  1   
 25  12  27  1   
 26  13  14  1   
 27  13  28  1   
 28  13  29  1   
 29  14  15  1   
 30  15  30  1   
 31  15  31  1   
 32  15  32  1   
@<TRIPOS>SUBSTRUCTURE
  1 ****   5 GROUP 4 **** **** 0

# MOE 2024.06 (io_trps.svl 2023.06)
