@<TRIPOS>MOLECULE
NONAME
36 36 1 0 0 
SMALL
USER_CHARGES


@<TRIPOS>ATOM
  1 S        0.5110     0.5130     1.3180 S.o2  1 <1>   1.3330 
  2 O        1.8480     0.5340     1.8650 O.2   1 <1>  -0.6500 
  3 O        0.1010    -0.5800     0.4740 O.2   1 <1>  -0.6500 
  4 N        0.3310     1.9890     0.4350 N.am  1 <1>  -0.6930 
  5 C       -0.6490     0.7160     2.6510 C.3   1 <1>  -0.1350 
  6 C       -0.8650     2.3030    -0.2040 C.ar  1 <1>   0.1990 
  7 C        1.5800     2.5820    -0.1390 C.3   1 <1>   0.2570 
  8 C       -1.6550     3.3710     0.2270 C.ar  1 <1>  -0.1440 
  9 C       -1.2850     1.5520    -1.2950 C.ar  1 <1>  -0.1500 
 10 C        2.2930     1.7080    -1.1790 C.2   1 <1>   0.5690 
 11 C       -2.8470     3.6490    -0.4250 C.ar  1 <1>  -0.1500 
 12 C       -1.2320     4.2450     1.4010 C.3   1 <1>  -0.0970 
 13 C       -2.4730     1.8380    -1.9390 C.ar  1 <1>  -0.1500 
 14 O        2.2290     2.0210    -2.3440 O.2   1 <1>  -0.5700 
 15 N        3.0030     0.6200    -0.7670 N.am  1 <1>  -0.7300 
 16 C       -3.2640     2.8870    -1.5040 C.ar  1 <1>  -0.1430 
 17 C        3.6730    -0.3600    -1.6540 C.3   1 <1>   0.0600 
 18 C       -4.5700     3.2050    -2.2090 C.3   1 <1>  -0.0970 
 19 H       -0.6360    -0.1490     3.2830 H     1 <1>   0.0800 
 20 H       -1.6400     0.8420     2.2610 H     1 <1>   0.0800 
 21 H       -0.3930     1.5760     3.2370 H     1 <1>   0.0800 
 22 H        2.2680     2.7920     0.6590 H     1 <1>   0.0800 
 23 H        1.3350     3.5180    -0.6090 H     1 <1>   0.0800 
 24 H       -0.6730     0.7390    -1.6430 H     1 <1>   0.1500 
 25 H       -3.4600     4.4690    -0.0950 H     1 <1>   0.1500 
 26 H       -0.2450     4.6360     1.2330 H     1 <1>   0.0800 
 27 H       -1.2300     3.6700     2.3070 H     1 <1>   0.0800 
 28 H       -1.9040     5.0750     1.5260 H     1 <1>   0.0800 
 29 H       -2.7760     1.2400    -2.7810 H     1 <1>   0.1500 
 30 H        2.9570     0.3610     0.2310 H     1 <1>   0.3700 
 31 H        3.6370    -0.0260    -2.6770 H     1 <1>   0.0800 
 32 H        3.1740    -1.3110    -1.5810 H     1 <1>   0.0800 
 33 H        4.7010    -0.4740    -1.3590 H     1 <1>   0.0800 
 34 H       -4.3940     3.9220    -2.9910 H     1 <1>   0.0800 
 35 H       -5.2830     3.6130    -1.5160 H     1 <1>   0.0800 
 36 H       -4.9890     2.3150    -2.6420 H     1 <1>   0.0800 
@<TRIPOS>BOND
  1   1   2  2   
  2   1   3  2   
  3   1   4  am  
  4   1   5  1   
  5   4   6  1   
  6   4   7  1   
  7   5  19  1   
  8   5  20  1   
  9   5  21  1   
 10   6   8  ar  
 11   6   9  ar  
 12   7  10  1   
 13   7  22  1   
 14   7  23  1   
 15   8  11  ar  
 16   8  12  1   
 17   9  13  ar  
 18   9  24  1   
 19  10  14  2   
 20  10  15  am  
 21  11  16  ar  
 22  11  25  1   
 23  12  26  1   
 24  12  27  1   
 25  12  28  1   
 26  13  16  ar  
 27  13  29  1   
 28  15  17  1   
 29  15  30  1   
 30  16  18  1   
 31  17  31  1   
 32  17  32  1   
 33  17  33  1   
 34  18  34  1   
 35  18  35  1   
 36  18  36  1   
@<TRIPOS>SUBSTRUCTURE
  1 ****   6 GROUP 4 **** **** 0

# MOE 2024.06 (io_trps.svl 2023.06)
