@<TRIPOS>MOLECULE
NONAME
26 25 1 0 0 
SMALL
USER_CHARGES


@<TRIPOS>ATOM
  1 O       -3.3910    -2.7200    -2.5220 O.co2 1 <1>  -0.9000 
  2 C       -2.6140    -3.4760    -1.8880 C.2   1 <1>   0.9060 
  3 O       -1.4640    -3.8110    -2.2470 O.co2 1 <1>  -0.9000 
  4 C       -3.1260    -4.0370    -0.5460 C.3   1 <1>   0.0340 
  5 N       -4.4920    -3.5920    -0.2170 N.am  1 <1>  -0.7300 
  6 C       -5.2440    -3.9670     0.8420 C.2   1 <1>   0.5690 
  7 O       -4.8460    -4.7230     1.6950 O.2   1 <1>  -0.5700 
  8 C       -6.6460    -3.4030     0.9500 C.3   1 <1>  -0.0990 
  9 C       -7.6070    -4.0540    -0.0590 C.3   1 <1>  -0.1600 
 10 C       -9.0240    -3.4800     0.0640 C.3   1 <1>  -0.1600 
 11 C       -9.9710    -4.1310    -0.9490 C.3   1 <1>  -0.1600 
 12 C      -11.3860    -3.5590    -0.8290 C.3   1 <1>  -0.2400 
 13 H       -2.4350    -3.7150     0.2310 H     1 <1>   0.0800 
 14 H       -3.0960    -5.1230    -0.6100 H     1 <1>   0.0800 
 15 H       -4.8640    -2.9730    -0.9310 H     1 <1>   0.3700 
 16 H       -6.6010    -2.3430     0.7830 H     1 <1>   0.0800 
 17 H       -7.0030    -3.5690     1.9500 H     1 <1>   0.0800 
 18 H       -7.6290    -5.1170     0.1160 H     1 <1>   0.0800 
 19 H       -7.2360    -3.8910    -1.0570 H     1 <1>   0.0800 
 20 H       -8.9940    -2.4170    -0.1070 H     1 <1>   0.0800 
 21 H       -9.3940    -3.6500     1.0610 H     1 <1>   0.0800 
 22 H      -10.0020    -5.1950    -0.7820 H     1 <1>   0.0800 
 23 H       -9.6030    -3.9620    -1.9480 H     1 <1>   0.0800 
 24 H      -11.7810    -3.7380     0.1560 H     1 <1>   0.0800 
 25 H      -12.0340    -4.0290    -1.5480 H     1 <1>   0.0800 
 26 H      -11.3800    -2.5000    -1.0150 H     1 <1>   0.0800 
@<TRIPOS>BOND
  1   1   2  ar  
  2   2   3  ar  
  3   2   4  1   
  4   4   5  1   
  5   4  13  1   
  6   4  14  1   
  7   5   6  am  
  8   5  15  1   
  9   6   7  2   
 10   6   8  1   
 11   8   9  1   
 12   8  16  1   
 13   8  17  1   
 14   9  10  1   
 15   9  18  1   
 16   9  19  1   
 17  10  11  1   
 18  10  20  1   
 19  10  21  1   
 20  11  12  1   
 21  11  22  1   
 22  11  23  1   
 23  12  24  1   
 24  12  25  1   
 25  12  26  1   
@<TRIPOS>SUBSTRUCTURE
  1 ****   5 GROUP 4 **** **** 0

# MOE 2024.06 (io_trps.svl 2023.06)
