@<TRIPOS>MOLECULE
NONAME
40 42 1 0 0 
SMALL
USER_CHARGES


@<TRIPOS>ATOM
  1 O       -3.5750    -1.3490    -0.1740 O.2   1 <1>  -0.5700 
  2 C       -4.6300    -0.7980    -0.2510 C.2   1 <1>   0.4480 
  3 C       -5.0080     0.0650    -1.4280 C.3   1 <1>  -0.0190 
  4 C       -5.6560    -0.7590     0.8600 C.3   1 <1>  -0.0190 
  5 C       -4.8900     1.5300    -0.9330 C.3   1 <1>   0.4230 
  6 C       -6.3850    -0.3720    -1.9940 C.3   1 <1>  -0.1600 
  7 C       -5.7580     0.6950     1.3810 C.3   1 <1>  -0.1600 
  8 C       -6.9840    -1.3320     0.3290 C.3   1 <1>  -0.1600 
  9 N       -3.4860     1.8920    -0.5020 N.4   1 <1>  -0.9590 
 10 C       -5.8360     1.7740     0.2710 C.3   1 <1>  -0.1600 
 11 C       -7.4940    -0.6620    -0.9600 C.3   1 <1>  -0.1600 
 12 C       -3.3110     3.3710    -0.3350 C.3   1 <1>   0.3430 
 13 C       -2.3820     1.3470    -1.3640 C.3   1 <1>   0.3430 
 14 C       -1.9800     3.6700     0.3570 C.3   1 <1>  -0.1600 
 15 C       -1.0250     1.6030    -0.7060 C.3   1 <1>  -0.1600 
 16 C       -0.7960     3.0920    -0.4240 C.3   1 <1>  -0.1600 
 17 H       -4.3120    -0.0980    -2.2280 H     1 <1>   0.0800 
 18 H       -5.3170    -1.3900     1.6650 H     1 <1>   0.0800 
 19 H       -5.1790     2.1810    -1.7420 H     1 <1>   0.0800 
 20 H       -6.7390     0.3480    -2.7120 H     1 <1>   0.0800 
 21 H       -6.2220    -1.2900    -2.5350 H     1 <1>   0.0800 
 22 H       -6.6080     0.7860     2.0370 H     1 <1>   0.0800 
 23 H       -4.8850     0.8890     1.9800 H     1 <1>   0.0800 
 24 H       -7.7420    -1.2740     1.0920 H     1 <1>   0.0800 
 25 H       -6.8290    -2.3780     0.1210 H     1 <1>   0.0800 
 26 H       -3.3410     1.4580     0.4200 H     1 <1>   0.4500 
 27 H       -6.8390     1.8260    -0.1000 H     1 <1>   0.0800 
 28 H       -5.6750     2.7380     0.7140 H     1 <1>   0.0800 
 29 H       -8.2260    -1.3100    -1.4140 H     1 <1>   0.0800 
 30 H       -8.0290     0.2360    -0.7140 H     1 <1>   0.0800 
 31 H       -4.1060     3.7880     0.2580 H     1 <1>   0.0800 
 32 H       -3.3280     3.8500    -1.3010 H     1 <1>   0.0800 
 33 H       -2.4090     1.8130    -2.3360 H     1 <1>   0.0800 
 34 H       -2.4890     0.2830    -1.4910 H     1 <1>   0.0800 
 35 H       -1.9960     3.2670     1.3550 H     1 <1>   0.0800 
 36 H       -1.8600     4.7360     0.4430 H     1 <1>   0.0800 
 37 H       -0.2470     1.2400    -1.3540 H     1 <1>   0.0800 
 38 H       -0.9650     1.0390     0.2100 H     1 <1>   0.0800 
 39 H        0.1140     3.2230     0.1380 H     1 <1>   0.0800 
 40 H       -0.6850     3.6210    -1.3560 H     1 <1>   0.0800 
@<TRIPOS>BOND
  1   1   2  2   
  2   2   3  1   
  3   2   4  1   
  4   3   5  1   
  5   3   6  1   
  6   3  17  1   
  7   4   7  1   
  8   4   8  1   
  9   4  18  1   
 10   5   9  1   
 11   5  10  1   
 12   5  19  1   
 13   6  11  1   
 14   6  20  1   
 15   6  21  1   
 16   7  10  1   
 17   7  22  1   
 18   7  23  1   
 19   8  11  1   
 20   8  24  1   
 21   8  25  1   
 22   9  12  1   
 23   9  13  1   
 24   9  26  1   
 25  10  27  1   
 26  10  28  1   
 27  11  29  1   
 28  11  30  1   
 29  12  14  1   
 30  12  31  1   
 31  12  32  1   
 32  13  15  1   
 33  13  33  1   
 34  13  34  1   
 35  14  16  1   
 36  14  35  1   
 37  14  36  1   
 38  15  16  1   
 39  15  37  1   
 40  15  38  1   
 41  16  39  1   
 42  16  40  1   
@<TRIPOS>SUBSTRUCTURE
  1 ****   5 GROUP 4 **** **** 0

# MOE 2024.06 (io_trps.svl 2023.06)
