@<TRIPOS>MOLECULE
NONAME
50 52 1 0 0 
SMALL
USER_CHARGES


@<TRIPOS>ATOM
  1 O       -0.0390     2.1690     3.2220 O.2   1 <1>  -0.5700 
  2 C        1.0050     2.1810     2.6000 C.2   1 <1>   0.5690 
  3 N        1.1420     2.8160     1.4030 N.am  1 <1>  -0.3400 
  4 C        2.1870     1.4640     3.2110 C.3   1 <1>  -0.1790 
  5 N        2.4140     3.1870     0.7790 N.pl3 1 <1>  -0.4890 
  6 C        0.0620     3.6770     0.8910 C.3   1 <1>   0.5890 
  7 C        3.2660     2.2240     0.2410 C.ar  1 <1>   0.1000 
  8 C        2.2370     4.5290     0.1820 C.3   1 <1>   0.2890 
  9 N       -1.0610     2.9030     0.2760 N.pl3 1 <1>  -0.4890 
 10 C        0.7410     4.5950    -0.1260 C.3   1 <1>  -0.1600 
 11 C        4.6130     2.2120     0.5890 C.ar  1 <1>  -0.1500 
 12 C        2.8020     1.2550    -0.6420 C.ar  1 <1>  -0.1500 
 13 C        3.0950     4.7800    -1.0610 C.3   1 <1>  -0.2400 
 14 N       -2.4050     3.4710     0.4200 N.am  1 <1>  -0.4100 
 15 C       -0.8820     1.7920    -0.5370 C.ar  1 <1>   0.1000 
 16 C        5.4710     1.2590     0.0720 C.ar  1 <1>  -0.1500 
 17 C        3.6540     0.2990    -1.1610 C.ar  1 <1>  -0.1500 
 18 C       -2.9140     4.5240    -0.2700 C.2   1 <1>   0.5690 
 19 C       -0.6770     0.5300     0.0140 C.ar  1 <1>  -0.1500 
 20 C       -0.9290     1.9140    -1.9220 C.ar  1 <1>  -0.1500 
 21 C        4.9930     0.2990    -0.8040 C.ar  1 <1>  -0.1500 
 22 O       -2.2670     5.1930    -1.0470 O.2   1 <1>  -0.5700 
 23 C       -4.3570     4.8950    -0.0380 C.3   1 <1>  -0.1790 
 24 C       -0.5000    -0.5760    -0.7970 C.ar  1 <1>  -0.1500 
 25 C       -0.7520     0.8110    -2.7360 C.ar  1 <1>  -0.1500 
 26 C       -0.5340    -0.4360    -2.1750 C.ar  1 <1>  -0.1500 
 27 H        2.9910     2.1580     3.3640 H     1 <1>   0.0800 
 28 H        2.5120     0.6840     2.5480 H     1 <1>   0.0800 
 29 H        1.9100     1.0310     4.1530 H     1 <1>   0.0800 
 30 H       -0.3200     4.2600     1.7100 H     1 <1>   0.0800 
 31 H        2.4790     5.2570     0.9380 H     1 <1>   0.0800 
 32 H        0.3650     5.5980    -0.0540 H     1 <1>   0.0800 
 33 H        0.5570     4.2330    -1.1190 H     1 <1>   0.0800 
 34 H        4.9780     2.9560     1.2710 H     1 <1>   0.1500 
 35 H        1.7670     1.2610    -0.9230 H     1 <1>   0.1500 
 36 H        2.8830     4.0500    -1.8230 H     1 <1>   0.0800 
 37 H        4.1380     4.7350    -0.8070 H     1 <1>   0.0800 
 38 H        2.8850     5.7560    -1.4580 H     1 <1>   0.0800 
 39 H       -3.0010     2.9720     1.0860 H     1 <1>   0.3700 
 40 H        6.5110     1.2610     0.3510 H     1 <1>   0.1500 
 41 H        3.2750    -0.4420    -1.8420 H     1 <1>   0.1500 
 42 H       -0.6580     0.4270     1.0830 H     1 <1>   0.1500 
 43 H       -1.1090     2.8850    -2.3490 H     1 <1>   0.1500 
 44 H        5.6580    -0.4450    -1.2070 H     1 <1>   0.1500 
 45 H       -4.9820     4.0310    -0.1670 H     1 <1>   0.0800 
 46 H       -4.6560     5.6470    -0.7440 H     1 <1>   0.0800 
 47 H       -4.4770     5.2820     0.9570 H     1 <1>   0.0800 
 48 H       -0.3360    -1.5440    -0.3570 H     1 <1>   0.1500 
 49 H       -0.7860     0.9230    -3.8060 H     1 <1>   0.1500 
 50 H       -0.3960    -1.2960    -2.8080 H     1 <1>   0.1500 
@<TRIPOS>BOND
  1   1   2  2   
  2   2   3  am  
  3   2   4  1   
  4   3   5  1   
  5   3   6  1   
  6   4  27  1   
  7   4  28  1   
  8   4  29  1   
  9   5   7  1   
 10   5   8  1   
 11   6   9  1   
 12   6  10  1   
 13   6  30  1   
 14   7  11  ar  
 15   7  12  ar  
 16   8  10  1   
 17   8  13  1   
 18   8  31  1   
 19   9  14  1   
 20   9  15  1   
 21  10  32  1   
 22  10  33  1   
 23  11  16  ar  
 24  11  34  1   
 25  12  17  ar  
 26  12  35  1   
 27  13  36  1   
 28  13  37  1   
 29  13  38  1   
 30  14  18  am  
 31  14  39  1   
 32  15  19  ar  
 33  15  20  ar  
 34  16  21  ar  
 35  16  40  1   
 36  17  21  ar  
 37  17  41  1   
 38  18  22  2   
 39  18  23  1   
 40  19  24  ar  
 41  19  42  1   
 42  20  25  ar  
 43  20  43  1   
 44  21  44  1   
 45  23  45  1   
 46  23  46  1   
 47  23  47  1   
 48  24  26  ar  
 49  24  48  1   
 50  25  26  ar  
 51  25  49  1   
 52  26  50  1   
@<TRIPOS>SUBSTRUCTURE
  1 ****   3 GROUP 4 **** **** 0

# MOE 2024.06 (io_trps.svl 2023.06)
