@<TRIPOS>MOLECULE
NONAME
53 55 1 0 0 
SMALL
USER_CHARGES


@<TRIPOS>ATOM
  1 S        0.4840    -0.6910    -1.8450 S.o2  1 <1>   1.4470 
  2 O        1.5430    -1.4610    -2.4630 O.2   1 <1>  -0.6500 
  3 O        0.2940     0.6870    -2.2400 O.2   1 <1>  -0.6500 
  4 N        0.7690    -0.7120    -0.1750 N.am  1 <1>  -0.8490 
  5 C       -1.0960    -1.5720    -2.0220 C.ar  1 <1>  -0.0090 
  6 C        1.7870     0.2710     0.2080 C.3   1 <1>   0.1960 
  7 C        1.1230    -2.0510     0.3100 C.3   1 <1>   0.1960 
  8 C       -2.1110    -1.4270    -1.0850 C.ar  1 <1>  -0.1500 
  9 C       -1.3320    -2.4010    -3.1110 C.ar  1 <1>  -0.1500 
 10 C        1.9020     0.3480     1.7350 C.3   1 <1>  -0.1600 
 11 C        1.1970    -2.0550     1.8400 C.3   1 <1>  -0.1600 
 12 C       -3.3360    -2.0820    -1.1930 C.ar  1 <1>   0.0860 
 13 C       -2.5350    -3.0680    -3.2500 C.ar  1 <1>  -0.1500 
 14 C        2.2100    -1.0230     2.3480 C.3   1 <1>  -0.1600 
 15 C       -4.3650    -1.9040    -0.1860 C.2   1 <1>   0.5440 
 16 C       -3.5240    -2.9120    -2.2980 C.ar  1 <1>  -0.1500 
 17 O       -4.0640    -1.7490     0.9810 O.2   1 <1>  -0.5700 
 18 N       -5.6850    -1.8940    -0.5390 N.am  1 <1>  -0.7300 
 19 C       -6.8210    -1.7060     0.3820 C.3   1 <1>   0.2200 
 20 C       -7.7560    -2.9090     0.2140 C.3   1 <1>  -0.1600 
 21 C       -7.4570    -0.3440     0.0740 C.3   1 <1>  -0.1600 
 22 C       -9.0510    -2.8470     1.0420 C.3   1 <1>  -0.1600 
 23 C       -8.4340     0.1070     1.1710 C.3   1 <1>  -0.1600 
 24 C      -10.0560    -1.8290     0.4840 C.3   1 <1>  -0.1600 
 25 C       -9.8770    -0.3930     1.0010 C.3   1 <1>  -0.1600 
 26 H        1.5120     1.2450    -0.1630 H     1 <1>   0.0800 
 27 H        2.7360     0.0020    -0.2250 H     1 <1>   0.0800 
 28 H        2.0720    -2.3540    -0.1030 H     1 <1>   0.0800 
 29 H        0.3770    -2.7620    -0.0030 H     1 <1>   0.0800 
 30 H       -1.9490    -0.7830    -0.2350 H     1 <1>   0.1500 
 31 H       -0.5630    -2.5260    -3.8570 H     1 <1>   0.1500 
 32 H        0.9740     0.7220     2.1300 H     1 <1>   0.0800 
 33 H        2.6770     1.0460     1.9980 H     1 <1>   0.0800 
 34 H        1.4770    -3.0360     2.1810 H     1 <1>   0.0800 
 35 H        0.2200    -1.8340     2.2340 H     1 <1>   0.0800 
 36 H       -2.6980    -3.7110    -4.0990 H     1 <1>   0.1500 
 37 H        2.1680    -0.9640     3.4220 H     1 <1>   0.0800 
 38 H        3.2040    -1.3270     2.0660 H     1 <1>   0.0800 
 39 H       -4.4510    -3.4470    -2.4090 H     1 <1>   0.1500 
 40 H       -5.9360    -1.9010    -1.5260 H     1 <1>   0.3700 
 41 H       -6.4540    -1.6960     1.3950 H     1 <1>   0.0800 
 42 H       -7.2120    -3.7860     0.5190 H     1 <1>   0.0800 
 43 H       -8.0100    -3.0290    -0.8240 H     1 <1>   0.0800 
 44 H       -7.9440    -0.3540    -0.8850 H     1 <1>   0.0800 
 45 H       -6.6630     0.3820     0.0370 H     1 <1>   0.0800 
 46 H       -8.8340    -2.6440     2.0770 H     1 <1>   0.0800 
 47 H       -9.5090    -3.8210     0.9980 H     1 <1>   0.0800 
 48 H       -8.4600     1.1830     1.1870 H     1 <1>   0.0800 
 49 H       -8.0580    -0.2050     2.1310 H     1 <1>   0.0800 
 50 H      -11.0500    -2.1490     0.7480 H     1 <1>   0.0800 
 51 H      -10.0090    -1.8310    -0.5910 H     1 <1>   0.0800 
 52 H      -10.3930     0.2670     0.3250 H     1 <1>   0.0800 
 53 H      -10.3690    -0.3070     1.9550 H     1 <1>   0.0800 
@<TRIPOS>BOND
  1   1   2  2   
  2   1   3  2   
  3   1   4  am  
  4   1   5  1   
  5   4   6  1   
  6   4   7  1   
  7   5   8  ar  
  8   5   9  ar  
  9   6  10  1   
 10   6  26  1   
 11   6  27  1   
 12   7  11  1   
 13   7  28  1   
 14   7  29  1   
 15   8  12  ar  
 16   8  30  1   
 17   9  13  ar  
 18   9  31  1   
 19  10  14  1   
 20  10  32  1   
 21  10  33  1   
 22  11  14  1   
 23  11  34  1   
 24  11  35  1   
 25  12  15  1   
 26  12  16  ar  
 27  13  16  ar  
 28  13  36  1   
 29  14  37  1   
 30  14  38  1   
 31  15  17  2   
 32  15  18  am  
 33  16  39  1   
 34  18  19  1   
 35  18  40  1   
 36  19  20  1   
 37  19  21  1   
 38  19  41  1   
 39  20  22  1   
 40  20  42  1   
 41  20  43  1   
 42  21  23  1   
 43  21  44  1   
 44  21  45  1   
 45  22  24  1   
 46  22  46  1   
 47  22  47  1   
 48  23  25  1   
 49  23  48  1   
 50  23  49  1   
 51  24  25  1   
 52  24  50  1   
 53  24  51  1   
 54  25  52  1   
 55  25  53  1   
@<TRIPOS>SUBSTRUCTURE
  1 ****  12 GROUP 4 **** **** 0

# MOE 2024.06 (io_trps.svl 2023.06)
