@<TRIPOS>MOLECULE
NONAME
53 54 1 0 0 
SMALL
USER_CHARGES


@<TRIPOS>ATOM
  1 S        0.5510    -0.2900    -1.0720 S.o2  1 <1>   1.3330 
  2 O        1.8440    -0.5670    -1.6550 O.2   1 <1>  -0.6500 
  3 O        0.3030    -0.6200     0.3080 O.2   1 <1>  -0.6500 
  4 N        0.2650     1.4000    -1.2850 N.am  1 <1>  -0.6930 
  5 C       -0.7080    -1.0170    -2.0970 C.3   1 <1>  -0.1350 
  6 C       -0.7240     2.0280    -0.5310 C.ar  1 <1>   0.1990 
  7 C        1.4010     2.2110    -1.8360 C.3   1 <1>   0.3370 
  8 C       -0.4770     2.4590     0.7670 C.ar  1 <1>  -0.1500 
  9 C       -1.9860     2.2360    -1.0750 C.ar  1 <1>  -0.1500 
 10 C        2.5150     2.4970    -0.7990 C.2   1 <1>   0.5690 
 11 C        0.8550     3.4820    -2.5090 C.3   1 <1>  -0.2400 
 12 C       -1.4690     3.0800     1.5030 C.ar  1 <1>  -0.1500 
 13 C       -2.9830     2.8560    -0.3440 C.ar  1 <1>  -0.1500 
 14 O        2.5770     3.5830    -0.2700 O.2   1 <1>  -0.5700 
 15 N        3.4080     1.4990    -0.5170 N.am  1 <1>  -0.5470 
 16 C       -2.7260     3.2820     0.9570 C.ar  1 <1>   0.0830 
 17 C        4.4730     1.5110     0.3960 C.ar  1 <1>   0.1170 
 18 O       -3.6430     3.8980     1.7500 O.3   1 <1>  -0.3630 
 19 C        5.5930     2.3260     0.2020 C.ar  1 <1>  -0.1430 
 20 C        4.4240     0.6700     1.5110 C.ar  1 <1>  -0.1440 
 21 C       -4.9470     4.1550     1.2850 C.3   1 <1>   0.1200 
 22 C        6.6320     2.2990     1.1170 C.ar  1 <1>  -0.1500 
 23 C        5.7130     3.2530    -1.0020 C.3   1 <1>  -0.0970 
 24 C        5.4750     0.6540     2.4120 C.ar  1 <1>  -0.1500 
 25 C        3.2220    -0.2310     1.7670 C.3   1 <1>  -0.0970 
 26 C       -5.7170     4.8520     2.4020 C.3   1 <1>  -0.2400 
 27 C        6.5760     1.4660     2.2190 C.ar  1 <1>  -0.1500 
 28 H       -0.6230    -2.0860    -2.0800 H     1 <1>   0.0800 
 29 H       -0.6040    -0.6790    -3.1090 H     1 <1>   0.0800 
 30 H       -1.6800    -0.7450    -1.7360 H     1 <1>   0.0800 
 31 H        1.8600     1.6420    -2.6250 H     1 <1>   0.0800 
 32 H        0.4940     2.3050     1.2030 H     1 <1>   0.1500 
 33 H       -2.1810     1.9140    -2.0810 H     1 <1>   0.1500 
 34 H        0.4230     4.1430    -1.7780 H     1 <1>   0.0800 
 35 H        0.1180     3.2290    -3.2480 H     1 <1>   0.0800 
 36 H        1.6600     4.0060    -2.9910 H     1 <1>   0.0800 
 37 H       -1.2730     3.4110     2.5070 H     1 <1>   0.1500 
 38 H       -3.9450     2.9990    -0.7980 H     1 <1>   0.1500 
 39 H        3.1690     0.5690    -0.8850 H     1 <1>   0.3700 
 40 H       -5.4100     3.2170     1.0320 H     1 <1>   0.0800 
 41 H       -4.8810     4.7880     0.4170 H     1 <1>   0.0800 
 42 H        7.4940     2.9270     0.9790 H     1 <1>   0.1500 
 43 H        5.1000     4.1230    -0.8510 H     1 <1>   0.0800 
 44 H        5.3950     2.7500    -1.8960 H     1 <1>   0.0800 
 45 H        6.7300     3.5720    -1.1410 H     1 <1>   0.0800 
 46 H        5.4430     0.0110     3.2730 H     1 <1>   0.1500 
 47 H        3.3330    -0.7780     2.6850 H     1 <1>   0.0800 
 48 H        2.3290     0.3630     1.8370 H     1 <1>   0.0800 
 49 H        3.1090    -0.9370     0.9650 H     1 <1>   0.0800 
 50 H       -5.7620     4.2180     3.2690 H     1 <1>   0.0800 
 51 H       -6.7190     5.0630     2.0770 H     1 <1>   0.0800 
 52 H       -5.2350     5.7780     2.6590 H     1 <1>   0.0800 
 53 H        7.3880     1.4510     2.9240 H     1 <1>   0.1500 
@<TRIPOS>BOND
  1   1   2  2   
  2   1   3  2   
  3   1   4  am  
  4   1   5  1   
  5   4   6  1   
  6   4   7  1   
  7   5  28  1   
  8   5  29  1   
  9   5  30  1   
 10   6   8  ar  
 11   6   9  ar  
 12   7  10  1   
 13   7  11  1   
 14   7  31  1   
 15   8  12  ar  
 16   8  32  1   
 17   9  13  ar  
 18   9  33  1   
 19  10  14  2   
 20  10  15  am  
 21  11  34  1   
 22  11  35  1   
 23  11  36  1   
 24  12  16  ar  
 25  12  37  1   
 26  13  16  ar  
 27  13  38  1   
 28  15  17  1   
 29  15  39  1   
 30  16  18  1   
 31  17  19  ar  
 32  17  20  ar  
 33  18  21  1   
 34  19  22  ar  
 35  19  23  1   
 36  20  24  ar  
 37  20  25  1   
 38  21  26  1   
 39  21  40  1   
 40  21  41  1   
 41  22  27  ar  
 42  22  42  1   
 43  23  43  1   
 44  23  44  1   
 45  23  45  1   
 46  24  27  ar  
 47  24  46  1   
 48  25  47  1   
 49  25  48  1   
 50  25  49  1   
 51  26  50  1   
 52  26  51  1   
 53  26  52  1   
 54  27  53  1   
@<TRIPOS>SUBSTRUCTURE
  1 ****   4 GROUP 4 **** **** 0

# MOE 2024.06 (io_trps.svl 2023.06)
