@<TRIPOS>MOLECULE
NONAME
33 34 1 0 0 
SMALL
USER_CHARGES


@<TRIPOS>ATOM
  1 O       -9.4270     1.9300     0.1410 O.3   1 <1>  -0.3630 
  2 C      -10.6790     2.4350     0.0030 C.ar  1 <1>   0.0830 
  3 C       -8.2890     2.6920    -0.1790 C.3   1 <1>   0.1200 
  4 C      -11.7280     1.6010     0.3510 C.ar  1 <1>  -0.1500 
  5 C      -10.9500     3.7200    -0.4600 C.ar  1 <1>  -0.1500 
  6 C       -7.0570     1.8310     0.0950 C.3   1 <1>  -0.1600 
  7 C      -13.0400     2.0290     0.2450 C.ar  1 <1>   0.0830 
  8 C      -12.2600     4.1530    -0.5680 C.ar  1 <1>  -0.1500 
  9 C       -5.7700     2.5990    -0.2250 C.3   1 <1>   0.0960 
 10 O      -14.0030     1.1440     0.6080 O.3   1 <1>  -0.3630 
 11 C      -13.3050     3.3150    -0.2190 C.ar  1 <1>  -0.1500 
 12 N       -4.5890     1.7560     0.0410 N.pl3 1 <1>   0.0480 
 13 C      -15.3700     1.4800     0.5370 C.3   1 <1>   0.0400 
 14 C       -3.8540     1.6910     1.1740 C.2   1 <1>   0.0360 
 15 C       -4.0020     0.8820    -0.7960 C.2   1 <1>  -0.3020 
 16 N       -2.8660     0.8570     1.1140 N.2   1 <1>  -0.5650 
 17 C       -2.9580     0.3460    -0.1270 C.2   1 <1>   0.0770 
 18 H       -8.2890     3.5730     0.4410 H     1 <1>   0.0800 
 19 H       -8.3460     2.9640    -1.2190 H     1 <1>   0.0800 
 20 H      -11.5220     0.6100     0.7080 H     1 <1>   0.1500 
 21 H      -10.1620     4.3930    -0.7390 H     1 <1>   0.1500 
 22 H       -7.1070     0.9470    -0.5170 H     1 <1>   0.0800 
 23 H       -7.0540     1.5440     1.1320 H     1 <1>   0.0800 
 24 H      -12.4690     5.1470    -0.9260 H     1 <1>   0.1500 
 25 H       -5.7030     3.4840     0.3820 H     1 <1>   0.0800 
 26 H       -5.7550     2.8890    -1.2600 H     1 <1>   0.0800 
 27 H      -14.3100     3.6770    -0.3130 H     1 <1>   0.1500 
 28 H      -15.9400     0.6310     0.8710 H     1 <1>   0.0800 
 29 H      -15.6210     1.7090    -0.4840 H     1 <1>   0.0800 
 30 H      -15.5570     2.3220     1.1800 H     1 <1>   0.0800 
 31 H       -4.0850     2.2860     2.0400 H     1 <1>   0.1500 
 32 H       -4.3470     0.6900    -1.7950 H     1 <1>   0.1500 
 33 H       -2.2570    -0.3930    -0.4780 H     1 <1>   0.1500 
@<TRIPOS>BOND
  1   1   2  1   
  2   1   3  1   
  3   2   4  ar  
  4   2   5  ar  
  5   3   6  1   
  6   3  18  1   
  7   3  19  1   
  8   4   7  ar  
  9   4  20  1   
 10   5   8  ar  
 11   5  21  1   
 12   6   9  1   
 13   6  22  1   
 14   6  23  1   
 15   7  10  1   
 16   7  11  ar  
 17   8  11  ar  
 18   8  24  1   
 19   9  12  1   
 20   9  25  1   
 21   9  26  1   
 22  10  13  1   
 23  11  27  1   
 24  12  14  1   
 25  12  15  1   
 26  13  28  1   
 27  13  29  1   
 28  13  30  1   
 29  14  16  2   
 30  14  31  1   
 31  15  17  2   
 32  15  32  1   
 33  16  17  1   
 34  17  33  1   
@<TRIPOS>SUBSTRUCTURE
  1 ****   1 GROUP 4 **** **** 0

# MOE 2024.06 (io_trps.svl 2023.06)
