@<TRIPOS>MOLECULE
NONAME
46 48 1 0 0 
SMALL
USER_CHARGES


@<TRIPOS>ATOM
  1 O       -7.7970     2.7010    -0.0440 O.2   1 <1>  -0.5700 
  2 C       -7.7400     1.4970    -0.1400 C.2   1 <1>   0.5950 
  3 C       -8.8620     0.6140    -0.1280 C.2   1 <1>  -0.0860 
  4 C       -6.3610     0.8530    -0.3060 C.3   1 <1>  -0.0190 
  5 C      -10.2440     0.9250    -0.0660 C.ar  1 <1>   0.0000 
  6 C       -8.7740    -0.7470    -0.1920 C.2   1 <1>  -0.3320 
  7 C       -6.3240    -0.5880     0.2750 C.3   1 <1>  -0.1600 
  8 C       -5.3290     1.7990     0.3350 C.3   1 <1>   0.3430 
  9 C      -10.9300    -0.2840    -0.1060 C.ar  1 <1>  -0.1520 
 10 C      -10.9580     2.1240     0.0200 C.ar  1 <1>  -0.1500 
 11 N      -10.0130    -1.3060    -0.1910 N.pl3 1 <1>   0.0480 
 12 C       -7.4540    -1.4900    -0.2580 C.3   1 <1>   0.0200 
 13 N       -3.9020     1.5110    -0.0410 N.4   1 <1>  -0.9590 
 14 C      -12.3270    -0.3110    -0.0600 C.ar  1 <1>  -0.1500 
 15 C      -12.3330     2.0950     0.0650 C.ar  1 <1>  -0.1500 
 16 C      -10.3650    -2.7360    -0.2670 C.3   1 <1>   0.0160 
 17 C       -3.2640     0.5380     0.8900 C.3   1 <1>   0.3430 
 18 C       -3.1720     2.8130    -0.0840 C.3   1 <1>   0.3430 
 19 C      -13.0180     0.8760     0.0250 C.ar  1 <1>  -0.1500 
 20 C       -2.5300    -0.5290     0.0840 C.3   1 <1>  -0.2400 
 21 C       -1.8260     2.6690    -0.7820 C.3   1 <1>  -0.2400 
 22 H       -6.1800     0.8130    -1.3650 H     1 <1>   0.0800 
 23 H       -6.4270    -0.5340     1.3460 H     1 <1>   0.0800 
 24 H       -5.3900    -1.0670     0.0550 H     1 <1>   0.0800 
 25 H       -5.4420     1.7880     1.4070 H     1 <1>   0.0800 
 26 H       -5.5660     2.8000     0.0070 H     1 <1>   0.0800 
 27 H      -10.4210     3.0560     0.0500 H     1 <1>   0.1500 
 28 H       -7.2600    -1.7710    -1.2800 H     1 <1>   0.0800 
 29 H       -7.5010    -2.3860     0.3360 H     1 <1>   0.0800 
 30 H       -3.8840     1.1160    -0.9900 H     1 <1>   0.4500 
 31 H      -12.8520    -1.2490    -0.0890 H     1 <1>   0.1500 
 32 H      -12.8920     3.0110     0.1310 H     1 <1>   0.1500 
 33 H       -9.5100    -3.3130    -0.5650 H     1 <1>   0.0800 
 34 H      -11.1480    -2.8690    -0.9900 H     1 <1>   0.0800 
 35 H      -10.7060    -3.0660     0.6970 H     1 <1>   0.0800 
 36 H       -4.0160     0.0610     1.4980 H     1 <1>   0.0800 
 37 H       -2.5760     1.0440     1.5490 H     1 <1>   0.0800 
 38 H       -3.0290     3.1930     0.9150 H     1 <1>   0.0800 
 39 H       -3.7610     3.5330    -0.6310 H     1 <1>   0.0800 
 40 H      -14.0930     0.8780     0.0620 H     1 <1>   0.1500 
 41 H       -3.1920    -1.0380    -0.5920 H     1 <1>   0.0800 
 42 H       -2.1220    -1.2600     0.7600 H     1 <1>   0.0800 
 43 H       -1.7110    -0.1120    -0.4720 H     1 <1>   0.0800 
 44 H       -1.1340     2.1060    -0.1840 H     1 <1>   0.0800 
 45 H       -1.4010     3.6470    -0.9250 H     1 <1>   0.0800 
 46 H       -1.9370     2.2130    -1.7500 H     1 <1>   0.0800 
@<TRIPOS>BOND
  1   1   2  2   
  2   2   3  1   
  3   2   4  1   
  4   3   5  1   
  5   3   6  2   
  6   4   7  1   
  7   4   8  1   
  8   4  22  1   
  9   5   9  ar  
 10   5  10  ar  
 11   6  11  1   
 12   6  12  1   
 13   7  12  1   
 14   7  23  1   
 15   7  24  1   
 16   8  13  1   
 17   8  25  1   
 18   8  26  1   
 19   9  11  1   
 20   9  14  ar  
 21  10  15  ar  
 22  10  27  1   
 23  11  16  1   
 24  12  28  1   
 25  12  29  1   
 26  13  17  1   
 27  13  18  1   
 28  13  30  1   
 29  14  19  ar  
 30  14  31  1   
 31  15  19  ar  
 32  15  32  1   
 33  16  33  1   
 34  16  34  1   
 35  16  35  1   
 36  17  20  1   
 37  17  36  1   
 38  17  37  1   
 39  18  21  1   
 40  18  38  1   
 41  18  39  1   
 42  19  40  1   
 43  20  41  1   
 44  20  42  1   
 45  20  43  1   
 46  21  44  1   
 47  21  45  1   
 48  21  46  1   
@<TRIPOS>SUBSTRUCTURE
  1 ****   2 GROUP 4 **** **** 0

# MOE 2024.06 (io_trps.svl 2023.06)
