@<TRIPOS>MOLECULE
NONAME
27 27 1 0 0 
SMALL
USER_CHARGES


@<TRIPOS>ATOM
  1 BR       1.6410     1.8360    -3.2690 Br    1 <1>  -0.1110 
  2 C        2.2590     1.8390    -1.4410 C.ar  1 <1>   0.1110 
  3 C        1.5560     2.5470    -0.4760 C.ar  1 <1>   0.0830 
  4 C        3.4040     1.1230    -1.1500 C.ar  1 <1>  -0.1500 
  5 O        0.4400     3.2260    -0.8490 O.3   1 <1>  -0.3630 
  6 C        2.0420     2.5180     0.8270 C.ar  1 <1>  -0.1500 
  7 C        3.8940     1.0960     0.1500 C.ar  1 <1>  -0.0090 
  8 C       -0.3310     3.9510     0.0820 C.3   1 <1>   0.0400 
  9 C        3.1910     1.8020     1.1250 C.ar  1 <1>  -0.1500 
 10 S        5.3960     0.1660     0.5590 S.o2  1 <1>   1.4470 
 11 O        5.9330     0.5920     1.8310 O.2   1 <1>  -0.6500 
 12 O        5.2000    -1.2410     0.3030 O.2   1 <1>  -0.6500 
 13 N        6.4950     0.6570    -0.6090 N.am  1 <1>  -0.9140 
 14 C        7.1280     1.9320    -0.3430 C.3   1 <1>   0.1960 
 15 C        8.0640     2.2430    -1.5030 C.3   1 <1>  -0.2400 
 16 H        3.9140     0.5880    -1.9320 H     1 <1>   0.1500 
 17 H        1.5420     3.0440     1.6200 H     1 <1>   0.1500 
 18 H       -1.1590     4.3930    -0.4430 H     1 <1>   0.0800 
 19 H        0.2780     4.7230     0.5170 H     1 <1>   0.0800 
 20 H       -0.6970     3.2750     0.8350 H     1 <1>   0.0800 
 21 H        3.5530     1.7900     2.1410 H     1 <1>   0.1500 
 22 H        7.2110    -0.0660    -0.5870 H     1 <1>   0.4200 
 23 H        7.6870     1.8910     0.5790 H     1 <1>   0.0800 
 24 H        6.3800     2.7040    -0.2620 H     1 <1>   0.0800 
 25 H        8.8310     1.4940    -1.5810 H     1 <1>   0.0800 
 26 H        8.5340     3.1960    -1.3410 H     1 <1>   0.0800 
 27 H        7.5100     2.2890    -2.4240 H     1 <1>   0.0800 
@<TRIPOS>BOND
  1   1   2  1   
  2   2   3  ar  
  3   2   4  ar  
  4   3   5  1   
  5   3   6  ar  
  6   4   7  ar  
  7   4  16  1   
  8   5   8  1   
  9   6   9  ar  
 10   6  17  1   
 11   7   9  ar  
 12   7  10  1   
 13   8  18  1   
 14   8  19  1   
 15   8  20  1   
 16   9  21  1   
 17  10  11  2   
 18  10  12  2   
 19  10  13  am  
 20  13  14  1   
 21  13  22  1   
 22  14  15  1   
 23  14  23  1   
 24  14  24  1   
 25  15  25  1   
 26  15  26  1   
 27  15  27  1   
@<TRIPOS>SUBSTRUCTURE
  1 ****   7 GROUP 4 **** **** 0

# MOE 2024.06 (io_trps.svl 2023.06)
