@<TRIPOS>MOLECULE
NONAME
33 34 1 0 0 
SMALL
USER_CHARGES


@<TRIPOS>ATOM
  1 CL      -1.2850     0.1330     0.9530 Cl    1 <1>  -0.1770 
  2 C       -0.7550     1.7400     0.5090 C.ar  1 <1>   0.1770 
  3 C       -1.5750     2.5480    -0.2680 C.ar  1 <1>   0.0830 
  4 C        0.4760     2.1880     0.9560 C.ar  1 <1>  -0.1500 
  5 O       -2.7680     2.0890    -0.7190 O.3   1 <1>  -0.3630 
  6 C       -1.1310     3.8250    -0.5880 C.ar  1 <1>   0.1770 
  7 C        0.9050     3.4650     0.6250 C.ar  1 <1>  -0.1500 
  8 C       -3.8950     2.4170     0.0500 C.3   1 <1>   0.1200 
  9 CL      -2.1380     4.8850    -1.5500 Cl    1 <1>  -0.1770 
 10 C        0.0980     4.2870    -0.1490 C.ar  1 <1>  -0.1500 
 11 C       -5.1200     1.8620    -0.6830 C.3   1 <1>   0.3430 
 12 N       -6.4110     2.1950     0.0040 N.4   1 <1>  -0.9590 
 13 C       -7.5440     1.4180    -0.6130 C.3   1 <1>   0.3430 
 14 C       -6.7190     3.6720    -0.0420 C.3   1 <1>   0.3430 
 15 C       -8.9040     1.8220    -0.0130 C.3   1 <1>   0.1200 
 16 C       -8.1160     3.9780     0.5320 C.3   1 <1>   0.1200 
 17 O       -9.0850     3.2040    -0.1140 O.3   1 <1>  -0.5600 
 18 H        1.0930     1.5410     1.5560 H     1 <1>   0.1500 
 19 H        1.8630     3.8180     0.9690 H     1 <1>   0.1500 
 20 H       -3.9400     3.4880     0.1370 H     1 <1>   0.0800 
 21 H       -3.7820     1.9620     1.0190 H     1 <1>   0.0800 
 22 H        0.4210     5.2790    -0.4110 H     1 <1>   0.1500 
 23 H       -5.0130     0.7910    -0.7460 H     1 <1>   0.0800 
 24 H       -5.1330     2.2590    -1.6850 H     1 <1>   0.0800 
 25 H       -6.3510     1.9110     0.9910 H     1 <1>   0.4500 
 26 H       -7.3910     0.3610    -0.4660 H     1 <1>   0.0800 
 27 H       -7.5770     1.6020    -1.6750 H     1 <1>   0.0800 
 28 H       -6.6910     4.0180    -1.0620 H     1 <1>   0.0800 
 29 H       -5.9810     4.2240     0.5150 H     1 <1>   0.0800 
 30 H       -8.9770     1.5360     1.0230 H     1 <1>   0.0800 
 31 H       -9.7040     1.3480    -0.5550 H     1 <1>   0.0800 
 32 H       -8.3650     5.0120     0.3710 H     1 <1>   0.0800 
 33 H       -8.1590     3.7760     1.5890 H     1 <1>   0.0800 
@<TRIPOS>BOND
  1   1   2  1   
  2   2   3  ar  
  3   2   4  ar  
  4   3   5  1   
  5   3   6  ar  
  6   4   7  ar  
  7   4  18  1   
  8   5   8  1   
  9   6   9  1   
 10   6  10  ar  
 11   7  10  ar  
 12   7  19  1   
 13   8  11  1   
 14   8  20  1   
 15   8  21  1   
 16  10  22  1   
 17  11  12  1   
 18  11  23  1   
 19  11  24  1   
 20  12  13  1   
 21  12  14  1   
 22  12  25  1   
 23  13  15  1   
 24  13  26  1   
 25  13  27  1   
 26  14  16  1   
 27  14  28  1   
 28  14  29  1   
 29  15  17  1   
 30  15  30  1   
 31  15  31  1   
 32  16  17  1   
 33  16  32  1   
 34  16  33  1   
@<TRIPOS>SUBSTRUCTURE
  1 ****   8 GROUP 4 **** **** 0

# MOE 2024.06 (io_trps.svl 2023.06)
