@<TRIPOS>MOLECULE
NONAME
46 48 1 0 0 
SMALL
USER_CHARGES


@<TRIPOS>ATOM
  1 CL      -0.4390    -0.1770     0.1630 Cl    1 <1>  -0.1770 
  2 C       -1.8630     0.7320    -0.2920 C.ar  1 <1>   0.1770 
  3 C       -1.7630     1.8710    -1.0720 C.ar  1 <1>   0.1900 
  4 C       -3.1020     0.2980     0.1380 C.ar  1 <1>  -0.1500 
  5 F       -0.5910     2.2860    -1.4820 F     1 <1>  -0.1900 
  6 C       -2.8850     2.5920    -1.4320 C.ar  1 <1>  -0.1500 
  7 C       -4.2510     1.0020    -0.2120 C.ar  1 <1>   0.1170 
  8 C       -4.1250     2.1520    -0.9960 C.ar  1 <1>  -0.1500 
  9 N       -5.4910     0.5350     0.2540 N.am  1 <1>  -0.5470 
 10 C       -6.7500     0.6960    -0.2600 C.2   1 <1>   0.5690 
 11 O       -6.9710     1.2910    -1.2860 O.2   1 <1>  -0.5700 
 12 C       -7.9090     0.0650     0.5160 C.3   1 <1>  -0.0190 
 13 C       -8.0700    -1.4230     0.1540 C.3   1 <1>  -0.1600 
 14 C       -9.2480     0.8010     0.2960 C.3   1 <1>  -0.1600 
 15 C       -9.2200    -2.0700     0.9300 C.3   1 <1>   0.1400 
 16 C      -10.3970     0.1410     1.0620 C.3   1 <1>   0.1400 
 17 N      -10.4750    -1.3020     0.7000 N.am  1 <1>  -0.6600 
 18 C      -11.5630    -1.8710     0.0640 C.2   1 <1>   0.5440 
 19 O      -11.4450    -2.9700    -0.4440 O.2   1 <1>  -0.5700 
 20 C      -12.8430    -1.1920    -0.0210 C.ar  1 <1>   0.0860 
 21 C      -13.5440    -0.8130     1.1230 C.ar  1 <1>  -0.1500 
 22 C      -13.4160    -0.8970    -1.2550 C.ar  1 <1>  -0.1500 
 23 C      -14.7570    -0.1540     1.0380 C.ar  1 <1>  -0.1500 
 24 C      -14.6290    -0.2370    -1.3460 C.ar  1 <1>  -0.1500 
 25 C      -15.3060     0.1400    -0.1990 C.ar  1 <1>  -0.1430 
 26 C      -16.6360     0.8650    -0.2970 C.3   1 <1>  -0.0970 
 27 H       -3.1650    -0.5890     0.7400 H     1 <1>   0.1500 
 28 H       -2.7900     3.4750    -2.0380 H     1 <1>   0.1500 
 29 H       -5.0010     2.7130    -1.2700 H     1 <1>   0.1500 
 30 H       -5.4380    -0.0660     1.0730 H     1 <1>   0.3700 
 31 H       -7.6740     0.1340     1.5630 H     1 <1>   0.0800 
 32 H       -7.1610    -1.9570     0.3660 H     1 <1>   0.0800 
 33 H       -8.2680    -1.5220    -0.9000 H     1 <1>   0.0800 
 34 H       -9.4940     0.8030    -0.7530 H     1 <1>   0.0800 
 35 H       -9.1530     1.8260     0.6080 H     1 <1>   0.0800 
 36 H       -9.0030    -2.0730     1.9840 H     1 <1>   0.0800 
 37 H       -9.3350    -3.0950     0.6170 H     1 <1>   0.0800 
 38 H      -11.3130     0.6510     0.8220 H     1 <1>   0.0800 
 39 H      -10.2330     0.2280     2.1220 H     1 <1>   0.0800 
 40 H      -13.1280    -1.0450     2.0870 H     1 <1>   0.1500 
 41 H      -12.8970    -1.1950    -2.1500 H     1 <1>   0.1500 
 42 H      -15.2740     0.1290     1.9390 H     1 <1>   0.1500 
 43 H      -15.0430    -0.0200    -2.3150 H     1 <1>   0.1500 
 44 H      -16.4700     1.9260    -0.3480 H     1 <1>   0.0800 
 45 H      -17.2470     0.6500     0.5610 H     1 <1>   0.0800 
 46 H      -17.1690     0.5540    -1.1780 H     1 <1>   0.0800 
@<TRIPOS>BOND
  1   1   2  1   
  2   2   3  ar  
  3   2   4  ar  
  4   3   5  1   
  5   3   6  ar  
  6   4   7  ar  
  7   4  27  1   
  8   6   8  ar  
  9   6  28  1   
 10   7   8  ar  
 11   7   9  1   
 12   8  29  1   
 13   9  10  am  
 14   9  30  1   
 15  10  11  2   
 16  10  12  1   
 17  12  13  1   
 18  12  14  1   
 19  12  31  1   
 20  13  15  1   
 21  13  32  1   
 22  13  33  1   
 23  14  16  1   
 24  14  34  1   
 25  14  35  1   
 26  15  17  1   
 27  15  36  1   
 28  15  37  1   
 29  16  17  1   
 30  16  38  1   
 31  16  39  1   
 32  17  18  am  
 33  18  19  2   
 34  18  20  1   
 35  20  21  ar  
 36  20  22  ar  
 37  21  23  ar  
 38  21  40  1   
 39  22  24  ar  
 40  22  41  1   
 41  23  25  ar  
 42  23  42  1   
 43  24  25  ar  
 44  24  43  1   
 45  25  26  1   
 46  26  44  1   
 47  26  45  1   
 48  26  46  1   
@<TRIPOS>SUBSTRUCTURE
  1 ****  12 GROUP 4 **** **** 0

# MOE 2024.06 (io_trps.svl 2023.06)
