@<TRIPOS>MOLECULE
NONAME
39 40 1 0 0 
SMALL
USER_CHARGES


@<TRIPOS>ATOM
  1 O       -1.6320    -0.1710    -2.1920 O.2   1 <1>  -0.5700 
  2 C       -1.7890    -0.9830    -1.2980 C.2   1 <1>   0.5440 
  3 N       -0.7890    -1.9090    -1.0710 N.am  1 <1>  -0.6600 
  4 C       -3.0020    -0.9270    -0.5050 C.ar  1 <1>   0.0860 
  5 C       -1.0000    -3.3730    -0.8570 C.3   1 <1>   0.2200 
  6 C        0.6130    -1.5580    -1.4350 C.3   1 <1>   0.0600 
  7 C       -2.9650    -0.9140     0.8890 C.ar  1 <1>  -0.1500 
  8 C       -4.2550    -0.8700    -1.1160 C.ar  1 <1>  -0.1500 
  9 C       -2.2850    -3.9130    -1.5060 C.3   1 <1>  -0.1600 
 10 C       -0.9380    -3.7340     0.6320 C.3   1 <1>  -0.1600 
 11 C       -4.1260    -0.8770     1.6380 C.ar  1 <1>  -0.1500 
 12 C       -5.4220    -0.8310    -0.3750 C.ar  1 <1>  -0.1500 
 13 C       -2.3820    -5.4350    -1.3240 C.3   1 <1>  -0.1600 
 14 C       -1.0420    -5.2540     0.8280 C.3   1 <1>  -0.1600 
 15 C       -5.3630    -0.8400     1.0160 C.ar  1 <1>   0.0820 
 16 C       -2.3070    -5.8160     0.1620 C.3   1 <1>  -0.1600 
 17 O       -6.4520    -0.8110     1.8170 O.3   1 <1>  -0.3620 
 18 C       -7.7590    -0.7560     1.2900 C.3   1 <1>   0.0400 
 19 H       -0.1850    -3.8860    -1.3400 H     1 <1>   0.0800 
 20 H        0.7390    -0.4890    -1.4440 H     1 <1>   0.0800 
 21 H        0.8380    -1.9390    -2.4160 H     1 <1>   0.0800 
 22 H        1.2970    -1.9790    -0.7190 H     1 <1>   0.0800 
 23 H       -2.0100    -0.9300     1.3820 H     1 <1>   0.1500 
 24 H       -4.3010    -0.8550    -2.1910 H     1 <1>   0.1500 
 25 H       -2.2870    -3.6740    -2.5550 H     1 <1>   0.0800 
 26 H       -3.1500    -3.4740    -1.0470 H     1 <1>   0.0800 
 27 H       -1.7530    -3.2690     1.1530 H     1 <1>   0.0800 
 28 H       -0.0140    -3.3810     1.0520 H     1 <1>   0.0800 
 29 H       -4.0830    -0.8730     2.7120 H     1 <1>   0.1500 
 30 H       -6.3620    -0.7920    -0.8920 H     1 <1>   0.1500 
 31 H       -1.5780    -5.9120    -1.8570 H     1 <1>   0.0800 
 32 H       -3.3090    -5.7890    -1.7400 H     1 <1>   0.0800 
 33 H       -1.0590    -5.4810     1.8810 H     1 <1>   0.0800 
 34 H       -0.1750    -5.7300     0.4030 H     1 <1>   0.0800 
 35 H       -2.3200    -6.8880     0.2600 H     1 <1>   0.0800 
 36 H       -3.1750    -5.4310     0.6700 H     1 <1>   0.0800 
 37 H       -7.9300    -1.6300     0.6880 H     1 <1>   0.0800 
 38 H       -7.8620     0.1420     0.7060 H     1 <1>   0.0800 
 39 H       -8.4500    -0.7370     2.1130 H     1 <1>   0.0800 
@<TRIPOS>BOND
  1   1   2  2   
  2   2   3  am  
  3   2   4  1   
  4   3   5  1   
  5   3   6  1   
  6   4   7  ar  
  7   4   8  ar  
  8   5   9  1   
  9   5  10  1   
 10   5  19  1   
 11   6  20  1   
 12   6  21  1   
 13   6  22  1   
 14   7  11  ar  
 15   7  23  1   
 16   8  12  ar  
 17   8  24  1   
 18   9  13  1   
 19   9  25  1   
 20   9  26  1   
 21  10  14  1   
 22  10  27  1   
 23  10  28  1   
 24  11  15  ar  
 25  11  29  1   
 26  12  15  ar  
 27  12  30  1   
 28  13  16  1   
 29  13  31  1   
 30  13  32  1   
 31  14  16  1   
 32  14  33  1   
 33  14  34  1   
 34  15  17  1   
 35  16  35  1   
 36  16  36  1   
 37  17  18  1   
 38  18  37  1   
 39  18  38  1   
 40  18  39  1   
@<TRIPOS>SUBSTRUCTURE
  1 ****   4 GROUP 4 **** **** 0

# MOE 2024.06 (io_trps.svl 2023.06)
