@<TRIPOS>MOLECULE
NONAME
37 38 1 0 0 
SMALL
USER_CHARGES


@<TRIPOS>ATOM
  1 O       -0.2290     0.3950    -0.5330 O.3   1 <1>  -0.0190 
  2 N       -1.4370    -0.0510    -0.6800 N.2   1 <1>  -0.4100 
  3 C       -0.3840     1.6400    -0.1590 C.2   1 <1>   0.2980 
  4 C       -2.2480     0.9060    -0.4000 C.2   1 <1>   0.4620 
  5 N       -1.5940     2.0200    -0.0570 N.2   1 <1>  -0.5650 
  6 C        0.8780     2.4820     0.1090 C.3   1 <1>   0.1800 
  7 C       -3.6990     0.8270    -0.4400 C.ar  1 <1>   0.0540 
  8 C        1.7070     1.8350     1.2310 C.3   1 <1>  -0.2400 
  9 C        1.7330     2.5580    -1.1670 C.3   1 <1>  -0.2400 
 10 C        0.5150     3.9150     0.5370 C.3   1 <1>  -0.2400 
 11 C       -4.5040     1.9210    -0.1180 C.ar  1 <1>  -0.1500 
 12 C       -4.3460    -0.3550    -0.8030 C.ar  1 <1>  -0.1500 
 13 C       -5.8920     1.8490    -0.1550 C.ar  1 <1>   0.0820 
 14 C       -5.7250    -0.4470    -0.8460 C.ar  1 <1>  -0.1500 
 15 O       -6.6900     2.9120     0.1570 O.3   1 <1>  -0.3630 
 16 C       -6.5130     0.6520    -0.5230 C.ar  1 <1>   0.0820 
 17 C       -6.1540     4.1590     0.5390 C.3   1 <1>   0.0400 
 18 O       -7.8750     0.6120    -0.5490 O.3   1 <1>  -0.3630 
 19 C       -8.5800    -0.5550    -0.9080 C.3   1 <1>   0.0400 
 20 H        1.1200     1.7650     2.1300 H     1 <1>   0.0800 
 21 H        2.5860     2.4190     1.4400 H     1 <1>   0.0800 
 22 H        2.0150     0.8440     0.9510 H     1 <1>   0.0800 
 23 H        2.0420     1.5750    -1.4750 H     1 <1>   0.0800 
 24 H        2.6130     3.1540    -1.0010 H     1 <1>   0.0800 
 25 H        1.1650     3.0000    -1.9670 H     1 <1>   0.0800 
 26 H       -0.0580     4.4010    -0.2330 H     1 <1>   0.0800 
 27 H        1.4010     4.4970     0.7220 H     1 <1>   0.0800 
 28 H       -0.0770     3.8980     1.4350 H     1 <1>   0.0800 
 29 H       -4.0160     2.8330     0.1620 H     1 <1>   0.1500 
 30 H       -3.7570    -1.2190    -1.0580 H     1 <1>   0.1500 
 31 H       -6.1640    -1.3830    -1.1330 H     1 <1>   0.1500 
 32 H       -6.9730     4.8270     0.7320 H     1 <1>   0.0800 
 33 H       -5.5520     4.5410    -0.2660 H     1 <1>   0.0800 
 34 H       -5.5700     4.0280     1.4330 H     1 <1>   0.0800 
 35 H       -9.6310    -0.3370    -0.8540 H     1 <1>   0.0800 
 36 H       -8.3330    -1.3390    -0.2150 H     1 <1>   0.0800 
 37 H       -8.3150    -0.8270    -1.9140 H     1 <1>   0.0800 
@<TRIPOS>BOND
  1   1   2  1   
  2   1   3  1   
  3   2   4  2   
  4   3   5  2   
  5   3   6  1   
  6   4   5  1   
  7   4   7  1   
  8   6   8  1   
  9   6   9  1   
 10   6  10  1   
 11   7  11  ar  
 12   7  12  ar  
 13   8  20  1   
 14   8  21  1   
 15   8  22  1   
 16   9  23  1   
 17   9  24  1   
 18   9  25  1   
 19  10  26  1   
 20  10  27  1   
 21  10  28  1   
 22  11  13  ar  
 23  11  29  1   
 24  12  14  ar  
 25  12  30  1   
 26  13  15  1   
 27  13  16  ar  
 28  14  16  ar  
 29  14  31  1   
 30  15  17  1   
 31  16  18  1   
 32  17  32  1   
 33  17  33  1   
 34  17  34  1   
 35  18  19  1   
 36  19  35  1   
 37  19  36  1   
 38  19  37  1   
@<TRIPOS>SUBSTRUCTURE
  1 ****   7 GROUP 4 **** **** 0

# MOE 2024.06 (io_trps.svl 2023.06)
