@<TRIPOS>MOLECULE
NONAME
54 56 1 0 0 
SMALL
USER_CHARGES


@<TRIPOS>ATOM
  1 O       -1.7820     1.0220    -0.4750 O.3   1 <1>  -0.3630 
  2 C       -1.0670     2.1570    -0.2370 C.ar  1 <1>   0.0830 
  3 C       -1.2520    -0.0060    -1.2900 C.3   1 <1>   0.0400 
  4 C       -1.5250     3.0040     0.7680 C.ar  1 <1>  -0.1440 
  5 C        0.0760     2.5000    -0.9550 C.ar  1 <1>  -0.1500 
  6 C       -0.8450     4.1790     1.0430 C.ar  1 <1>  -0.1500 
  7 C       -2.7670     2.6510     1.5590 C.3   1 <1>   0.4870 
  8 C        0.7490     3.6760    -0.6760 C.ar  1 <1>  -0.1500 
  9 C        0.2880     4.5230     0.3260 C.ar  1 <1>   0.0830 
 10 N       -3.9120     2.5940     0.6200 N.4   1 <1>  -0.9590 
 11 O        0.8820     5.6950     0.6630 O.3   1 <1>  -0.3620 
 12 C       -4.1930     3.9290    -0.0220 C.3   1 <1>   0.3430 
 13 C       -5.1460     2.0020     1.2440 C.3   1 <1>   0.3430 
 14 C        2.0990     6.0940     0.0700 C.3   1 <1>   0.0400 
 15 C       -5.3600     3.8730    -1.0300 C.3   1 <1>   0.2090 
 16 C       -6.3100     1.8830     0.2390 C.3   1 <1>   0.2090 
 17 N       -6.5540     3.1730    -0.4690 N.pl3 1 <1>  -0.8380 
 18 C       -7.6540     3.9280    -0.0580 C.ar  1 <1>   0.1000 
 19 C       -8.9170     3.7530    -0.6370 C.ar  1 <1>  -0.1430 
 20 C       -7.4990     4.8580     0.9650 C.ar  1 <1>  -0.1500 
 21 C      -10.0000     4.4940    -0.1680 C.ar  1 <1>  -0.1430 
 22 C       -9.1030     2.7500    -1.7770 C.3   1 <1>  -0.0970 
 23 C       -8.5710     5.5990     1.4170 C.ar  1 <1>  -0.1500 
 24 C       -9.8170     5.4140     0.8520 C.ar  1 <1>  -0.1500 
 25 C      -11.4030     4.3310    -0.7400 C.3   1 <1>  -0.0970 
 26 H       -1.1680     0.3510    -2.3020 H     1 <1>   0.0800 
 27 H       -1.9220    -0.8460    -1.2570 H     1 <1>   0.0800 
 28 H       -0.2880    -0.2970    -0.9080 H     1 <1>   0.0800 
 29 H        0.4580     1.8700    -1.7370 H     1 <1>   0.1500 
 30 H       -1.1730     4.8510     1.8170 H     1 <1>   0.1500 
 31 H       -2.9450     3.3860     2.3270 H     1 <1>   0.0800 
 32 H       -2.6220     1.6890     2.0250 H     1 <1>   0.0800 
 33 H        1.6270     3.9160    -1.2470 H     1 <1>   0.1500 
 34 H       -3.5860     1.9600    -0.1290 H     1 <1>   0.4500 
 35 H       -3.3120     4.2850    -0.5300 H     1 <1>   0.0800 
 36 H       -4.4430     4.6470     0.7400 H     1 <1>   0.0800 
 37 H       -5.4730     2.6260     2.0590 H     1 <1>   0.0800 
 38 H       -4.9270     1.0250     1.6400 H     1 <1>   0.0800 
 39 H        2.3980     7.0260     0.5160 H     1 <1>   0.0800 
 40 H        1.9480     6.2280    -0.9860 H     1 <1>   0.0800 
 41 H        2.8450     5.3430     0.2620 H     1 <1>   0.0800 
 42 H       -5.0420     3.3600    -1.9210 H     1 <1>   0.0800 
 43 H       -5.6350     4.8750    -1.3170 H     1 <1>   0.0800 
 44 H       -7.2040     1.5880     0.7620 H     1 <1>   0.0800 
 45 H       -6.0900     1.1200    -0.4870 H     1 <1>   0.0800 
 46 H       -6.5400     5.0030     1.4150 H     1 <1>   0.1500 
 47 H       -8.1870     2.5930    -2.3150 H     1 <1>   0.0800 
 48 H       -9.8240     3.1040    -2.4900 H     1 <1>   0.0800 
 49 H       -9.4360     1.8100    -1.3800 H     1 <1>   0.0800 
 50 H       -8.4430     6.3180     2.2070 H     1 <1>   0.1500 
 51 H      -10.6480     5.9950     1.2150 H     1 <1>   0.1500 
 52 H      -11.6730     3.2910    -0.7750 H     1 <1>   0.0800 
 53 H      -11.4430     4.7400    -1.7330 H     1 <1>   0.0800 
 54 H      -12.1290     4.8410    -0.1340 H     1 <1>   0.0800 
@<TRIPOS>BOND
  1   1   2  1   
  2   1   3  1   
  3   2   4  ar  
  4   2   5  ar  
  5   3  26  1   
  6   3  27  1   
  7   3  28  1   
  8   4   6  ar  
  9   4   7  1   
 10   5   8  ar  
 11   5  29  1   
 12   6   9  ar  
 13   6  30  1   
 14   7  10  1   
 15   7  31  1   
 16   7  32  1   
 17   8   9  ar  
 18   8  33  1   
 19   9  11  1   
 20  10  12  1   
 21  10  13  1   
 22  10  34  1   
 23  11  14  1   
 24  12  15  1   
 25  12  35  1   
 26  12  36  1   
 27  13  16  1   
 28  13  37  1   
 29  13  38  1   
 30  14  39  1   
 31  14  40  1   
 32  14  41  1   
 33  15  17  1   
 34  15  42  1   
 35  15  43  1   
 36  16  17  1   
 37  16  44  1   
 38  16  45  1   
 39  17  18  1   
 40  18  19  ar  
 41  18  20  ar  
 42  19  21  ar  
 43  19  22  1   
 44  20  23  ar  
 45  20  46  1   
 46  21  24  ar  
 47  21  25  1   
 48  22  47  1   
 49  22  48  1   
 50  22  49  1   
 51  23  24  ar  
 52  23  50  1   
 53  24  51  1   
 54  25  52  1   
 55  25  53  1   
 56  25  54  1   
@<TRIPOS>SUBSTRUCTURE
  1 ****  12 GROUP 4 **** **** 0

# MOE 2024.06 (io_trps.svl 2023.06)
