@<TRIPOS>MOLECULE
NONAME
33 33 1 0 0 
SMALL
USER_CHARGES


@<TRIPOS>ATOM
  1 BR      -0.2630    -1.2280    -0.2480 Br    1 <1>  -0.1110 
  2 C        1.6330    -1.4690     0.0200 C.ar  1 <1>   0.1110 
  3 C        2.2560    -2.6220    -0.4340 C.ar  1 <1>  -0.1440 
  4 C        2.3190    -0.4600     0.6700 C.ar  1 <1>  -0.1500 
  5 C        3.6190    -2.7460    -0.2170 C.ar  1 <1>  -0.1500 
  6 C        1.4830    -3.7210    -1.1470 C.3   1 <1>  -0.0960 
  7 C        3.6800    -0.6000     0.8790 C.ar  1 <1>  -0.1500 
  8 C        4.3340    -1.7490     0.4340 C.ar  1 <1>   0.0830 
  9 O        5.6640    -1.9660     0.5970 O.3   1 <1>  -0.3630 
 10 C        6.4910    -1.0060     1.2450 C.3   1 <1>   0.1810 
 11 C        7.9430    -1.4670     1.3030 C.2   1 <1>   0.5690 
 12 O        8.7740    -0.7020     1.7320 O.2   1 <1>  -0.5700 
 13 N        8.2740    -2.7130     0.8710 N.am  1 <1>  -0.7300 
 14 C        9.6350    -3.3030     0.9050 C.3   1 <1>   0.1400 
 15 C       10.4720    -2.7810    -0.2620 C.3   1 <1>   0.1200 
 16 O       11.6670    -3.4970    -0.3040 O.3   1 <1>  -0.5600 
 17 C       12.5530    -3.0540    -1.2800 C.3   1 <1>   0.0400 
 18 H        1.7940     0.4170     1.0040 H     1 <1>   0.1500 
 19 H        4.1460    -3.6220    -0.5510 H     1 <1>   0.1500 
 20 H        0.7120    -4.1060    -0.5040 H     1 <1>   0.0800 
 21 H        2.1320    -4.5330    -1.4230 H     1 <1>   0.0800 
 22 H        1.0280    -3.3310    -2.0410 H     1 <1>   0.0800 
 23 H        4.2030     0.1890     1.3840 H     1 <1>   0.1500 
 24 H        6.1280    -0.8630     2.2450 H     1 <1>   0.0800 
 25 H        6.4370    -0.0850     0.6960 H     1 <1>   0.0800 
 26 H        7.5240    -3.2990     0.4920 H     1 <1>   0.3700 
 27 H        9.5580    -4.3750     0.8450 H     1 <1>   0.0800 
 28 H       10.1160    -3.0370     1.8310 H     1 <1>   0.0800 
 29 H       10.6940    -1.7370    -0.1170 H     1 <1>   0.0800 
 30 H        9.9540    -2.9310    -1.1930 H     1 <1>   0.0800 
 31 H       13.4340    -3.6690    -1.2370 H     1 <1>   0.0800 
 32 H       12.8160    -2.0290    -1.0820 H     1 <1>   0.0800 
 33 H       12.0910    -3.1470    -2.2480 H     1 <1>   0.0800 
@<TRIPOS>BOND
  1   1   2  1   
  2   2   3  ar  
  3   2   4  ar  
  4   3   5  ar  
  5   3   6  1   
  6   4   7  ar  
  7   4  18  1   
  8   5   8  ar  
  9   5  19  1   
 10   6  20  1   
 11   6  21  1   
 12   6  22  1   
 13   7   8  ar  
 14   7  23  1   
 15   8   9  1   
 16   9  10  1   
 17  10  11  1   
 18  10  24  1   
 19  10  25  1   
 20  11  12  2   
 21  11  13  am  
 22  13  14  1   
 23  13  26  1   
 24  14  15  1   
 25  14  27  1   
 26  14  28  1   
 27  15  16  1   
 28  15  29  1   
 29  15  30  1   
 30  16  17  1   
 31  17  31  1   
 32  17  32  1   
 33  17  33  1   
@<TRIPOS>SUBSTRUCTURE
  1 ****   9 GROUP 4 **** **** 0

# MOE 2024.06 (io_trps.svl 2023.06)
