@<TRIPOS>MOLECULE
NONAME
51 53 1 0 0 
SMALL
USER_CHARGES


@<TRIPOS>ATOM
  1 S        2.4260    -0.0610     1.0010 S.o2  1 <1>   1.4470 
  2 O        1.8980    -0.0150     2.3480 O.2   1 <1>  -0.6500 
  3 O        3.1070    -1.2550     0.5510 O.2   1 <1>  -0.6500 
  4 N        1.1240     0.1840    -0.0550 N.am  1 <1>  -0.8490 
  5 C        3.4880     1.3760     0.6960 C.ar  1 <1>  -0.0090 
  6 C        0.2980    -0.9970    -0.2150 C.3   1 <1>   0.1960 
  7 C        0.2130     1.2460     0.3380 C.3   1 <1>   0.1960 
  8 C        3.7490     1.8080    -0.5990 C.ar  1 <1>  -0.1500 
  9 C        4.0870     2.0640     1.7440 C.ar  1 <1>  -0.1500 
 10 C       -0.9910    -0.4830    -0.8470 C.3   1 <1>  -0.1600 
 11 C       -1.0220     1.0110    -0.5220 C.3   1 <1>  -0.1600 
 12 C        4.5840     2.8830    -0.8550 C.ar  1 <1>  -0.1430 
 13 C        4.9230     3.1400     1.5100 C.ar  1 <1>  -0.1500 
 14 C        5.1850     3.5490     0.2080 C.ar  1 <1>   0.0830 
 15 C        4.8470     3.3130    -2.2910 C.3   1 <1>  -0.0970 
 16 O        6.0440     4.5590    -0.0830 O.3   1 <1>  -0.3630 
 17 C        7.1170     4.9130     0.7910 C.3   1 <1>   0.1810 
 18 C        8.1220     3.7800     1.0120 C.2   1 <1>   0.5690 
 19 O        9.0020     3.9480     1.8220 O.2   1 <1>  -0.5700 
 20 N        8.0000     2.6200     0.3180 N.am  1 <1>  -0.7300 
 21 C        8.7890     1.3970     0.5070 C.3   1 <1>   0.2200 
 22 C        9.0430     0.7710    -0.8580 C.3   1 <1>  -0.1600 
 23 C        7.9190     0.3620     1.2100 C.3   1 <1>  -0.1600 
 24 C        7.7540     0.0210    -1.2150 C.3   1 <1>  -0.1600 
 25 C        7.0520    -0.2740     0.1160 C.3   1 <1>  -0.1600 
 26 H        0.0860    -1.4290     0.7500 H     1 <1>   0.0800 
 27 H        0.7890    -1.7300    -0.8340 H     1 <1>   0.0800 
 28 H        0.6460     2.2170     0.1660 H     1 <1>   0.0800 
 29 H       -0.0530     1.1470     1.3790 H     1 <1>   0.0800 
 30 H        3.2880     1.2800    -1.4180 H     1 <1>   0.1500 
 31 H        3.8970     1.7490     2.7570 H     1 <1>   0.1500 
 32 H       -1.8420    -1.0020    -0.4440 H     1 <1>   0.0800 
 33 H       -0.9600    -0.6330    -1.9120 H     1 <1>   0.0800 
 34 H       -0.9450     1.5900    -1.4250 H     1 <1>   0.0800 
 35 H       -1.9170     1.2960     0.0030 H     1 <1>   0.0800 
 36 H        5.3640     3.6410     2.3520 H     1 <1>   0.1500 
 37 H        4.2780     2.7210    -2.9850 H     1 <1>   0.0800 
 38 H        5.8920     3.2030    -2.5220 H     1 <1>   0.0800 
 39 H        4.5740     4.3450    -2.4180 H     1 <1>   0.0800 
 40 H        6.7090     5.2380     1.7280 H     1 <1>   0.0800 
 41 H        7.6310     5.7410     0.3420 H     1 <1>   0.0800 
 42 H        7.1740     2.5020    -0.2750 H     1 <1>   0.3700 
 43 H        9.6990     1.6100     1.0450 H     1 <1>   0.0800 
 44 H        9.8450     0.0600    -0.7620 H     1 <1>   0.0800 
 45 H        9.3190     1.5030    -1.5970 H     1 <1>   0.0800 
 46 H        7.3350     0.7930     2.0040 H     1 <1>   0.0800 
 47 H        8.5610    -0.3940     1.6280 H     1 <1>   0.0800 
 48 H        7.9700    -0.8840    -1.7570 H     1 <1>   0.0800 
 49 H        7.1230     0.6480    -1.8220 H     1 <1>   0.0800 
 50 H        6.0740     0.1730     0.1160 H     1 <1>   0.0800 
 51 H        6.9440    -1.3320     0.2790 H     1 <1>   0.0800 
@<TRIPOS>BOND
  1   1   2  2   
  2   1   3  2   
  3   1   4  am  
  4   1   5  1   
  5   4   6  1   
  6   4   7  1   
  7   5   8  ar  
  8   5   9  ar  
  9   6  10  1   
 10   6  26  1   
 11   6  27  1   
 12   7  11  1   
 13   7  28  1   
 14   7  29  1   
 15   8  12  ar  
 16   8  30  1   
 17   9  13  ar  
 18   9  31  1   
 19  10  11  1   
 20  10  32  1   
 21  10  33  1   
 22  11  34  1   
 23  11  35  1   
 24  12  14  ar  
 25  12  15  1   
 26  13  14  ar  
 27  13  36  1   
 28  14  16  1   
 29  15  37  1   
 30  15  38  1   
 31  15  39  1   
 32  16  17  1   
 33  17  18  1   
 34  17  40  1   
 35  17  41  1   
 36  18  19  2   
 37  18  20  am  
 38  20  21  1   
 39  20  42  1   
 40  21  22  1   
 41  21  23  1   
 42  21  43  1   
 43  22  24  1   
 44  22  44  1   
 45  22  45  1   
 46  23  25  1   
 47  23  46  1   
 48  23  47  1   
 49  24  25  1   
 50  24  48  1   
 51  24  49  1   
 52  25  50  1   
 53  25  51  1   
@<TRIPOS>SUBSTRUCTURE
  1 ****   5 GROUP 4 **** **** 0

# MOE 2024.06 (io_trps.svl 2023.06)
