@<TRIPOS>MOLECULE
NONAME
43 44 1 0 0 
SMALL
USER_CHARGES


@<TRIPOS>ATOM
  1 S        0.2420    -0.1520    -0.3260 S.o2  1 <1>   1.3330 
  2 O       -0.0730     1.2560    -0.3310 O.2   1 <1>  -0.6500 
  3 O        1.4450    -0.6360    -0.9640 O.2   1 <1>  -0.6500 
  4 N       -1.0820    -1.0080    -1.0580 N.am  1 <1>  -0.6930 
  5 C        0.2020    -0.7820     1.3580 C.3   1 <1>  -0.0550 
  6 C       -2.3920    -0.9150    -0.6080 C.ar  1 <1>   0.1990 
  7 C       -0.7710    -1.8130    -2.2650 C.3   1 <1>   0.1160 
  8 C        1.3080    -0.2250     2.2720 C.3   1 <1>  -0.2400 
  9 C       -3.0310     0.3090    -0.4440 C.ar  1 <1>  -0.1500 
 10 C       -3.1090    -2.0660    -0.3000 C.ar  1 <1>  -0.1500 
 11 C       -4.3310     0.3770     0.0170 C.ar  1 <1>  -0.1500 
 12 C       -4.4100    -1.9970     0.1590 C.ar  1 <1>  -0.1500 
 13 C       -5.0620    -0.7720     0.3270 C.ar  1 <1>   0.0860 
 14 C       -6.4300    -0.6820     0.8020 C.2   1 <1>   0.5440 
 15 O       -6.8180     0.3070     1.3930 O.2   1 <1>  -0.5700 
 16 N       -7.3130    -1.7010     0.5820 N.am  1 <1>  -0.7300 
 17 C       -8.7220    -1.7270     1.0120 C.3   1 <1>   0.2200 
 18 C       -8.9960    -3.0520     1.7120 C.3   1 <1>  -0.1600 
 19 C       -9.6110    -1.7930    -0.2230 C.3   1 <1>  -0.1600 
 20 C       -9.2350    -4.0750     0.5950 C.3   1 <1>  -0.1600 
 21 C       -9.6270    -3.2660    -0.6490 C.3   1 <1>  -0.1600 
 22 H        0.2890    -1.8510     1.3290 H     1 <1>   0.0800 
 23 H       -0.7500    -0.5450     1.7920 H     1 <1>   0.0800 
 24 H       -0.2720    -1.1940    -2.9910 H     1 <1>   0.0800 
 25 H       -1.6730    -2.2020    -2.7040 H     1 <1>   0.0800 
 26 H       -0.1210    -2.6300    -2.0010 H     1 <1>   0.0800 
 27 H        2.2770    -0.4720     1.8740 H     1 <1>   0.0800 
 28 H        1.2200    -0.6430     3.2600 H     1 <1>   0.0800 
 29 H        1.2270     0.8460     2.3390 H     1 <1>   0.0800 
 30 H       -2.5090     1.2180    -0.6860 H     1 <1>   0.1500 
 31 H       -2.6320    -3.0220    -0.4150 H     1 <1>   0.1500 
 32 H       -4.8010     1.3380     0.1410 H     1 <1>   0.1500 
 33 H       -4.9290    -2.9070     0.4010 H     1 <1>   0.1500 
 34 H       -7.0530    -2.4790    -0.0210 H     1 <1>   0.3700 
 35 H       -8.9510    -0.8790     1.6380 H     1 <1>   0.0800 
 36 H       -9.8980    -2.9490     2.2890 H     1 <1>   0.0800 
 37 H       -8.1970    -3.3340     2.3750 H     1 <1>   0.0800 
 38 H       -9.2710    -1.1350    -1.0030 H     1 <1>   0.0800 
 39 H      -10.6070    -1.5010     0.0610 H     1 <1>   0.0800 
 40 H      -10.0090    -4.7690     0.8720 H     1 <1>   0.0800 
 41 H       -8.3300    -4.6240     0.4010 H     1 <1>   0.0800 
 42 H       -8.9050    -3.4290    -1.4310 H     1 <1>   0.0800 
 43 H      -10.6010    -3.5490    -1.0120 H     1 <1>   0.0800 
@<TRIPOS>BOND
  1   1   2  2   
  2   1   3  2   
  3   1   4  am  
  4   1   5  1   
  5   4   6  1   
  6   4   7  1   
  7   5   8  1   
  8   5  22  1   
  9   5  23  1   
 10   6   9  ar  
 11   6  10  ar  
 12   7  24  1   
 13   7  25  1   
 14   7  26  1   
 15   8  27  1   
 16   8  28  1   
 17   8  29  1   
 18   9  11  ar  
 19   9  30  1   
 20  10  12  ar  
 21  10  31  1   
 22  11  13  ar  
 23  11  32  1   
 24  12  13  ar  
 25  12  33  1   
 26  13  14  1   
 27  14  15  2   
 28  14  16  am  
 29  16  17  1   
 30  16  34  1   
 31  17  18  1   
 32  17  19  1   
 33  17  35  1   
 34  18  20  1   
 35  18  36  1   
 36  18  37  1   
 37  19  21  1   
 38  19  38  1   
 39  19  39  1   
 40  20  21  1   
 41  20  40  1   
 42  20  41  1   
 43  21  42  1   
 44  21  43  1   
@<TRIPOS>SUBSTRUCTURE
  1 ****  12 GROUP 4 **** **** 0

# MOE 2024.06 (io_trps.svl 2023.06)
