@<TRIPOS>MOLECULE
NONAME
53 56 1 0 0 
SMALL
USER_CHARGES


@<TRIPOS>ATOM
  1 O        2.8070     0.6730    -2.2090 O.3   1 <1>  -0.3630 
  2 C        3.0270    -0.0270    -1.0930 C.ar  1 <1>   0.0830 
  3 C        1.4850     0.3480    -2.6410 C.3   1 <1>   0.4000 
  4 C        1.9380    -0.7900    -0.7920 C.ar  1 <1>   0.0830 
  5 C        4.1580    -0.0370    -0.3020 C.ar  1 <1>  -0.1500 
  6 O        0.9810    -0.6050    -1.7060 O.3   1 <1>  -0.3630 
  7 C        1.9170    -1.6060     0.3200 C.ar  1 <1>  -0.1500 
  8 C        4.1670    -0.8590     0.8220 C.ar  1 <1>  -0.1440 
  9 C        3.0460    -1.6330     1.1300 C.ar  1 <1>  -0.1500 
 10 C        5.3980    -0.9190     1.7050 C.3   1 <1>   0.4870 
 11 N        6.4860    -1.6060     0.9650 N.4   1 <1>  -0.9590 
 12 C        6.1320    -2.9780     0.4670 C.3   1 <1>   0.3430 
 13 C        7.8060    -1.6150     1.6690 C.3   1 <1>   0.3430 
 14 C        7.2790    -3.5730    -0.3870 C.3   1 <1>   0.1100 
 15 C        8.9160    -2.1650     0.7430 C.3   1 <1>   0.1100 
 16 N        8.3920    -2.6150    -0.5730 N.3   1 <1>  -0.8100 
 17 C        9.4660    -3.1980    -1.4050 C.3   1 <1>   0.2530 
 18 C       10.5530    -2.1690    -1.6880 C.ar  1 <1>  -0.1430 
 19 C       11.7690    -2.1930    -1.0080 C.ar  1 <1>   0.0830 
 20 C       10.3220    -1.1920    -2.6450 C.ar  1 <1>  -0.1500 
 21 O       11.9470    -3.1530    -0.0620 O.3   1 <1>  -0.3620 
 22 C       12.7420    -1.2420    -1.3070 C.ar  1 <1>  -0.1500 
 23 C       11.2920    -0.2490    -2.9350 C.ar  1 <1>  -0.1500 
 24 C       13.2080    -3.3890     0.5200 C.3   1 <1>   0.1200 
 25 C       12.5020    -0.2750    -2.2670 C.ar  1 <1>  -0.1500 
 26 C       13.0800    -4.5960     1.4450 C.3   1 <1>  -0.2400 
 27 H        1.5220    -0.0920    -3.6220 H     1 <1>   0.0800 
 28 H        0.8720     1.2310    -2.6220 H     1 <1>   0.0800 
 29 H        4.9920     0.5860    -0.5760 H     1 <1>   0.1500 
 30 H        1.0420    -2.1930     0.5400 H     1 <1>   0.1500 
 31 H        3.0350    -2.2650     2.0020 H     1 <1>   0.1500 
 32 H        5.1730    -1.4540     2.6130 H     1 <1>   0.0800 
 33 H        5.7010     0.0820     1.9640 H     1 <1>   0.0800 
 34 H        6.6740    -1.0890     0.0910 H     1 <1>   0.4500 
 35 H        5.2420    -2.9280    -0.1390 H     1 <1>   0.0800 
 36 H        5.9280    -3.6340     1.2960 H     1 <1>   0.0800 
 37 H        7.7500    -2.2250     2.5550 H     1 <1>   0.0800 
 38 H        8.0730    -0.6150     1.9720 H     1 <1>   0.0800 
 39 H        6.8830    -3.8540    -1.3490 H     1 <1>   0.0800 
 40 H        7.6430    -4.4700     0.0860 H     1 <1>   0.0800 
 41 H        9.4230    -2.9770     1.2360 H     1 <1>   0.0800 
 42 H        9.6420    -1.3830     0.5930 H     1 <1>   0.0800 
 43 H        9.0510    -3.5190    -2.3460 H     1 <1>   0.0800 
 44 H        9.8810    -4.0660    -0.9220 H     1 <1>   0.0800 
 45 H        9.3830    -1.1650    -3.1690 H     1 <1>   0.1500 
 46 H       13.6900    -1.2320    -0.8040 H     1 <1>   0.1500 
 47 H       11.1040     0.5040    -3.6820 H     1 <1>   0.1500 
 48 H       13.5000    -2.5150     1.0750 H     1 <1>   0.0800 
 49 H       13.9160    -3.5860    -0.2670 H     1 <1>   0.0800 
 50 H       13.2570     0.4580    -2.4950 H     1 <1>   0.1500 
 51 H       12.3620    -4.3960     2.2200 H     1 <1>   0.0800 
 52 H       14.0300    -4.8030     1.9040 H     1 <1>   0.0800 
 53 H       12.7760    -5.4610     0.8840 H     1 <1>   0.0800 
@<TRIPOS>BOND
  1   1   2  1   
  2   1   3  1   
  3   2   4  ar  
  4   2   5  ar  
  5   3   6  1   
  6   3  27  1   
  7   3  28  1   
  8   4   6  1   
  9   4   7  ar  
 10   5   8  ar  
 11   5  29  1   
 12   7   9  ar  
 13   7  30  1   
 14   8   9  ar  
 15   8  10  1   
 16   9  31  1   
 17  10  11  1   
 18  10  32  1   
 19  10  33  1   
 20  11  12  1   
 21  11  13  1   
 22  11  34  1   
 23  12  14  1   
 24  12  35  1   
 25  12  36  1   
 26  13  15  1   
 27  13  37  1   
 28  13  38  1   
 29  14  16  1   
 30  14  39  1   
 31  14  40  1   
 32  15  16  1   
 33  15  41  1   
 34  15  42  1   
 35  16  17  1   
 36  17  18  1   
 37  17  43  1   
 38  17  44  1   
 39  18  19  ar  
 40  18  20  ar  
 41  19  21  1   
 42  19  22  ar  
 43  20  23  ar  
 44  20  45  1   
 45  21  24  1   
 46  22  25  ar  
 47  22  46  1   
 48  23  25  ar  
 49  23  47  1   
 50  24  26  1   
 51  24  48  1   
 52  24  49  1   
 53  25  50  1   
 54  26  51  1   
 55  26  52  1   
 56  26  53  1   
@<TRIPOS>SUBSTRUCTURE
  1 ****  16 GROUP 4 **** **** 0

# MOE 2024.06 (io_trps.svl 2023.06)
