@<TRIPOS>MOLECULE
NONAME
31 32 1 0 0 
SMALL
USER_CHARGES


@<TRIPOS>ATOM
  1 S       -0.5170    -0.2820     0.8380 S.3   1 <1>  -0.4600 
  2 C       -1.6960    -0.7580    -0.4230 C.3   1 <1>   0.5400 
  3 C        0.7070     0.3120    -0.3220 C.3   1 <1>   0.4760 
  4 N       -1.0780    -0.3120    -1.6710 N.2   1 <1>  -0.2460 
  5 C       -3.0340    -0.0850    -0.1260 C.ar  1 <1>  -0.1440 
  6 N        0.0520     0.1950    -1.6220 N.2   1 <1>  -0.2460 
  7 C        1.9740    -0.5410    -0.2090 C.3   1 <1>  -0.0990 
  8 C        0.9560     1.7790     0.0240 C.3   1 <1>  -0.2400 
  9 C       -4.0720    -0.8320     0.4140 C.ar  1 <1>  -0.1500 
 10 C       -3.2390     1.2650    -0.3820 C.ar  1 <1>  -0.1500 
 11 C        1.8510    -1.8890    -0.8790 C.2   1 <1>   0.6590 
 12 C       -5.2940    -0.2420     0.6910 C.ar  1 <1>  -0.1500 
 13 C       -4.4600     1.8560    -0.1060 C.ar  1 <1>  -0.1500 
 14 O        2.5110    -2.1580    -1.8490 O.2   1 <1>  -0.5700 
 15 O        1.0150    -2.7640    -0.3340 O.3   1 <1>  -0.4300 
 16 C       -5.4880     1.1020     0.4300 C.ar  1 <1>  -0.1500 
 17 C        0.8390    -4.0560    -0.8780 C.3   1 <1>   0.0400 
 18 H       -1.7730    -1.8310    -0.4090 H     1 <1>   0.0800 
 19 H        2.2290    -0.6810     0.8240 H     1 <1>   0.0800 
 20 H        2.7860    -0.0160    -0.6760 H     1 <1>   0.0800 
 21 H        0.0330     2.3310    -0.0110 H     1 <1>   0.0800 
 22 H        1.6490     2.2130    -0.6740 H     1 <1>   0.0800 
 23 H        1.3670     1.8610     1.0140 H     1 <1>   0.0800 
 24 H       -3.9360    -1.8780     0.6270 H     1 <1>   0.1500 
 25 H       -2.4470     1.8630    -0.7980 H     1 <1>   0.1500 
 26 H       -6.0930    -0.8280     1.1100 H     1 <1>   0.1500 
 27 H       -4.6080     2.9020    -0.3080 H     1 <1>   0.1500 
 28 H       -6.4370     1.5620     0.6450 H     1 <1>   0.1500 
 29 H        0.1240    -4.5860    -0.2750 H     1 <1>   0.0800 
 30 H        1.7860    -4.5680    -0.8680 H     1 <1>   0.0800 
 31 H        0.4790    -3.9610    -1.8880 H     1 <1>   0.0800 
@<TRIPOS>BOND
  1   1   2  1   
  2   1   3  1   
  3   2   4  1   
  4   2   5  1   
  5   2  18  1   
  6   3   6  1   
  7   3   7  1   
  8   3   8  1   
  9   4   6  2   
 10   5   9  ar  
 11   5  10  ar  
 12   7  11  1   
 13   7  19  1   
 14   7  20  1   
 15   8  21  1   
 16   8  22  1   
 17   8  23  1   
 18   9  12  ar  
 19   9  24  1   
 20  10  13  ar  
 21  10  25  1   
 22  11  14  2   
 23  11  15  1   
 24  12  16  ar  
 25  12  26  1   
 26  13  16  ar  
 27  13  27  1   
 28  15  17  1   
 29  16  28  1   
 30  17  29  1   
 31  17  30  1   
 32  17  31  1   
@<TRIPOS>SUBSTRUCTURE
  1 ****   2 GROUP 4 **** **** 0

# MOE 2024.06 (io_trps.svl 2023.06)
