@<TRIPOS>MOLECULE
NONAME
35 36 1 0 0 
SMALL
USER_CHARGES


@<TRIPOS>ATOM
  1 O       -2.0030     1.7720    -0.1100 O.co2 1 <1>  -0.9000 
  2 C       -1.6340     0.6820     0.3430 C.2   1 <1>   0.9470 
  3 O       -1.0090     0.5860     1.4060 O.co2 1 <1>  -0.9000 
  4 C       -1.9360    -0.5830    -0.4590 C.3   1 <1>  -0.2470 
  5 C       -3.3200    -1.1540    -0.6650 C.3   1 <1>  -0.1950 
  6 C       -2.3370    -1.8590     0.2230 C.3   1 <1>  -0.1950 
  7 C       -4.4790    -0.2840    -0.1480 C.3   1 <1>  -0.0650 
  8 C       -1.5300    -3.1020    -0.1750 C.3   1 <1>  -0.0650 
  9 C       -5.8800    -0.8350    -0.4530 C.3   1 <1>  -0.0220 
 10 C       -2.1040    -4.4090     0.3810 C.3   1 <1>  -0.0220 
 11 C       -6.4330    -1.7360     0.6450 C.2   1 <1>  -0.2880 
 12 C       -3.3910    -4.8100    -0.3150 C.2   1 <1>  -0.2880 
 13 C       -6.8120    -3.0170     0.5640 C.2   1 <1>  -0.2880 
 14 C       -4.5800    -4.8220     0.2890 C.2   1 <1>  -0.2880 
 15 C       -6.7390    -3.9370    -0.6480 C.3   1 <1>  -0.0220 
 16 C       -5.9020    -5.1890    -0.3590 C.3   1 <1>  -0.0220 
 17 H       -1.2760    -0.6350    -1.3010 H     1 <1>   0.1000 
 18 H       -3.5150    -1.5800    -1.6330 H     1 <1>   0.1000 
 19 H       -2.4960    -1.7920     1.2870 H     1 <1>   0.1000 
 20 H       -4.3650    -0.0960     0.9050 H     1 <1>   0.0800 
 21 H       -4.3960     0.6680    -0.6440 H     1 <1>   0.0800 
 22 H       -1.4520    -3.1630    -1.2460 H     1 <1>   0.0800 
 23 H       -0.5370    -2.9780     0.2180 H     1 <1>   0.0800 
 24 H       -5.8720    -1.3210    -1.4090 H     1 <1>   0.0800 
 25 H       -6.5490     0.0020    -0.5390 H     1 <1>   0.0800 
 26 H       -2.2750    -4.2930     1.4370 H     1 <1>   0.0800 
 27 H       -1.3830    -5.1960     0.2520 H     1 <1>   0.0800 
 28 H       -6.5070    -1.2000     1.5770 H     1 <1>   0.1500 
 29 H       -3.2510    -5.0700    -1.3500 H     1 <1>   0.1500 
 30 H       -7.2080    -3.5300     1.4240 H     1 <1>   0.1500 
 31 H       -4.6950    -4.5330     1.3210 H     1 <1>   0.1500 
 32 H       -7.7320    -4.2290    -0.9380 H     1 <1>   0.0800 
 33 H       -6.2930    -3.4270    -1.4800 H     1 <1>   0.0800 
 34 H       -5.7230    -5.7120    -1.2820 H     1 <1>   0.0800 
 35 H       -6.4430    -5.8480     0.2970 H     1 <1>   0.0800 
@<TRIPOS>BOND
  1   1   2  ar  
  2   2   3  ar  
  3   2   4  1   
  4   4   5  1   
  5   4   6  1   
  6   4  17  1   
  7   5   6  1   
  8   5   7  1   
  9   5  18  1   
 10   6   8  1   
 11   6  19  1   
 12   7   9  1   
 13   7  20  1   
 14   7  21  1   
 15   8  10  1   
 16   8  22  1   
 17   8  23  1   
 18   9  11  1   
 19   9  24  1   
 20   9  25  1   
 21  10  12  1   
 22  10  26  1   
 23  10  27  1   
 24  11  13  2   
 25  11  28  1   
 26  12  14  2   
 27  12  29  1   
 28  13  15  1   
 29  13  30  1   
 30  14  16  1   
 31  14  31  1   
 32  15  16  1   
 33  15  32  1   
 34  15  33  1   
 35  16  34  1   
 36  16  35  1   
@<TRIPOS>SUBSTRUCTURE
  1 ****   5 GROUP 4 **** **** 0

# MOE 2024.06 (io_trps.svl 2023.06)
