@<TRIPOS>MOLECULE
NONAME
40 41 1 0 0 
SMALL
USER_CHARGES


@<TRIPOS>ATOM
  1 CL       3.6450    -0.8600    -2.7970 Cl    1 <1>  -0.1770 
  2 C        3.5420     0.3530    -1.5390 C.ar  1 <1>   0.1770 
  3 C        3.3040    -0.0140    -0.2080 C.ar  1 <1>   0.1990 
  4 C        3.7300     1.6700    -1.9080 C.ar  1 <1>  -0.1500 
  5 N        3.1000    -1.3330     0.1960 N.am  1 <1>  -0.6930 
  6 C        3.2710     0.9940     0.7520 C.ar  1 <1>  -0.1500 
  7 C        3.6920     2.6430    -0.9280 C.ar  1 <1>   0.1770 
  8 S        1.6030    -2.1400    -0.1370 S.o2  1 <1>   1.3330 
  9 C        4.2460    -2.1610     0.7000 C.3   1 <1>   0.2570 
 10 C        3.4650     2.3190     0.3970 C.ar  1 <1>  -0.1500 
 11 CL       3.9440     4.3130    -1.3690 Cl    1 <1>  -0.1770 
 12 O        0.9120    -1.4030    -1.1650 O.2   1 <1>  -0.6500 
 13 O        1.8610    -3.5540    -0.2370 O.2   1 <1>  -0.6500 
 14 C        0.7300    -1.8640     1.3870 C.3   1 <1>  -0.1350 
 15 C        5.3450    -2.4600    -0.3290 C.2   1 <1>   0.5690 
 16 O        5.3390    -3.5200    -0.9010 O.2   1 <1>  -0.5700 
 17 N        6.3640    -1.5970    -0.5750 N.am  1 <1>  -0.7300 
 18 C        6.6970    -0.3010     0.0390 C.3   1 <1>   0.2200 
 19 C        7.0830     0.6770    -1.0630 C.3   1 <1>  -0.1600 
 20 C        7.9820    -0.4550     0.8420 C.3   1 <1>  -0.1600 
 21 C        8.5580     0.3990    -1.3800 C.3   1 <1>  -0.1600 
 22 C        9.1200    -0.3740    -0.1810 C.3   1 <1>  -0.1600 
 23 H        3.9070     1.9310    -2.9350 H     1 <1>   0.1500 
 24 H        3.0880     0.7370     1.7800 H     1 <1>   0.1500 
 25 H        4.6940    -1.6590     1.5360 H     1 <1>   0.0800 
 26 H        3.8790    -3.1040     1.0640 H     1 <1>   0.0800 
 27 H        3.4390     3.1010     1.1370 H     1 <1>   0.1500 
 28 H       -0.2420    -2.3140     1.3360 H     1 <1>   0.0800 
 29 H        0.6120    -0.8130     1.5610 H     1 <1>   0.0800 
 30 H        1.2660    -2.2980     2.2080 H     1 <1>   0.0800 
 31 H        7.0330    -1.9090    -1.2810 H     1 <1>   0.3700 
 32 H        5.8880     0.0660     0.6430 H     1 <1>   0.0800 
 33 H        6.9920     1.6780    -0.6810 H     1 <1>   0.0800 
 34 H        6.4570     0.5820    -1.9330 H     1 <1>   0.0800 
 35 H        8.0050    -1.3670     1.4120 H     1 <1>   0.0800 
 36 H        8.0650     0.3780     1.5190 H     1 <1>   0.0800 
 37 H        9.0930     1.3200    -1.5380 H     1 <1>   0.0800 
 38 H        8.6380    -0.2030    -2.2700 H     1 <1>   0.0800 
 39 H        9.3990    -1.3660    -0.4910 H     1 <1>   0.0800 
 40 H        9.9840     0.1140     0.2360 H     1 <1>   0.0800 
@<TRIPOS>BOND
  1   1   2  1   
  2   2   3  ar  
  3   2   4  ar  
  4   3   5  1   
  5   3   6  ar  
  6   4   7  ar  
  7   4  23  1   
  8   5   8  am  
  9   5   9  1   
 10   6  10  ar  
 11   6  24  1   
 12   7  10  ar  
 13   7  11  1   
 14   8  12  2   
 15   8  13  2   
 16   8  14  1   
 17   9  15  1   
 18   9  25  1   
 19   9  26  1   
 20  10  27  1   
 21  14  28  1   
 22  14  29  1   
 23  14  30  1   
 24  15  16  2   
 25  15  17  am  
 26  17  18  1   
 27  17  31  1   
 28  18  19  1   
 29  18  20  1   
 30  18  32  1   
 31  19  21  1   
 32  19  33  1   
 33  19  34  1   
 34  20  22  1   
 35  20  35  1   
 36  20  36  1   
 37  21  22  1   
 38  21  37  1   
 39  21  38  1   
 40  22  39  1   
 41  22  40  1   
@<TRIPOS>SUBSTRUCTURE
  1 ****   3 GROUP 4 **** **** 0

# MOE 2024.06 (io_trps.svl 2023.06)
