@<TRIPOS>MOLECULE
NONAME
52 54 1 0 0 
SMALL
USER_CHARGES


@<TRIPOS>ATOM
  1 S       -0.1630    -0.2390    -1.4790 S.o2  1 <1>   1.5760 
  2 O       -0.1610    -0.7900    -2.8160 O.2   1 <1>  -0.6500 
  3 O        0.6890     0.8740    -1.1220 O.2   1 <1>  -0.6500 
  4 N        0.0930    -1.4980    -0.3750 N.am  1 <1>  -0.8490 
  5 N       -1.7550     0.1670    -1.0940 N.am  1 <1>  -0.8490 
  6 C        1.0540    -1.1450     0.6840 C.3   1 <1>   0.1960 
  7 C        0.5230    -2.7460    -1.0260 C.3   1 <1>   0.1960 
  8 C       -1.9060     0.7160     0.2620 C.3   1 <1>   0.1960 
  9 C       -2.7050    -0.9270    -1.3480 C.3   1 <1>   0.1960 
 10 C        1.2440    -2.3080     1.6730 C.3   1 <1>   0.1200 
 11 C        0.7370    -3.8700     0.0040 C.3   1 <1>   0.1200 
 12 C       -3.3410     1.2030     0.5140 C.3   1 <1>   0.1400 
 13 C       -4.1630    -0.4920    -1.1070 C.3   1 <1>   0.1400 
 14 O        1.6390    -3.4670     0.9960 O.3   1 <1>  -0.5600 
 15 N       -4.3190     0.1020     0.2560 N.am  1 <1>  -0.6600 
 16 C       -4.9650    -0.5420     1.2890 C.2   1 <1>   0.5440 
 17 O       -4.5630    -0.3690     2.4250 O.2   1 <1>  -0.5700 
 18 C       -6.0870    -1.4310     1.0540 C.ar  1 <1>   0.0860 
 19 C       -7.1040    -1.1000     0.1590 C.ar  1 <1>  -0.1500 
 20 C       -6.1860    -2.6510     1.7200 C.ar  1 <1>  -0.1500 
 21 C       -8.1690    -1.9590    -0.0860 C.ar  1 <1>   0.0820 
 22 C       -7.2380    -3.5180     1.4910 C.ar  1 <1>  -0.1500 
 23 O       -9.1640    -1.6510    -0.9660 O.3   1 <1>  -0.3620 
 24 C       -8.2370    -3.1850     0.5820 C.ar  1 <1>   0.0820 
 25 C       -9.3330    -0.3430    -1.4670 C.3   1 <1>   0.0400 
 26 O       -9.2890    -4.0060     0.3190 O.3   1 <1>  -0.3630 
 27 C       -9.4780    -5.2290     0.9930 C.3   1 <1>   0.0400 
 28 H        0.7010    -0.2820     1.2220 H     1 <1>   0.0800 
 29 H        2.0080    -0.8960     0.2500 H     1 <1>   0.0800 
 30 H        1.4410    -2.5840    -1.5670 H     1 <1>   0.0800 
 31 H       -0.2260    -3.0630    -1.7320 H     1 <1>   0.0800 
 32 H       -1.2330     1.5470     0.3930 H     1 <1>   0.0800 
 33 H       -1.6650    -0.0340     0.9960 H     1 <1>   0.0800 
 34 H       -2.4820    -1.7630    -0.7060 H     1 <1>   0.0800 
 35 H       -2.6090    -1.2560    -2.3690 H     1 <1>   0.0800 
 36 H        0.3280    -2.5100     2.2000 H     1 <1>   0.0800 
 37 H        2.0110    -2.0680     2.3880 H     1 <1>   0.0800 
 38 H        1.1440    -4.7420    -0.4750 H     1 <1>   0.0800 
 39 H       -0.1950    -4.1340     0.4740 H     1 <1>   0.0800 
 40 H       -3.5550     2.0280    -0.1420 H     1 <1>   0.0800 
 41 H       -3.4290     1.5580     1.5260 H     1 <1>   0.0800 
 42 H       -4.8030    -1.3470    -1.2280 H     1 <1>   0.0800 
 43 H       -4.4390     0.2400    -1.8460 H     1 <1>   0.0800 
 44 H       -7.0370    -0.1530    -0.3390 H     1 <1>   0.1500 
 45 H       -5.4210    -2.9140     2.4310 H     1 <1>   0.1500 
 46 H       -7.2620    -4.4460     2.0300 H     1 <1>   0.1500 
 47 H      -10.2420    -0.3240    -2.0410 H     1 <1>   0.0800 
 48 H       -8.4990    -0.0990    -2.0990 H     1 <1>   0.0800 
 49 H       -9.4090     0.3410    -0.6400 H     1 <1>   0.0800 
 50 H      -10.3850    -5.6740     0.6260 H     1 <1>   0.0800 
 51 H       -9.5660    -5.0360     2.0470 H     1 <1>   0.0800 
 52 H       -8.6440    -5.8750     0.7840 H     1 <1>   0.0800 
@<TRIPOS>BOND
  1   1   2  2   
  2   1   3  2   
  3   1   4  am  
  4   1   5  am  
  5   4   6  1   
  6   4   7  1   
  7   5   8  1   
  8   5   9  1   
  9   6  10  1   
 10   6  28  1   
 11   6  29  1   
 12   7  11  1   
 13   7  30  1   
 14   7  31  1   
 15   8  12  1   
 16   8  32  1   
 17   8  33  1   
 18   9  13  1   
 19   9  34  1   
 20   9  35  1   
 21  10  14  1   
 22  10  36  1   
 23  10  37  1   
 24  11  14  1   
 25  11  38  1   
 26  11  39  1   
 27  12  15  1   
 28  12  40  1   
 29  12  41  1   
 30  13  15  1   
 31  13  42  1   
 32  13  43  1   
 33  15  16  am  
 34  16  17  2   
 35  16  18  1   
 36  18  19  ar  
 37  18  20  ar  
 38  19  21  ar  
 39  19  44  1   
 40  20  22  ar  
 41  20  45  1   
 42  21  23  1   
 43  21  24  ar  
 44  22  24  ar  
 45  22  46  1   
 46  23  25  1   
 47  24  26  1   
 48  25  47  1   
 49  25  48  1   
 50  25  49  1   
 51  26  27  1   
 52  27  50  1   
 53  27  51  1   
 54  27  52  1   
@<TRIPOS>SUBSTRUCTURE
  1 ****  13 GROUP 4 **** **** 0

# MOE 2024.06 (io_trps.svl 2023.06)
