@<TRIPOS>MOLECULE
NONAME
45 47 1 0 0 
SMALL
USER_CHARGES


@<TRIPOS>ATOM
  1 O        0.8800    -0.3230     0.1990 O.2   1 <1>  -0.5700 
  2 C        1.9190    -0.0450    -0.3660 C.2   1 <1>   0.6340 
  3 O        2.6430    -1.0500    -0.8810 O.3   1 <1>  -0.4300 
  4 C        2.3870     1.3200    -0.5130 C.ar  1 <1>   0.0860 
  5 C        2.2300    -2.4010    -0.7700 C.3   1 <1>   0.0400 
  6 C        3.7280     1.6690    -0.7690 C.ar  1 <1>   0.1170 
  7 C        1.4710     2.3700    -0.3870 C.ar  1 <1>  -0.1500 
  8 N        4.7290     0.6940    -0.8630 N.am  1 <1>  -0.5470 
  9 C        4.0740     3.0070    -0.9230 C.ar  1 <1>  -0.1500 
 10 C        1.8460     3.6910    -0.5090 C.ar  1 <1>  -0.1500 
 11 C        6.0270     0.7150    -0.4280 C.2   1 <1>   0.5690 
 12 C        3.1680     4.0480    -0.7690 C.ar  1 <1>   0.0860 
 13 O        6.5270     1.6920     0.0750 O.2   1 <1>  -0.5700 
 14 C        6.8350    -0.5730    -0.5990 C.3   1 <1>  -0.0190 
 15 C        3.5530     5.4420    -0.8820 C.2   1 <1>   0.6340 
 16 C        6.0780    -1.9070    -0.0100 C.3   1 <1>  -0.0800 
 17 C        8.3790    -0.5470     0.0680 C.3   1 <1>  -0.1600 
 18 O        2.8770     6.2450    -1.4840 O.2   1 <1>  -0.5700 
 19 O        4.6600     5.9060    -0.2930 O.3   1 <1>  -0.4300 
 20 C        7.3500    -1.9430     0.4060 C.3   1 <1>  -0.1600 
 21 C        6.3170    -3.3340     0.7490 C.3   1 <1>  -0.1600 
 22 C        8.6130    -1.9690     0.8430 C.3   1 <1>  -0.0800 
 23 C        5.2920     5.2940     0.8160 C.3   1 <1>   0.0400 
 24 C        7.8620    -3.3160     1.3890 C.3   1 <1>  -0.1600 
 25 H        2.1490    -2.6560     0.2730 H     1 <1>   0.0800 
 26 H        2.9630    -3.0250    -1.2480 H     1 <1>   0.0800 
 27 H        1.2750    -2.5140    -1.2530 H     1 <1>   0.0800 
 28 H        0.4370     2.1380    -0.1860 H     1 <1>   0.1500 
 29 H        4.3920    -0.2350    -1.1380 H     1 <1>   0.3700 
 30 H        5.0900     3.2530    -1.1760 H     1 <1>   0.1500 
 31 H        1.1100     4.4720    -0.4050 H     1 <1>   0.1500 
 32 H        6.9480    -0.6920    -1.6660 H     1 <1>   0.0800 
 33 H        5.3040    -1.4780     0.6150 H     1 <1>   0.0800 
 34 H        8.4810     0.2640     0.7740 H     1 <1>   0.0800 
 35 H        9.1190    -0.3930    -0.7010 H     1 <1>   0.0800 
 36 H        7.6890    -2.4850    -0.5840 H     1 <1>   0.0800 
 37 H        7.0220    -1.4020     1.3990 H     1 <1>   0.0800 
 38 H        6.2160    -4.1500     0.0490 H     1 <1>   0.0800 
 39 H        5.5880    -3.4850     1.5300 H     1 <1>   0.0800 
 40 H        9.4100    -2.4000     0.2510 H     1 <1>   0.0800 
 41 H        5.9040     6.0350     1.3000 H     1 <1>   0.0800 
 42 H        5.9150     4.4860     0.4740 H     1 <1>   0.0800 
 43 H        4.5450     4.9350     1.5020 H     1 <1>   0.0800 
 44 H        8.4010    -4.2050     1.1010 H     1 <1>   0.0800 
 45 H        7.8170    -3.3010     2.4680 H     1 <1>   0.0800 
@<TRIPOS>BOND
  1   1   2  2   
  2   2   3  1   
  3   2   4  1   
  4   3   5  1   
  5   4   6  ar  
  6   4   7  ar  
  7   5  25  1   
  8   5  26  1   
  9   5  27  1   
 10   6   8  1   
 11   6   9  ar  
 12   7  10  ar  
 13   7  28  1   
 14   8  11  am  
 15   8  29  1   
 16   9  12  ar  
 17   9  30  1   
 18  10  12  ar  
 19  10  31  1   
 20  11  13  2   
 21  11  14  1   
 22  12  15  1   
 23  14  16  1   
 24  14  17  1   
 25  14  32  1   
 26  15  18  2   
 27  15  19  1   
 28  16  20  1   
 29  16  21  1   
 30  16  33  1   
 31  17  22  1   
 32  17  34  1   
 33  17  35  1   
 34  19  23  1   
 35  20  22  1   
 36  20  36  1   
 37  20  37  1   
 38  21  24  1   
 39  21  38  1   
 40  21  39  1   
 41  22  24  1   
 42  22  40  1   
 43  23  41  1   
 44  23  42  1   
 45  23  43  1   
 46  24  44  1   
 47  24  45  1   
@<TRIPOS>SUBSTRUCTURE
  1 ****   8 GROUP 4 **** **** 0

# MOE 2024.06 (io_trps.svl 2023.06)
