@<TRIPOS>MOLECULE
NONAME
58 60 1 0 0 
SMALL
USER_CHARGES


@<TRIPOS>ATOM
  1 S        0.0860     0.7250     0.0510 S.o2  1 <1>   1.3330 
  2 O       -0.0340     0.9150     1.4760 O.2   1 <1>  -0.6500 
  3 O        1.2070     1.2970    -0.6540 O.2   1 <1>  -0.6500 
  4 N        0.1520    -0.9820    -0.2590 N.am  1 <1>  -0.6930 
  5 C       -1.3860     1.3110    -0.7650 C.3   1 <1>  -0.1350 
  6 C        1.3540    -1.6660    -0.1520 C.ar  1 <1>   0.1990 
  7 C       -1.0930    -1.7670    -0.4430 C.3   1 <1>   0.3390 
  8 C        1.7790    -2.5280    -1.1580 C.ar  1 <1>  -0.1500 
  9 C        2.1710    -1.5170     0.9650 C.ar  1 <1>  -0.1500 
 10 C       -2.1190    -1.5750     0.6670 C.ar  1 <1>  -0.1430 
 11 C        2.9730    -3.2140    -1.0500 C.ar  1 <1>  -0.1500 
 12 C        3.3650    -2.2030     1.0700 C.ar  1 <1>  -0.1500 
 13 C       -1.7420    -1.5790     2.0030 C.ar  1 <1>  -0.1500 
 14 C       -3.4600    -1.4140     0.3460 C.ar  1 <1>  -0.1500 
 15 C        3.8030    -3.0640     0.0620 C.ar  1 <1>   0.0860 
 16 C       -2.6860    -1.4100     3.0000 C.ar  1 <1>  -0.1500 
 17 C       -4.4050    -1.2470     1.3430 C.ar  1 <1>  -0.1500 
 18 C        5.0560    -3.7860     0.1590 C.2   1 <1>   0.5440 
 19 C       -4.0190    -1.2430     2.6710 C.ar  1 <1>  -0.1500 
 20 O        5.0890    -4.9640    -0.1460 O.2   1 <1>  -0.5700 
 21 N        6.2250    -3.1810     0.5760 N.am  1 <1>  -0.6600 
 22 C        6.5070    -1.7210     0.4010 C.3   1 <1>   0.1400 
 23 C        7.4290    -3.9840     0.9580 C.3   1 <1>   0.1400 
 24 C        7.6710    -1.4940    -0.5800 C.3   1 <1>   0.1400 
 25 C        8.5720    -3.7690    -0.0430 C.3   1 <1>   0.1400 
 26 N        8.8610    -2.3130    -0.2010 N.am  1 <1>  -0.6600 
 27 C       10.0950    -1.7850     0.0690 C.2   1 <1>   0.7800 
 28 O       11.0360    -2.4670     0.4270 O.2   1 <1>  -0.5700 
 29 O       10.2480    -0.4670    -0.0650 O.3   1 <1>  -0.4300 
 30 C       11.4890     0.1460     0.1950 C.3   1 <1>   0.1200 
 31 C       11.3340     1.6450    -0.0400 C.3   1 <1>  -0.2400 
 32 H       -1.4150     2.3820    -0.7230 H     1 <1>   0.0800 
 33 H       -2.2640     0.9380    -0.2780 H     1 <1>   0.0800 
 34 H       -1.3890     1.0110    -1.7930 H     1 <1>   0.0800 
 35 H       -0.8490    -2.8150    -0.4850 H     1 <1>   0.0800 
 36 H       -1.5280    -1.5020    -1.3910 H     1 <1>   0.0800 
 37 H        1.1700    -2.6550    -2.0340 H     1 <1>   0.1500 
 38 H        1.8620    -0.8610     1.7600 H     1 <1>   0.1500 
 39 H        3.2830    -3.8820    -1.8360 H     1 <1>   0.1500 
 40 H        3.9730    -2.0790     1.9490 H     1 <1>   0.1500 
 41 H       -0.7070    -1.7040     2.2740 H     1 <1>   0.1500 
 42 H       -3.7830    -1.4200    -0.6800 H     1 <1>   0.1500 
 43 H       -2.3810    -1.4050     4.0320 H     1 <1>   0.1500 
 44 H       -5.4430    -1.1210     1.0880 H     1 <1>   0.1500 
 45 H       -4.7520    -1.1110     3.4470 H     1 <1>   0.1500 
 46 H        6.7610    -1.2940     1.3560 H     1 <1>   0.0800 
 47 H        5.6390    -1.2060     0.0280 H     1 <1>   0.0800 
 48 H        7.1880    -5.0320     1.0040 H     1 <1>   0.0800 
 49 H        7.7570    -3.6840     1.9380 H     1 <1>   0.0800 
 50 H        7.9150    -0.4470    -0.5990 H     1 <1>   0.0800 
 51 H        7.3560    -1.7750    -1.5700 H     1 <1>   0.0800 
 52 H        8.2870    -4.1800    -0.9960 H     1 <1>   0.0800 
 53 H        9.4460    -4.2960     0.2970 H     1 <1>   0.0800 
 54 H       12.2240    -0.2770    -0.4690 H     1 <1>   0.0800 
 55 H       11.7630    -0.0590     1.2170 H     1 <1>   0.0800 
 56 H       11.0530     1.8330    -1.0610 H     1 <1>   0.0800 
 57 H       12.2690     2.1400     0.1540 H     1 <1>   0.0800 
 58 H       10.5890     2.0490     0.6210 H     1 <1>   0.0800 
@<TRIPOS>BOND
  1   1   2  2   
  2   1   3  2   
  3   1   4  am  
  4   1   5  1   
  5   4   6  1   
  6   4   7  1   
  7   5  32  1   
  8   5  33  1   
  9   5  34  1   
 10   6   8  ar  
 11   6   9  ar  
 12   7  10  1   
 13   7  35  1   
 14   7  36  1   
 15   8  11  ar  
 16   8  37  1   
 17   9  12  ar  
 18   9  38  1   
 19  10  13  ar  
 20  10  14  ar  
 21  11  15  ar  
 22  11  39  1   
 23  12  15  ar  
 24  12  40  1   
 25  13  16  ar  
 26  13  41  1   
 27  14  17  ar  
 28  14  42  1   
 29  15  18  1   
 30  16  19  ar  
 31  16  43  1   
 32  17  19  ar  
 33  17  44  1   
 34  18  20  2   
 35  18  21  am  
 36  19  45  1   
 37  21  22  1   
 38  21  23  1   
 39  22  24  1   
 40  22  46  1   
 41  22  47  1   
 42  23  25  1   
 43  23  48  1   
 44  23  49  1   
 45  24  26  1   
 46  24  50  1   
 47  24  51  1   
 48  25  26  1   
 49  25  52  1   
 50  25  53  1   
 51  26  27  am  
 52  27  28  2   
 53  27  29  1   
 54  29  30  1   
 55  30  31  1   
 56  30  54  1   
 57  30  55  1   
 58  31  56  1   
 59  31  57  1   
 60  31  58  1   
@<TRIPOS>SUBSTRUCTURE
  1 ****  12 GROUP 4 **** **** 0

# MOE 2024.06 (io_trps.svl 2023.06)
