@<TRIPOS>MOLECULE
NONAME
43 45 1 0 0 
SMALL
USER_CHARGES


@<TRIPOS>ATOM
  1 O        0.5210     0.6030     1.0790 O.2   1 <1>  -0.5700 
  2 C        0.7530     1.4560     0.2560 C.2   1 <1>   0.5690 
  3 N       -0.1950     2.3090    -0.2400 N.am  1 <1>  -0.5470 
  4 C        2.1820     1.6250    -0.2630 C.3   1 <1>  -0.0190 
  5 C       -1.5730     2.4160     0.0050 C.ar  1 <1>   0.1170 
  6 C        2.9570     0.2930    -0.3190 C.3   1 <1>  -0.1600 
  7 C        2.9580     2.6480     0.5880 C.3   1 <1>  -0.1600 
  8 C       -2.2130     3.6040    -0.3400 C.ar  1 <1>  -0.1500 
  9 C       -2.3340     1.3870     0.5620 C.ar  1 <1>  -0.1500 
 10 C        4.3920     0.4930    -0.8130 C.3   1 <1>   0.1400 
 11 C        4.3950     2.8260     0.0890 C.3   1 <1>   0.1400 
 12 C       -3.5700     3.7450    -0.1270 C.ar  1 <1>  -0.1430 
 13 C       -3.6940     1.5350     0.7740 C.ar  1 <1>  -0.1500 
 14 N        5.0750     1.5020     0.0430 N.am  1 <1>  -0.6600 
 15 C       -4.3030     2.7240     0.4230 C.ar  1 <1>  -0.1430 
 16 C       -4.4400     4.9410    -0.4270 C.3   1 <1>  -0.0170 
 17 C        6.2180     1.2760     0.7690 C.2   1 <1>   0.5690 
 18 C       -5.7560     3.1020     0.5640 C.3   1 <1>  -0.0170 
 19 C       -5.8690     4.3940    -0.2640 C.3   1 <1>  -0.1600 
 20 O        6.7480     2.1410     1.4240 O.2   1 <1>  -0.5700 
 21 C        6.8700    -0.0870     0.7780 C.3   1 <1>  -0.1790 
 22 H        0.1620     3.0230    -0.8690 H     1 <1>   0.3700 
 23 H        2.1210     2.0030    -1.2680 H     1 <1>   0.0800 
 24 H        2.4470    -0.3950    -0.9690 H     1 <1>   0.0800 
 25 H        2.9910    -0.1520     0.6620 H     1 <1>   0.0800 
 26 H        2.9870     2.3170     1.6120 H     1 <1>   0.0800 
 27 H        2.4580     3.5990     0.5680 H     1 <1>   0.0800 
 28 H       -1.6570     4.4150    -0.7690 H     1 <1>   0.1500 
 29 H       -1.8680     0.4580     0.8310 H     1 <1>   0.1500 
 30 H        4.3820     0.8490    -1.8290 H     1 <1>   0.0800 
 31 H        4.9080    -0.4490    -0.7990 H     1 <1>   0.0800 
 32 H        4.9180     3.5020     0.7440 H     1 <1>   0.0800 
 33 H        4.3970     3.2550    -0.8980 H     1 <1>   0.0800 
 34 H       -4.2680     0.7340     1.2060 H     1 <1>   0.1500 
 35 H       -4.2710     5.3160    -1.4210 H     1 <1>   0.0800 
 36 H       -4.2450     5.7140     0.2960 H     1 <1>   0.0800 
 37 H       -5.9770     3.2910     1.5990 H     1 <1>   0.0800 
 38 H       -6.4030     2.3310     0.1850 H     1 <1>   0.0800 
 39 H       -6.2580     4.1480    -1.2360 H     1 <1>   0.0800 
 40 H       -6.5210     5.1110     0.2030 H     1 <1>   0.0800 
 41 H        6.1780    -0.8200     1.1470 H     1 <1>   0.0800 
 42 H        7.7300    -0.0720     1.4230 H     1 <1>   0.0800 
 43 H        7.1890    -0.3460    -0.2130 H     1 <1>   0.0800 
@<TRIPOS>BOND
  1   1   2  2   
  2   2   3  am  
  3   2   4  1   
  4   3   5  1   
  5   3  22  1   
  6   4   6  1   
  7   4   7  1   
  8   4  23  1   
  9   5   8  ar  
 10   5   9  ar  
 11   6  10  1   
 12   6  24  1   
 13   6  25  1   
 14   7  11  1   
 15   7  26  1   
 16   7  27  1   
 17   8  12  ar  
 18   8  28  1   
 19   9  13  ar  
 20   9  29  1   
 21  10  14  1   
 22  10  30  1   
 23  10  31  1   
 24  11  14  1   
 25  11  32  1   
 26  11  33  1   
 27  12  15  ar  
 28  12  16  1   
 29  13  15  ar  
 30  13  34  1   
 31  14  17  am  
 32  15  18  1   
 33  16  19  1   
 34  16  35  1   
 35  16  36  1   
 36  17  20  2   
 37  17  21  1   
 38  18  19  1   
 39  18  37  1   
 40  18  38  1   
 41  19  39  1   
 42  19  40  1   
 43  21  41  1   
 44  21  42  1   
 45  21  43  1   
@<TRIPOS>SUBSTRUCTURE
  1 ****   2 GROUP 4 **** **** 0

# MOE 2024.06 (io_trps.svl 2023.06)
