@<TRIPOS>MOLECULE
NONAME
44 47 1 0 0 
SMALL
USER_CHARGES


@<TRIPOS>ATOM
  1 S        0.3300     0.1550     0.3530 S.3   1 <1>  -0.3710 
  2 C       -1.2140     1.0400     0.2090 C.2   1 <1>   0.6510 
  3 C       -0.1100    -1.5960    -0.0290 C.3   1 <1>   0.2140 
  4 N       -2.2290     0.3080    -0.0680 N.2   1 <1>  -0.6290 
  5 N       -1.2510     2.4000     0.4820 N.am  1 <1>  -0.4200 
  6 C        1.1640    -2.4220     0.0280 C.ar  1 <1>  -0.1440 
  7 C       -3.4810     0.8740    -0.0140 C.ar  1 <1>   0.1790 
  8 C       -2.4840     2.8860     0.8750 C.2   1 <1>   0.5440 
  9 C       -0.1240     3.4050     0.3680 C.3   1 <1>   0.2200 
 10 C        1.5650    -3.0060     1.2200 C.ar  1 <1>  -0.1500 
 11 C        1.9390    -2.5960    -1.1130 C.ar  1 <1>  -0.1500 
 12 C       -3.6620     2.1660     0.4870 C.ar  1 <1>   0.0860 
 13 C       -4.5850     0.1390    -0.4320 C.ar  1 <1>  -0.1500 
 14 O       -2.5640     3.9030     1.5470 O.2   1 <1>  -0.5700 
 15 C       -0.5550     4.6560    -0.4280 C.3   1 <1>  -0.1600 
 16 C        1.1610     2.9800    -0.3540 C.3   1 <1>  -0.1600 
 17 C        2.7280    -3.7530     1.2380 C.ar  1 <1>   0.1900 
 18 C        3.1030    -3.3500    -1.0740 C.ar  1 <1>  -0.1500 
 19 C       -4.9590     2.6820     0.5730 C.ar  1 <1>  -0.1500 
 20 C       -5.8580     0.6640    -0.3510 C.ar  1 <1>  -0.1500 
 21 C        0.6650     5.1790    -1.1960 C.3   1 <1>  -0.1600 
 22 C        1.8250     4.2800    -0.7920 C.3   1 <1>  -0.1600 
 23 F        3.1030    -4.3050     2.3610 F     1 <1>  -0.1900 
 24 C        3.5070    -3.9390     0.1120 C.ar  1 <1>  -0.1500 
 25 C       -6.0460     1.9410     0.1580 C.ar  1 <1>  -0.1500 
 26 H       -0.5530    -1.6130    -1.0090 H     1 <1>   0.0800 
 27 H       -0.8280    -1.9170     0.7050 H     1 <1>   0.0800 
 28 H        0.1450     3.7190     1.3630 H     1 <1>   0.0800 
 29 H        0.9950    -2.8860     2.1230 H     1 <1>   0.1500 
 30 H        1.6380    -2.1400    -2.0400 H     1 <1>   0.1500 
 31 H       -4.4290    -0.8530    -0.8170 H     1 <1>   0.1500 
 32 H       -0.9190     5.4150     0.2430 H     1 <1>   0.0800 
 33 H       -1.3290     4.4110    -1.1350 H     1 <1>   0.0800 
 34 H        0.9230     2.4060    -1.2340 H     1 <1>   0.0800 
 35 H        1.8240     2.4300     0.2890 H     1 <1>   0.0800 
 36 H        3.6930    -3.4760    -1.9660 H     1 <1>   0.1500 
 37 H       -5.0990     3.6740     0.9680 H     1 <1>   0.1500 
 38 H       -6.7060     0.0860    -0.6760 H     1 <1>   0.1500 
 39 H        0.8710     6.2100    -0.9620 H     1 <1>   0.0800 
 40 H        0.4890     5.0900    -2.2540 H     1 <1>   0.0800 
 41 H        2.5210     4.1280    -1.5990 H     1 <1>   0.0800 
 42 H        2.3440     4.7160     0.0450 H     1 <1>   0.0800 
 43 H        4.4040    -4.5260     0.1680 H     1 <1>   0.1500 
 44 H       -7.0400     2.3500     0.2260 H     1 <1>   0.1500 
@<TRIPOS>BOND
  1   1   2  1   
  2   1   3  1   
  3   2   4  2   
  4   2   5  1   
  5   3   6  1   
  6   3  26  1   
  7   3  27  1   
  8   4   7  1   
  9   5   8  am  
 10   5   9  1   
 11   6  10  ar  
 12   6  11  ar  
 13   7  12  ar  
 14   7  13  ar  
 15   8  12  1   
 16   8  14  2   
 17   9  15  1   
 18   9  16  1   
 19   9  28  1   
 20  10  17  ar  
 21  10  29  1   
 22  11  18  ar  
 23  11  30  1   
 24  12  19  ar  
 25  13  20  ar  
 26  13  31  1   
 27  15  21  1   
 28  15  32  1   
 29  15  33  1   
 30  16  22  1   
 31  16  34  1   
 32  16  35  1   
 33  17  23  1   
 34  17  24  ar  
 35  18  24  ar  
 36  18  36  1   
 37  19  25  ar  
 38  19  37  1   
 39  20  25  ar  
 40  20  38  1   
 41  21  22  1   
 42  21  39  1   
 43  21  40  1   
 44  22  41  1   
 45  22  42  1   
 46  24  43  1   
 47  25  44  1   
@<TRIPOS>SUBSTRUCTURE
  1 ****   2 GROUP 4 **** **** 0

# MOE 2024.06 (io_trps.svl 2023.06)
