@<TRIPOS>MOLECULE
NONAME
39 40 1 0 0 
SMALL
USER_CHARGES


@<TRIPOS>ATOM
  1 S        0.7020    -0.5320     1.2110 S.o2  1 <1>   1.4470 
  2 O        1.4020    -1.4260     2.1090 O.2   1 <1>  -0.6500 
  3 O        0.8930     0.8960     1.3370 O.2   1 <1>  -0.6500 
  4 N        1.1370    -0.9820    -0.3680 N.am  1 <1>  -0.8490 
  5 C       -1.0800    -0.8840     1.2400 C.ar  1 <1>  -0.0090 
  6 C        1.1680    -2.4430    -0.5160 C.3   1 <1>   0.1960 
  7 C        2.3940    -0.3350    -0.7640 C.3   1 <1>   0.1960 
  8 C       -1.9200    -0.3700     0.2590 C.ar  1 <1>  -0.1500 
  9 C       -1.6470    -1.6700     2.2340 C.ar  1 <1>  -0.1500 
 10 C        0.8960    -2.8390    -1.9690 C.3   1 <1>  -0.1600 
 11 C        2.7450    -0.5250    -2.2450 C.3   1 <1>  -0.1600 
 12 C       -3.2860    -0.6230     0.2380 C.ar  1 <1>  -0.0090 
 13 C       -3.0040    -1.9360     2.2410 C.ar  1 <1>  -0.1500 
 14 C        2.1480    -2.9560    -2.8550 C.3   1 <1>  -0.1600 
 15 C        3.2580    -1.9330    -2.5790 C.3   1 <1>  -0.1600 
 16 S       -4.3360     0.0290    -1.0870 S.o2  1 <1>   1.2040 
 17 C       -3.8130    -1.4160     1.2490 C.ar  1 <1>  -0.1500 
 18 O       -5.7210    -0.0260    -0.6770 O.2   1 <1>  -0.6500 
 19 O       -3.7740     1.2630    -1.5850 O.2   1 <1>  -0.6500 
 20 C       -4.1190    -1.1960    -2.3630 C.3   1 <1>  -0.1350 
 21 H        0.3830    -2.8750     0.0820 H     1 <1>   0.0800 
 22 H        2.1010    -2.8490    -0.1600 H     1 <1>   0.0800 
 23 H        3.2000    -0.6890    -0.1410 H     1 <1>   0.0800 
 24 H        2.3040     0.7260    -0.6000 H     1 <1>   0.0800 
 25 H       -1.4890     0.2510    -0.5110 H     1 <1>   0.1500 
 26 H       -1.0210    -2.0770     3.0110 H     1 <1>   0.1500 
 27 H        0.2090    -2.1320    -2.4000 H     1 <1>   0.0800 
 28 H        0.4050    -3.7960    -1.9740 H     1 <1>   0.0800 
 29 H        3.5370     0.1680    -2.4690 H     1 <1>   0.0800 
 30 H        1.9070    -0.2560    -2.8650 H     1 <1>   0.0800 
 31 H       -3.4300    -2.5460     3.0210 H     1 <1>   0.1500 
 32 H        1.8370    -2.8640    -3.8820 H     1 <1>   0.0800 
 33 H        2.5680    -3.9410    -2.7410 H     1 <1>   0.0800 
 34 H        3.8820    -2.2840    -1.7740 H     1 <1>   0.0800 
 35 H        3.8820    -1.8780    -3.4550 H     1 <1>   0.0800 
 36 H       -4.8710    -1.6250     1.2640 H     1 <1>   0.1500 
 37 H       -4.4430    -2.1580    -2.0180 H     1 <1>   0.0800 
 38 H       -3.0870    -1.2570    -2.6510 H     1 <1>   0.0800 
 39 H       -4.6980    -0.9300    -3.2260 H     1 <1>   0.0800 
@<TRIPOS>BOND
  1   1   2  2   
  2   1   3  2   
  3   1   4  am  
  4   1   5  1   
  5   4   6  1   
  6   4   7  1   
  7   5   8  ar  
  8   5   9  ar  
  9   6  10  1   
 10   6  21  1   
 11   6  22  1   
 12   7  11  1   
 13   7  23  1   
 14   7  24  1   
 15   8  12  ar  
 16   8  25  1   
 17   9  13  ar  
 18   9  26  1   
 19  10  14  1   
 20  10  27  1   
 21  10  28  1   
 22  11  15  1   
 23  11  29  1   
 24  11  30  1   
 25  12  16  1   
 26  12  17  ar  
 27  13  17  ar  
 28  13  31  1   
 29  14  15  1   
 30  14  32  1   
 31  14  33  1   
 32  15  34  1   
 33  15  35  1   
 34  16  18  2   
 35  16  19  2   
 36  16  20  1   
 37  17  36  1   
 38  20  37  1   
 39  20  38  1   
 40  20  39  1   
@<TRIPOS>SUBSTRUCTURE
  1 ****   8 GROUP 4 **** **** 0

# MOE 2024.06 (io_trps.svl 2023.06)
