@<TRIPOS>MOLECULE
NONAME
43 44 1 0 0 
SMALL
USER_CHARGES


@<TRIPOS>ATOM
  1 CL       1.2410     1.9090    -1.8410 Cl    1 <1>  -0.1770 
  2 C        2.7720     1.2520    -1.3240 C.ar  1 <1>   0.1770 
  3 C        3.0320     1.1200     0.0270 C.ar  1 <1>  -0.1500 
  4 C        3.7030     0.8740    -2.2730 C.ar  1 <1>  -0.1500 
  5 C        4.2490     0.5990     0.4340 C.ar  1 <1>  -0.1500 
  6 C        4.9190     0.3540    -1.8600 C.ar  1 <1>  -0.1500 
  7 C        5.1960     0.2140    -0.5060 C.ar  1 <1>  -0.1430 
  8 C        6.5290    -0.3500    -0.0470 C.3   1 <1>   0.2840 
  9 N        7.3800     0.7780     0.3660 N.am  1 <1>  -0.7300 
 10 C        8.3020     0.7220     1.3590 C.2   1 <1>   0.5690 
 11 O        8.5590    -0.3110     1.9290 O.2   1 <1>  -0.5700 
 12 C        9.0560     1.9960     1.7630 C.3   1 <1>   0.1710 
 13 N       10.2460     2.3120     0.9150 N.3   1 <1>  -0.8100 
 14 C       10.8980     3.5670     1.3580 C.3   1 <1>   0.1100 
 15 C       11.2220     1.1880     0.9380 C.3   1 <1>   0.1100 
 16 C       12.1360     3.9260     0.4970 C.3   1 <1>   0.3430 
 17 C       12.5430     1.5160     0.2030 C.3   1 <1>   0.3430 
 18 N       12.4580     2.8440    -0.4920 N.4   1 <1>  -0.9590 
 19 C       13.6230     3.1750    -1.3480 C.3   1 <1>   0.3430 
 20 C       13.6470     2.2530    -2.5620 C.3   1 <1>  -0.2400 
 21 H        2.2920     1.4210     0.7460 H     1 <1>   0.1500 
 22 H        3.4750     0.9860    -3.3180 H     1 <1>   0.1500 
 23 H        4.4590     0.4950     1.4850 H     1 <1>   0.1500 
 24 H        5.6450     0.0590    -2.5990 H     1 <1>   0.1500 
 25 H        7.0080    -0.8880    -0.8470 H     1 <1>   0.0800 
 26 H        6.3830    -1.0270     0.7780 H     1 <1>   0.0800 
 27 H        7.1890     1.6530    -0.1230 H     1 <1>   0.3700 
 28 H        9.3640     1.8830     2.7880 H     1 <1>   0.0800 
 29 H        8.3640     2.8170     1.7200 H     1 <1>   0.0800 
 30 H       11.2030     3.4750     2.3870 H     1 <1>   0.0800 
 31 H       10.1910     4.3780     1.3030 H     1 <1>   0.0800 
 32 H       10.7810     0.3240     0.4690 H     1 <1>   0.0800 
 33 H       11.4460     0.9130     1.9560 H     1 <1>   0.0800 
 34 H       12.9780     4.0960     1.1470 H     1 <1>   0.0800 
 35 H       11.9370     4.8470    -0.0270 H     1 <1>   0.0800 
 36 H       12.7450     0.7330    -0.5090 H     1 <1>   0.0800 
 37 H       13.3510     1.5260     0.9150 H     1 <1>   0.0800 
 38 H       11.6060     2.7690    -1.0690 H     1 <1>   0.4500 
 39 H       14.5390     3.0760    -0.7870 H     1 <1>   0.0800 
 40 H       13.5430     4.1950    -1.6880 H     1 <1>   0.0800 
 41 H       13.8280     1.2330    -2.2790 H     1 <1>   0.0800 
 42 H       14.4460     2.5560    -3.2160 H     1 <1>   0.0800 
 43 H       12.7250     2.3210    -3.1120 H     1 <1>   0.0800 
@<TRIPOS>BOND
  1   1   2  1   
  2   2   3  ar  
  3   2   4  ar  
  4   3   5  ar  
  5   3  21  1   
  6   4   6  ar  
  7   4  22  1   
  8   5   7  ar  
  9   5  23  1   
 10   6   7  ar  
 11   6  24  1   
 12   7   8  1   
 13   8   9  1   
 14   8  25  1   
 15   8  26  1   
 16   9  10  am  
 17   9  27  1   
 18  10  11  2   
 19  10  12  1   
 20  12  13  1   
 21  12  28  1   
 22  12  29  1   
 23  13  14  1   
 24  13  15  1   
 25  14  16  1   
 26  14  30  1   
 27  14  31  1   
 28  15  17  1   
 29  15  32  1   
 30  15  33  1   
 31  16  18  1   
 32  16  34  1   
 33  16  35  1   
 34  17  18  1   
 35  17  36  1   
 36  17  37  1   
 37  18  19  1   
 38  18  38  1   
 39  19  20  1   
 40  19  39  1   
 41  19  40  1   
 42  20  41  1   
 43  20  42  1   
 44  20  43  1   
@<TRIPOS>SUBSTRUCTURE
  1 ****   9 GROUP 4 **** **** 0

# MOE 2024.06 (io_trps.svl 2023.06)
