@<TRIPOS>MOLECULE
NONAME
41 42 1 0 0 
SMALL
USER_CHARGES


@<TRIPOS>ATOM
  1 S        0.1840    -0.2330     2.1000 S.3   1 <1>   0.1810 
  2 N        1.7220    -0.5880     1.4640 N.2   1 <1>  -0.5100 
  3 C       -0.6750    -1.2440     0.9710 C.2   1 <1>   0.1040 
  4 C        1.5740    -1.3970     0.4900 C.2   1 <1>   0.1080 
  5 N       -2.0560    -1.3620     1.0070 N.am  1 <1>  -0.4940 
  6 C        0.2400    -1.8220     0.1430 C.2   1 <1>  -0.0860 
  7 C        2.8240    -1.8590    -0.2390 C.3   1 <1>  -0.0590 
  8 C       -3.0180    -0.8070     1.8140 C.2   1 <1>   0.5690 
  9 C       -0.1280    -2.7230    -0.9150 C.2   1 <1>   0.8060 
 10 O       -2.7750    -0.0450     2.7170 O.2   1 <1>  -0.5700 
 11 C       -4.4720    -1.1750     1.5520 C.3   1 <1>   0.1810 
 12 O       -1.2850    -3.0310    -1.1420 O.2   1 <1>  -0.5700 
 13 O        0.8190    -3.2560    -1.6930 O.3   1 <1>  -0.4300 
 14 O       -4.5770    -2.0760     0.4590 O.3   1 <1>  -0.3630 
 15 C        0.5110    -4.1460    -2.7440 C.3   1 <1>   0.1200 
 16 C       -5.7770    -2.5490     0.0350 C.ar  1 <1>   0.0820 
 17 C        1.8190    -4.5530    -3.4150 C.3   1 <1>  -0.2400 
 18 C       -5.7760    -3.4280    -1.0450 C.ar  1 <1>  -0.1430 
 19 C       -6.9850    -2.1910     0.6320 C.ar  1 <1>  -0.1500 
 20 C       -6.9760    -3.9380    -1.5140 C.ar  1 <1>  -0.1500 
 21 C       -4.4710    -3.8360    -1.7150 C.3   1 <1>  -0.0970 
 22 C       -8.1760    -2.7070     0.1550 C.ar  1 <1>  -0.1500 
 23 C       -8.1720    -3.5800    -0.9180 C.ar  1 <1>  -0.1500 
 24 H       -2.4560    -1.9870     0.2920 H     1 <1>   0.3700 
 25 H        3.6980    -1.4090     0.1990 H     1 <1>   0.0800 
 26 H        2.7800    -1.5690    -1.2730 H     1 <1>   0.0800 
 27 H        2.9250    -2.9260    -0.1670 H     1 <1>   0.0800 
 28 H       -5.0270    -0.2860     1.3160 H     1 <1>   0.0800 
 29 H       -4.8820    -1.6470     2.4250 H     1 <1>   0.0800 
 30 H       -0.1390    -3.6420    -3.4410 H     1 <1>   0.0800 
 31 H        0.0060    -5.0030    -2.3320 H     1 <1>   0.0800 
 32 H        2.3180    -3.6880    -3.8140 H     1 <1>   0.0800 
 33 H        1.6160    -5.2320    -4.2230 H     1 <1>   0.0800 
 34 H        2.4620    -5.0460    -2.7080 H     1 <1>   0.0800 
 35 H       -7.0240    -1.5170     1.4660 H     1 <1>   0.1500 
 36 H       -6.9870    -4.6180    -2.3480 H     1 <1>   0.1500 
 37 H       -3.9700    -2.9650    -2.1000 H     1 <1>   0.0800 
 38 H       -4.6460    -4.5160    -2.5280 H     1 <1>   0.0800 
 39 H       -3.8270    -4.3160    -1.0010 H     1 <1>   0.0800 
 40 H       -9.1080    -2.4300     0.6160 H     1 <1>   0.1500 
 41 H       -9.0990    -3.9810    -1.2900 H     1 <1>   0.1500 
@<TRIPOS>BOND
  1   1   2  1   
  2   1   3  1   
  3   2   4  2   
  4   3   5  1   
  5   3   6  2   
  6   4   6  1   
  7   4   7  1   
  8   5   8  am  
  9   5  24  1   
 10   6   9  1   
 11   7  25  1   
 12   7  26  1   
 13   7  27  1   
 14   8  10  2   
 15   8  11  1   
 16   9  12  2   
 17   9  13  1   
 18  11  14  1   
 19  11  28  1   
 20  11  29  1   
 21  13  15  1   
 22  14  16  1   
 23  15  17  1   
 24  15  30  1   
 25  15  31  1   
 26  16  18  ar  
 27  16  19  ar  
 28  17  32  1   
 29  17  33  1   
 30  17  34  1   
 31  18  20  ar  
 32  18  21  1   
 33  19  22  ar  
 34  19  35  1   
 35  20  23  ar  
 36  20  36  1   
 37  21  37  1   
 38  21  38  1   
 39  21  39  1   
 40  22  23  ar  
 41  22  40  1   
 42  23  41  1   
@<TRIPOS>SUBSTRUCTURE
  1 ****   5 GROUP 4 **** **** 0

# MOE 2024.06 (io_trps.svl 2023.06)
