@<TRIPOS>MOLECULE
NONAME
43 45 1 0 0 
SMALL
USER_CHARGES


@<TRIPOS>ATOM
  1 CL      -0.6080     0.0520     0.3870 Cl    1 <1>  -0.1770 
  2 C       -0.0100     1.6890     0.3540 C.ar  1 <1>   0.1770 
  3 C        0.7540     2.1120    -0.7150 C.ar  1 <1>  -0.1500 
  4 C       -0.3070     2.5430     1.3990 C.ar  1 <1>  -0.1500 
  5 C        1.2290     3.4140    -0.7320 C.ar  1 <1>  -0.1500 
  6 C        0.1740     3.8420     1.3680 C.ar  1 <1>  -0.1500 
  7 C        0.9510     4.2990     0.3060 C.ar  1 <1>  -0.0090 
  8 S        1.5900     5.9980     0.2690 S.o2  1 <1>   1.4470 
  9 O        1.4060     6.6270     1.5590 O.2   1 <1>  -0.6500 
 10 O        1.1090     6.6590    -0.9230 O.2   1 <1>  -0.6500 
 11 N        3.2550     5.7700     0.0660 N.am  1 <1>  -0.8490 
 12 C        3.9060     5.2510     1.2870 C.3   1 <1>   0.1960 
 13 C        3.9200     7.0240    -0.3400 C.3   1 <1>   0.1960 
 14 C        5.4100     4.9940     1.0740 C.3   1 <1>   0.2090 
 15 C        5.4280     6.8310    -0.5870 C.3   1 <1>   0.2090 
 16 N        6.1070     6.2250     0.5980 N.pl3 1 <1>  -0.8380 
 17 C        7.4900     6.1230     0.5030 C.ar  1 <1>   0.1000 
 18 C        8.0980     5.2880    -0.4260 C.ar  1 <1>  -0.1500 
 19 C        8.2920     6.8710     1.3550 C.ar  1 <1>  -0.1500 
 20 C        9.4750     5.1950    -0.5080 C.ar  1 <1>   0.0830 
 21 C        9.6710     6.7870     1.2820 C.ar  1 <1>  -0.1500 
 22 O        9.9720     4.3510    -1.4480 O.3   1 <1>  -0.3630 
 23 C       10.2670     5.9510     0.3530 C.ar  1 <1>  -0.1500 
 24 C       11.3620     4.1840    -1.6140 C.3   1 <1>   0.0400 
 25 H        0.9720     1.4320    -1.5200 H     1 <1>   0.1500 
 26 H       -0.9070     2.1940     2.2210 H     1 <1>   0.1500 
 27 H        1.8260     3.7530    -1.5640 H     1 <1>   0.1500 
 28 H       -0.0580     4.5110     2.1810 H     1 <1>   0.1500 
 29 H        3.4390     4.3280     1.5820 H     1 <1>   0.0800 
 30 H        3.7930     5.9550     2.0950 H     1 <1>   0.0800 
 31 H        3.7840     7.7740     0.4220 H     1 <1>   0.0800 
 32 H        3.4740     7.3920    -1.2480 H     1 <1>   0.0800 
 33 H        5.5350     4.2050     0.3540 H     1 <1>   0.0800 
 34 H        5.8530     4.6760     2.0010 H     1 <1>   0.0800 
 35 H        5.8790     7.7840    -0.8010 H     1 <1>   0.0800 
 36 H        5.5640     6.1970    -1.4460 H     1 <1>   0.0800 
 37 H        7.4950     4.7030    -1.0920 H     1 <1>   0.1500 
 38 H        7.8190     7.5160     2.0720 H     1 <1>   0.1500 
 39 H       10.2790     7.3730     1.9490 H     1 <1>   0.1500 
 40 H       11.3380     5.9030     0.3160 H     1 <1>   0.1500 
 41 H       11.5200     3.4750    -2.4070 H     1 <1>   0.0800 
 42 H       11.7800     3.8060    -0.6980 H     1 <1>   0.0800 
 43 H       11.7990     5.1310    -1.8780 H     1 <1>   0.0800 
@<TRIPOS>BOND
  1   1   2  1   
  2   2   3  ar  
  3   2   4  ar  
  4   3   5  ar  
  5   3  25  1   
  6   4   6  ar  
  7   4  26  1   
  8   5   7  ar  
  9   5  27  1   
 10   6   7  ar  
 11   6  28  1   
 12   7   8  1   
 13   8   9  2   
 14   8  10  2   
 15   8  11  am  
 16  11  12  1   
 17  11  13  1   
 18  12  14  1   
 19  12  29  1   
 20  12  30  1   
 21  13  15  1   
 22  13  31  1   
 23  13  32  1   
 24  14  16  1   
 25  14  33  1   
 26  14  34  1   
 27  15  16  1   
 28  15  35  1   
 29  15  36  1   
 30  16  17  1   
 31  17  18  ar  
 32  17  19  ar  
 33  18  20  ar  
 34  18  37  1   
 35  19  21  ar  
 36  19  38  1   
 37  20  22  1   
 38  20  23  ar  
 39  21  23  ar  
 40  21  39  1   
 41  22  24  1   
 42  23  40  1   
 43  24  41  1   
 44  24  42  1   
 45  24  43  1   
@<TRIPOS>SUBSTRUCTURE
  1 ****  14 GROUP 4 **** **** 0

# MOE 2024.06 (io_trps.svl 2023.06)
