@<TRIPOS>MOLECULE
NONAME
37 38 1 0 0 
SMALL
USER_CHARGES


@<TRIPOS>ATOM
  1 S       -0.2320    -0.4660     0.2320 S.3   1 <1>  -0.0800 
  2 C        0.0730     1.2180    -0.2110 C.2   1 <1>   0.1040 
  3 C       -1.9530    -0.1700     0.3630 C.2   1 <1>  -0.1400 
  4 N        1.3780     1.6590    -0.4660 N.am  1 <1>  -0.4940 
  5 C       -1.1000     1.9110    -0.2440 C.2   1 <1>   0.0190 
  6 C       -2.2430     1.1030     0.0780 C.2   1 <1>  -0.1810 
  7 C       -2.9310    -1.2580     0.7460 C.3   1 <1>   0.3000 
  8 C        2.5860     1.0130    -0.4510 C.2   1 <1>   0.5690 
  9 C       -1.2090     3.2990    -0.5620 C.1   1 <1>   0.5380 
 10 C       -3.6950     1.5470     0.1330 C.3   1 <1>   0.0210 
 11 O       -4.1920    -0.6780     0.9890 O.3   1 <1>  -0.5600 
 12 O        2.7340    -0.1550    -0.1990 O.2   1 <1>  -0.5700 
 13 C        3.8170     1.8390    -0.7860 C.3   1 <1>  -0.0990 
 14 N       -1.2600     4.4080    -0.8250 N.1   1 <1>  -0.5570 
 15 C       -4.6600     0.3260     0.1160 C.3   1 <1>   0.2800 
 16 C        4.0950     2.9520     0.2380 C.3   1 <1>  -0.2400 
 17 C       -6.0460     0.7590     0.6450 C.3   1 <1>  -0.1600 
 18 C       -4.7860    -0.2660    -1.3010 C.3   1 <1>  -0.2400 
 19 C       -7.1010    -0.3590     0.7370 C.3   1 <1>  -0.2400 
 20 H        1.4610     2.6490    -0.6940 H     1 <1>   0.3700 
 21 H       -2.6170    -1.7500     1.6490 H     1 <1>   0.0800 
 22 H       -3.0280    -1.9850    -0.0410 H     1 <1>   0.0800 
 23 H       -3.9230     2.1890    -0.6990 H     1 <1>   0.0800 
 24 H       -3.8430     2.1150     1.0340 H     1 <1>   0.0800 
 25 H        3.6950     2.2640    -1.7650 H     1 <1>   0.0800 
 26 H        4.6670     1.1790    -0.8240 H     1 <1>   0.0800 
 27 H        3.2890     3.6640     0.2660 H     1 <1>   0.0800 
 28 H        5.0010     3.4720    -0.0210 H     1 <1>   0.0800 
 29 H        4.2160     2.5270     1.2200 H     1 <1>   0.0800 
 30 H       -6.4330     1.5410     0.0160 H     1 <1>   0.0800 
 31 H       -5.9180     1.1780     1.6280 H     1 <1>   0.0800 
 32 H       -3.8210    -0.4230    -1.7460 H     1 <1>   0.0800 
 33 H       -5.3280     0.4110    -1.9350 H     1 <1>   0.0800 
 34 H       -5.3120    -1.2030    -1.2750 H     1 <1>   0.0800 
 35 H       -7.3520    -0.7370    -0.2370 H     1 <1>   0.0800 
 36 H       -7.9990     0.0230     1.1900 H     1 <1>   0.0800 
 37 H       -6.7370    -1.1700     1.3430 H     1 <1>   0.0800 
@<TRIPOS>BOND
  1   1   2  1   
  2   1   3  1   
  3   2   4  1   
  4   2   5  2   
  5   3   6  2   
  6   3   7  1   
  7   4   8  am  
  8   4  20  1   
  9   5   6  1   
 10   5   9  1   
 11   6  10  1   
 12   7  11  1   
 13   7  21  1   
 14   7  22  1   
 15   8  12  2   
 16   8  13  1   
 17   9  14  3   
 18  10  15  1   
 19  10  23  1   
 20  10  24  1   
 21  11  15  1   
 22  13  16  1   
 23  13  25  1   
 24  13  26  1   
 25  15  17  1   
 26  15  18  1   
 27  16  27  1   
 28  16  28  1   
 29  16  29  1   
 30  17  19  1   
 31  17  30  1   
 32  17  31  1   
 33  18  32  1   
 34  18  33  1   
 35  18  34  1   
 36  19  35  1   
 37  19  36  1   
 38  19  37  1   
@<TRIPOS>SUBSTRUCTURE
  1 ****   6 GROUP 4 **** **** 0

# MOE 2024.06 (io_trps.svl 2023.06)
