@<TRIPOS>MOLECULE
NONAME
39 40 1 0 0 
SMALL
USER_CHARGES


@<TRIPOS>ATOM
  1 O       -1.2360     0.6080    -0.2760 O.2   1 <1>  -0.5700 
  2 C       -1.3910     1.7690    -0.6030 C.2   1 <1>   0.7160 
  3 N       -2.5770     2.0920    -1.2250 N.am  1 <1>  -0.6600 
  4 C       -0.4140     2.7850    -0.2870 C.2   1 <1>  -0.0860 
  5 C       -3.3480     1.0250    -1.9270 C.3   1 <1>   0.1400 
  6 C       -3.4380     3.1650    -0.6520 C.3   1 <1>   0.1400 
  7 C        0.5300     2.8320     0.6960 C.2   1 <1>  -0.0400 
  8 C       -0.2410     4.0020    -0.9820 C.2   1 <1>  -0.1500 
  9 C       -4.3560     0.3890    -0.9540 C.3   1 <1>   0.3430 
 10 C       -4.4810     2.5480     0.3060 C.3   1 <1>   0.3430 
 11 O        1.2070     3.9530     0.6440 O.3   1 <1>  -0.2800 
 12 C        0.9020     1.8450     1.7850 C.3   1 <1>  -0.0600 
 13 C        0.7550     4.6630    -0.3640 C.2   1 <1>  -0.0400 
 14 N       -5.2600     1.4210    -0.3280 N.4   1 <1>  -0.9590 
 15 C        1.3920     6.0050    -0.6460 C.3   1 <1>  -0.0600 
 16 C       -6.1940     0.7880     0.6280 C.3   1 <1>   0.4810 
 17 C       -7.3250     1.7640     0.8560 C.2   1 <1>  -0.2880 
 18 C       -8.5480     1.6620     0.3250 C.2   1 <1>  -0.3000 
 19 H       -2.6740     0.2670    -2.2930 H     1 <1>   0.0800 
 20 H       -3.8590     1.4450    -2.7760 H     1 <1>   0.0800 
 21 H       -3.9340     3.6940    -1.4480 H     1 <1>   0.0800 
 22 H       -2.8410     3.8770    -0.1080 H     1 <1>   0.0800 
 23 H       -0.8060     4.3090    -1.8440 H     1 <1>   0.1500 
 24 H       -3.7990    -0.1240    -0.1860 H     1 <1>   0.0800 
 25 H       -4.9430    -0.3450    -1.4840 H     1 <1>   0.0800 
 26 H       -5.1550     3.3230     0.6340 H     1 <1>   0.0800 
 27 H       -3.9590     2.1780     1.1740 H     1 <1>   0.0800 
 28 H        0.2760     0.9740     1.7530 H     1 <1>   0.0800 
 29 H        0.8010     2.3130     2.7470 H     1 <1>   0.0800 
 30 H        1.9250     1.5400     1.6560 H     1 <1>   0.0800 
 31 H       -5.8530     1.8250    -1.0660 H     1 <1>   0.4500 
 32 H        0.9280     6.4680    -1.4970 H     1 <1>   0.0800 
 33 H        2.4400     5.8730    -0.8460 H     1 <1>   0.0800 
 34 H        1.2800     6.6470     0.2090 H     1 <1>   0.0800 
 35 H       -5.6990     0.5440     1.5550 H     1 <1>   0.0800 
 36 H       -6.5940    -0.1170     0.2010 H     1 <1>   0.0800 
 37 H       -7.0590     2.5750     1.5130 H     1 <1>   0.1500 
 38 H       -9.3410     2.3700     0.5090 H     1 <1>   0.1500 
 39 H       -8.8780     0.8720    -0.3310 H     1 <1>   0.1500 
@<TRIPOS>BOND
  1   1   2  2   
  2   2   3  am  
  3   2   4  1   
  4   3   5  1   
  5   3   6  1   
  6   4   7  2   
  7   4   8  1   
  8   5   9  1   
  9   5  19  1   
 10   5  20  1   
 11   6  10  1   
 12   6  21  1   
 13   6  22  1   
 14   7  11  1   
 15   7  12  1   
 16   8  13  2   
 17   8  23  1   
 18   9  14  1   
 19   9  24  1   
 20   9  25  1   
 21  10  14  1   
 22  10  26  1   
 23  10  27  1   
 24  11  13  1   
 25  12  28  1   
 26  12  29  1   
 27  12  30  1   
 28  13  15  1   
 29  14  16  1   
 30  14  31  1   
 31  15  32  1   
 32  15  33  1   
 33  15  34  1   
 34  16  17  1   
 35  16  35  1   
 36  16  36  1   
 37  17  18  2   
 38  17  37  1   
 39  18  38  1   
 40  18  39  1   
@<TRIPOS>SUBSTRUCTURE
  1 ****   3 GROUP 4 **** **** 0

# MOE 2024.06 (io_trps.svl 2023.06)
