@<TRIPOS>MOLECULE
NONAME
30 31 1 0 0 
SMALL
USER_CHARGES


@<TRIPOS>ATOM
  1 O        0.1330    -0.4820    -0.4950 O.2   1 <1>  -0.5700 
  2 C        0.3780    -1.6630    -0.5080 C.2   1 <1>   0.5770 
  3 N        1.6770    -2.0640    -0.4850 N.am  1 <1>  -0.5470 
  4 C       -0.7600    -2.6810    -0.5500 C.3   1 <1>   0.0530 
  5 C        2.2230    -3.3510    -0.5420 C.ar  1 <1>   0.1170 
  6 C       -2.1420    -2.1780    -0.0430 C.3   1 <1>   0.0000 
  7 C       -0.7900    -3.6850     0.6360 C.3   1 <1>   0.0000 
  8 C        3.0640    -3.7890     0.4720 C.ar  1 <1>  -0.1500 
  9 C        1.9460    -4.2050    -1.6020 C.ar  1 <1>  -0.1500 
 10 C       -2.3360    -3.5830     0.5820 C.3   1 <1>   0.0000 
 11 C        3.6110    -5.0600     0.4400 C.ar  1 <1>  -0.1500 
 12 C        2.4890    -5.4760    -1.6390 C.ar  1 <1>  -0.1500 
 13 C        3.3220    -5.9140    -0.6210 C.ar  1 <1>   0.0830 
 14 O        3.8100    -7.1770    -0.7340 O.3   1 <1>  -0.3620 
 15 C        4.6630    -7.7170     0.2510 C.3   1 <1>   0.0400 
 16 H        2.3320    -1.2900    -0.3710 H     1 <1>   0.3700 
 17 H       -0.8480    -3.1770    -1.5020 H     1 <1>   0.0000 
 18 H       -2.8390    -1.9520    -0.8290 H     1 <1>   0.0000 
 19 H       -2.0720    -1.4080     0.7070 H     1 <1>   0.0000 
 20 H       -0.3810    -3.2780     1.5450 H     1 <1>   0.0000 
 21 H       -0.4110    -4.6620     0.3930 H     1 <1>   0.0000 
 22 H        3.2860    -3.1330     1.2950 H     1 <1>   0.1500 
 23 H        1.3110    -3.8740    -2.4030 H     1 <1>   0.1500 
 24 H       -2.7750    -4.2870    -0.1050 H     1 <1>   0.0000 
 25 H       -2.8060    -3.5700     1.5490 H     1 <1>   0.0000 
 26 H        4.2540    -5.3660     1.2420 H     1 <1>   0.1500 
 27 H        2.2740    -6.1390    -2.4580 H     1 <1>   0.1500 
 28 H        4.9200    -8.7190    -0.0430 H     1 <1>   0.0800 
 29 H        4.1420    -7.7350     1.1920 H     1 <1>   0.0800 
 30 H        5.5520    -7.1150     0.3120 H     1 <1>   0.0800 
@<TRIPOS>BOND
  1   1   2  2   
  2   2   3  am  
  3   2   4  1   
  4   3   5  1   
  5   3  16  1   
  6   4   6  1   
  7   4   7  1   
  8   4  17  1   
  9   5   8  ar  
 10   5   9  ar  
 11   6  10  1   
 12   6  18  1   
 13   6  19  1   
 14   7  10  1   
 15   7  20  1   
 16   7  21  1   
 17   8  11  ar  
 18   8  22  1   
 19   9  12  ar  
 20   9  23  1   
 21  10  24  1   
 22  10  25  1   
 23  11  13  ar  
 24  11  26  1   
 25  12  13  ar  
 26  12  27  1   
 27  13  14  1   
 28  14  15  1   
 29  15  28  1   
 30  15  29  1   
 31  15  30  1   
@<TRIPOS>SUBSTRUCTURE
  1 ****   5 GROUP 4 **** **** 0

# MOE 2024.06 (io_trps.svl 2023.06)
