@<TRIPOS>MOLECULE
NONAME
38 39 1 0 0 
SMALL
USER_CHARGES


@<TRIPOS>ATOM
  1 CL       0.3290    -0.8770     0.0110 Cl    1 <1>  -0.1770 
  2 C       -0.7000     0.5440     0.1180 C.ar  1 <1>   0.1770 
  3 C       -1.9900     0.3740     0.5980 C.ar  1 <1>   0.1770 
  4 C       -0.2730     1.8160    -0.2830 C.ar  1 <1>   0.0820 
  5 CL      -2.5500    -1.2000     1.1180 Cl    1 <1>  -0.1770 
  6 C       -2.8710     1.4380     0.6780 C.ar  1 <1>  -0.1500 
  7 O        0.9610     2.1330    -0.7570 O.3   1 <1>  -0.3630 
  8 C       -1.1700     2.8740    -0.2100 C.ar  1 <1>  -0.1500 
  9 C       -2.4570     2.6930     0.2670 C.ar  1 <1>  -0.1500 
 10 C        2.1270     1.5310    -0.2450 C.3   1 <1>   0.1200 
 11 C        3.2850     2.5100    -0.4530 C.3   1 <1>  -0.1600 
 12 C        4.6140     1.9250     0.0450 C.3   1 <1>  -0.1600 
 13 C        5.7580     2.9160    -0.1800 C.3   1 <1>   0.3430 
 14 N        7.0310     2.3730     0.3660 N.4   1 <1>  -0.9590 
 15 C        8.1180     3.3820     0.3880 C.3   1 <1>   0.3430 
 16 C        7.5740     1.2140    -0.3870 C.3   1 <1>   0.3430 
 17 C        9.3930     2.5600     0.5210 C.3   1 <1>  -0.1600 
 18 C        9.0440     1.1600     0.0070 C.3   1 <1>  -0.1600 
 19 H       -3.8670     1.2810     1.0540 H     1 <1>   0.1500 
 20 H       -0.8500     3.8510    -0.5310 H     1 <1>   0.1500 
 21 H       -3.1360     3.5290     0.3190 H     1 <1>   0.1500 
 22 H        2.3010     0.6200    -0.7900 H     1 <1>   0.0800 
 23 H        1.9800     1.3220     0.8010 H     1 <1>   0.0800 
 24 H        3.0640     3.4200     0.0790 H     1 <1>   0.0800 
 25 H        3.3580     2.7340    -1.5040 H     1 <1>   0.0800 
 26 H        4.8080     1.0100    -0.4870 H     1 <1>   0.0800 
 27 H        4.5270     1.7060     1.0960 H     1 <1>   0.0800 
 28 H        5.5180     3.8430     0.3180 H     1 <1>   0.0800 
 29 H        5.8640     3.1190    -1.2340 H     1 <1>   0.0800 
 30 H        6.8780     2.0690     1.3370 H     1 <1>   0.4500 
 31 H        8.0040     4.0780     1.2040 H     1 <1>   0.0800 
 32 H        8.1350     3.9220    -0.5450 H     1 <1>   0.0800 
 33 H        7.4930     1.3970    -1.4470 H     1 <1>   0.0800 
 34 H        7.0610     0.2980    -0.1400 H     1 <1>   0.0800 
 35 H        9.6930     2.5170     1.5540 H     1 <1>   0.0800 
 36 H       10.1900     3.0080    -0.0470 H     1 <1>   0.0800 
 37 H        9.6490     0.8820    -0.8390 H     1 <1>   0.0800 
 38 H        9.1880     0.4280     0.7830 H     1 <1>   0.0800 
@<TRIPOS>BOND
  1   1   2  1   
  2   2   3  ar  
  3   2   4  ar  
  4   3   5  1   
  5   3   6  ar  
  6   4   7  1   
  7   4   8  ar  
  8   6   9  ar  
  9   6  19  1   
 10   7  10  1   
 11   8   9  ar  
 12   8  20  1   
 13   9  21  1   
 14  10  11  1   
 15  10  22  1   
 16  10  23  1   
 17  11  12  1   
 18  11  24  1   
 19  11  25  1   
 20  12  13  1   
 21  12  26  1   
 22  12  27  1   
 23  13  14  1   
 24  13  28  1   
 25  13  29  1   
 26  14  15  1   
 27  14  16  1   
 28  14  30  1   
 29  15  17  1   
 30  15  31  1   
 31  15  32  1   
 32  16  18  1   
 33  16  33  1   
 34  16  34  1   
 35  17  18  1   
 36  17  35  1   
 37  17  36  1   
 38  18  37  1   
 39  18  38  1   
@<TRIPOS>SUBSTRUCTURE
  1 ****  10 GROUP 4 **** **** 0

# MOE 2024.06 (io_trps.svl 2023.06)
