@<TRIPOS>MOLECULE
NONAME
51 51 1 0 0 
SMALL
USER_CHARGES


@<TRIPOS>ATOM
  1 S        0.4570     0.4800     1.0180 S.o2  1 <1>   1.4470 
  2 O        1.1760     1.4690     1.7810 O.2   1 <1>  -0.6500 
  3 O        0.4430    -0.8350     1.6100 O.2   1 <1>  -0.6500 
  4 N        1.3550     0.3710    -0.4010 N.am  1 <1>  -0.9140 
  5 C       -1.2000     1.0650     0.4410 C.ar  1 <1>  -0.0090 
  6 C        2.7110    -0.1480    -0.2100 C.3   1 <1>   0.1960 
  7 C       -1.4940     2.4460     0.3070 C.ar  1 <1>  -0.1430 
  8 C       -2.2340     0.1540     0.1090 C.ar  1 <1>  -0.1430 
  9 C        2.7490    -1.6830    -0.1890 C.3   1 <1>   0.1200 
 10 C       -2.7940     2.8520     0.0290 C.ar  1 <1>  -0.1500 
 11 C       -0.5380     3.6600     0.4120 C.3   1 <1>   0.0640 
 12 C       -3.5140     0.6250    -0.1640 C.ar  1 <1>  -0.1500 
 13 C       -2.1600    -1.3860    -0.0260 C.3   1 <1>   0.0640 
 14 O        4.0490    -2.1180    -0.4180 O.3   1 <1>  -0.6800 
 15 C       -3.8180     1.9630    -0.1910 C.ar  1 <1>  -0.1430 
 16 C        0.7690     3.5820    -0.3920 C.3   1 <1>  -0.2400 
 17 C       -0.3660     4.1710     1.8480 C.3   1 <1>  -0.2400 
 18 C       -2.3960    -2.1180     1.3010 C.3   1 <1>  -0.2400 
 19 C       -0.9910    -1.9430    -0.8490 C.3   1 <1>  -0.2400 
 20 C       -5.2450     2.4300    -0.4780 C.3   1 <1>   0.0630 
 21 C       -5.3040     3.2420    -1.7760 C.3   1 <1>  -0.2400 
 22 C       -5.8030     3.2390     0.6970 C.3   1 <1>  -0.2400 
 23 H        1.4660     1.3490    -0.6540 H     1 <1>   0.4200 
 24 H        3.1420     0.2370     0.7010 H     1 <1>   0.0800 
 25 H        3.3120     0.1900    -1.0360 H     1 <1>   0.0800 
 26 H        2.1210    -2.0930    -0.9600 H     1 <1>   0.0800 
 27 H        2.4410    -2.0590     0.7710 H     1 <1>   0.0800 
 28 H       -3.0400     3.8980    -0.0240 H     1 <1>   0.1500 
 29 H       -1.0380     4.4760    -0.0840 H     1 <1>   0.0800 
 30 H       -4.3140    -0.0650    -0.3660 H     1 <1>   0.1500 
 31 H       -3.0030    -1.6750    -0.6300 H     1 <1>   0.0800 
 32 H        4.2870    -2.0190    -1.3600 H     1 <1>   0.4000 
 33 H        1.5750     3.1490     0.1630 H     1 <1>   0.0800 
 34 H        1.0810     4.5790    -0.6500 H     1 <1>   0.0800 
 35 H        0.6090     3.0420    -1.3080 H     1 <1>   0.0800 
 36 H        0.0810     3.4450     2.4950 H     1 <1>   0.0800 
 37 H       -1.3280     4.4230     2.2580 H     1 <1>   0.0800 
 38 H        0.2460     5.0550     1.8570 H     1 <1>   0.0800 
 39 H       -1.6470    -1.8910     2.0320 H     1 <1>   0.0800 
 40 H       -2.4020    -3.1810     1.1420 H     1 <1>   0.0800 
 41 H       -3.3490    -1.8300     1.7090 H     1 <1>   0.0800 
 42 H       -0.1440    -2.1850    -0.2430 H     1 <1>   0.0800 
 43 H       -0.7010    -1.2420    -1.6110 H     1 <1>   0.0800 
 44 H       -1.2950    -2.8550    -1.3320 H     1 <1>   0.0800 
 45 H       -5.8740     1.5650    -0.6060 H     1 <1>   0.0800 
 46 H       -4.7330     4.1490    -1.6890 H     1 <1>   0.0800 
 47 H       -6.3220     3.4980    -2.0090 H     1 <1>   0.0800 
 48 H       -4.9030     2.6610    -2.5880 H     1 <1>   0.0800 
 49 H       -5.2460     4.1470     0.8380 H     1 <1>   0.0800 
 50 H       -5.7430     2.6570     1.6000 H     1 <1>   0.0800 
 51 H       -6.8330     3.4910     0.5200 H     1 <1>   0.0800 
@<TRIPOS>BOND
  1   1   2  2   
  2   1   3  2   
  3   1   4  am  
  4   1   5  1   
  5   4   6  1   
  6   4  23  1   
  7   5   7  ar  
  8   5   8  ar  
  9   6   9  1   
 10   6  24  1   
 11   6  25  1   
 12   7  10  ar  
 13   7  11  1   
 14   8  12  ar  
 15   8  13  1   
 16   9  14  1   
 17   9  26  1   
 18   9  27  1   
 19  10  15  ar  
 20  10  28  1   
 21  11  16  1   
 22  11  17  1   
 23  11  29  1   
 24  12  15  ar  
 25  12  30  1   
 26  13  18  1   
 27  13  19  1   
 28  13  31  1   
 29  14  32  1   
 30  15  20  1   
 31  16  33  1   
 32  16  34  1   
 33  16  35  1   
 34  17  36  1   
 35  17  37  1   
 36  17  38  1   
 37  18  39  1   
 38  18  40  1   
 39  18  41  1   
 40  19  42  1   
 41  19  43  1   
 42  19  44  1   
 43  20  21  1   
 44  20  22  1   
 45  20  45  1   
 46  21  46  1   
 47  21  47  1   
 48  21  48  1   
 49  22  49  1   
 50  22  50  1   
 51  22  51  1   
@<TRIPOS>SUBSTRUCTURE
  1 ****   5 GROUP 4 **** **** 0

# MOE 2024.06 (io_trps.svl 2023.06)
