@<TRIPOS>MOLECULE
NONAME
45 48 1 0 0 
SMALL
USER_CHARGES


@<TRIPOS>ATOM
  1 O       -0.5940    -0.0060    -1.1790 O.2   1 <1>  -0.5700 
  2 C       -1.1160     1.0700    -0.9700 C.2   1 <1>   0.6900 
  3 N       -0.4370     2.1170    -0.4220 N.am  1 <1>  -0.5470 
  4 N       -2.4180     1.2770    -1.2870 N.am  1 <1>  -0.7300 
  5 C        0.8430     2.1870     0.1470 C.ar  1 <1>   0.1170 
  6 C       -3.3300     0.2410    -1.8370 C.3   1 <1>   0.1400 
  7 C        1.4850     3.4190     0.2010 C.ar  1 <1>  -0.1500 
  8 C        1.4950     1.0790     0.6810 C.ar  1 <1>  -0.1500 
  9 C       -4.4160    -0.1800    -0.8230 C.3   1 <1>   0.0000 
 10 C        2.7410     3.5440     0.7680 C.ar  1 <1>  -0.1500 
 11 C        2.7510     1.1990     1.2470 C.ar  1 <1>  -0.1500 
 12 C       -5.3210    -1.2510    -1.4770 C.3   1 <1>  -0.1600 
 13 C       -5.3050     1.0200    -0.4100 C.3   1 <1>  -0.1600 
 14 C       -3.7850    -0.7920     0.4510 C.3   1 <1>  -0.1600 
 15 C        3.3770     2.4320     1.2920 C.ar  1 <1>  -0.1500 
 16 C       -6.4210    -1.7120    -0.5040 C.3   1 <1>  -0.0800 
 17 C       -6.4040     0.5690     0.5710 C.3   1 <1>  -0.0800 
 18 C       -4.8780    -1.2480     1.4360 C.3   1 <1>  -0.0800 
 19 C       -7.2820    -0.5000    -0.1050 C.3   1 <1>  -0.1600 
 20 C       -5.7640    -2.3070     0.7550 C.3   1 <1>  -0.1600 
 21 C       -5.7450    -0.0360     1.8260 C.3   1 <1>  -0.1600 
 22 H       -0.9030     3.0080    -0.5420 H     1 <1>   0.3700 
 23 H       -2.8890     2.0940    -0.9060 H     1 <1>   0.3700 
 24 H       -2.7590    -0.6260    -2.1250 H     1 <1>   0.0800 
 25 H       -3.7960     0.6300    -2.7240 H     1 <1>   0.0800 
 26 H        1.0030     4.2890    -0.2050 H     1 <1>   0.1500 
 27 H        1.0190     0.1160     0.6570 H     1 <1>   0.1500 
 28 H        3.2260     4.5040     0.8010 H     1 <1>   0.1500 
 29 H        3.2400     0.3300     1.6530 H     1 <1>   0.1500 
 30 H       -5.7770    -0.8530    -2.3670 H     1 <1>   0.0800 
 31 H       -4.7270    -2.1000    -1.7690 H     1 <1>   0.0800 
 32 H       -5.7600     1.4560    -1.2820 H     1 <1>   0.0800 
 33 H       -4.7100     1.7780     0.0650 H     1 <1>   0.0800 
 34 H       -3.1530    -0.0700     0.9380 H     1 <1>   0.0800 
 35 H       -3.1650    -1.6300     0.1840 H     1 <1>   0.0800 
 36 H        4.3540     2.5250     1.7330 H     1 <1>   0.1500 
 37 H       -7.0380    -2.4570    -0.9780 H     1 <1>   0.0800 
 38 H       -7.0110     1.4130     0.8520 H     1 <1>   0.0800 
 39 H       -4.4210    -1.6670     2.3160 H     1 <1>   0.0800 
 40 H       -8.0590    -0.8130     0.5710 H     1 <1>   0.0800 
 41 H       -7.7560    -0.0850    -0.9770 H     1 <1>   0.0800 
 42 H       -5.1680    -3.1610     0.4860 H     1 <1>   0.0800 
 43 H       -6.5240    -2.6400     1.4400 H     1 <1>   0.0800 
 44 H       -5.1360     0.7060     2.3120 H     1 <1>   0.0800 
 45 H       -6.5050    -0.3420     2.5240 H     1 <1>   0.0800 
@<TRIPOS>BOND
  1   1   2  2   
  2   2   3  am  
  3   2   4  am  
  4   3   5  1   
  5   3  22  1   
  6   4   6  1   
  7   4  23  1   
  8   5   7  ar  
  9   5   8  ar  
 10   6   9  1   
 11   6  24  1   
 12   6  25  1   
 13   7  10  ar  
 14   7  26  1   
 15   8  11  ar  
 16   8  27  1   
 17   9  12  1   
 18   9  13  1   
 19   9  14  1   
 20  10  15  ar  
 21  10  28  1   
 22  11  15  ar  
 23  11  29  1   
 24  12  16  1   
 25  12  30  1   
 26  12  31  1   
 27  13  17  1   
 28  13  32  1   
 29  13  33  1   
 30  14  18  1   
 31  14  34  1   
 32  14  35  1   
 33  15  36  1   
 34  16  19  1   
 35  16  20  1   
 36  16  37  1   
 37  17  19  1   
 38  17  21  1   
 39  17  38  1   
 40  18  20  1   
 41  18  21  1   
 42  18  39  1   
 43  19  40  1   
 44  19  41  1   
 45  20  42  1   
 46  20  43  1   
 47  21  44  1   
 48  21  45  1   
@<TRIPOS>SUBSTRUCTURE
  1 ****   4 GROUP 4 **** **** 0

# MOE 2024.06 (io_trps.svl 2023.06)
