@<TRIPOS>MOLECULE
NONAME
37 37 1 0 0 
SMALL
USER_CHARGES


@<TRIPOS>ATOM
  1 CL      -0.8670     0.2790     0.3950 Cl    1 <1>  -0.1770 
  2 C       -0.5900    -1.4500     0.3650 C.ar  1 <1>   0.1770 
  3 C       -1.6700    -2.3270     0.2760 C.ar  1 <1>   0.0820 
  4 C        0.7150    -1.9060     0.4310 C.ar  1 <1>  -0.1500 
  5 O       -2.9210    -1.7980     0.2150 O.3   1 <1>  -0.3630 
  6 C       -1.4180    -3.6970     0.2550 C.ar  1 <1>  -0.1500 
  7 C        0.9590    -3.2700     0.4090 C.ar  1 <1>  -0.1500 
  8 C       -4.0720    -2.5980     0.1250 C.3   1 <1>   0.1200 
  9 C       -0.1110    -4.1440     0.3210 C.ar  1 <1>   0.1770 
 10 C       -5.2660    -1.6440     0.0790 C.3   1 <1>  -0.1600 
 11 CL       0.1970    -5.8610     0.2940 Cl    1 <1>  -0.1770 
 12 C       -6.5820    -2.4040    -0.0210 C.3   1 <1>   0.3430 
 13 N       -7.6970    -1.4220    -0.0610 N.4   1 <1>  -0.9060 
 14 C       -9.0560    -1.9590    -0.1570 C.3   1 <1>   0.5030 
 15 C       -9.2050    -2.7590    -1.4510 C.3   1 <1>  -0.2400 
 16 C       -9.9920    -0.7550    -0.1810 C.3   1 <1>  -0.2400 
 17 C       -9.3570    -2.8270     1.0640 C.3   1 <1>  -0.2400 
 18 H        1.5250    -1.2010     0.4990 H     1 <1>   0.1500 
 19 H       -2.2010    -4.4260     0.1880 H     1 <1>   0.1500 
 20 H        1.9630    -3.6540     0.4590 H     1 <1>   0.1500 
 21 H       -4.1100    -3.2350     0.9930 H     1 <1>   0.0800 
 22 H       -4.0040    -3.1870    -0.7740 H     1 <1>   0.0800 
 23 H       -5.1520    -1.0020    -0.7770 H     1 <1>   0.0800 
 24 H       -5.2570    -1.0490     0.9760 H     1 <1>   0.0800 
 25 H       -6.6910    -3.0540     0.8330 H     1 <1>   0.0800 
 26 H       -6.5860    -3.0070    -0.9150 H     1 <1>   0.0800 
 27 H       -7.5610    -0.7910    -0.8570 H     1 <1>   0.4500 
 28 H       -7.6590    -0.8360     0.7790 H     1 <1>   0.4500 
 29 H       -8.9460    -2.1630    -2.3080 H     1 <1>   0.0800 
 30 H      -10.2290    -3.0700    -1.5670 H     1 <1>   0.0800 
 31 H       -8.6040    -3.6490    -1.4400 H     1 <1>   0.0800 
 32 H       -9.7960    -0.1260    -1.0310 H     1 <1>   0.0800 
 33 H       -9.9010    -0.1730     0.7200 H     1 <1>   0.0800 
 34 H      -11.0130    -1.0870    -0.2510 H     1 <1>   0.0800 
 35 H       -8.7550    -3.7180     1.0770 H     1 <1>   0.0800 
 36 H      -10.3860    -3.1410     1.0400 H     1 <1>   0.0800 
 37 H       -9.2040    -2.2790     1.9770 H     1 <1>   0.0800 
@<TRIPOS>BOND
  1   1   2  1   
  2   2   3  ar  
  3   2   4  ar  
  4   3   5  1   
  5   3   6  ar  
  6   4   7  ar  
  7   4  18  1   
  8   5   8  1   
  9   6   9  ar  
 10   6  19  1   
 11   7   9  ar  
 12   7  20  1   
 13   8  10  1   
 14   8  21  1   
 15   8  22  1   
 16   9  11  1   
 17  10  12  1   
 18  10  23  1   
 19  10  24  1   
 20  12  13  1   
 21  12  25  1   
 22  12  26  1   
 23  13  14  1   
 24  13  27  1   
 25  13  28  1   
 26  14  15  1   
 27  14  16  1   
 28  14  17  1   
 29  15  29  1   
 30  15  30  1   
 31  15  31  1   
 32  16  32  1   
 33  16  33  1   
 34  16  34  1   
 35  17  35  1   
 36  17  36  1   
 37  17  37  1   
@<TRIPOS>SUBSTRUCTURE
  1 ****   8 GROUP 4 **** **** 0

# MOE 2024.06 (io_trps.svl 2023.06)
