@<TRIPOS>MOLECULE
NONAME
46 47 1 0 0 
SMALL
USER_CHARGES


@<TRIPOS>ATOM
  1 BR      -1.4960    -1.9930    -3.5620 Br    1 <1>  -0.1110 
  2 C       -2.4610    -1.6050    -1.9450 C.ar  1 <1>   0.1110 
  3 C       -2.5750    -2.5890    -0.9840 C.ar  1 <1>  -0.1500 
  4 C       -3.0140    -0.3500    -1.7850 C.ar  1 <1>  -0.1500 
  5 C       -3.2810    -2.3090     0.1730 C.ar  1 <1>  -0.1500 
  6 C       -3.7190    -0.0770    -0.6250 C.ar  1 <1>  -0.1500 
  7 C       -3.8670    -1.0590     0.3510 C.ar  1 <1>  -0.1430 
  8 C       -4.6820    -0.7690     1.5970 C.3   1 <1>   0.4870 
  9 N       -6.1160    -0.7880     1.1810 N.4   1 <1>  -0.9590 
 10 C       -7.0080    -0.2370     2.2400 C.3   1 <1>   0.4860 
 11 C       -6.5480    -2.1570     0.6950 C.3   1 <1>   0.3430 
 12 C       -8.3340     0.0420     1.5630 C.ar  1 <1>  -0.1430 
 13 C       -6.8420    -2.2100    -0.8310 C.3   1 <1>   0.3430 
 14 C       -8.4560     1.1090     0.6820 C.ar  1 <1>  -0.1500 
 15 C       -9.4320    -0.7720     1.8070 C.ar  1 <1>  -0.1500 
 16 N       -8.0820    -1.4530    -1.2510 N.4   1 <1>  -0.9590 
 17 C       -9.6550     1.3390     0.0300 C.ar  1 <1>  -0.1500 
 18 C      -10.6310    -0.5360     1.1580 C.ar  1 <1>  -0.1500 
 19 C       -9.2830    -2.3520    -1.2910 C.3   1 <1>   0.2630 
 20 C       -7.9060    -0.8320    -2.6050 C.3   1 <1>   0.2630 
 21 C      -10.7400     0.5150     0.2650 C.ar  1 <1>  -0.1500 
 22 H       -2.1110    -3.5490    -1.1420 H     1 <1>   0.1500 
 23 H       -2.8810     0.3950    -2.5530 H     1 <1>   0.1500 
 24 H       -3.3550    -3.0760     0.9280 H     1 <1>   0.1500 
 25 H       -4.1320     0.9090    -0.4970 H     1 <1>   0.1500 
 26 H       -4.4100     0.1990     1.9860 H     1 <1>   0.0800 
 27 H       -4.4910    -1.5130     2.3550 H     1 <1>   0.0800 
 28 H       -6.1730    -0.1300     0.3960 H     1 <1>   0.4500 
 29 H       -6.6070     0.6830     2.6370 H     1 <1>   0.0800 
 30 H       -7.1300    -0.9410     3.0480 H     1 <1>   0.0800 
 31 H       -7.4250    -2.4830     1.2280 H     1 <1>   0.0800 
 32 H       -5.7670    -2.8690     0.9090 H     1 <1>   0.0800 
 33 H       -6.9450    -3.2410    -1.1290 H     1 <1>   0.0800 
 34 H       -5.9810    -1.8200    -1.3510 H     1 <1>   0.0800 
 35 H       -7.6350     1.7850     0.5020 H     1 <1>   0.1500 
 36 H       -9.3790    -1.5870     2.5120 H     1 <1>   0.1500 
 37 H       -8.3180    -0.6950    -0.5790 H     1 <1>   0.4500 
 38 H       -9.7570     2.1740    -0.6460 H     1 <1>   0.1500 
 39 H      -11.4900    -1.1570     1.3590 H     1 <1>   0.1500 
 40 H       -9.1390    -3.1480    -2.0030 H     1 <1>   0.0800 
 41 H      -10.1580    -1.7890    -1.5790 H     1 <1>   0.0800 
 42 H       -9.4670    -2.7820    -0.3200 H     1 <1>   0.0800 
 43 H       -7.7240    -1.5930    -3.3490 H     1 <1>   0.0800 
 44 H       -7.0740    -0.1470    -2.6050 H     1 <1>   0.0800 
 45 H       -8.7950    -0.2880    -2.8850 H     1 <1>   0.0800 
 46 H      -11.6790     0.7050    -0.2310 H     1 <1>   0.1500 
@<TRIPOS>BOND
  1   1   2  1   
  2   2   3  ar  
  3   2   4  ar  
  4   3   5  ar  
  5   3  22  1   
  6   4   6  ar  
  7   4  23  1   
  8   5   7  ar  
  9   5  24  1   
 10   6   7  ar  
 11   6  25  1   
 12   7   8  1   
 13   8   9  1   
 14   8  26  1   
 15   8  27  1   
 16   9  10  1   
 17   9  11  1   
 18   9  28  1   
 19  10  12  1   
 20  10  29  1   
 21  10  30  1   
 22  11  13  1   
 23  11  31  1   
 24  11  32  1   
 25  12  14  ar  
 26  12  15  ar  
 27  13  16  1   
 28  13  33  1   
 29  13  34  1   
 30  14  17  ar  
 31  14  35  1   
 32  15  18  ar  
 33  15  36  1   
 34  16  19  1   
 35  16  20  1   
 36  16  37  1   
 37  17  21  ar  
 38  17  38  1   
 39  18  21  ar  
 40  18  39  1   
 41  19  40  1   
 42  19  41  1   
 43  19  42  1   
 44  20  43  1   
 45  20  44  1   
 46  20  45  1   
 47  21  46  1   
@<TRIPOS>SUBSTRUCTURE
  1 ****   9 GROUP 4 **** **** 0

# MOE 2024.06 (io_trps.svl 2023.06)
