@<TRIPOS>MOLECULE
NONAME
54 58 1 0 0 
SMALL
USER_CHARGES


@<TRIPOS>ATOM
  1 O        0.5430     0.8170    -2.2910 O.2   1 <1>  -0.5700 
  2 C        0.3100     0.1090    -1.3400 C.2   1 <1>   0.4950 
  3 C        1.3010    -0.4920    -0.5130 C.2   1 <1>  -0.1240 
  4 C       -1.1480    -0.1700    -1.0150 C.3   1 <1>  -0.0990 
  5 C        1.0200    -1.4030     0.4530 C.2   1 <1>  -0.0380 
  6 C        2.7480    -0.0530    -0.7480 C.3   1 <1>   0.3400 
  7 C       -1.3410    -1.5820    -0.4380 C.3   1 <1>  -0.1600 
  8 N        2.0080    -1.9860     1.2090 N.pl3 1 <1>  -0.6000 
  9 C       -0.4070    -1.8420     0.7540 C.3   1 <1>  -0.0220 
 10 C        3.7720    -0.8870     0.0300 C.2   1 <1>  -0.1240 
 11 C        2.9160     1.4050    -0.3120 C.ar  1 <1>  -0.1440 
 12 C        3.3490    -1.7900     0.9560 C.2   1 <1>  -0.0380 
 13 C        5.1200    -0.5620    -0.3170 C.2   1 <1>   0.6160 
 14 C        3.3780     2.3560    -1.2180 C.ar  1 <1>  -0.1500 
 15 C        2.6230     1.7820     1.0010 C.ar  1 <1>  -0.1500 
 16 C        4.2570    -2.6880     1.7830 C.3   1 <1>  -0.1020 
 17 O        5.4650    -0.5110    -1.4820 O.2   1 <1>  -0.5700 
 18 N        6.0130    -0.2890     0.6830 N.am  1 <1>  -0.5470 
 19 C        3.5340     3.6560    -0.7790 C.ar  1 <1>   0.0820 
 20 C        2.7850     3.0950     1.4240 C.ar  1 <1>  -0.1500 
 21 C        7.3540     0.0170     0.7170 C.ar  1 <1>   0.4270 
 22 O        3.9650     4.7180    -1.4680 O.3   1 <1>  -0.3630 
 23 C        3.2460     4.0150     0.5050 C.ar  1 <1>   0.0820 
 24 N        7.8490    -0.0280     1.9450 N.ar  1 <1>  -0.6200 
 25 C        8.1160     0.3490    -0.4030 C.ar  1 <1>  -0.1500 
 26 C        3.9460     5.8220    -0.5680 C.3   1 <1>   0.4000 
 27 O        3.4790     5.3200     0.6820 O.3   1 <1>  -0.3620 
 28 C        9.1350     0.2600     2.0600 C.ar  1 <1>   0.1600 
 29 C        9.4540     0.6450    -0.2710 C.ar  1 <1>  -0.1440 
 30 C        9.9680     0.5950     1.0080 C.ar  1 <1>  -0.1500 
 31 C       10.3240     1.0100    -1.4600 C.3   1 <1>  -0.0970 
 32 H       -1.7340    -0.0630    -1.9100 H     1 <1>   0.0800 
 33 H       -1.4810     0.5670    -0.3080 H     1 <1>   0.0800 
 34 H        2.9540    -0.1490    -1.8010 H     1 <1>   0.0800 
 35 H       -1.1220    -2.3000    -1.2100 H     1 <1>   0.0800 
 36 H       -2.3660    -1.7210    -0.1380 H     1 <1>   0.0800 
 37 H        1.7430    -2.6650     1.9320 H     1 <1>   0.4000 
 38 H       -0.7570    -1.3040     1.6170 H     1 <1>   0.0800 
 39 H       -0.4250    -2.8930     0.9840 H     1 <1>   0.0800 
 40 H        3.6130     2.1030    -2.2370 H     1 <1>   0.1500 
 41 H        2.2680     1.0450     1.7010 H     1 <1>   0.1500 
 42 H        3.9010    -3.7020     1.7420 H     1 <1>   0.0800 
 43 H        4.2600    -2.3640     2.8080 H     1 <1>   0.0800 
 44 H        5.2660    -2.6900     1.4160 H     1 <1>   0.0800 
 45 H        5.6290    -0.3340     1.6210 H     1 <1>   0.3700 
 46 H        2.5630     3.3970     2.4300 H     1 <1>   0.1500 
 47 H        7.6590     0.3800    -1.3730 H     1 <1>   0.1500 
 48 H        3.2670     6.5720    -0.9320 H     1 <1>   0.0800 
 49 H        4.9430     6.2080    -0.4510 H     1 <1>   0.0800 
 50 H        9.5510     0.2270     3.0530 H     1 <1>   0.1500 
 51 H       11.0040     0.8140     1.1910 H     1 <1>   0.1500 
 52 H        9.7630     0.9530    -2.3750 H     1 <1>   0.0800 
 53 H       11.1580     0.3350    -1.5270 H     1 <1>   0.0800 
 54 H       10.6960     2.0130    -1.3470 H     1 <1>   0.0800 
@<TRIPOS>BOND
  1   1   2  2   
  2   2   3  1   
  3   2   4  1   
  4   3   5  2   
  5   3   6  1   
  6   4   7  1   
  7   4  32  1   
  8   4  33  1   
  9   5   8  1   
 10   5   9  1   
 11   6  10  1   
 12   6  11  1   
 13   6  34  1   
 14   7   9  1   
 15   7  35  1   
 16   7  36  1   
 17   8  12  1   
 18   8  37  1   
 19   9  38  1   
 20   9  39  1   
 21  10  12  2   
 22  10  13  1   
 23  11  14  ar  
 24  11  15  ar  
 25  12  16  1   
 26  13  17  2   
 27  13  18  am  
 28  14  19  ar  
 29  14  40  1   
 30  15  20  ar  
 31  15  41  1   
 32  16  42  1   
 33  16  43  1   
 34  16  44  1   
 35  18  21  1   
 36  18  45  1   
 37  19  22  1   
 38  19  23  ar  
 39  20  23  ar  
 40  20  46  1   
 41  21  24  ar  
 42  21  25  ar  
 43  22  26  1   
 44  23  27  1   
 45  24  28  ar  
 46  25  29  ar  
 47  25  47  1   
 48  26  27  1   
 49  26  48  1   
 50  26  49  1   
 51  28  30  ar  
 52  28  50  1   
 53  29  30  ar  
 54  29  31  1   
 55  30  51  1   
 56  31  52  1   
 57  31  53  1   
 58  31  54  1   
@<TRIPOS>SUBSTRUCTURE
  1 ****  11 GROUP 4 **** **** 0

# MOE 2024.06 (io_trps.svl 2023.06)
