@<TRIPOS>MOLECULE
NONAME
46 47 1 0 0 
SMALL
USER_CHARGES


@<TRIPOS>ATOM
  1 O       -0.7530     0.0370    -2.6290 O.co2 1 <1>  -0.9000 
  2 C       -0.7360    -0.3420    -1.4430 C.2   1 <1>   0.9790 
  3 O        0.1910     0.0430    -0.7070 O.co2 1 <1>  -0.9000 
  4 C       -1.7790    -1.2210    -0.9290 C.ar  1 <1>  -0.1790 
  5 C       -1.7690    -1.6730     0.3930 C.ar  1 <1>  -0.1500 
  6 C       -2.8360    -1.6500    -1.7340 C.ar  1 <1>  -0.1500 
  7 C       -2.7540    -2.5090     0.8820 C.ar  1 <1>  -0.1500 
  8 C       -3.8240    -2.4860    -1.2510 C.ar  1 <1>  -0.1500 
  9 C       -3.7920    -2.9330     0.0620 C.ar  1 <1>   0.1170 
 10 N       -4.7900    -3.7820     0.5380 N.am  1 <1>  -0.5470 
 11 C       -4.7230    -5.0960     0.8850 C.2   1 <1>   0.5690 
 12 O       -5.7300    -5.6560     1.2430 O.2   1 <1>  -0.5700 
 13 C       -3.3970    -5.8650     0.7930 C.3   1 <1>  -0.0190 
 14 C       -3.1130    -6.3010    -0.6540 C.3   1 <1>  -0.1600 
 15 C       -3.3500    -7.0930     1.7210 C.3   1 <1>  -0.1600 
 16 C       -1.7720    -7.0390    -0.7690 C.3   1 <1>  -0.1600 
 17 C       -2.0070    -7.8290     1.6150 C.3   1 <1>  -0.1600 
 18 C       -1.6980    -8.2720     0.1640 C.3   1 <1>  -0.0800 
 19 C       -0.3720    -9.0950     0.0210 C.3   1 <1>   0.0000 
 20 C       -0.4240   -10.3630     0.8950 C.3   1 <1>  -0.2400 
 21 C        0.8780    -8.2920     0.4260 C.3   1 <1>  -0.2400 
 22 C       -0.1800    -9.5670    -1.4330 C.3   1 <1>  -0.2400 
 23 H       -0.9650    -1.3500     1.0350 H     1 <1>   0.1500 
 24 H       -2.8660    -1.3120    -2.7580 H     1 <1>   0.1500 
 25 H       -2.7190    -2.8310     1.9060 H     1 <1>   0.1500 
 26 H       -4.6210    -2.7990    -1.9000 H     1 <1>   0.1500 
 27 H       -5.7390    -3.4130     0.5510 H     1 <1>   0.3700 
 28 H       -2.6100    -5.2030     1.1020 H     1 <1>   0.0800 
 29 H       -3.0910    -5.4350    -1.2930 H     1 <1>   0.0800 
 30 H       -3.9070    -6.9430    -0.9950 H     1 <1>   0.0800 
 31 H       -4.1470    -7.7700     1.4630 H     1 <1>   0.0800 
 32 H       -3.5070    -6.7780     2.7380 H     1 <1>   0.0800 
 33 H       -0.9820    -6.3490    -0.5300 H     1 <1>   0.0800 
 34 H       -1.6530    -7.3330    -1.7950 H     1 <1>   0.0800 
 35 H       -2.0520    -8.6820     2.2670 H     1 <1>   0.0800 
 36 H       -1.2300    -7.1780     1.9730 H     1 <1>   0.0800 
 37 H       -2.4990    -8.9290    -0.1330 H     1 <1>   0.0800 
 38 H       -0.4070   -10.1190     1.9410 H     1 <1>   0.0800 
 39 H        0.4250   -10.9940     0.7010 H     1 <1>   0.0800 
 40 H       -1.3160   -10.9270     0.6880 H     1 <1>   0.0800 
 41 H        0.8270    -7.9880     1.4550 H     1 <1>   0.0800 
 42 H        0.9910    -7.4160    -0.1850 H     1 <1>   0.0800 
 43 H        1.7620    -8.8930     0.3050 H     1 <1>   0.0800 
 44 H       -1.0590   -10.0770    -1.7840 H     1 <1>   0.0800 
 45 H        0.6530   -10.2440    -1.5060 H     1 <1>   0.0800 
 46 H        0.0240    -8.7400    -2.0890 H     1 <1>   0.0800 
@<TRIPOS>BOND
  1   1   2  ar  
  2   2   3  ar  
  3   2   4  1   
  4   4   5  ar  
  5   4   6  ar  
  6   5   7  ar  
  7   5  23  1   
  8   6   8  ar  
  9   6  24  1   
 10   7   9  ar  
 11   7  25  1   
 12   8   9  ar  
 13   8  26  1   
 14   9  10  1   
 15  10  11  am  
 16  10  27  1   
 17  11  12  2   
 18  11  13  1   
 19  13  14  1   
 20  13  15  1   
 21  13  28  1   
 22  14  16  1   
 23  14  29  1   
 24  14  30  1   
 25  15  17  1   
 26  15  31  1   
 27  15  32  1   
 28  16  18  1   
 29  16  33  1   
 30  16  34  1   
 31  17  18  1   
 32  17  35  1   
 33  17  36  1   
 34  18  19  1   
 35  18  37  1   
 36  19  20  1   
 37  19  21  1   
 38  19  22  1   
 39  20  38  1   
 40  20  39  1   
 41  20  40  1   
 42  21  41  1   
 43  21  42  1   
 44  21  43  1   
 45  22  44  1   
 46  22  45  1   
 47  22  46  1   
@<TRIPOS>SUBSTRUCTURE
  1 ****  13 GROUP 4 **** **** 0

# MOE 2024.06 (io_trps.svl 2023.06)
