@<TRIPOS>MOLECULE
NONAME
42 43 1 0 0 
SMALL
USER_CHARGES


@<TRIPOS>ATOM
  1 CL      -0.3320     1.1740     1.5060 Cl    1 <1>  -0.1770 
  2 C        1.3180     1.2570     0.9400 C.ar  1 <1>   0.1770 
  3 C        1.6160     0.8420    -0.3430 C.ar  1 <1>  -0.1500 
  4 C        2.3000     1.7360     1.7860 C.ar  1 <1>  -0.1500 
  5 C        2.9240     0.9050    -0.8000 C.ar  1 <1>  -0.1440 
  6 C        3.6070     1.8020     1.3360 C.ar  1 <1>  -0.1500 
  7 C        3.9260     1.3870     0.0420 C.ar  1 <1>   0.0830 
  8 C        3.2490     0.4470    -2.2150 C.3   1 <1>  -0.0960 
  9 O        5.1920     1.4280    -0.4530 O.3   1 <1>  -0.3630 
 10 C        6.2760     1.8920     0.3130 C.3   1 <1>   0.1200 
 11 C        7.5290     1.7950    -0.5600 C.3   1 <1>  -0.1600 
 12 C        8.7860     2.2740     0.1820 C.3   1 <1>  -0.1600 
 13 C       10.0140     2.1690    -0.7280 C.3   1 <1>   0.3430 
 14 N       11.2200     2.7210    -0.0510 N.4   1 <1>  -0.9590 
 15 C       12.3330     2.9350    -1.0430 C.3   1 <1>   0.3430 
 16 C       11.7010     1.8470     1.0790 C.3   1 <1>   0.3430 
 17 C       13.6280     3.4050    -0.3520 C.3   1 <1>   0.1200 
 18 C       13.0250     2.3630     1.6740 C.3   1 <1>   0.1200 
 19 O       13.9820     2.5160     0.6670 O.3   1 <1>  -0.5600 
 20 H        0.8250     0.4750    -0.9710 H     1 <1>   0.1500 
 21 H        2.0390     2.0520     2.7790 H     1 <1>   0.1500 
 22 H        4.3560     2.1770     2.0070 H     1 <1>   0.1500 
 23 H        2.3670     0.1100    -2.7280 H     1 <1>   0.0800 
 24 H        3.9570    -0.3610    -2.1820 H     1 <1>   0.0800 
 25 H        3.6790     1.2610    -2.7700 H     1 <1>   0.0800 
 26 H        6.3630     1.2690     1.1870 H     1 <1>   0.0800 
 27 H        6.0780     2.9120     0.5960 H     1 <1>   0.0800 
 28 H        7.3760     2.3950    -1.4410 H     1 <1>   0.0800 
 29 H        7.6540     0.7690    -0.8630 H     1 <1>   0.0800 
 30 H        8.9190     1.6660     1.0590 H     1 <1>   0.0800 
 31 H        8.6440     3.2980     0.4820 H     1 <1>   0.0800 
 32 H        9.8200     2.7270    -1.6310 H     1 <1>   0.0800 
 33 H       10.1810     1.1400    -1.0020 H     1 <1>   0.0800 
 34 H       10.9790     3.6400     0.3430 H     1 <1>   0.4500 
 35 H       12.0390     3.6660    -1.7780 H     1 <1>   0.0800 
 36 H       12.5440     2.0130    -1.5590 H     1 <1>   0.0800 
 37 H       11.8610     0.8430     0.7200 H     1 <1>   0.0800 
 38 H       10.9580     1.8040     1.8580 H     1 <1>   0.0800 
 39 H       13.5130     4.3890     0.0690 H     1 <1>   0.0800 
 40 H       14.4390     3.4280    -1.0600 H     1 <1>   0.0800 
 41 H       13.4130     1.6540     2.3860 H     1 <1>   0.0800 
 42 H       12.8890     3.3080     2.1720 H     1 <1>   0.0800 
@<TRIPOS>BOND
  1   1   2  1   
  2   2   3  ar  
  3   2   4  ar  
  4   3   5  ar  
  5   3  20  1   
  6   4   6  ar  
  7   4  21  1   
  8   5   7  ar  
  9   5   8  1   
 10   6   7  ar  
 11   6  22  1   
 12   7   9  1   
 13   8  23  1   
 14   8  24  1   
 15   8  25  1   
 16   9  10  1   
 17  10  11  1   
 18  10  26  1   
 19  10  27  1   
 20  11  12  1   
 21  11  28  1   
 22  11  29  1   
 23  12  13  1   
 24  12  30  1   
 25  12  31  1   
 26  13  14  1   
 27  13  32  1   
 28  13  33  1   
 29  14  15  1   
 30  14  16  1   
 31  14  34  1   
 32  15  17  1   
 33  15  35  1   
 34  15  36  1   
 35  16  18  1   
 36  16  37  1   
 37  16  38  1   
 38  17  19  1   
 39  17  39  1   
 40  17  40  1   
 41  18  19  1   
 42  18  41  1   
 43  18  42  1   
@<TRIPOS>SUBSTRUCTURE
  1 ****  10 GROUP 4 **** **** 0

# MOE 2024.06 (io_trps.svl 2023.06)
