@<TRIPOS>MOLECULE
NONAME
36 37 1 0 0 
SMALL
USER_CHARGES


@<TRIPOS>ATOM
  1 O       -5.3080     5.3720     0.3120 O.2   1 <1>  -0.5700 
  2 C       -4.4670     4.5450     0.5670 C.2   1 <1>   0.4230 
  3 C       -4.5910     3.1500     0.2060 C.ar  1 <1>   0.0860 
  4 C       -3.2180     5.0450     1.3010 C.3   1 <1>   0.1710 
  5 C       -5.8250     2.6360    -0.2040 C.ar  1 <1>  -0.1500 
  6 C       -3.5150     2.2550     0.2350 C.ar  1 <1>  -0.1500 
  7 N       -2.0480     5.3060     0.4100 N.3   1 <1>  -0.8100 
  8 C       -5.9870     1.3100    -0.5570 C.ar  1 <1>  -0.1500 
  9 C       -3.6690     0.9270    -0.1150 C.ar  1 <1>  -0.1500 
 10 C       -2.3900     6.2930    -0.6420 C.3   1 <1>   0.1100 
 11 C       -0.8720     5.7320     1.1940 C.3   1 <1>   0.1100 
 12 C       -4.9030     0.4400    -0.5130 C.ar  1 <1>   0.0820 
 13 C       -1.1930     6.5680    -1.5740 C.3   1 <1>   0.3430 
 14 C        0.3460     5.9930     0.2840 C.3   1 <1>   0.3430 
 15 O       -4.9700    -0.8680    -0.8400 O.3   1 <1>  -0.3630 
 16 N        0.0230     6.9810    -0.7980 N.4   1 <1>  -0.9060 
 17 C       -6.1720    -1.4670    -1.2700 C.3   1 <1>   0.0400 
 18 H       -2.9470     4.3160     2.0450 H     1 <1>   0.0800 
 19 H       -3.4810     5.9500     1.8210 H     1 <1>   0.0800 
 20 H       -6.6750     3.2970    -0.2450 H     1 <1>   0.1500 
 21 H       -2.5370     2.5920     0.5250 H     1 <1>   0.1500 
 22 H       -6.9590     0.9710    -0.8630 H     1 <1>   0.1500 
 23 H       -2.8330     0.2510    -0.0860 H     1 <1>   0.1500 
 24 H       -2.7240     7.2140    -0.1930 H     1 <1>   0.0800 
 25 H       -3.1990     5.9150    -1.2450 H     1 <1>   0.0800 
 26 H       -0.6170     4.9560     1.8980 H     1 <1>   0.0800 
 27 H       -1.1040     6.6220     1.7550 H     1 <1>   0.0800 
 28 H       -1.4620     7.3350    -2.2810 H     1 <1>   0.0800 
 29 H       -0.9830     5.6660    -2.1260 H     1 <1>   0.0800 
 30 H        0.6450     5.0560    -0.1580 H     1 <1>   0.0800 
 31 H        1.1680     6.3550     0.8820 H     1 <1>   0.0800 
 32 H       -0.1560     7.8970    -0.3710 H     1 <1>   0.4500 
 33 H        0.8240     7.0850    -1.4330 H     1 <1>   0.4500 
 34 H       -5.9740    -2.5040    -1.4730 H     1 <1>   0.0800 
 35 H       -6.5040    -0.9760    -2.1680 H     1 <1>   0.0800 
 36 H       -6.9040    -1.3800    -0.4880 H     1 <1>   0.0800 
@<TRIPOS>BOND
  1   1   2  2   
  2   2   3  1   
  3   2   4  1   
  4   3   5  ar  
  5   3   6  ar  
  6   4   7  1   
  7   4  18  1   
  8   4  19  1   
  9   5   8  ar  
 10   5  20  1   
 11   6   9  ar  
 12   6  21  1   
 13   7  10  1   
 14   7  11  1   
 15   8  12  ar  
 16   8  22  1   
 17   9  12  ar  
 18   9  23  1   
 19  10  13  1   
 20  10  24  1   
 21  10  25  1   
 22  11  14  1   
 23  11  26  1   
 24  11  27  1   
 25  12  15  1   
 26  13  16  1   
 27  13  28  1   
 28  13  29  1   
 29  14  16  1   
 30  14  30  1   
 31  14  31  1   
 32  15  17  1   
 33  16  32  1   
 34  16  33  1   
 35  17  34  1   
 36  17  35  1   
 37  17  36  1   
@<TRIPOS>SUBSTRUCTURE
  1 ****   3 GROUP 4 **** **** 0

# MOE 2024.06 (io_trps.svl 2023.06)
