@<TRIPOS>MOLECULE
NONAME
42 42 1 0 0 
SMALL
USER_CHARGES


@<TRIPOS>ATOM
  1 O       -0.9100    -2.4860    -1.8630 O.2   1 <1>  -0.5700 
  2 C       -0.0720    -2.2530    -1.0250 C.2   1 <1>   0.5690 
  3 N       -0.3300    -1.4490     0.0410 N.am  1 <1>  -0.7300 
  4 C        1.3050    -2.8880    -1.1740 C.3   1 <1>   0.1810 
  5 C       -1.6080    -0.7390     0.2970 C.3   1 <1>   0.1400 
  6 O        2.1260    -2.6180    -0.0440 O.3   1 <1>  -0.3620 
  7 C       -2.6380    -1.6950     0.8960 C.3   1 <1>   0.1200 
  8 C        3.3930    -3.0950     0.0290 C.ar  1 <1>   0.0830 
  9 O       -3.7500    -0.9550     1.2940 O.3   1 <1>  -0.5600 
 10 C        4.1150    -2.7830     1.1650 C.ar  1 <1>  -0.1500 
 11 C        3.9910    -3.8670    -0.9610 C.ar  1 <1>  -0.1500 
 12 C       -4.7940    -1.7320     1.7830 C.3   1 <1>   0.0400 
 13 C        5.4150    -3.2310     1.3150 C.ar  1 <1>  -0.1500 
 14 C        5.2920    -4.3130    -0.8030 C.ar  1 <1>  -0.1500 
 15 C        6.0310    -4.0050     0.3370 C.ar  1 <1>  -0.1430 
 16 C        7.4840    -4.4820     0.5520 C.3   1 <1>   0.1430 
 17 C        8.4070    -3.2640     0.7090 C.3   1 <1>  -0.2400 
 18 C        7.5590    -5.3450     1.8210 C.3   1 <1>  -0.2400 
 19 C        8.0260    -5.3260    -0.6150 C.3   1 <1>  -0.2400 
 20 H        0.4190    -1.3190     0.7270 H     1 <1>   0.3700 
 21 H        1.7850    -2.4880    -2.0470 H     1 <1>   0.0800 
 22 H        1.1940    -3.9520    -1.2670 H     1 <1>   0.0800 
 23 H       -1.9890    -0.3460    -0.6310 H     1 <1>   0.0800 
 24 H       -1.4300     0.0750     0.9770 H     1 <1>   0.0800 
 25 H       -2.2330    -2.1910     1.7600 H     1 <1>   0.0800 
 26 H       -2.9430    -2.4160     0.1560 H     1 <1>   0.0800 
 27 H        3.6580    -2.1870     1.9330 H     1 <1>   0.1500 
 28 H        3.4670    -4.1330    -1.8590 H     1 <1>   0.1500 
 29 H       -5.5960    -1.0740     2.0680 H     1 <1>   0.0800 
 30 H       -4.4550    -2.2850     2.6420 H     1 <1>   0.0800 
 31 H       -5.1320    -2.4010     1.0100 H     1 <1>   0.0800 
 32 H        5.9440    -2.9680     2.2130 H     1 <1>   0.1500 
 33 H        5.7090    -4.9050    -1.5950 H     1 <1>   0.1500 
 34 H        8.3350    -2.6340    -0.1600 H     1 <1>   0.0800 
 35 H        9.4300    -3.5740     0.8240 H     1 <1>   0.0800 
 36 H        8.1370    -2.6810     1.5700 H     1 <1>   0.0800 
 37 H        7.2820    -4.7810     2.6920 H     1 <1>   0.0800 
 38 H        8.5560    -5.7180     1.9690 H     1 <1>   0.0800 
 39 H        6.8890    -6.1830     1.7340 H     1 <1>   0.0800 
 40 H        9.0370    -5.6340    -0.4210 H     1 <1>   0.0800 
 41 H        7.4290    -6.2100    -0.7500 H     1 <1>   0.0800 
 42 H        8.0220    -4.7560    -1.5270 H     1 <1>   0.0800 
@<TRIPOS>BOND
  1   1   2  2   
  2   2   3  am  
  3   2   4  1   
  4   3   5  1   
  5   3  20  1   
  6   4   6  1   
  7   4  21  1   
  8   4  22  1   
  9   5   7  1   
 10   5  23  1   
 11   5  24  1   
 12   6   8  1   
 13   7   9  1   
 14   7  25  1   
 15   7  26  1   
 16   8  10  ar  
 17   8  11  ar  
 18   9  12  1   
 19  10  13  ar  
 20  10  27  1   
 21  11  14  ar  
 22  11  28  1   
 23  12  29  1   
 24  12  30  1   
 25  12  31  1   
 26  13  15  ar  
 27  13  32  1   
 28  14  15  ar  
 29  14  33  1   
 30  15  16  1   
 31  16  17  1   
 32  16  18  1   
 33  16  19  1   
 34  17  34  1   
 35  17  35  1   
 36  17  36  1   
 37  18  37  1   
 38  18  38  1   
 39  18  39  1   
 40  19  40  1   
 41  19  41  1   
 42  19  42  1   
@<TRIPOS>SUBSTRUCTURE
  1 ****   6 GROUP 4 **** **** 0

# MOE 2024.06 (io_trps.svl 2023.06)
