@<TRIPOS>MOLECULE
NONAME
43 44 1 0 0 
SMALL
USER_CHARGES


@<TRIPOS>ATOM
  1 O       -1.1220    -0.2900     0.4070 O.3   1 <1>  -0.3630 
  2 C       -2.2170    -0.9880     0.0010 C.ar  1 <1>   0.0830 
  3 C       -0.3810    -0.6670     1.5450 C.3   1 <1>   0.0400 
  4 C       -2.8760    -0.5460    -1.1400 C.ar  1 <1>  -0.1440 
  5 C       -2.6940    -2.1090     0.6750 C.ar  1 <1>  -0.1500 
  6 C       -3.9930    -1.2290    -1.5890 C.ar  1 <1>  -0.1500 
  7 C       -2.3820     0.6790    -1.8960 C.3   1 <1>  -0.0960 
  8 C       -3.8130    -2.7900     0.2250 C.ar  1 <1>  -0.1430 
  9 C       -4.4670    -2.3490    -0.9230 C.ar  1 <1>  -0.1430 
 10 C       -4.2990    -4.0050     1.0050 C.3   1 <1>  -0.0970 
 11 C       -5.7000    -3.0480    -1.4790 C.3   1 <1>   0.3530 
 12 N       -6.8910    -2.4030    -0.8930 N.pl3 1 <1>  -0.8690 
 13 C       -7.7810    -3.2010    -0.1870 C.ar  1 <1>   0.1000 
 14 C       -8.3880    -4.3020    -0.7770 C.ar  1 <1>  -0.1500 
 15 C       -8.0780    -2.9030     1.1360 C.ar  1 <1>  -0.1500 
 16 C       -9.2580    -5.1050    -0.0600 C.ar  1 <1>  -0.1430 
 17 C       -8.9450    -3.6960     1.8670 C.ar  1 <1>  -0.1430 
 18 C       -9.5320    -4.7970     1.2640 C.ar  1 <1>  -0.1500 
 19 C       -9.9180    -6.3090    -0.7050 C.3   1 <1>  -0.0970 
 20 C       -9.2630    -3.3700     3.3150 C.3   1 <1>  -0.0970 
 21 H        0.4320     0.0270     1.6590 H     1 <1>   0.0800 
 22 H        0.0050    -1.6600     1.3960 H     1 <1>   0.0800 
 23 H       -1.0210    -0.6250     2.4080 H     1 <1>   0.0800 
 24 H       -2.1990    -2.4610     1.5580 H     1 <1>   0.1500 
 25 H       -4.5060    -0.8840    -2.4700 H     1 <1>   0.1500 
 26 H       -2.3880     1.5340    -1.2440 H     1 <1>   0.0800 
 27 H       -3.0030     0.8910    -2.7470 H     1 <1>   0.0800 
 28 H       -1.3750     0.5140    -2.2360 H     1 <1>   0.0800 
 29 H       -3.7540    -4.1200     1.9240 H     1 <1>   0.0800 
 30 H       -4.1660    -4.8970     0.4190 H     1 <1>   0.0800 
 31 H       -5.3410    -3.9000     1.2490 H     1 <1>   0.0800 
 32 H       -5.6850    -4.0990    -1.2480 H     1 <1>   0.0800 
 33 H       -5.7350    -2.9430    -2.5490 H     1 <1>   0.0800 
 34 H       -6.5710    -1.5880    -0.3600 H     1 <1>   0.4000 
 35 H       -8.1740    -4.5170    -1.8070 H     1 <1>   0.1500 
 36 H       -7.6180    -2.0440     1.5890 H     1 <1>   0.1500 
 37 H      -10.2080    -5.4160     1.8260 H     1 <1>   0.1500 
 38 H       -9.6010    -6.4200    -1.7260 H     1 <1>   0.0800 
 39 H      -10.9870    -6.1910    -0.6890 H     1 <1>   0.0800 
 40 H       -9.6580    -7.2020    -0.1650 H     1 <1>   0.0800 
 41 H       -8.6030    -2.6090     3.6900 H     1 <1>   0.0800 
 42 H       -9.1520    -4.2490     3.9230 H     1 <1>   0.0800 
 43 H      -10.2760    -3.0170     3.3930 H     1 <1>   0.0800 
@<TRIPOS>BOND
  1   1   2  1   
  2   1   3  1   
  3   2   4  ar  
  4   2   5  ar  
  5   3  21  1   
  6   3  22  1   
  7   3  23  1   
  8   4   6  ar  
  9   4   7  1   
 10   5   8  ar  
 11   5  24  1   
 12   6   9  ar  
 13   6  25  1   
 14   7  26  1   
 15   7  27  1   
 16   7  28  1   
 17   8   9  ar  
 18   8  10  1   
 19   9  11  1   
 20  10  29  1   
 21  10  30  1   
 22  10  31  1   
 23  11  12  1   
 24  11  32  1   
 25  11  33  1   
 26  12  13  1   
 27  12  34  1   
 28  13  14  ar  
 29  13  15  ar  
 30  14  16  ar  
 31  14  35  1   
 32  15  17  ar  
 33  15  36  1   
 34  16  18  ar  
 35  16  19  1   
 36  17  18  ar  
 37  17  20  1   
 38  18  37  1   
 39  19  38  1   
 40  19  39  1   
 41  19  40  1   
 42  20  41  1   
 43  20  42  1   
 44  20  43  1   
@<TRIPOS>SUBSTRUCTURE
  1 ****   9 GROUP 4 **** **** 0

# MOE 2024.06 (io_trps.svl 2023.06)
