@<TRIPOS>MOLECULE
NONAME
51 53 1 0 0 
SMALL
USER_CHARGES


@<TRIPOS>ATOM
  1 F        0.7080    -0.4110     0.1560 F     1 <1>  -0.1900 
  2 C        1.8020    -1.1190     0.2830 C.ar  1 <1>   0.1900 
  3 C        2.9570    -0.6750    -0.3320 C.ar  1 <1>  -0.1500 
  4 C        1.7620    -2.2830     1.0260 C.ar  1 <1>  -0.1500 
  5 C        4.1100    -1.4290    -0.1970 C.ar  1 <1>  -0.1500 
  6 C        2.9230    -3.0240     1.1530 C.ar  1 <1>  -0.1500 
  7 C        4.1060    -2.6100     0.5450 C.ar  1 <1>   0.1000 
  8 N        5.2530    -3.3900     0.6860 N.pl3 1 <1>  -0.8380 
  9 C        5.2880    -4.7310     0.0290 C.3   1 <1>   0.2090 
 10 C        6.5720    -2.7590     1.0020 C.3   1 <1>   0.2090 
 11 C        6.2740    -4.7500    -1.1580 C.3   1 <1>   0.3430 
 12 C        7.5390    -2.8320    -0.1990 C.3   1 <1>   0.3430 
 13 N        7.6360    -4.2210    -0.7860 N.4   1 <1>  -0.9590 
 14 C        8.5900    -4.2770    -1.9270 C.3   1 <1>   0.4860 
 15 C        9.9600    -3.8680    -1.4230 C.ar  1 <1>  -0.1430 
 16 C       10.6160    -4.6490    -0.4860 C.ar  1 <1>  -0.1500 
 17 C       10.5660    -2.7090    -1.8760 C.ar  1 <1>  -0.1500 
 18 C       11.8510    -4.2860     0.0230 C.ar  1 <1>   0.0830 
 19 C       11.8040    -2.3320    -1.3850 C.ar  1 <1>  -0.1500 
 20 O       12.3330    -5.1630     0.9490 O.3   1 <1>  -0.3630 
 21 C       12.4640    -3.1040    -0.4300 C.ar  1 <1>   0.0830 
 22 C       13.6480    -5.1180     1.4520 C.3   1 <1>   0.1200 
 23 O       13.6750    -2.7200     0.0660 O.3   1 <1>  -0.3630 
 24 C       13.8630    -6.3530     2.3220 C.3   1 <1>  -0.2400 
 25 C       14.4110    -1.6400    -0.4690 C.3   1 <1>   0.0400 
 26 H        2.9440     0.2370    -0.9000 H     1 <1>   0.1500 
 27 H        0.8440    -2.5930     1.4930 H     1 <1>   0.1500 
 28 H        5.0110    -1.0950    -0.6730 H     1 <1>   0.1500 
 29 H        2.9200    -3.9280     1.7340 H     1 <1>   0.1500 
 30 H        4.3030    -4.9860    -0.3250 H     1 <1>   0.0800 
 31 H        5.5740    -5.4710     0.7560 H     1 <1>   0.0800 
 32 H        7.0070    -3.2660     1.8460 H     1 <1>   0.0800 
 33 H        6.4260    -1.7310     1.2880 H     1 <1>   0.0800 
 34 H        5.8560    -4.1450    -1.9460 H     1 <1>   0.0800 
 35 H        6.3580    -5.7600    -1.5240 H     1 <1>   0.0800 
 36 H        8.5130    -2.4990     0.1210 H     1 <1>   0.0800 
 37 H        7.1900    -2.1470    -0.9530 H     1 <1>   0.0800 
 38 H        8.0230    -4.8190    -0.0450 H     1 <1>   0.4500 
 39 H        8.2720    -3.6110    -2.7130 H     1 <1>   0.0800 
 40 H        8.6410    -5.2780    -2.3230 H     1 <1>   0.0800 
 41 H       10.1860    -5.5670    -0.1270 H     1 <1>   0.1500 
 42 H       10.0900    -2.0840    -2.6140 H     1 <1>   0.1500 
 43 H       12.2380    -1.4250    -1.7620 H     1 <1>   0.1500 
 44 H       13.7600    -4.2200     2.0340 H     1 <1>   0.0800 
 45 H       14.3330    -5.1130     0.6210 H     1 <1>   0.0800 
 46 H       13.1630    -6.3560     3.1380 H     1 <1>   0.0800 
 47 H       14.8590    -6.3430     2.7240 H     1 <1>   0.0800 
 48 H       13.7390    -7.2450     1.7350 H     1 <1>   0.0800 
 49 H       15.3550    -1.5940     0.0430 H     1 <1>   0.0800 
 50 H       13.8650    -0.7280    -0.3060 H     1 <1>   0.0800 
 51 H       14.5750    -1.8120    -1.5180 H     1 <1>   0.0800 
@<TRIPOS>BOND
  1   1   2  1   
  2   2   3  ar  
  3   2   4  ar  
  4   3   5  ar  
  5   3  26  1   
  6   4   6  ar  
  7   4  27  1   
  8   5   7  ar  
  9   5  28  1   
 10   6   7  ar  
 11   6  29  1   
 12   7   8  1   
 13   8   9  1   
 14   8  10  1   
 15   9  11  1   
 16   9  30  1   
 17   9  31  1   
 18  10  12  1   
 19  10  32  1   
 20  10  33  1   
 21  11  13  1   
 22  11  34  1   
 23  11  35  1   
 24  12  13  1   
 25  12  36  1   
 26  12  37  1   
 27  13  14  1   
 28  13  38  1   
 29  14  15  1   
 30  14  39  1   
 31  14  40  1   
 32  15  16  ar  
 33  15  17  ar  
 34  16  18  ar  
 35  16  41  1   
 36  17  19  ar  
 37  17  42  1   
 38  18  20  1   
 39  18  21  ar  
 40  19  21  ar  
 41  19  43  1   
 42  20  22  1   
 43  21  23  1   
 44  22  24  1   
 45  22  44  1   
 46  22  45  1   
 47  23  25  1   
 48  24  46  1   
 49  24  47  1   
 50  24  48  1   
 51  25  49  1   
 52  25  50  1   
 53  25  51  1   
@<TRIPOS>SUBSTRUCTURE
  1 ****  12 GROUP 4 **** **** 0

# MOE 2024.06 (io_trps.svl 2023.06)
