@<TRIPOS>MOLECULE
NONAME
48 50 1 0 0 
SMALL
USER_CHARGES


@<TRIPOS>ATOM
  1 O       -1.8580    -1.3620     2.6250 O.3   1 <1>  -0.5320 
  2 C       -2.7760    -1.6460     1.6910 C.ar  1 <1>   0.0820 
  3 C       -3.9510    -2.2660     2.0730 C.ar  1 <1>  -0.1500 
  4 C       -2.5490    -1.3230     0.3640 C.ar  1 <1>  -0.1500 
  5 C       -4.9130    -2.5620     1.1240 C.ar  1 <1>  -0.1500 
  6 C       -3.5130    -1.6180    -0.5850 C.ar  1 <1>  -0.1500 
  7 C       -4.7020    -2.2320    -0.2090 C.ar  1 <1>  -0.1430 
  8 C       -5.7690    -2.5280    -1.2450 C.3   1 <1>   0.4860 
  9 N       -6.9190    -1.6170    -1.0150 N.4   1 <1>  -0.9590 
 10 C       -8.1170    -1.8960    -1.8690 C.3   1 <1>   0.3430 
 11 C       -6.5690    -0.1570    -1.0320 C.3   1 <1>   0.3430 
 12 C       -9.3080    -0.9950    -1.4620 C.3   1 <1>   0.1100 
 13 C       -7.7830     0.7070    -0.6110 C.3   1 <1>   0.1100 
 14 N       -8.9810    -0.1130    -0.3110 N.3   1 <1>  -0.8100 
 15 C      -10.1200     0.7240     0.0900 C.3   1 <1>   0.2480 
 16 C      -11.2240    -0.1730     0.6050 C.2   1 <1>  -0.2880 
 17 C      -12.4550    -0.2680     0.0730 C.2   1 <1>  -0.1780 
 18 C      -13.5530    -1.1100     0.4980 C.ar  1 <1>   0.0280 
 19 C      -14.7240    -1.1600    -0.2560 C.ar  1 <1>  -0.1500 
 20 C      -13.4960    -1.8930     1.6490 C.ar  1 <1>  -0.1500 
 21 C      -15.7890    -1.9600     0.1170 C.ar  1 <1>  -0.1500 
 22 C      -14.5560    -2.6950     2.0290 C.ar  1 <1>  -0.1500 
 23 C      -15.7070    -2.7320     1.2620 C.ar  1 <1>  -0.1500 
 24 H       -1.0510    -0.9490     2.2700 H     1 <1>   0.4500 
 25 H       -4.1000    -2.5140     3.1100 H     1 <1>   0.1500 
 26 H       -1.6300    -0.8490     0.0700 H     1 <1>   0.1500 
 27 H       -5.8180    -3.0500     1.4420 H     1 <1>   0.1500 
 28 H       -3.3230    -1.3640    -1.6140 H     1 <1>   0.1500 
 29 H       -6.0840    -3.5540    -1.1500 H     1 <1>   0.0800 
 30 H       -5.3710    -2.3810    -2.2360 H     1 <1>   0.0800 
 31 H       -7.2600    -1.7550    -0.0510 H     1 <1>   0.4500 
 32 H       -7.8820    -1.7260    -2.9070 H     1 <1>   0.0800 
 33 H       -8.4130    -2.9270    -1.7630 H     1 <1>   0.0800 
 34 H       -5.7560     0.0350    -0.3500 H     1 <1>   0.0800 
 35 H       -6.2460     0.1350    -2.0170 H     1 <1>   0.0800 
 36 H      -10.1400    -1.6310    -1.2100 H     1 <1>   0.0800 
 37 H       -9.6070    -0.3980    -2.3080 H     1 <1>   0.0800 
 38 H       -8.0060     1.4100    -1.3970 H     1 <1>   0.0800 
 39 H       -7.5130     1.2760     0.2630 H     1 <1>   0.0800 
 40 H       -9.8220     1.3940     0.8800 H     1 <1>   0.0800 
 41 H      -10.4670     1.3120    -0.7440 H     1 <1>   0.0800 
 42 H      -10.9030    -0.7430     1.4570 H     1 <1>   0.1500 
 43 H      -12.6990     0.3400    -0.7820 H     1 <1>   0.1500 
 44 H      -14.8060    -0.5670    -1.1480 H     1 <1>   0.1500 
 45 H      -12.6160    -1.8780     2.2640 H     1 <1>   0.1500 
 46 H      -16.6830    -1.9830    -0.4820 H     1 <1>   0.1500 
 47 H      -14.4880    -3.2920     2.9220 H     1 <1>   0.1500 
 48 H      -16.5330    -3.3550     1.5550 H     1 <1>   0.1500 
@<TRIPOS>BOND
  1   1   2  1   
  2   1  24  1   
  3   2   3  ar  
  4   2   4  ar  
  5   3   5  ar  
  6   3  25  1   
  7   4   6  ar  
  8   4  26  1   
  9   5   7  ar  
 10   5  27  1   
 11   6   7  ar  
 12   6  28  1   
 13   7   8  1   
 14   8   9  1   
 15   8  29  1   
 16   8  30  1   
 17   9  10  1   
 18   9  11  1   
 19   9  31  1   
 20  10  12  1   
 21  10  32  1   
 22  10  33  1   
 23  11  13  1   
 24  11  34  1   
 25  11  35  1   
 26  12  14  1   
 27  12  36  1   
 28  12  37  1   
 29  13  14  1   
 30  13  38  1   
 31  13  39  1   
 32  14  15  1   
 33  15  16  1   
 34  15  40  1   
 35  15  41  1   
 36  16  17  2   
 37  16  42  1   
 38  17  18  1   
 39  17  43  1   
 40  18  19  ar  
 41  18  20  ar  
 42  19  21  ar  
 43  19  44  1   
 44  20  22  ar  
 45  20  45  1   
 46  21  23  ar  
 47  21  46  1   
 48  22  23  ar  
 49  22  47  1   
 50  23  48  1   
@<TRIPOS>SUBSTRUCTURE
  1 ****  14 GROUP 4 **** **** 0

# MOE 2024.06 (io_trps.svl 2023.06)
