@<TRIPOS>MOLECULE
NONAME
40 41 1 0 0 
SMALL
USER_CHARGES


@<TRIPOS>ATOM
  1 O       -0.7110    -0.2830    -1.0460 O.3   1 <1>  -0.5600 
  2 C       -0.8510    -0.7740     0.2460 C.3   1 <1>   0.2640 
  3 C       -0.4030     1.0710    -1.1140 C.3   1 <1>   0.0400 
  4 C       -0.9660    -2.2890     0.1530 C.ar  1 <1>  -0.1440 
  5 C        0.1310    -3.1020    -0.0940 C.ar  1 <1>   0.0730 
  6 C       -2.1890    -2.9110     0.3040 C.ar  1 <1>  -0.1500 
  7 C        1.4430    -2.5600    -0.2700 C.1   1 <1>   0.4840 
  8 C       -0.0600    -4.4910    -0.1620 C.ar  1 <1>   0.4100 
  9 C       -2.2740    -4.2880     0.2180 C.ar  1 <1>   0.1660 
 10 N        2.4970    -2.1290    -0.3630 N.1   1 <1>  -0.5570 
 11 N       -1.2420    -5.0770    -0.0030 N.ar  1 <1>  -0.6200 
 12 N        0.9930    -5.3500    -0.4040 N.pl3 1 <1>  -0.8690 
 13 C       -3.6100    -4.9810     0.3790 C.3   1 <1>  -0.0970 
 14 C        0.9180    -6.8070    -0.1890 C.3   1 <1>   0.3530 
 15 C        2.3370    -7.3320    -0.0570 C.ar  1 <1>  -0.1430 
 16 C        2.9070    -7.5070     1.1940 C.ar  1 <1>  -0.1500 
 17 C        3.0790    -7.6330    -1.1870 C.ar  1 <1>  -0.1500 
 18 C        4.2020    -7.9840     1.3130 C.ar  1 <1>  -0.1500 
 19 C        4.3730    -8.1110    -1.0690 C.ar  1 <1>  -0.1500 
 20 C        4.9410    -8.2900     0.1820 C.ar  1 <1>  -0.1430 
 21 C        6.3610    -8.8110     0.3120 C.3   1 <1>  -0.0970 
 22 H       -1.7360    -0.3430     0.6800 H     1 <1>   0.0800 
 23 H        0.0100    -0.4900     0.8270 H     1 <1>   0.0800 
 24 H       -0.3420     1.3470    -2.1520 H     1 <1>   0.0800 
 25 H        0.5480     1.2440    -0.6400 H     1 <1>   0.0800 
 26 H       -1.1800     1.6400    -0.6330 H     1 <1>   0.0800 
 27 H       -3.0740    -2.3270     0.4820 H     1 <1>   0.1500 
 28 H        1.9550    -5.0000    -0.3650 H     1 <1>   0.4000 
 29 H       -4.4000    -4.2730     0.5490 H     1 <1>   0.0800 
 30 H       -3.5650    -5.6600     1.2100 H     1 <1>   0.0800 
 31 H       -3.8320    -5.5410    -0.5120 H     1 <1>   0.0800 
 32 H        0.4210    -7.2670    -1.0250 H     1 <1>   0.0800 
 33 H        0.3560    -7.0210     0.7040 H     1 <1>   0.0800 
 34 H        2.3470    -7.2690     2.0820 H     1 <1>   0.1500 
 35 H        2.6510    -7.4930    -2.1650 H     1 <1>   0.1500 
 36 H        4.6310    -8.1130     2.2900 H     1 <1>   0.1500 
 37 H        4.9370    -8.3390    -1.9560 H     1 <1>   0.1500 
 38 H        7.0500    -7.9860     0.3200 H     1 <1>   0.0800 
 39 H        6.6010    -9.4580    -0.5120 H     1 <1>   0.0800 
 40 H        6.4740    -9.3690     1.2240 H     1 <1>   0.0800 
@<TRIPOS>BOND
  1   1   2  1   
  2   1   3  1   
  3   2   4  1   
  4   2  22  1   
  5   2  23  1   
  6   3  24  1   
  7   3  25  1   
  8   3  26  1   
  9   4   5  ar  
 10   4   6  ar  
 11   5   7  1   
 12   5   8  ar  
 13   6   9  ar  
 14   6  27  1   
 15   7  10  3   
 16   8  11  ar  
 17   8  12  1   
 18   9  11  ar  
 19   9  13  1   
 20  12  14  1   
 21  12  28  1   
 22  13  29  1   
 23  13  30  1   
 24  13  31  1   
 25  14  15  1   
 26  14  32  1   
 27  14  33  1   
 28  15  16  ar  
 29  15  17  ar  
 30  16  18  ar  
 31  16  34  1   
 32  17  19  ar  
 33  17  35  1   
 34  18  20  ar  
 35  18  36  1   
 36  19  20  ar  
 37  19  37  1   
 38  20  21  1   
 39  21  38  1   
 40  21  39  1   
 41  21  40  1   
@<TRIPOS>SUBSTRUCTURE
  1 ****  12 GROUP 4 **** **** 0

# MOE 2024.06 (io_trps.svl 2023.06)
