@<TRIPOS>MOLECULE
Structure2255
32 33 1 0 0 
SMALL
USER_CHARGES


@<TRIPOS>ATOM
  1 O       -0.0670     0.2650    -0.3570 O.3   1 <1>  -0.3630 
  2 C       -0.0560     1.5780     0.0070 C.ar  1 <1>   0.0830 
  3 C       -1.2740    -0.4020    -0.6660 C.3   1 <1>   0.0400 
  4 C        1.1780     2.2290     0.0660 C.ar  1 <1>  -0.1440 
  5 C       -1.2250     2.2690     0.3190 C.ar  1 <1>  -0.1500 
  6 C        1.2120     3.5690     0.4360 C.ar  1 <1>  -0.1500 
  7 C        2.4420     1.4340    -0.2770 C.3   1 <1>   0.0640 
  8 C       -1.1710     3.6000     0.6860 C.ar  1 <1>  -0.1500 
  9 C        0.0470     4.2490     0.7440 C.ar  1 <1>  -0.1500 
 10 C        2.6830     0.3870     0.8220 C.3   1 <1>   0.3430 
 11 C        3.7160     2.2730    -0.4940 C.3   1 <1>  -0.1600 
 12 N        3.8740    -0.4650     0.5090 N.4   1 <1>  -0.9060 
 13 C        4.9230     1.3640    -0.7780 C.3   1 <1>  -0.1600 
 14 C        5.1230     0.3250     0.3280 C.3   1 <1>   0.3430 
 15 H       -1.0350    -1.3870    -1.0220 H     1 <1>   0.0800 
 16 H       -1.7910     0.1470    -1.4340 H     1 <1>   0.0800 
 17 H       -1.8740    -0.4730     0.2250 H     1 <1>   0.0800 
 18 H       -2.1870     1.7940     0.2850 H     1 <1>   0.1500 
 19 H        2.1310     4.1220     0.4930 H     1 <1>   0.1500 
 20 H        2.2410     0.9120    -1.1980 H     1 <1>   0.0800 
 21 H       -2.0760     4.1320     0.9260 H     1 <1>   0.1500 
 22 H        0.0870     5.2870     1.0280 H     1 <1>   0.1500 
 23 H        1.8060    -0.2310     0.9200 H     1 <1>   0.0800 
 24 H        2.8340     0.8980     1.7590 H     1 <1>   0.0800 
 25 H        3.9290     2.8560     0.3850 H     1 <1>   0.0800 
 26 H        3.5680     2.9510    -1.3190 H     1 <1>   0.0800 
 27 H        3.6780    -0.9850    -0.3560 H     1 <1>   0.4500 
 28 H        4.0010    -1.1610     1.2540 H     1 <1>   0.4500 
 29 H        5.8110     1.9690    -0.8540 H     1 <1>   0.0800 
 30 H        4.7960     0.8660    -1.7240 H     1 <1>   0.0800 
 31 H        5.9420    -0.3280     0.0700 H     1 <1>   0.0800 
 32 H        5.3700     0.8290     1.2500 H     1 <1>   0.0800 
@<TRIPOS>BOND
  1   1   2  1   
  2   1   3  1   
  3   2   4  ar  
  4   2   5  ar  
  5   3  15  1   
  6   3  16  1   
  7   3  17  1   
  8   4   6  ar  
  9   4   7  1   
 10   5   8  ar  
 11   5  18  1   
 12   6   9  ar  
 13   6  19  1   
 14   7  10  1   
 15   7  11  1   
 16   7  20  1   
 17   8   9  ar  
 18   8  21  1   
 19   9  22  1   
 20  10  12  1   
 21  10  23  1   
 22  10  24  1   
 23  11  13  1   
 24  11  25  1   
 25  11  26  1   
 26  12  14  1   
 27  12  27  1   
 28  12  28  1   
 29  13  14  1   
 30  13  29  1   
 31  13  30  1   
 32  14  31  1   
 33  14  32  1   
@<TRIPOS>SUBSTRUCTURE
  1 ****   4 GROUP 4 **** **** 0

# MOE 2024.06 (io_trps.svl 2023.06)
