@<TRIPOS>MOLECULE
NONAME
51 51 1 0 0 
SMALL
USER_CHARGES


@<TRIPOS>ATOM
  1 O       -0.0460     0.5990    -0.0990 O.2   1 <1>  -0.5700 
  2 C       -0.0650     1.8160    -0.0100 C.2   1 <1>   0.5410 
  3 C        1.2010     2.5160     0.0400 C.2   1 <1>  -0.1240 
  4 C       -1.3520     2.4770     0.0420 C.2   1 <1>  -0.1240 
  5 C        2.4070     1.8820    -0.0120 C.2   1 <1>  -0.1500 
  6 C        1.1500     4.0380     0.1660 C.3   1 <1>  -0.0220 
  7 C       -2.5380     1.8060    -0.0080 C.2   1 <1>  -0.1500 
  8 C       -1.3480     4.0000     0.1670 C.3   1 <1>  -0.0220 
  9 C        3.7320     2.4100     0.0620 C.2   1 <1>  -0.1500 
 10 C       -0.1090     4.6190    -0.4720 C.3   1 <1>  -0.1600 
 11 C       -3.8790     2.2920     0.0680 C.2   1 <1>  -0.1500 
 12 C        4.8730     1.6880    -0.0550 C.2   1 <1>  -0.1500 
 13 C       -4.9970     1.5340    -0.0470 C.2   1 <1>  -0.1500 
 14 C        6.1990     2.1960     0.0200 C.2   1 <1>  -0.1500 
 15 C       -6.3380     2.0010     0.0300 C.2   1 <1>  -0.1500 
 16 C        7.3360     1.4680    -0.1030 C.2   1 <1>  -0.0500 
 17 C       -7.4520     1.2380    -0.0890 C.2   1 <1>  -0.0500 
 18 N        8.6340     1.9370    -0.0310 N.pl3 1 <1>  -0.8380 
 19 N       -8.7640     1.6670    -0.0160 N.pl3 1 <1>  -0.8380 
 20 C        8.9730     3.3560     0.2600 C.3   1 <1>   0.1290 
 21 C        9.7870     1.0330    -0.2830 C.3   1 <1>   0.1290 
 22 C       -9.8880     0.7280    -0.2640 C.3   1 <1>   0.1290 
 23 C       -9.1460     3.0750     0.2740 C.3   1 <1>   0.1290 
 24 H        2.3940     0.8090    -0.1170 H     1 <1>   0.1500 
 25 H        1.1830     4.3020     1.2090 H     1 <1>   0.0800 
 26 H        1.9980     4.4880    -0.3170 H     1 <1>   0.0800 
 27 H       -2.4910     0.7330    -0.1130 H     1 <1>   0.1500 
 28 H       -2.2100     4.4220    -0.3150 H     1 <1>   0.0800 
 29 H       -1.3880     4.2630     1.2100 H     1 <1>   0.0800 
 30 H        3.8240     3.4660     0.2310 H     1 <1>   0.1500 
 31 H       -0.1060     4.4150    -1.5290 H     1 <1>   0.0800 
 32 H       -0.1250     5.6870    -0.3360 H     1 <1>   0.0800 
 33 H       -4.0030     3.3450     0.2360 H     1 <1>   0.1500 
 34 H        4.8020     0.6260    -0.2220 H     1 <1>   0.1500 
 35 H       -4.8930     0.4760    -0.2130 H     1 <1>   0.1500 
 36 H        6.2710     3.2530     0.1860 H     1 <1>   0.1500 
 37 H       -6.4430     3.0560     0.1950 H     1 <1>   0.1500 
 38 H        7.2420     0.4080    -0.2780 H     1 <1>   0.1500 
 39 H       -7.3260     0.1820    -0.2630 H     1 <1>   0.1500 
 40 H        9.9820     3.4310     0.6280 H     1 <1>   0.0800 
 41 H        8.3090     3.7470     1.0100 H     1 <1>   0.0800 
 42 H        8.8810     3.9400    -0.6380 H     1 <1>   0.0800 
 43 H       10.3730     1.4110    -1.1020 H     1 <1>   0.0800 
 44 H        9.4410     0.0450    -0.5320 H     1 <1>   0.0800 
 45 H       10.4020     0.9740     0.5980 H     1 <1>   0.0800 
 46 H      -10.4880     1.0870    -1.0830 H     1 <1>   0.0800 
 47 H      -10.4990     0.6510     0.6180 H     1 <1>   0.0800 
 48 H       -9.5130    -0.2490    -0.5120 H     1 <1>   0.0800 
 49 H      -10.1560     3.1200     0.6420 H     1 <1>   0.0800 
 50 H       -9.0720     3.6610    -0.6260 H     1 <1>   0.0800 
 51 H       -8.4930     3.4880     1.0220 H     1 <1>   0.0800 
@<TRIPOS>BOND
  1   1   2  2   
  2   2   3  1   
  3   2   4  1   
  4   3   5  2   
  5   3   6  1   
  6   4   7  2   
  7   4   8  1   
  8   5   9  1   
  9   5  24  1   
 10   6  10  1   
 11   6  25  1   
 12   6  26  1   
 13   7  11  1   
 14   7  27  1   
 15   8  10  1   
 16   8  28  1   
 17   8  29  1   
 18   9  12  2   
 19   9  30  1   
 20  10  31  1   
 21  10  32  1   
 22  11  13  2   
 23  11  33  1   
 24  12  14  1   
 25  12  34  1   
 26  13  15  1   
 27  13  35  1   
 28  14  16  2   
 29  14  36  1   
 30  15  17  2   
 31  15  37  1   
 32  16  18  1   
 33  16  38  1   
 34  17  19  1   
 35  17  39  1   
 36  18  20  1   
 37  18  21  1   
 38  19  22  1   
 39  19  23  1   
 40  20  40  1   
 41  20  41  1   
 42  20  42  1   
 43  21  43  1   
 44  21  44  1   
 45  21  45  1   
 46  22  46  1   
 47  22  47  1   
 48  22  48  1   
 49  23  49  1   
 50  23  50  1   
 51  23  51  1   
@<TRIPOS>SUBSTRUCTURE
  1 ****   2 GROUP 4 **** **** 0

# MOE 2024.06 (io_trps.svl 2023.06)
