@<TRIPOS>MOLECULE
NONAME
44 46 1 0 0 
SMALL
USER_CHARGES


@<TRIPOS>ATOM
  1 BR       1.5550    -0.1760    -1.5970 Br    1 <1>  -0.1110 
  2 C        0.5790    -1.6810    -0.9010 C.ar  1 <1>   0.1110 
  3 C       -0.6110    -2.0360    -1.5070 C.ar  1 <1>  -0.1500 
  4 C        1.0900    -2.3640     0.1830 C.ar  1 <1>  -0.1500 
  5 C       -1.3200    -3.1180    -1.0050 C.ar  1 <1>  -0.1440 
  6 C        0.3830    -3.4440     0.6810 C.ar  1 <1>  -0.1500 
  7 C       -0.8240    -3.8250     0.0910 C.ar  1 <1>   0.0830 
  8 C       -2.6300    -3.5280    -1.6510 C.3   1 <1>   0.4870 
  9 O       -1.5650    -4.8730     0.5460 O.3   1 <1>  -0.3630 
 10 N       -3.7070    -3.4270    -0.6360 N.4   1 <1>  -0.9590 
 11 C       -1.0310    -5.7900     1.4830 C.3   1 <1>   0.0400 
 12 C       -4.9950    -4.0570    -1.0930 C.3   1 <1>   0.3430 
 13 C       -3.9170    -2.0140    -0.1540 C.3   1 <1>   0.3430 
 14 C       -6.0920    -4.0100    -0.0070 C.3   1 <1>   0.2090 
 15 C       -4.9970    -1.9180     0.9450 C.3   1 <1>   0.2090 
 16 N       -6.2500    -2.6320     0.5490 N.pl3 1 <1>  -0.8380 
 17 C       -7.4350    -1.9380     0.3150 C.ar  1 <1>   0.1000 
 18 C       -8.6260    -2.4150     0.8540 C.ar  1 <1>  -0.1500 
 19 C       -7.4620    -0.7740    -0.4520 C.ar  1 <1>  -0.1500 
 20 C       -9.8210    -1.7520     0.6340 C.ar  1 <1>  -0.1500 
 21 C       -8.6520    -0.1040    -0.6770 C.ar  1 <1>  -0.1500 
 22 C       -9.8210    -0.6010    -0.1310 C.ar  1 <1>   0.1770 
 23 CL     -11.3260     0.2410    -0.4140 Cl    1 <1>  -0.1770 
 24 H       -0.9540    -1.4680    -2.3540 H     1 <1>   0.1500 
 25 H        2.0230    -2.0560     0.6250 H     1 <1>   0.1500 
 26 H        0.7890    -3.9690     1.5270 H     1 <1>   0.1500 
 27 H       -2.5430    -4.5460    -1.9960 H     1 <1>   0.0800 
 28 H       -2.8470    -2.8940    -2.4950 H     1 <1>   0.0800 
 29 H       -3.3420    -3.9700     0.1650 H     1 <1>   0.4500 
 30 H       -1.7400    -6.5880     1.6200 H     1 <1>   0.0800 
 31 H       -0.8690    -5.2850     2.4190 H     1 <1>   0.0800 
 32 H       -0.1080    -6.1890     1.0990 H     1 <1>   0.0800 
 33 H       -4.8240    -5.0840    -1.3710 H     1 <1>   0.0800 
 34 H       -5.3630    -3.5350    -1.9600 H     1 <1>   0.0800 
 35 H       -4.2220    -1.3940    -0.9800 H     1 <1>   0.0800 
 36 H       -2.9920    -1.6170     0.2330 H     1 <1>   0.0800 
 37 H       -5.8430    -4.6860     0.7920 H     1 <1>   0.0800 
 38 H       -7.0250    -4.3380    -0.4340 H     1 <1>   0.0800 
 39 H       -5.2160    -0.8830     1.1490 H     1 <1>   0.0800 
 40 H       -4.6220    -2.3520     1.8550 H     1 <1>   0.0800 
 41 H       -8.6100    -3.3050     1.4560 H     1 <1>   0.1500 
 42 H       -6.5560    -0.3910    -0.8790 H     1 <1>   0.1500 
 43 H      -10.7430    -2.1170     1.0500 H     1 <1>   0.1500 
 44 H       -8.6830     0.7940    -1.2670 H     1 <1>   0.1500 
@<TRIPOS>BOND
  1   1   2  1   
  2   2   3  ar  
  3   2   4  ar  
  4   3   5  ar  
  5   3  24  1   
  6   4   6  ar  
  7   4  25  1   
  8   5   7  ar  
  9   5   8  1   
 10   6   7  ar  
 11   6  26  1   
 12   7   9  1   
 13   8  10  1   
 14   8  27  1   
 15   8  28  1   
 16   9  11  1   
 17  10  12  1   
 18  10  13  1   
 19  10  29  1   
 20  11  30  1   
 21  11  31  1   
 22  11  32  1   
 23  12  14  1   
 24  12  33  1   
 25  12  34  1   
 26  13  15  1   
 27  13  35  1   
 28  13  36  1   
 29  14  16  1   
 30  14  37  1   
 31  14  38  1   
 32  15  16  1   
 33  15  39  1   
 34  15  40  1   
 35  16  17  1   
 36  17  18  ar  
 37  17  19  ar  
 38  18  20  ar  
 39  18  41  1   
 40  19  21  ar  
 41  19  42  1   
 42  20  22  ar  
 43  20  43  1   
 44  21  22  ar  
 45  21  44  1   
 46  22  23  1   
@<TRIPOS>SUBSTRUCTURE
  1 ****  13 GROUP 4 **** **** 0

# MOE 2024.06 (io_trps.svl 2023.06)
