@<TRIPOS>MOLECULE
NONAME
40 42 1 0 0 
SMALL
USER_CHARGES


@<TRIPOS>ATOM
  1 O       -0.8550     2.2930     2.6370 O.2   1 <1>  -0.5700 
  2 C       -0.2000     2.0510     1.6510 C.2   1 <1>   0.5690 
  3 N       -0.6910     1.4920     0.5060 N.am  1 <1>  -0.5470 
  4 C        1.2950     2.3800     1.6490 C.3   1 <1>   0.1710 
  5 C       -1.9590     1.0430     0.1120 C.ar  1 <1>   0.1170 
  6 N        2.0710     1.6320     0.6120 N.3   1 <1>  -0.8100 
  7 C       -3.1090     1.2320     0.8740 C.ar  1 <1>  -0.1500 
  8 C       -2.0760     0.3760    -1.1020 C.ar  1 <1>  -0.1500 
  9 C        3.3630     2.2880     0.3590 C.3   1 <1>   0.1100 
 10 C        2.2740     0.2290     1.0280 C.3   1 <1>   0.1100 
 11 C       -4.3350     0.7660     0.4360 C.ar  1 <1>  -0.1500 
 12 C       -3.3000    -0.0920    -1.5450 C.ar  1 <1>  -0.1500 
 13 C        4.0740     1.5940    -0.8020 C.3   1 <1>  -0.1600 
 14 C        2.9340    -0.5510    -0.1070 C.3   1 <1>  -0.1600 
 15 C       -4.4330     0.1030    -0.7750 C.ar  1 <1>  -0.1500 
 16 C        4.2500     0.1050    -0.5040 C.3   1 <1>   0.5600 
 17 O        5.1770    -0.0770     0.5180 O.3   1 <1>  -0.5600 
 18 O        4.7770    -0.5570    -1.6020 O.3   1 <1>  -0.5600 
 19 C        6.4250    -0.3050    -0.0320 C.3   1 <1>   0.1200 
 20 C        6.1540    -0.5670    -1.5010 C.3   1 <1>   0.1200 
 21 H        0.0700     1.3320    -0.1620 H     1 <1>   0.3700 
 22 H        1.6990     2.1840     2.6270 H     1 <1>   0.0800 
 23 H        1.3780     3.4360     1.4640 H     1 <1>   0.0800 
 24 H       -3.0530     1.7460     1.8150 H     1 <1>   0.1500 
 25 H       -1.2010     0.2200    -1.7070 H     1 <1>   0.1500 
 26 H        3.9780     2.2470     1.2440 H     1 <1>   0.0800 
 27 H        3.2020     3.3220     0.1020 H     1 <1>   0.0800 
 28 H        1.3290    -0.2310     1.2650 H     1 <1>   0.0800 
 29 H        2.8970     0.1900     1.9070 H     1 <1>   0.0800 
 30 H       -5.2130     0.9200     1.0380 H     1 <1>   0.1500 
 31 H       -3.3730    -0.6060    -2.4870 H     1 <1>   0.1500 
 32 H        5.0280     2.0550    -0.9740 H     1 <1>   0.0800 
 33 H        3.4760     1.7060    -1.6870 H     1 <1>   0.0800 
 34 H        2.2730    -0.5610    -0.9530 H     1 <1>   0.0800 
 35 H        3.1170    -1.5640     0.1980 H     1 <1>   0.0800 
 36 H       -5.3880    -0.2600    -1.1160 H     1 <1>   0.1500 
 37 H        6.8680    -1.1570     0.4520 H     1 <1>   0.0800 
 38 H        7.0390     0.5670     0.1100 H     1 <1>   0.0800 
 39 H        6.5560     0.2130    -2.1230 H     1 <1>   0.0800 
 40 H        6.5250    -1.5260    -1.8190 H     1 <1>   0.0800 
@<TRIPOS>BOND
  1   1   2  2   
  2   2   3  am  
  3   2   4  1   
  4   3   5  1   
  5   3  21  1   
  6   4   6  1   
  7   4  22  1   
  8   4  23  1   
  9   5   7  ar  
 10   5   8  ar  
 11   6   9  1   
 12   6  10  1   
 13   7  11  ar  
 14   7  24  1   
 15   8  12  ar  
 16   8  25  1   
 17   9  13  1   
 18   9  26  1   
 19   9  27  1   
 20  10  14  1   
 21  10  28  1   
 22  10  29  1   
 23  11  15  ar  
 24  11  30  1   
 25  12  15  ar  
 26  12  31  1   
 27  13  16  1   
 28  13  32  1   
 29  13  33  1   
 30  14  16  1   
 31  14  34  1   
 32  14  35  1   
 33  15  36  1   
 34  16  17  1   
 35  16  18  1   
 36  17  19  1   
 37  18  20  1   
 38  19  20  1   
 39  19  37  1   
 40  19  38  1   
 41  20  39  1   
 42  20  40  1   
@<TRIPOS>SUBSTRUCTURE
  1 ****   6 GROUP 4 **** **** 0

# MOE 2024.06 (io_trps.svl 2023.06)
