@<TRIPOS>MOLECULE
NONAME
41 42 1 0 0 
SMALL
USER_CHARGES


@<TRIPOS>ATOM
  1 BR      -0.2010    -0.7740     1.4750 Br    1 <1>  -0.1110 
  2 C        1.3000     0.3200     0.9450 C.ar  1 <1>   0.1110 
  3 C        1.1380     1.7070     0.8300 C.ar  1 <1>   0.0830 
  4 C        2.4990    -0.2980     0.6940 C.ar  1 <1>  -0.1500 
  5 O       -0.0580     2.2790     1.0870 O.3   1 <1>  -0.5330 
  6 C        2.2080     2.4870     0.4520 C.ar  1 <1>  -0.1500 
  7 C        3.5810     0.5040     0.3120 C.ar  1 <1>  -0.1520 
  8 C        3.4490     1.8850     0.1850 C.ar  1 <1>   0.0000 
  9 N        4.8720     0.1510     0.0070 N.pl3 1 <1>   0.0480 
 10 C        4.7210     2.3880    -0.2140 C.2   1 <1>  -0.0860 
 11 C        5.5510     1.2920    -0.2930 C.2   1 <1>  -0.3320 
 12 C        5.3260    -1.2560    -0.0550 C.3   1 <1>   0.0160 
 13 C        5.0450     3.7710    -0.4700 C.2   1 <1>   0.8060 
 14 C        7.0160     1.3100    -0.6880 C.3   1 <1>   0.5230 
 15 O        6.1990     4.1430    -0.5830 O.2   1 <1>  -0.5700 
 16 O        4.0600     4.6650    -0.5840 O.3   1 <1>  -0.4300 
 17 N        7.8170     1.1920     0.5560 N.4   1 <1>  -0.9590 
 18 C        4.2830     6.0420    -0.8130 C.3   1 <1>   0.1200 
 19 C        7.7490     2.4590     1.3490 C.3   1 <1>   0.2630 
 20 C        9.2360     0.8380     0.2560 C.3   1 <1>   0.2630 
 21 C        4.5240     6.7340     0.5270 C.3   1 <1>  -0.2400 
 22 H        2.5920    -1.3640     0.7910 H     1 <1>   0.1500 
 23 H       -0.0560     3.2430     0.9570 H     1 <1>   0.4500 
 24 H        2.0960     3.5500     0.3620 H     1 <1>   0.1500 
 25 H        4.6980    -1.7970    -0.7410 H     1 <1>   0.0800 
 26 H        5.2420    -1.7000     0.9210 H     1 <1>   0.0800 
 27 H        6.3440    -1.3160    -0.3910 H     1 <1>   0.0800 
 28 H        7.2620     2.2250    -1.2030 H     1 <1>   0.0800 
 29 H        7.2200     0.4850    -1.3510 H     1 <1>   0.0800 
 30 H        7.3750     0.4520     1.1160 H     1 <1>   0.4500 
 31 H        3.4000     6.4400    -1.2840 H     1 <1>   0.0800 
 32 H        5.1190     6.1660    -1.4810 H     1 <1>   0.0800 
 33 H        8.1300     3.2860     0.7710 H     1 <1>   0.0800 
 34 H        8.3290     2.3710     2.2540 H     1 <1>   0.0800 
 35 H        6.7280     2.6770     1.6180 H     1 <1>   0.0800 
 36 H        9.6980     1.6130    -0.3340 H     1 <1>   0.0800 
 37 H        9.2860    -0.0900    -0.2920 H     1 <1>   0.0800 
 38 H        9.7940     0.7250     1.1710 H     1 <1>   0.0800 
 39 H        3.6840     6.5860     1.1820 H     1 <1>   0.0800 
 40 H        4.6480     7.7900     0.3680 H     1 <1>   0.0800 
 41 H        5.4180     6.3580     0.9920 H     1 <1>   0.0800 
@<TRIPOS>BOND
  1   1   2  1   
  2   2   3  ar  
  3   2   4  ar  
  4   3   5  1   
  5   3   6  ar  
  6   4   7  ar  
  7   4  22  1   
  8   5  23  1   
  9   6   8  ar  
 10   6  24  1   
 11   7   8  ar  
 12   7   9  1   
 13   8  10  1   
 14   9  11  1   
 15   9  12  1   
 16  10  11  2   
 17  10  13  1   
 18  11  14  1   
 19  12  25  1   
 20  12  26  1   
 21  12  27  1   
 22  13  15  2   
 23  13  16  1   
 24  14  17  1   
 25  14  28  1   
 26  14  29  1   
 27  16  18  1   
 28  17  19  1   
 29  17  20  1   
 30  17  30  1   
 31  18  21  1   
 32  18  31  1   
 33  18  32  1   
 34  19  33  1   
 35  19  34  1   
 36  19  35  1   
 37  20  36  1   
 38  20  37  1   
 39  20  38  1   
 40  21  39  1   
 41  21  40  1   
 42  21  41  1   
@<TRIPOS>SUBSTRUCTURE
  1 ****  10 GROUP 4 **** **** 0

# MOE 2024.06 (io_trps.svl 2023.06)
