@<TRIPOS>MOLECULE
NONAME
38 39 1 0 0 
SMALL
USER_CHARGES


@<TRIPOS>ATOM
  1 CL       0.4970     2.3970     2.8600 Cl    1 <1>  -0.1770 
  2 C        1.0030     2.7670     1.2240 C.ar  1 <1>   0.1770 
  3 C        0.0360     3.0730     0.2640 C.ar  1 <1>   0.1170 
  4 C        2.3530     2.7430     0.9350 C.ar  1 <1>  -0.1500 
  5 N       -1.3230     3.0770     0.6400 N.am  1 <1>  -0.5470 
  6 C        0.4780     3.3520    -1.0290 C.ar  1 <1>  -0.1500 
  7 C        2.7520     3.0300    -0.3550 C.ar  1 <1>   0.1770 
  8 C       -2.4520     3.5210     0.0060 C.2   1 <1>   0.5690 
  9 C        1.8290     3.3330    -1.3390 C.ar  1 <1>  -0.1500 
 10 CL       4.4520     3.0070    -0.7500 Cl    1 <1>  -0.1770 
 11 O       -2.4460     4.0260    -1.0890 O.2   1 <1>  -0.5700 
 12 C       -3.7890     3.3680     0.7400 C.3   1 <1>  -0.0190 
 13 C       -4.6720     2.3360     0.0010 C.3   1 <1>  -0.1600 
 14 C       -4.4670     4.7390     0.9140 C.3   1 <1>  -0.2400 
 15 C       -6.0160     1.9910     0.6860 C.3   1 <1>  -0.0190 
 16 C       -6.6100     0.6860     0.1930 C.2   1 <1>   0.6590 
 17 C       -7.1510     2.9780     0.3790 C.3   1 <1>  -0.1600 
 18 O       -6.0170    -0.3560     0.1160 O.2   1 <1>  -0.5700 
 19 O       -7.8820     0.8220    -0.1230 O.3   1 <1>  -0.4300 
 20 C       -8.3870     2.0960     0.1650 C.3   1 <1>   0.2000 
 21 C       -9.2740     2.5450    -0.9930 C.3   1 <1>  -0.2400 
 22 H        3.0770     2.5060     1.6930 H     1 <1>   0.1500 
 23 H       -1.4780     2.7160     1.5820 H     1 <1>   0.3700 
 24 H       -0.2250     3.5850    -1.8080 H     1 <1>   0.1500 
 25 H        2.1650     3.5510    -2.3370 H     1 <1>   0.1500 
 26 H       -3.5840     2.9830     1.7230 H     1 <1>   0.0800 
 27 H       -4.0970     1.4280    -0.0750 H     1 <1>   0.0800 
 28 H       -4.8500     2.6660    -1.0090 H     1 <1>   0.0800 
 29 H       -4.8160     5.1090    -0.0350 H     1 <1>   0.0800 
 30 H       -3.7610     5.4490     1.3090 H     1 <1>   0.0800 
 31 H       -5.2910     4.6800     1.5990 H     1 <1>   0.0800 
 32 H       -5.8830     1.8910     1.7480 H     1 <1>   0.0800 
 33 H       -6.9430     3.5330    -0.5190 H     1 <1>   0.0800 
 34 H       -7.3190     3.6730     1.1810 H     1 <1>   0.0800 
 35 H       -8.9580     2.0160     1.0750 H     1 <1>   0.0800 
 36 H       -8.7160     2.5600    -1.9130 H     1 <1>   0.0800 
 37 H       -9.6550     3.5320    -0.8030 H     1 <1>   0.0800 
 38 H      -10.1070     1.8730    -1.0960 H     1 <1>   0.0800 
@<TRIPOS>BOND
  1   1   2  1   
  2   2   3  ar  
  3   2   4  ar  
  4   3   5  1   
  5   3   6  ar  
  6   4   7  ar  
  7   4  22  1   
  8   5   8  am  
  9   5  23  1   
 10   6   9  ar  
 11   6  24  1   
 12   7   9  ar  
 13   7  10  1   
 14   8  11  2   
 15   8  12  1   
 16   9  25  1   
 17  12  13  1   
 18  12  14  1   
 19  12  26  1   
 20  13  15  1   
 21  13  27  1   
 22  13  28  1   
 23  14  29  1   
 24  14  30  1   
 25  14  31  1   
 26  15  16  1   
 27  15  17  1   
 28  15  32  1   
 29  16  18  2   
 30  16  19  1   
 31  17  20  1   
 32  17  33  1   
 33  17  34  1   
 34  19  20  1   
 35  20  21  1   
 36  20  35  1   
 37  21  36  1   
 38  21  37  1   
 39  21  38  1   
@<TRIPOS>SUBSTRUCTURE
  1 ****   8 GROUP 4 **** **** 0

# MOE 2024.06 (io_trps.svl 2023.06)
