@<TRIPOS>MOLECULE
NONAME
45 47 1 0 0 
SMALL
USER_CHARGES


@<TRIPOS>ATOM
  1 O       -0.8140    -0.4650     0.3250 O.2   1 <1>  -0.5700 
  2 C       -1.1950    -1.6190     0.2560 C.2   1 <1>   0.6900 
  3 N       -2.4310    -1.9680     0.7330 N.am  1 <1>  -0.6600 
  4 N       -0.4000    -2.5990    -0.2630 N.am  1 <1>  -0.5470 
  5 C       -3.2700    -3.0550     0.1300 C.3   1 <1>   0.1400 
  6 C       -3.2190    -1.0220     1.5860 C.3   1 <1>   0.1400 
  7 C        0.8280    -2.5380    -0.9420 C.ar  1 <1>   0.1170 
  8 C       -4.4970    -2.4790    -0.6010 C.3   1 <1>   0.2090 
  9 C       -4.4290    -0.4570     0.8240 C.3   1 <1>   0.2090 
 10 C        1.7340    -3.6030    -0.8590 C.ar  1 <1>  -0.1440 
 11 C        1.1480    -1.4360    -1.7280 C.ar  1 <1>  -0.1500 
 12 N       -5.2770    -1.5610     0.2830 N.pl3 1 <1>  -0.8380 
 13 C        2.9280    -3.5300    -1.5680 C.ar  1 <1>  -0.1500 
 14 C        1.3890    -4.8160     0.0160 C.3   1 <1>  -0.0170 
 15 C        2.3390    -1.3740    -2.4240 C.ar  1 <1>  -0.1500 
 16 C       -6.5680    -1.2360    -0.0880 C.ar  1 <1>   0.4100 
 17 C        3.2310    -2.4260    -2.3440 C.ar  1 <1>  -0.1500 
 18 C        2.4880    -5.8760     0.1620 C.3   1 <1>  -0.2400 
 19 N       -6.8540    -1.2510    -1.3860 N.ar  1 <1>  -0.6200 
 20 C       -7.5010    -0.9060     0.8920 C.ar  1 <1>  -0.1500 
 21 C       -8.0940    -0.9240    -1.7090 C.ar  1 <1>   0.1600 
 22 C       -8.7870    -0.5670     0.5420 C.ar  1 <1>  -0.1500 
 23 C       -9.0830    -0.5780    -0.8060 C.ar  1 <1>  -0.1500 
 24 H       -0.6910    -3.5240     0.0240 H     1 <1>   0.3700 
 25 H       -3.6100    -3.7100     0.9120 H     1 <1>   0.0800 
 26 H       -2.6990    -3.6360    -0.5700 H     1 <1>   0.0800 
 27 H       -2.5980    -0.2080     1.9200 H     1 <1>   0.0800 
 28 H       -3.5680    -1.5450     2.4580 H     1 <1>   0.0800 
 29 H       -5.1320    -3.2860    -0.9250 H     1 <1>   0.0800 
 30 H       -4.1730    -1.9410    -1.4750 H     1 <1>   0.0800 
 31 H       -4.0800     0.1560     0.0100 H     1 <1>   0.0800 
 32 H       -5.0090     0.1630     1.4840 H     1 <1>   0.0800 
 33 H        0.4580    -0.6150    -1.7990 H     1 <1>   0.1500 
 34 H        3.6500    -4.3240    -1.5330 H     1 <1>   0.1500 
 35 H        0.5150    -5.2930    -0.3910 H     1 <1>   0.0800 
 36 H        1.1430    -4.4630     1.0030 H     1 <1>   0.0800 
 37 H        2.5690    -0.5110    -3.0240 H     1 <1>   0.1500 
 38 H        4.1600    -2.3840    -2.8850 H     1 <1>   0.1500 
 39 H        2.7190    -6.3160    -0.7920 H     1 <1>   0.0800 
 40 H        2.1560    -6.6580     0.8220 H     1 <1>   0.0800 
 41 H        3.3780    -5.4380     0.5780 H     1 <1>   0.0800 
 42 H       -7.1990    -0.9280     1.9210 H     1 <1>   0.1500 
 43 H       -8.3350    -0.9310    -2.7580 H     1 <1>   0.1500 
 44 H       -9.5270    -0.3080     1.2800 H     1 <1>   0.1500 
 45 H      -10.0680    -0.3240    -1.1510 H     1 <1>   0.1500 
@<TRIPOS>BOND
  1   1   2  2   
  2   2   3  am  
  3   2   4  am  
  4   3   5  1   
  5   3   6  1   
  6   4   7  1   
  7   4  24  1   
  8   5   8  1   
  9   5  25  1   
 10   5  26  1   
 11   6   9  1   
 12   6  27  1   
 13   6  28  1   
 14   7  10  ar  
 15   7  11  ar  
 16   8  12  1   
 17   8  29  1   
 18   8  30  1   
 19   9  12  1   
 20   9  31  1   
 21   9  32  1   
 22  10  13  ar  
 23  10  14  1   
 24  11  15  ar  
 25  11  33  1   
 26  12  16  1   
 27  13  17  ar  
 28  13  34  1   
 29  14  18  1   
 30  14  35  1   
 31  14  36  1   
 32  15  17  ar  
 33  15  37  1   
 34  16  19  ar  
 35  16  20  ar  
 36  17  38  1   
 37  18  39  1   
 38  18  40  1   
 39  18  41  1   
 40  19  21  ar  
 41  20  22  ar  
 42  20  42  1   
 43  21  23  ar  
 44  21  43  1   
 45  22  23  ar  
 46  22  44  1   
 47  23  45  1   
@<TRIPOS>SUBSTRUCTURE
  1 ****   3 GROUP 4 **** **** 0

# MOE 2024.06 (io_trps.svl 2023.06)
