@<TRIPOS>MOLECULE
NONAME
37 38 1 0 0 
SMALL
USER_CHARGES


@<TRIPOS>ATOM
  1 O       -0.5040    -0.1980    -1.4800 O.2   1 <1>  -0.5700 
  2 C       -0.9010    -1.1180    -0.7920 C.2   1 <1>   0.5440 
  3 N        0.0200    -1.9370    -0.2000 N.am  1 <1>  -0.7300 
  4 C       -2.3220    -1.3340    -0.5880 C.ar  1 <1>   0.0860 
  5 C        1.4830    -1.8230    -0.3280 C.3   1 <1>   0.2200 
  6 C       -3.2230    -0.2700    -0.6490 C.ar  1 <1>  -0.1500 
  7 C       -2.8510    -2.6010    -0.3260 C.ar  1 <1>  -0.1500 
  8 C        2.0500    -3.1910    -0.6870 C.3   1 <1>  -0.1600 
  9 C        2.0750    -1.5480     1.0480 C.3   1 <1>  -0.1600 
 10 C       -4.5780    -0.4550    -0.4470 C.ar  1 <1>  -0.1500 
 11 C       -4.2060    -2.7960    -0.1220 C.ar  1 <1>  -0.1500 
 12 C        2.1450    -3.9650     0.6340 C.3   1 <1>  -0.1600 
 13 C        2.1590    -2.9100     1.7480 C.3   1 <1>  -0.1600 
 14 C       -5.0830    -1.7170    -0.1800 C.ar  1 <1>   0.0820 
 15 O       -6.4180    -1.8140     0.0060 O.3   1 <1>  -0.3630 
 16 C       -7.0450    -3.0490     0.2630 C.3   1 <1>   0.2580 
 17 C       -8.5330    -2.7980     0.4110 C.2   1 <1>  -0.2880 
 18 C       -9.2730    -3.1180     1.4780 C.2   1 <1>  -0.3000 
 19 H       -0.2830    -2.6310     0.4810 H     1 <1>   0.3700 
 20 H        1.7500    -1.0670    -1.0490 H     1 <1>   0.0800 
 21 H       -2.8470     0.7170    -0.8590 H     1 <1>   0.1500 
 22 H       -2.1920    -3.4490    -0.2900 H     1 <1>   0.1500 
 23 H        3.0420    -3.0520    -1.0810 H     1 <1>   0.0800 
 24 H        1.4560    -3.6960    -1.4270 H     1 <1>   0.0800 
 25 H        1.4990    -0.8270     1.6010 H     1 <1>   0.0800 
 26 H        3.0700    -1.1610     0.9170 H     1 <1>   0.0800 
 27 H       -5.2550     0.3790    -0.4960 H     1 <1>   0.1500 
 28 H       -4.5590    -3.7900     0.0760 H     1 <1>   0.1500 
 29 H        3.0330    -4.5730     0.6570 H     1 <1>   0.0800 
 30 H        1.2850    -4.6020     0.7480 H     1 <1>   0.0800 
 31 H        1.3050    -3.0460     2.3890 H     1 <1>   0.0800 
 32 H        3.0530    -2.9790     2.3440 H     1 <1>   0.0800 
 33 H       -6.6340    -3.4590     1.1690 H     1 <1>   0.0800 
 34 H       -6.8550    -3.7060    -0.5670 H     1 <1>   0.0800 
 35 H       -8.9470    -2.3170    -0.4590 H     1 <1>   0.1500 
 36 H      -10.3300    -2.9240     1.5530 H     1 <1>   0.1500 
 37 H       -8.8920    -3.5950     2.3640 H     1 <1>   0.1500 
@<TRIPOS>BOND
  1   1   2  2   
  2   2   3  am  
  3   2   4  1   
  4   3   5  1   
  5   3  19  1   
  6   4   6  ar  
  7   4   7  ar  
  8   5   8  1   
  9   5   9  1   
 10   5  20  1   
 11   6  10  ar  
 12   6  21  1   
 13   7  11  ar  
 14   7  22  1   
 15   8  12  1   
 16   8  23  1   
 17   8  24  1   
 18   9  13  1   
 19   9  25  1   
 20   9  26  1   
 21  10  14  ar  
 22  10  27  1   
 23  11  14  ar  
 24  11  28  1   
 25  12  13  1   
 26  12  29  1   
 27  12  30  1   
 28  13  31  1   
 29  13  32  1   
 30  14  15  1   
 31  15  16  1   
 32  16  17  1   
 33  16  33  1   
 34  16  34  1   
 35  17  18  2   
 36  17  35  1   
 37  18  36  1   
 38  18  37  1   
@<TRIPOS>SUBSTRUCTURE
  1 ****   7 GROUP 4 **** **** 0

# MOE 2024.06 (io_trps.svl 2023.06)
