@<TRIPOS>MOLECULE
NONAME
44 46 1 0 0 
SMALL
USER_CHARGES


@<TRIPOS>ATOM
  1 O        0.9580    -8.1380    -0.5980 O.3   1 <1>  -0.3630 
  2 C        1.7640    -9.2270    -0.5310 C.ar  1 <1>   0.0830 
  3 C       -0.4450    -8.2410    -0.5330 C.3   1 <1>   0.1200 
  4 C        3.1100    -9.0190    -0.2060 C.ar  1 <1>   0.0000 
  5 C        1.2890   -10.5150    -0.7660 C.ar  1 <1>  -0.1500 
  6 C       -1.0020    -6.8210    -0.4080 C.3   1 <1>   0.1100 
  7 C        3.6470    -7.7000     0.0480 C.ar  1 <1>   0.0000 
  8 C        3.9460   -10.1290    -0.1220 C.ar  1 <1>  -0.1500 
  9 C        2.1410   -11.6010    -0.6740 C.ar  1 <1>  -0.1500 
 10 N       -2.4740    -6.8150    -0.2460 N.3   1 <1>  -0.8100 
 11 C        4.1580    -7.3660     1.3000 C.ar  1 <1>  -0.1500 
 12 C        3.6750    -6.7280    -0.9480 C.ar  1 <1>  -0.1500 
 13 C        3.4720   -11.4060    -0.3510 C.ar  1 <1>  -0.1500 
 14 C       -3.0290    -5.5020    -0.6340 C.3   1 <1>   0.1100 
 15 C       -2.8800    -7.1900     1.1270 C.3   1 <1>   0.1100 
 16 C        4.6790    -6.1090     1.5480 C.ar  1 <1>  -0.1500 
 17 C        4.1950    -5.4690    -0.7070 C.ar  1 <1>  -0.1500 
 18 C       -4.5660    -5.4810    -0.5100 C.3   1 <1>   0.3430 
 19 C       -4.4150    -7.1910     1.2790 C.3   1 <1>   0.3430 
 20 C        4.6990    -5.1570     0.5440 C.ar  1 <1>  -0.1500 
 21 N       -5.0110    -5.8760     0.8670 N.4   1 <1>  -0.9060 
 22 H       -0.6910    -8.8370     0.3250 H     1 <1>   0.0800 
 23 H       -0.7950    -8.7040    -1.4380 H     1 <1>   0.0800 
 24 H        0.2640   -10.6920    -1.0270 H     1 <1>   0.1500 
 25 H       -0.7370    -6.2940    -1.3090 H     1 <1>   0.0800 
 26 H       -0.5350    -6.3220     0.4250 H     1 <1>   0.0800 
 27 H        4.9830    -9.9820     0.1240 H     1 <1>   0.1500 
 28 H        1.7720   -12.5950    -0.8560 H     1 <1>   0.1500 
 29 H        4.1410    -8.1010     2.0840 H     1 <1>   0.1500 
 30 H        3.2820    -6.9700    -1.9190 H     1 <1>   0.1500 
 31 H        4.1370   -12.2490    -0.2800 H     1 <1>   0.1500 
 32 H       -2.7660    -5.2970    -1.6580 H     1 <1>   0.0800 
 33 H       -2.6010    -4.7250    -0.0220 H     1 <1>   0.0800 
 34 H       -2.4440    -6.5100     1.8400 H     1 <1>   0.0800 
 35 H       -2.5180    -8.1780     1.3530 H     1 <1>   0.0800 
 36 H        5.0680    -5.8700     2.5220 H     1 <1>   0.1500 
 37 H        4.2080    -4.7330    -1.4910 H     1 <1>   0.1500 
 38 H       -4.9710    -6.1690    -1.2340 H     1 <1>   0.0800 
 39 H       -4.9300    -4.4950    -0.7490 H     1 <1>   0.0800 
 40 H       -4.6730    -7.4090     2.3030 H     1 <1>   0.0800 
 41 H       -4.8140    -7.9780     0.6610 H     1 <1>   0.0800 
 42 H        5.1040    -4.1790     0.7340 H     1 <1>   0.1500 
 43 H       -6.0360    -5.9280     0.9040 H     1 <1>   0.4500 
 44 H       -4.7110    -5.1540     1.5310 H     1 <1>   0.4500 
@<TRIPOS>BOND
  1   1   2  1   
  2   1   3  1   
  3   2   4  ar  
  4   2   5  ar  
  5   3   6  1   
  6   3  22  1   
  7   3  23  1   
  8   4   7  1   
  9   4   8  ar  
 10   5   9  ar  
 11   5  24  1   
 12   6  10  1   
 13   6  25  1   
 14   6  26  1   
 15   7  11  ar  
 16   7  12  ar  
 17   8  13  ar  
 18   8  27  1   
 19   9  13  ar  
 20   9  28  1   
 21  10  14  1   
 22  10  15  1   
 23  11  16  ar  
 24  11  29  1   
 25  12  17  ar  
 26  12  30  1   
 27  13  31  1   
 28  14  18  1   
 29  14  32  1   
 30  14  33  1   
 31  15  19  1   
 32  15  34  1   
 33  15  35  1   
 34  16  20  ar  
 35  16  36  1   
 36  17  20  ar  
 37  17  37  1   
 38  18  21  1   
 39  18  38  1   
 40  18  39  1   
 41  19  21  1   
 42  19  40  1   
 43  19  41  1   
 44  20  42  1   
 45  21  43  1   
 46  21  44  1   
@<TRIPOS>SUBSTRUCTURE
  1 ****   1 GROUP 4 **** **** 0

# MOE 2024.06 (io_trps.svl 2023.06)
