@<TRIPOS>MOLECULE
NONAME
40 42 1 0 0 
SMALL
USER_CHARGES


@<TRIPOS>ATOM
  1 S        1.8840     1.8120     1.4100 S.3   1 <1>  -0.0800 
  2 C        2.0890     1.3860    -0.2900 C.2   1 <1>   0.4420 
  3 C        0.2010     2.1770     1.1100 C.ar  1 <1>   0.0400 
  4 N        1.0250     1.5030    -0.9890 N.2   1 <1>  -0.5650 
  5 N        3.3520     0.9810    -0.6520 N.am  1 <1>  -0.4940 
  6 C       -0.0470     1.9450    -0.2290 C.ar  1 <1>   0.2270 
  7 C       -0.7590     2.6190     2.0010 C.ar  1 <1>  -0.1500 
  8 C        3.8540     0.6320    -1.8760 C.2   1 <1>   0.5690 
  9 C       -1.3320     2.1690    -0.7040 C.ar  1 <1>  -0.1500 
 10 C       -2.0360     2.8370     1.5100 C.ar  1 <1>  -0.1500 
 11 O        3.2170     0.6700    -2.8970 O.2   1 <1>  -0.5700 
 12 C        5.2970     0.1600    -1.9610 C.3   1 <1>   0.1310 
 13 C       -2.3180     2.6130     0.1640 C.ar  1 <1>  -0.1500 
 14 S        6.2790     0.6620    -0.4600 S.3   1 <1>  -0.2860 
 15 C        7.8750    -0.1050    -0.7690 C.2   1 <1>   0.2430 
 16 N        8.1130    -0.8410    -1.7940 N.2   1 <1>  -0.3380 
 17 N        8.9220     0.0370     0.0450 N.pl3 1 <1>   0.0480 
 18 N        9.3870    -1.2240    -1.6750 N.2   1 <1>  -0.3380 
 19 C        9.8500    -0.6990    -0.5870 C.2   1 <1>   0.0060 
 20 C        9.0170     0.8150     1.3000 C.3   1 <1>   0.0960 
 21 C       11.2760    -0.9020    -0.1010 C.3   1 <1>   0.0200 
 22 C        9.4290     2.2620     1.0090 C.3   1 <1>  -0.2400 
 23 C       11.3530    -2.0180     0.9450 C.3   1 <1>  -0.2400 
 24 H        4.0280     0.9540     0.1080 H     1 <1>   0.3700 
 25 H       -0.5160     2.7850     3.0360 H     1 <1>   0.1500 
 26 H       -1.5380     1.9930    -1.7440 H     1 <1>   0.1500 
 27 H       -2.8150     3.1810     2.1680 H     1 <1>   0.1500 
 28 H        5.7830     0.5910    -2.8170 H     1 <1>   0.0800 
 29 H        5.3350    -0.9110    -2.0260 H     1 <1>   0.0800 
 30 H       -3.3140     2.7860    -0.2060 H     1 <1>   0.1500 
 31 H        9.7380     0.3520     1.9470 H     1 <1>   0.0800 
 32 H        8.0620     0.7970     1.7950 H     1 <1>   0.0800 
 33 H       11.6630     0.0150     0.3040 H     1 <1>   0.0800 
 34 H       11.8910    -1.1710    -0.9440 H     1 <1>   0.0800 
 35 H       10.3890     2.2920     0.5240 H     1 <1>   0.0800 
 36 H        9.4950     2.8130     1.9300 H     1 <1>   0.0800 
 37 H        8.6990     2.7400     0.3800 H     1 <1>   0.0800 
 38 H       10.7600    -1.7760     1.8090 H     1 <1>   0.0800 
 39 H       12.3720    -2.1660     1.2540 H     1 <1>   0.0800 
 40 H       10.9850    -2.9380     0.5240 H     1 <1>   0.0800 
@<TRIPOS>BOND
  1   1   2  1   
  2   1   3  1   
  3   2   4  2   
  4   2   5  1   
  5   3   6  ar  
  6   3   7  ar  
  7   4   6  1   
  8   5   8  am  
  9   5  24  1   
 10   6   9  ar  
 11   7  10  ar  
 12   7  25  1   
 13   8  11  2   
 14   8  12  1   
 15   9  13  ar  
 16   9  26  1   
 17  10  13  ar  
 18  10  27  1   
 19  12  14  1   
 20  12  28  1   
 21  12  29  1   
 22  13  30  1   
 23  14  15  1   
 24  15  16  2   
 25  15  17  1   
 26  16  18  1   
 27  17  19  1   
 28  17  20  1   
 29  18  19  2   
 30  19  21  1   
 31  20  22  1   
 32  20  31  1   
 33  20  32  1   
 34  21  23  1   
 35  21  33  1   
 36  21  34  1   
 37  22  35  1   
 38  22  36  1   
 39  22  37  1   
 40  23  38  1   
 41  23  39  1   
 42  23  40  1   
@<TRIPOS>SUBSTRUCTURE
  1 ****   5 GROUP 4 **** **** 0

# MOE 2024.06 (io_trps.svl 2023.06)
