@<TRIPOS>MOLECULE
NONAME
51 52 1 0 0 
SMALL
USER_CHARGES


@<TRIPOS>ATOM
  1 O        0.1750    -0.0490    -0.8760 O.2   1 <1>  -0.5700 
  2 C        0.5990    -1.0920    -0.4210 C.2   1 <1>   0.5440 
  3 N       -0.2750    -2.0600     0.0200 N.am  1 <1>  -0.5470 
  4 C        2.0280    -1.3220    -0.3330 C.ar  1 <1>   0.0860 
  5 C       -1.6800    -2.0850     0.0580 C.ar  1 <1>   0.1170 
  6 C        2.5830    -2.5980    -0.4210 C.ar  1 <1>  -0.1500 
  7 C        2.9140    -0.2610    -0.1540 C.ar  1 <1>  -0.1500 
  8 C       -2.3310    -3.3070    -0.0480 C.ar  1 <1>  -0.1500 
  9 C       -2.4480    -0.9390     0.2210 C.ar  1 <1>  -0.1500 
 10 C        3.9430    -2.8260    -0.3160 C.ar  1 <1>   0.0830 
 11 C        4.2770    -0.4610    -0.0420 C.ar  1 <1>  -0.1500 
 12 C       -3.7180    -3.3870     0.0040 C.ar  1 <1>   0.0830 
 13 C       -3.8270    -1.0080     0.2760 C.ar  1 <1>  -0.1500 
 14 O        4.3030    -4.1360    -0.4280 O.3   1 <1>  -0.3630 
 15 C        4.8160    -1.7440    -0.1090 C.ar  1 <1>   0.0830 
 16 O       -4.3980    -4.5700    -0.1060 O.3   1 <1>  -0.3630 
 17 C       -4.4840    -2.2280     0.1720 C.ar  1 <1>   0.1170 
 18 C        5.5720    -4.5230    -0.9090 C.3   1 <1>   0.0400 
 19 O        6.1530    -1.9560     0.0370 O.3   1 <1>  -0.3630 
 20 C       -3.7220    -5.7870    -0.3440 C.3   1 <1>   0.0400 
 21 N       -5.8870    -2.3630     0.2220 N.am  1 <1>  -0.5470 
 22 C        7.0650    -0.9180     0.3220 C.3   1 <1>   0.0400 
 23 C       -6.9060    -1.4890     0.4750 C.2   1 <1>   0.5690 
 24 O       -6.7390    -0.3210     0.7350 O.2   1 <1>  -0.5700 
 25 C       -8.3360    -2.0410     0.4280 C.3   1 <1>  -0.0190 
 26 C       -9.1830    -1.3260    -0.6380 C.3   1 <1>  -0.2400 
 27 C       -9.0230    -1.9420     1.7990 C.3   1 <1>  -0.2400 
 28 H        0.1740    -2.8980     0.3830 H     1 <1>   0.3700 
 29 H        1.9490    -3.4480    -0.5890 H     1 <1>   0.1500 
 30 H        2.5180     0.7400    -0.1010 H     1 <1>   0.1500 
 31 H       -1.7320    -4.1860    -0.1760 H     1 <1>   0.1500 
 32 H       -1.9690     0.0200     0.3090 H     1 <1>   0.1500 
 33 H        4.9000     0.4010     0.0990 H     1 <1>   0.1500 
 34 H       -4.3850    -0.0990     0.3980 H     1 <1>   0.1500 
 35 H        5.5180    -5.5530    -1.2080 H     1 <1>   0.0800 
 36 H        6.2920    -4.4120    -0.1180 H     1 <1>   0.0800 
 37 H        5.8310    -3.9060    -1.7520 H     1 <1>   0.0800 
 38 H       -4.4570    -6.5680    -0.4200 H     1 <1>   0.0800 
 39 H       -3.0610    -5.9880     0.4810 H     1 <1>   0.0800 
 40 H       -3.1770    -5.7090    -1.2680 H     1 <1>   0.0800 
 41 H       -6.1670    -3.3300     0.0600 H     1 <1>   0.3700 
 42 H        8.0440    -1.3510     0.4190 H     1 <1>   0.0800 
 43 H        6.7820    -0.4470     1.2460 H     1 <1>   0.0800 
 44 H        7.0570    -0.2130    -0.4910 H     1 <1>   0.0800 
 45 H       -8.2880    -3.0820     0.1600 H     1 <1>   0.0800 
 46 H       -9.2740    -0.2800    -0.4000 H     1 <1>   0.0800 
 47 H      -10.1670    -1.7560    -0.6920 H     1 <1>   0.0800 
 48 H       -8.7140    -1.4140    -1.6030 H     1 <1>   0.0800 
 49 H       -9.1070    -0.9120     2.1000 H     1 <1>   0.0800 
 50 H       -8.4460    -2.4650     2.5410 H     1 <1>   0.0800 
 51 H      -10.0080    -2.3730     1.7620 H     1 <1>   0.0800 
@<TRIPOS>BOND
  1   1   2  2   
  2   2   3  am  
  3   2   4  1   
  4   3   5  1   
  5   3  28  1   
  6   4   6  ar  
  7   4   7  ar  
  8   5   8  ar  
  9   5   9  ar  
 10   6  10  ar  
 11   6  29  1   
 12   7  11  ar  
 13   7  30  1   
 14   8  12  ar  
 15   8  31  1   
 16   9  13  ar  
 17   9  32  1   
 18  10  14  1   
 19  10  15  ar  
 20  11  15  ar  
 21  11  33  1   
 22  12  16  1   
 23  12  17  ar  
 24  13  17  ar  
 25  13  34  1   
 26  14  18  1   
 27  15  19  1   
 28  16  20  1   
 29  17  21  1   
 30  18  35  1   
 31  18  36  1   
 32  18  37  1   
 33  19  22  1   
 34  20  38  1   
 35  20  39  1   
 36  20  40  1   
 37  21  23  am  
 38  21  41  1   
 39  22  42  1   
 40  22  43  1   
 41  22  44  1   
 42  23  24  2   
 43  23  25  1   
 44  25  26  1   
 45  25  27  1   
 46  25  45  1   
 47  26  46  1   
 48  26  47  1   
 49  26  48  1   
 50  27  49  1   
 51  27  50  1   
 52  27  51  1   
@<TRIPOS>SUBSTRUCTURE
  1 ****   5 GROUP 4 **** **** 0

# MOE 2024.06 (io_trps.svl 2023.06)
