@<TRIPOS>MOLECULE
NONAME
48 48 1 0 0 
SMALL
USER_CHARGES


@<TRIPOS>ATOM
  1 N        0.1390     0.0150    -0.3200 N.4   1 <1>  -0.9590 
  2 C        1.4320     0.7690    -0.1090 C.3   1 <1>   0.3430 
  3 C       -0.9020     0.9470    -0.8510 C.3   1 <1>   0.3430 
  4 C       -0.3720    -0.6720     0.9060 C.3   1 <1>   0.3430 
  5 C        2.6690    -0.1140     0.2310 C.3   1 <1>   0.3430 
  6 C       -1.9820     0.1440    -1.5690 C.3   1 <1>  -0.2400 
  7 C       -0.0030    -2.1480     0.8390 C.3   1 <1>  -0.2400 
  8 N        3.9730     0.6400     0.3050 N.4   1 <1>  -0.9590 
  9 C        5.1340    -0.3000     0.4220 C.3   1 <1>   0.4860 
 10 C        4.0350     1.6590     1.4110 C.3   1 <1>   0.2630 
 11 C        6.3930     0.4780     0.1060 C.ar  1 <1>  -0.1440 
 12 C        6.6950     0.8200    -1.2050 C.ar  1 <1>  -0.1500 
 13 C        7.2540     0.8610     1.1250 C.ar  1 <1>  -0.1500 
 14 C        7.8340     1.5530    -1.4870 C.ar  1 <1>  -0.1500 
 15 C        8.3920     1.5930     0.8360 C.ar  1 <1>  -0.1500 
 16 C        8.6860     1.9470    -0.4690 C.ar  1 <1>  -0.1440 
 17 C        9.9380     2.7500    -0.7840 C.3   1 <1>  -0.0170 
 18 C       11.1200     1.8170    -1.0530 C.3   1 <1>  -0.2400 
 19 H        0.2500    -0.7050    -1.0510 H     1 <1>   0.4500 
 20 H        1.2890     1.4850     0.6840 H     1 <1>   0.0800 
 21 H        1.6550     1.3160    -1.0100 H     1 <1>   0.0800 
 22 H       -0.4610     1.6320    -1.5590 H     1 <1>   0.0800 
 23 H       -1.3390     1.5250    -0.0510 H     1 <1>   0.0800 
 24 H       -1.4470    -0.5920     0.9570 H     1 <1>   0.0800 
 25 H        0.0330    -0.2180     1.7970 H     1 <1>   0.0800 
 26 H        2.7560    -0.8740    -0.5290 H     1 <1>   0.0800 
 27 H        2.4970    -0.6050     1.1750 H     1 <1>   0.0800 
 28 H       -1.5660    -0.4230    -2.3830 H     1 <1>   0.0800 
 29 H       -2.7070     0.8240    -1.9820 H     1 <1>   0.0800 
 30 H       -2.5050    -0.5140    -0.8990 H     1 <1>   0.0800 
 31 H       -0.4420    -2.6100    -0.0280 H     1 <1>   0.0800 
 32 H       -0.4020    -2.6460     1.7060 H     1 <1>   0.0800 
 33 H        1.0590    -2.3040     0.8360 H     1 <1>   0.0800 
 34 H        4.1660     1.1430    -0.5780 H     1 <1>   0.4500 
 35 H        5.0400    -1.1090    -0.2850 H     1 <1>   0.0800 
 36 H        5.1930    -0.7150     1.4150 H     1 <1>   0.0800 
 37 H        3.9350     1.1820     2.3730 H     1 <1>   0.0800 
 38 H        3.2540     2.3930     1.3020 H     1 <1>   0.0800 
 39 H        4.9830     2.1770     1.3880 H     1 <1>   0.0800 
 40 H        6.0650     0.5210    -2.0240 H     1 <1>   0.1500 
 41 H        7.0610     0.5960     2.1510 H     1 <1>   0.1500 
 42 H        8.0640     1.8140    -2.5070 H     1 <1>   0.1500 
 43 H        9.0570     1.8860     1.6320 H     1 <1>   0.1500 
 44 H       10.1730     3.3990     0.0420 H     1 <1>   0.0800 
 45 H        9.7670     3.3720    -1.6460 H     1 <1>   0.0800 
 46 H       11.3140     1.2040    -0.1910 H     1 <1>   0.0800 
 47 H       12.0020     2.3910    -1.2740 H     1 <1>   0.0800 
 48 H       10.9060     1.1760    -1.8900 H     1 <1>   0.0800 
@<TRIPOS>BOND
  1   1   2  1   
  2   1   3  1   
  3   1   4  1   
  4   1  19  1   
  5   2   5  1   
  6   2  20  1   
  7   2  21  1   
  8   3   6  1   
  9   3  22  1   
 10   3  23  1   
 11   4   7  1   
 12   4  24  1   
 13   4  25  1   
 14   5   8  1   
 15   5  26  1   
 16   5  27  1   
 17   6  28  1   
 18   6  29  1   
 19   6  30  1   
 20   7  31  1   
 21   7  32  1   
 22   7  33  1   
 23   8   9  1   
 24   8  10  1   
 25   8  34  1   
 26   9  11  1   
 27   9  35  1   
 28   9  36  1   
 29  10  37  1   
 30  10  38  1   
 31  10  39  1   
 32  11  12  ar  
 33  11  13  ar  
 34  12  14  ar  
 35  12  40  1   
 36  13  15  ar  
 37  13  41  1   
 38  14  16  ar  
 39  14  42  1   
 40  15  16  ar  
 41  15  43  1   
 42  16  17  1   
 43  17  18  1   
 44  17  44  1   
 45  17  45  1   
 46  18  46  1   
 47  18  47  1   
 48  18  48  1   
@<TRIPOS>SUBSTRUCTURE
  1 ****   8 GROUP 4 **** **** 0

# MOE 2024.06 (io_trps.svl 2023.06)
