@<TRIPOS>MOLECULE
NONAME
25 26 1 0 0 
SMALL
USER_CHARGES


@<TRIPOS>ATOM
  1 S        0.0230     0.1870     0.5770 S.3   1 <1>  -0.0800 
  2 C        0.6460     1.8080     0.2440 C.2   1 <1>  -0.0450 
  3 C       -1.5370     0.5550    -0.1080 C.2   1 <1>  -0.1400 
  4 C       -0.3460     2.5240    -0.3590 C.2   1 <1>   0.0630 
  5 C        1.9840     2.1380     0.6110 C.2   1 <1>   0.8050 
  6 C       -1.5770     1.8360    -0.5630 C.2   1 <1>  -0.0860 
  7 C       -2.5580    -0.5680    -0.0880 C.3   1 <1>  -0.0600 
  8 N       -0.2920     3.8390    -0.7940 N.pl3 1 <1>  -0.3710 
  9 O        2.7600     1.3640     1.1410 O.2   1 <1>  -0.5700 
 10 O        2.3970     3.3890     0.3470 O.3   1 <1>  -0.4300 
 11 C       -2.6250     2.5990    -1.2000 C.2   1 <1>   0.8670 
 12 N       -1.3040     4.5070    -1.3870 N.2   1 <1>  -0.0620 
 13 C        3.7090     3.8340     0.6280 C.3   1 <1>   0.1200 
 14 O       -3.7140     2.1030    -1.4180 O.2   1 <1>  -0.5700 
 15 N       -2.4120     3.9120    -1.5770 N.2   1 <1>  -0.2110 
 16 C        4.6180     3.4670    -0.5440 C.3   1 <1>  -0.2400 
 17 H       -2.1830    -1.4120    -0.6400 H     1 <1>   0.0800 
 18 H       -3.4880    -0.2590    -0.5280 H     1 <1>   0.0800 
 19 H       -2.7440    -0.8740     0.9250 H     1 <1>   0.0800 
 20 H        0.5920     4.3480    -0.6540 H     1 <1>   0.3700 
 21 H        4.0520     3.3920     1.5490 H     1 <1>   0.0800 
 22 H        3.6720     4.9030     0.7500 H     1 <1>   0.0800 
 23 H        4.6720     2.3990    -0.6560 H     1 <1>   0.0800 
 24 H        5.6110     3.8360    -0.3590 H     1 <1>   0.0800 
 25 H        4.2540     3.9090    -1.4540 H     1 <1>   0.0800 
@<TRIPOS>BOND
  1   1   2  1   
  2   1   3  1   
  3   2   4  2   
  4   2   5  1   
  5   3   6  2   
  6   3   7  1   
  7   4   6  1   
  8   4   8  1   
  9   5   9  2   
 10   5  10  1   
 11   6  11  1   
 12   7  17  1   
 13   7  18  1   
 14   7  19  1   
 15   8  12  1   
 16   8  20  1   
 17  10  13  1   
 18  11  14  2   
 19  11  15  1   
 20  12  15  2   
 21  13  16  1   
 22  13  21  1   
 23  13  22  1   
 24  16  23  1   
 25  16  24  1   
 26  16  25  1   
@<TRIPOS>SUBSTRUCTURE
  1 ****   4 GROUP 4 **** **** 0

# MOE 2024.06 (io_trps.svl 2023.06)
