@<TRIPOS>MOLECULE
NONAME
49 50 1 0 0 
SMALL
USER_CHARGES


@<TRIPOS>ATOM
  1 O       -0.8960     1.1590     1.0410 O.2   1 <1>  -0.5700 
  2 C       -0.5800     2.2150     0.5150 C.2   1 <1>   0.5440 
  3 N       -1.5630     3.0400     0.0440 N.am  1 <1>  -0.4300 
  4 C        0.8130     2.6090     0.4200 C.ar  1 <1>   0.0860 
  5 N       -2.9570     2.6470    -0.1840 N.am  1 <1>  -0.4300 
  6 C        1.7220     2.2870     1.4240 C.ar  1 <1>  -0.1500 
  7 C        1.3030     3.3250    -0.6700 C.ar  1 <1>  -0.1500 
  8 C       -3.4850     2.2660    -1.3780 C.2   1 <1>   0.5690 
  9 C        3.0480     2.6750     1.3560 C.ar  1 <1>  -0.1500 
 10 C        2.6290     3.7140    -0.7390 C.ar  1 <1>  -0.1500 
 11 O       -2.8910     2.4110    -2.4270 O.2   1 <1>  -0.5700 
 12 C       -4.8770     1.6520    -1.4140 C.3   1 <1>   0.1810 
 13 C        3.5310     3.4020     0.2720 C.ar  1 <1>  -0.1430 
 14 O       -5.5160     1.7600    -0.1480 O.3   1 <1>  -0.3630 
 15 C        5.0020     3.8590     0.1500 C.3   1 <1>   0.1430 
 16 C       -6.7580     1.2530     0.0670 C.ar  1 <1>   0.0830 
 17 C        5.6290     3.2410    -1.1080 C.3   1 <1>  -0.2400 
 18 C        5.0600     5.3900     0.0490 C.3   1 <1>  -0.2400 
 19 C        5.8670     3.4410     1.3520 C.3   1 <1>  -0.2400 
 20 C       -7.2640     1.3180     1.3630 C.ar  1 <1>  -0.1430 
 21 C       -7.5270     0.6830    -0.9460 C.ar  1 <1>  -0.1500 
 22 C       -8.5280     0.8150     1.6300 C.ar  1 <1>  -0.1500 
 23 C       -6.4450     1.9320     2.4890 C.3   1 <1>  -0.0970 
 24 C       -8.7860     0.1850    -0.6670 C.ar  1 <1>  -0.1500 
 25 C       -9.2870     0.2510     0.6200 C.ar  1 <1>  -0.1500 
 26 H       -1.3020     3.9700    -0.2950 H     1 <1>   0.3700 
 27 H       -3.5290     2.4840     0.6540 H     1 <1>   0.3700 
 28 H        1.3770     1.7210     2.2720 H     1 <1>   0.1500 
 29 H        0.6450     3.5730    -1.4840 H     1 <1>   0.1500 
 30 H        3.6880     2.3910     2.1710 H     1 <1>   0.1500 
 31 H        2.9550     4.2660    -1.6020 H     1 <1>   0.1500 
 32 H       -4.7990     0.6110    -1.6680 H     1 <1>   0.0800 
 33 H       -5.4740     2.1690    -2.1420 H     1 <1>   0.0800 
 34 H        5.5610     2.1680    -1.0630 H     1 <1>   0.0800 
 35 H        6.6650     3.5150    -1.1910 H     1 <1>   0.0800 
 36 H        5.1240     3.5730    -1.9970 H     1 <1>   0.0800 
 37 H        4.5500     5.7410    -0.8290 H     1 <1>   0.0800 
 38 H        6.0790     5.7300     0.0010 H     1 <1>   0.0800 
 39 H        4.5920     5.8330     0.9110 H     1 <1>   0.0800 
 40 H        6.8790     3.7820     1.2260 H     1 <1>   0.0800 
 41 H        5.4830     3.8690     2.2610 H     1 <1>   0.0800 
 42 H        5.8870     2.3700     1.4490 H     1 <1>   0.0800 
 43 H       -7.1700     0.6170    -1.9560 H     1 <1>   0.1500 
 44 H       -8.9300     0.8590     2.6270 H     1 <1>   0.1500 
 45 H       -6.2160     2.9560     2.2570 H     1 <1>   0.0800 
 46 H       -5.5250     1.3870     2.6090 H     1 <1>   0.0800 
 47 H       -6.9820     1.9030     3.4200 H     1 <1>   0.0800 
 48 H       -9.3780    -0.2550    -1.4510 H     1 <1>   0.1500 
 49 H      -10.2670    -0.1370     0.8370 H     1 <1>   0.1500 
@<TRIPOS>BOND
  1   1   2  2   
  2   2   3  am  
  3   2   4  1   
  4   3   5  1   
  5   3  26  1   
  6   4   6  ar  
  7   4   7  ar  
  8   5   8  am  
  9   5  27  1   
 10   6   9  ar  
 11   6  28  1   
 12   7  10  ar  
 13   7  29  1   
 14   8  11  2   
 15   8  12  1   
 16   9  13  ar  
 17   9  30  1   
 18  10  13  ar  
 19  10  31  1   
 20  12  14  1   
 21  12  32  1   
 22  12  33  1   
 23  13  15  1   
 24  14  16  1   
 25  15  17  1   
 26  15  18  1   
 27  15  19  1   
 28  16  20  ar  
 29  16  21  ar  
 30  17  34  1   
 31  17  35  1   
 32  17  36  1   
 33  18  37  1   
 34  18  38  1   
 35  18  39  1   
 36  19  40  1   
 37  19  41  1   
 38  19  42  1   
 39  20  22  ar  
 40  20  23  1   
 41  21  24  ar  
 42  21  43  1   
 43  22  25  ar  
 44  22  44  1   
 45  23  45  1   
 46  23  46  1   
 47  23  47  1   
 48  24  25  ar  
 49  24  48  1   
 50  25  49  1   
@<TRIPOS>SUBSTRUCTURE
  1 ****   3 GROUP 4 **** **** 0

# MOE 2024.06 (io_trps.svl 2023.06)
