@<TRIPOS>MOLECULE
NONAME
43 44 1 0 0 
SMALL
USER_CHARGES


@<TRIPOS>ATOM
  1 BR       3.7980    -1.1390    -0.1180 Br    1 <1>  -0.1110 
  2 C        2.5110    -2.5610     0.0230 C.ar  1 <1>   0.1110 
  3 C        1.9930    -3.1090    -1.1330 C.ar  1 <1>  -0.1500 
  4 C        2.1460    -3.0110     1.2760 C.ar  1 <1>  -0.1500 
  5 C        1.0740    -4.1400    -1.0200 C.ar  1 <1>  -0.1500 
  6 C        1.2250    -4.0420     1.3660 C.ar  1 <1>  -0.1500 
  7 C        0.6690    -4.6170     0.2250 C.ar  1 <1>  -0.0090 
  8 S       -0.5630    -5.9460     0.3460 S.o2  1 <1>   1.4470 
  9 O       -1.1250    -5.9980     1.6780 O.2   1 <1>  -0.6500 
 10 O       -1.4650    -5.8230    -0.7780 O.2   1 <1>  -0.6500 
 11 N        0.2800    -7.4080     0.1180 N.am  1 <1>  -0.8490 
 12 C        1.0900    -7.7930     1.3080 C.3   1 <1>   0.2570 
 13 C       -0.6410    -8.4980    -0.2280 C.3   1 <1>   0.1160 
 14 C        2.4680    -7.1280     1.3910 C.2   1 <1>   0.5690 
 15 O        2.8690    -6.7400     2.4620 O.2   1 <1>  -0.5700 
 16 N        3.2120    -7.0350     0.2590 N.am  1 <1>  -0.7300 
 17 C        4.6340    -6.6620     0.1940 C.3   1 <1>   0.2200 
 18 C        4.7600    -5.2340    -0.3390 C.3   1 <1>  -0.1600 
 19 C        5.3610    -7.6630    -0.7110 C.3   1 <1>  -0.1600 
 20 C        6.2280    -4.8370    -0.5500 C.3   1 <1>  -0.1600 
 21 C        6.8320    -7.2690    -0.9110 C.3   1 <1>  -0.1600 
 22 C        6.9520    -5.8400    -1.4580 C.3   1 <1>  -0.1600 
 23 H        2.3010    -2.7380    -2.0940 H     1 <1>   0.1500 
 24 H        2.5730    -2.5700     2.1590 H     1 <1>   0.1500 
 25 H        0.6560    -4.5760    -1.9120 H     1 <1>   0.1500 
 26 H        0.9350    -4.4040     2.3390 H     1 <1>   0.1500 
 27 H        1.2840    -8.8500     1.2760 H     1 <1>   0.0800 
 28 H        0.5530    -7.6060     2.2210 H     1 <1>   0.0800 
 29 H       -1.1720    -8.2620    -1.1360 H     1 <1>   0.0800 
 30 H       -1.3600    -8.6470     0.5620 H     1 <1>   0.0800 
 31 H       -0.0980    -9.4130    -0.3910 H     1 <1>   0.0800 
 32 H        2.7700    -7.2680    -0.6320 H     1 <1>   0.3700 
 33 H        5.0620    -6.7050     1.1830 H     1 <1>   0.0800 
 34 H        4.3200    -4.5640     0.3760 H     1 <1>   0.0800 
 35 H        4.2310    -5.1460    -1.2710 H     1 <1>   0.0800 
 36 H        4.8780    -7.6970    -1.6720 H     1 <1>   0.0800 
 37 H        5.3140    -8.6420    -0.2680 H     1 <1>   0.0800 
 38 H        6.7250    -4.7970     0.4040 H     1 <1>   0.0800 
 39 H        6.2750    -3.8530    -0.9860 H     1 <1>   0.0800 
 40 H        7.3020    -7.9570    -1.5930 H     1 <1>   0.0800 
 41 H        7.3500    -7.3340     0.0310 H     1 <1>   0.0800 
 42 H        7.9910    -5.5700    -1.5360 H     1 <1>   0.0800 
 43 H        6.5260    -5.7990    -2.4460 H     1 <1>   0.0800 
@<TRIPOS>BOND
  1   1   2  1   
  2   2   3  ar  
  3   2   4  ar  
  4   3   5  ar  
  5   3  23  1   
  6   4   6  ar  
  7   4  24  1   
  8   5   7  ar  
  9   5  25  1   
 10   6   7  ar  
 11   6  26  1   
 12   7   8  1   
 13   8   9  2   
 14   8  10  2   
 15   8  11  am  
 16  11  12  1   
 17  11  13  1   
 18  12  14  1   
 19  12  27  1   
 20  12  28  1   
 21  13  29  1   
 22  13  30  1   
 23  13  31  1   
 24  14  15  2   
 25  14  16  am  
 26  16  17  1   
 27  16  32  1   
 28  17  18  1   
 29  17  19  1   
 30  17  33  1   
 31  18  20  1   
 32  18  34  1   
 33  18  35  1   
 34  19  21  1   
 35  19  36  1   
 36  19  37  1   
 37  20  22  1   
 38  20  38  1   
 39  20  39  1   
 40  21  22  1   
 41  21  40  1   
 42  21  41  1   
 43  22  42  1   
 44  22  43  1   
@<TRIPOS>SUBSTRUCTURE
  1 ****  16 GROUP 4 **** **** 0

# MOE 2024.06 (io_trps.svl 2023.06)
