@<TRIPOS>MOLECULE
NONAME
42 43 1 0 0 
SMALL
USER_CHARGES


@<TRIPOS>ATOM
  1 S        0.0530    -0.0940    -0.3150 S.o2  1 <1>   1.4470 
  2 O       -0.3770     0.0240    -1.6930 O.2   1 <1>  -0.6500 
  3 O       -0.2890    -1.2850     0.4330 O.2   1 <1>  -0.6500 
  4 N       -0.6050     1.2330     0.5140 N.am  1 <1>  -0.8490 
  5 C        1.8410     0.1810    -0.1830 C.ar  1 <1>  -0.0090 
  6 C       -2.0320     1.0360     0.7800 C.3   1 <1>   0.1960 
  7 C       -0.3300     2.5100    -0.1580 C.3   1 <1>   0.1960 
  8 C        2.4830     0.1070     1.0470 C.ar  1 <1>  -0.1500 
  9 C        2.6160     0.4890    -1.2950 C.ar  1 <1>  -0.1500 
 10 C       -2.5270     2.0040     1.8540 C.3   1 <1>  -0.2400 
 11 C        0.4940     3.3860     0.7790 C.3   1 <1>  -0.2400 
 12 C        3.8420     0.3350     1.1640 C.ar  1 <1>  -0.1500 
 13 C        3.9750     0.7190    -1.1830 C.ar  1 <1>  -0.1500 
 14 C        4.6110     0.6500     0.0520 C.ar  1 <1>   0.1170 
 15 N        5.9830     0.8650     0.2240 N.am  1 <1>  -0.5470 
 16 C        6.9230     1.5330    -0.5260 C.2   1 <1>   0.7160 
 17 O        6.6070     2.1020    -1.5550 O.2   1 <1>  -0.5700 
 18 C        8.2910     1.5520    -0.0500 C.2   1 <1>   0.2030 
 19 N        8.7200     0.9970     1.0460 N.2   1 <1>  -0.4100 
 20 C        9.3650     2.1630    -0.6780 C.2   1 <1>  -0.1500 
 21 O       10.0080     1.2010     1.1830 O.3   1 <1>  -0.0190 
 22 C       10.3900     1.9060     0.1380 C.2   1 <1>  -0.0400 
 23 C       11.8480     2.2980     0.0210 C.3   1 <1>  -0.0600 
 24 H       -2.1970     0.0360     1.1460 H     1 <1>   0.0800 
 25 H       -2.6000     1.1490    -0.1300 H     1 <1>   0.0800 
 26 H       -1.2450     3.0150    -0.4220 H     1 <1>   0.0800 
 27 H        0.2240     2.3620    -1.0710 H     1 <1>   0.0800 
 28 H        1.9020    -0.1310     1.9230 H     1 <1>   0.1500 
 29 H        2.1490     0.5500    -2.2650 H     1 <1>   0.1500 
 30 H       -1.9220     1.9100     2.7380 H     1 <1>   0.0800 
 31 H       -3.5420     1.7630     2.1110 H     1 <1>   0.0800 
 32 H       -2.5040     3.0200     1.5070 H     1 <1>   0.0800 
 33 H       -0.0400     3.5650     1.6950 H     1 <1>   0.0800 
 34 H        0.6930     4.3310     0.3090 H     1 <1>   0.0800 
 35 H        1.4330     2.9140     1.0030 H     1 <1>   0.0800 
 36 H        4.3050     0.2710     2.1330 H     1 <1>   0.1500 
 37 H        4.5390     0.9470    -2.0690 H     1 <1>   0.1500 
 38 H        6.3840     0.4950     1.0880 H     1 <1>   0.3700 
 39 H        9.3250     2.7050    -1.6060 H     1 <1>   0.1500 
 40 H       12.0110     2.8670    -0.8760 H     1 <1>   0.0800 
 41 H       12.4610     1.4160    -0.0080 H     1 <1>   0.0800 
 42 H       12.1340     2.8940     0.8690 H     1 <1>   0.0800 
@<TRIPOS>BOND
  1   1   2  2   
  2   1   3  2   
  3   1   4  am  
  4   1   5  1   
  5   4   6  1   
  6   4   7  1   
  7   5   8  ar  
  8   5   9  ar  
  9   6  10  1   
 10   6  24  1   
 11   6  25  1   
 12   7  11  1   
 13   7  26  1   
 14   7  27  1   
 15   8  12  ar  
 16   8  28  1   
 17   9  13  ar  
 18   9  29  1   
 19  10  30  1   
 20  10  31  1   
 21  10  32  1   
 22  11  33  1   
 23  11  34  1   
 24  11  35  1   
 25  12  14  ar  
 26  12  36  1   
 27  13  14  ar  
 28  13  37  1   
 29  14  15  1   
 30  15  16  am  
 31  15  38  1   
 32  16  17  2   
 33  16  18  1   
 34  18  19  2   
 35  18  20  1   
 36  19  21  1   
 37  20  22  2   
 38  20  39  1   
 39  21  22  1   
 40  22  23  1   
 41  23  40  1   
 42  23  41  1   
 43  23  42  1   
@<TRIPOS>SUBSTRUCTURE
  1 ****  14 GROUP 4 **** **** 0

# MOE 2024.06 (io_trps.svl 2023.06)
