@<TRIPOS>MOLECULE
NONAME
43 44 1 0 0 
SMALL
USER_CHARGES


@<TRIPOS>ATOM
  1 F        0.7510     0.8740    -0.4060 F     1 <1>  -0.1900 
  2 C        1.6160    -0.0780    -0.1790 C.ar  1 <1>   0.1900 
  3 C        2.9570     0.1840    -0.3750 C.ar  1 <1>  -0.1500 
  4 C        1.1520    -1.3080     0.2460 C.ar  1 <1>  -0.1500 
  5 C        3.8890    -0.8190    -0.1370 C.ar  1 <1>   0.1170 
  6 C        2.0770    -2.3110     0.4810 C.ar  1 <1>  -0.1500 
  7 N        5.2470    -0.5420    -0.3530 N.am  1 <1>  -0.5470 
  8 C        3.4280    -2.0650     0.2880 C.ar  1 <1>  -0.1500 
  9 C        6.3630    -1.1100     0.1840 C.2   1 <1>   0.6900 
 10 O        6.3130    -1.9340     1.0740 O.2   1 <1>  -0.5700 
 11 N        7.5690    -0.7280    -0.3060 N.am  1 <1>  -0.7300 
 12 C        8.8420    -1.2310     0.2280 C.3   1 <1>   0.2200 
 13 C        9.9360    -0.1840     0.0420 C.3   1 <1>  -0.1600 
 14 C        9.2110    -2.5310    -0.4820 C.3   1 <1>  -0.1600 
 15 C       11.2740    -0.7300     0.5400 C.3   1 <1>   0.3430 
 16 C       10.5520    -3.0460     0.0290 C.3   1 <1>   0.3430 
 17 N       11.6060    -2.0050    -0.1710 N.4   1 <1>  -0.9590 
 18 C       12.9340    -2.5420     0.2400 C.3   1 <1>   0.3430 
 19 C       14.0620    -1.6750    -0.3240 C.3   1 <1>  -0.1600 
 20 C       15.4310    -2.2860    -0.0070 C.3   1 <1>  -0.2400 
 21 H        3.2610     1.1590    -0.7040 H     1 <1>   0.1500 
 22 H        0.0990    -1.4720     0.3880 H     1 <1>   0.1500 
 23 H        1.7490    -3.2810     0.8130 H     1 <1>   0.1500 
 24 H        5.4290     0.2900    -0.9040 H     1 <1>   0.3700 
 25 H        4.1290    -2.8590     0.4720 H     1 <1>   0.1500 
 26 H        7.6020    -0.1990    -1.1750 H     1 <1>   0.3700 
 27 H        8.7220    -1.4280     1.2830 H     1 <1>   0.0800 
 28 H        9.6870     0.6940     0.6120 H     1 <1>   0.0800 
 29 H       10.0250     0.0950    -0.9920 H     1 <1>   0.0800 
 30 H        9.2570    -2.3860    -1.5460 H     1 <1>   0.0800 
 31 H        8.4570    -3.2710    -0.2750 H     1 <1>   0.0800 
 32 H       11.2150    -0.9100     1.6010 H     1 <1>   0.0800 
 33 H       12.0430     0.0050     0.3650 H     1 <1>   0.0800 
 34 H       10.8150    -3.9470    -0.5020 H     1 <1>   0.0800 
 35 H       10.4670    -3.2840     1.0780 H     1 <1>   0.0800 
 36 H       11.6540    -1.8040    -1.1780 H     1 <1>   0.4500 
 37 H       13.0510    -3.5440    -0.1410 H     1 <1>   0.0800 
 38 H       13.0040    -2.5840     1.3150 H     1 <1>   0.0800 
 39 H       14.0290    -0.6880     0.1010 H     1 <1>   0.0800 
 40 H       13.9630    -1.5960    -1.3930 H     1 <1>   0.0800 
 41 H       15.5810    -2.3620     1.0570 H     1 <1>   0.0800 
 42 H       16.2130    -1.6670    -0.4120 H     1 <1>   0.0800 
 43 H       15.5240    -3.2680    -0.4410 H     1 <1>   0.0800 
@<TRIPOS>BOND
  1   1   2  1   
  2   2   3  ar  
  3   2   4  ar  
  4   3   5  ar  
  5   3  21  1   
  6   4   6  ar  
  7   4  22  1   
  8   5   7  1   
  9   5   8  ar  
 10   6   8  ar  
 11   6  23  1   
 12   7   9  am  
 13   7  24  1   
 14   8  25  1   
 15   9  10  2   
 16   9  11  am  
 17  11  12  1   
 18  11  26  1   
 19  12  13  1   
 20  12  14  1   
 21  12  27  1   
 22  13  15  1   
 23  13  28  1   
 24  13  29  1   
 25  14  16  1   
 26  14  30  1   
 27  14  31  1   
 28  15  17  1   
 29  15  32  1   
 30  15  33  1   
 31  16  17  1   
 32  16  34  1   
 33  16  35  1   
 34  17  18  1   
 35  17  36  1   
 36  18  19  1   
 37  18  37  1   
 38  18  38  1   
 39  19  20  1   
 40  19  39  1   
 41  19  40  1   
 42  20  41  1   
 43  20  42  1   
 44  20  43  1   
@<TRIPOS>SUBSTRUCTURE
  1 ****  11 GROUP 4 **** **** 0

# MOE 2024.06 (io_trps.svl 2023.06)
