@<TRIPOS>MOLECULE
NONAME
50 52 1 0 0 
SMALL
USER_CHARGES


@<TRIPOS>ATOM
  1 O       -0.6720     1.1290     1.4330 O.2   1 <1>  -0.5700 
  2 C       -0.5240     1.7940     0.4260 C.2   1 <1>   0.5440 
  3 N       -1.6150     2.0310    -0.3670 N.am  1 <1>  -0.7300 
  4 C        0.7780     2.3250     0.0720 C.ar  1 <1>   0.0860 
  5 C       -2.9680     1.4430    -0.1540 C.3   1 <1>   0.1400 
  6 C        1.9460     1.6360     0.4040 C.ar  1 <1>  -0.1500 
  7 C        0.9250     3.5360    -0.6100 C.ar  1 <1>  -0.1500 
  8 C       -4.0540     2.4010     0.4100 C.3   1 <1>   0.1430 
  9 C        3.1980     2.1140     0.0640 C.ar  1 <1>  -0.1500 
 10 C        2.1720     4.0210    -0.9550 C.ar  1 <1>  -0.1500 
 11 C       -5.3190     1.5120     0.5380 C.ar  1 <1>  -0.1430 
 12 C       -3.6760     2.9620     1.8050 C.3   1 <1>  -0.1600 
 13 C       -4.3140     3.6040    -0.5340 C.3   1 <1>  -0.1600 
 14 C        3.3180     3.3170    -0.6260 C.ar  1 <1>   0.0830 
 15 C       -6.3580     1.5420    -0.3910 C.ar  1 <1>  -0.1500 
 16 C       -5.4310     0.6120     1.5950 C.ar  1 <1>  -0.1500 
 17 C       -2.7290     4.1690     1.7810 C.3   1 <1>   0.1200 
 18 C       -3.3020     4.7470    -0.4060 C.3   1 <1>   0.1200 
 19 O        4.4990     3.8570    -1.0030 O.3   1 <1>  -0.3630 
 20 C       -7.4680     0.7260    -0.2560 C.ar  1 <1>  -0.1500 
 21 C       -6.5380    -0.2060     1.7330 C.ar  1 <1>  -0.1500 
 22 O       -3.2280     5.1430     0.9220 O.3   1 <1>  -0.5600 
 23 C        5.7280     3.2330    -0.7150 C.3   1 <1>   0.1200 
 24 C       -7.5620    -0.1490     0.8080 C.ar  1 <1>  -0.1500 
 25 C        6.8450     4.1070    -1.2770 C.3   1 <1>  -0.2400 
 26 H       -1.4750     2.4980    -1.2620 H     1 <1>   0.3700 
 27 H       -2.8760     0.6050     0.5160 H     1 <1>   0.0800 
 28 H       -3.3140     1.0460    -1.0920 H     1 <1>   0.0800 
 29 H        1.8600     0.7060     0.9420 H     1 <1>   0.1500 
 30 H        0.0550     4.1120    -0.8650 H     1 <1>   0.1500 
 31 H        4.0630     1.5430     0.3420 H     1 <1>   0.1500 
 32 H        2.2710     4.9550    -1.4800 H     1 <1>   0.1500 
 33 H       -3.2140     2.1970     2.4030 H     1 <1>   0.0800 
 34 H       -4.5730     3.2730     2.3110 H     1 <1>   0.0800 
 35 H       -5.2750     4.0290    -0.3000 H     1 <1>   0.0800 
 36 H       -4.3400     3.2760    -1.5570 H     1 <1>   0.0800 
 37 H       -6.3350     2.1950    -1.2430 H     1 <1>   0.1500 
 38 H       -4.6520     0.5250     2.3310 H     1 <1>   0.1500 
 39 H       -1.7390     3.9010     1.4640 H     1 <1>   0.0800 
 40 H       -2.6630     4.6050     2.7630 H     1 <1>   0.0800 
 41 H       -3.6280     5.5980    -0.9780 H     1 <1>   0.0800 
 42 H       -2.3210     4.4660    -0.7380 H     1 <1>   0.0800 
 43 H       -8.2610     0.7720    -0.9820 H     1 <1>   0.1500 
 44 H       -6.6010    -0.8890     2.5630 H     1 <1>   0.1500 
 45 H        5.7340     2.2620    -1.1790 H     1 <1>   0.0800 
 46 H        5.8200     3.1390     0.3540 H     1 <1>   0.0800 
 47 H       -8.4250    -0.7830     0.9150 H     1 <1>   0.1500 
 48 H        6.7340     4.2090    -2.3420 H     1 <1>   0.0800 
 49 H        7.7990     3.6560    -1.0730 H     1 <1>   0.0800 
 50 H        6.8190     5.0790    -0.8190 H     1 <1>   0.0800 
@<TRIPOS>BOND
  1   1   2  2   
  2   2   3  am  
  3   2   4  1   
  4   3   5  1   
  5   3  26  1   
  6   4   6  ar  
  7   4   7  ar  
  8   5   8  1   
  9   5  27  1   
 10   5  28  1   
 11   6   9  ar  
 12   6  29  1   
 13   7  10  ar  
 14   7  30  1   
 15   8  11  1   
 16   8  12  1   
 17   8  13  1   
 18   9  14  ar  
 19   9  31  1   
 20  10  14  ar  
 21  10  32  1   
 22  11  15  ar  
 23  11  16  ar  
 24  12  17  1   
 25  12  33  1   
 26  12  34  1   
 27  13  18  1   
 28  13  35  1   
 29  13  36  1   
 30  14  19  1   
 31  15  20  ar  
 32  15  37  1   
 33  16  21  ar  
 34  16  38  1   
 35  17  22  1   
 36  17  39  1   
 37  17  40  1   
 38  18  22  1   
 39  18  41  1   
 40  18  42  1   
 41  19  23  1   
 42  20  24  ar  
 43  20  43  1   
 44  21  24  ar  
 45  21  44  1   
 46  23  25  1   
 47  23  45  1   
 48  23  46  1   
 49  24  47  1   
 50  25  48  1   
 51  25  49  1   
 52  25  50  1   
@<TRIPOS>SUBSTRUCTURE
  1 ****   3 GROUP 4 **** **** 0

# MOE 2024.06 (io_trps.svl 2023.06)
