@<TRIPOS>MOLECULE
NONAME
43 44 1 0 0 
SMALL
USER_CHARGES


@<TRIPOS>ATOM
  1 O       -0.0540     0.5710    -1.5570 O.2   1 <1>  -0.5700 
  2 C       -0.1000     1.5200    -0.7990 C.2   1 <1>   0.5440 
  3 N       -1.2970     1.8550    -0.2330 N.am  1 <1>  -0.7300 
  4 C        1.0940     2.2940    -0.5150 C.ar  1 <1>   0.0860 
  5 C       -2.5930     1.2120    -0.4960 C.3   1 <1>   0.2200 
  6 C        1.2440     3.0860     0.6170 C.ar  1 <1>  -0.1500 
  7 C        2.1880     2.2960    -1.3690 C.ar  1 <1>  -0.1500 
  8 C       -3.7600     2.2050    -0.8250 C.3   1 <1>  -0.0800 
  9 C       -2.9160     0.2940     0.6880 C.3   1 <1>  -0.1600 
 10 C        2.4060     3.8060     0.8190 C.ar  1 <1>   0.1600 
 11 C        3.3070     3.0510    -1.0780 C.ar  1 <1>   0.1600 
 12 C       -3.7050     3.6930    -0.3000 C.3   1 <1>   0.0000 
 13 C       -5.1270     1.5260    -0.5090 C.3   1 <1>  -0.1600 
 14 C       -4.1160    -0.6200     0.3790 C.3   1 <1>  -0.1600 
 15 N        3.4410     3.8110    -0.0040 N.ar  1 <1>  -0.6200 
 16 C       -5.0290     4.4270    -0.6110 C.3   1 <1>  -0.2400 
 17 C       -3.4880     3.7850     1.2230 C.3   1 <1>  -0.2400 
 18 C       -2.6160     4.5230    -1.0170 C.3   1 <1>  -0.2400 
 19 C       -5.0890    -0.0010    -0.6380 C.3   1 <1>  -0.1600 
 20 H       -1.3820     2.7250     0.2880 H     1 <1>   0.3700 
 21 H       -2.4720     0.5720    -1.3550 H     1 <1>   0.0800 
 22 H        0.4620     3.1380     1.3500 H     1 <1>   0.1500 
 23 H        2.1610     1.7020    -2.2650 H     1 <1>   0.1500 
 24 H       -3.7360     2.2810    -1.8990 H     1 <1>   0.0800 
 25 H       -3.1420     0.8960     1.5490 H     1 <1>   0.0800 
 26 H       -2.0620    -0.3190     0.9190 H     1 <1>   0.0800 
 27 H        2.4940     4.4120     1.7060 H     1 <1>   0.1500 
 28 H        4.1380     3.0310    -1.7630 H     1 <1>   0.1500 
 29 H       -5.8810     1.9050    -1.1770 H     1 <1>   0.0800 
 30 H       -5.4350     1.7590     0.4950 H     1 <1>   0.0800 
 31 H       -4.6360    -0.8280     1.2980 H     1 <1>   0.0800 
 32 H       -3.7620    -1.5580    -0.0130 H     1 <1>   0.0800 
 33 H       -5.8500     4.0260    -0.0450 H     1 <1>   0.0800 
 34 H       -5.2640     4.3520    -1.6580 H     1 <1>   0.0800 
 35 H       -4.9590     5.4710    -0.3600 H     1 <1>   0.0800 
 36 H       -4.2710     3.2740     1.7510 H     1 <1>   0.0800 
 37 H       -3.4960     4.8130     1.5390 H     1 <1>   0.0800 
 38 H       -2.5520     3.3590     1.5250 H     1 <1>   0.0800 
 39 H       -2.7110     4.4220    -2.0830 H     1 <1>   0.0800 
 40 H       -1.6200     4.2470    -0.7430 H     1 <1>   0.0800 
 41 H       -2.7170     5.5670    -0.7770 H     1 <1>   0.0800 
 42 H       -4.7800    -0.2600    -1.6370 H     1 <1>   0.0800 
 43 H       -6.0730    -0.4100    -0.4870 H     1 <1>   0.0800 
@<TRIPOS>BOND
  1   1   2  2   
  2   2   3  am  
  3   2   4  1   
  4   3   5  1   
  5   3  20  1   
  6   4   6  ar  
  7   4   7  ar  
  8   5   8  1   
  9   5   9  1   
 10   5  21  1   
 11   6  10  ar  
 12   6  22  1   
 13   7  11  ar  
 14   7  23  1   
 15   8  12  1   
 16   8  13  1   
 17   8  24  1   
 18   9  14  1   
 19   9  25  1   
 20   9  26  1   
 21  10  15  ar  
 22  10  27  1   
 23  11  15  ar  
 24  11  28  1   
 25  12  16  1   
 26  12  17  1   
 27  12  18  1   
 28  13  19  1   
 29  13  29  1   
 30  13  30  1   
 31  14  19  1   
 32  14  31  1   
 33  14  32  1   
 34  16  33  1   
 35  16  34  1   
 36  16  35  1   
 37  17  36  1   
 38  17  37  1   
 39  17  38  1   
 40  18  39  1   
 41  18  40  1   
 42  18  41  1   
 43  19  42  1   
 44  19  43  1   
@<TRIPOS>SUBSTRUCTURE
  1 ****   3 GROUP 4 **** **** 0

# MOE 2024.06 (io_trps.svl 2023.06)
