@<TRIPOS>MOLECULE
NONAME
49 51 1 0 0 
SMALL
USER_CHARGES


@<TRIPOS>ATOM
  1 O       -0.6220    -0.4810    -0.7910 O.3   1 <1>  -0.3630 
  2 C       -1.7470    -0.8990    -0.1500 C.ar  1 <1>   0.0830 
  3 C        0.2730     0.4490    -0.2230 C.3   1 <1>   0.0400 
  4 C       -2.4900    -1.9340    -0.7210 C.ar  1 <1>  -0.1440 
  5 C       -2.1610    -0.3310     1.0480 C.ar  1 <1>  -0.1500 
  6 C       -3.6330    -2.4100    -0.0760 C.ar  1 <1>  -0.1430 
  7 C       -2.0220    -2.5380    -2.0500 C.3   1 <1>  -0.0960 
  8 C       -3.3040    -0.7830     1.6700 C.ar  1 <1>  -0.1500 
  9 C       -4.0500    -1.8110     1.1140 C.ar  1 <1>  -0.1440 
 10 C       -4.4000    -3.5900    -0.6830 C.3   1 <1>  -0.0970 
 11 C       -5.3170    -2.2210     1.8420 C.3   1 <1>   0.4860 
 12 N       -6.4800    -1.7480     1.0470 N.4   1 <1>  -0.9590 
 13 C       -6.5060    -0.2450     0.9210 C.3   1 <1>   0.3430 
 14 C       -7.7900    -2.2680     1.5740 C.3   1 <1>   0.3430 
 15 C       -7.6960     0.2500     0.0750 C.3   1 <1>   0.2090 
 16 C       -8.9890    -1.7930     0.7300 C.3   1 <1>   0.2090 
 17 N       -8.9940    -0.3080     0.5640 N.pl3 1 <1>  -0.8380 
 18 C      -10.0920     0.1720    -0.1160 C.ar  1 <1>   0.4100 
 19 N      -10.2110    -0.2170    -1.3790 N.ar  1 <1>  -0.6200 
 20 C      -10.9940     1.0140     0.5250 C.ar  1 <1>  -0.1500 
 21 C      -11.2690     0.2530    -2.0220 C.ar  1 <1>   0.1600 
 22 C      -12.0880     1.4930    -0.1570 C.ar  1 <1>  -0.1500 
 23 C      -12.2200     1.0940    -1.4720 C.ar  1 <1>  -0.1500 
 24 H        1.1040     0.5640    -0.8950 H     1 <1>   0.0800 
 25 H        0.6190     0.0700     0.7230 H     1 <1>   0.0800 
 26 H       -0.2300     1.3920    -0.1020 H     1 <1>   0.0800 
 27 H       -1.6040     0.4640     1.5080 H     1 <1>   0.1500 
 28 H       -1.4170    -1.8490    -2.6100 H     1 <1>   0.0800 
 29 H       -2.8530    -2.7950    -2.6800 H     1 <1>   0.0800 
 30 H       -1.4370    -3.4200    -1.8600 H     1 <1>   0.0800 
 31 H       -3.6000    -0.3200     2.5960 H     1 <1>   0.1500 
 32 H       -3.7080    -4.3460    -1.0120 H     1 <1>   0.0800 
 33 H       -4.9710    -3.2610    -1.5330 H     1 <1>   0.0800 
 34 H       -5.0580    -4.0690     0.0150 H     1 <1>   0.0800 
 35 H       -5.3360    -1.7830     2.8270 H     1 <1>   0.0800 
 36 H       -5.3400    -3.2930     1.9470 H     1 <1>   0.0800 
 37 H       -6.3410    -2.1070     0.0940 H     1 <1>   0.4500 
 38 H       -5.5920     0.1020     0.4680 H     1 <1>   0.0800 
 39 H       -6.5810     0.2000     1.8990 H     1 <1>   0.0800 
 40 H       -7.9350    -1.9230     2.5840 H     1 <1>   0.0800 
 41 H       -7.7800    -3.3460     1.5890 H     1 <1>   0.0800 
 42 H       -7.5480    -0.0320    -0.9550 H     1 <1>   0.0800 
 43 H       -7.7380     1.3250     0.1140 H     1 <1>   0.0800 
 44 H       -9.9050    -2.0950     1.2090 H     1 <1>   0.0800 
 45 H       -8.9570    -2.2640    -0.2380 H     1 <1>   0.0800 
 46 H      -10.8220     1.2780     1.5500 H     1 <1>   0.1500 
 47 H      -11.3860    -0.0500    -3.0490 H     1 <1>   0.1500 
 48 H      -12.8060     2.1460     0.3090 H     1 <1>   0.1500 
 49 H      -13.0520     1.4310    -2.0630 H     1 <1>   0.1500 
@<TRIPOS>BOND
  1   1   2  1   
  2   1   3  1   
  3   2   4  ar  
  4   2   5  ar  
  5   3  24  1   
  6   3  25  1   
  7   3  26  1   
  8   4   6  ar  
  9   4   7  1   
 10   5   8  ar  
 11   5  27  1   
 12   6   9  ar  
 13   6  10  1   
 14   7  28  1   
 15   7  29  1   
 16   7  30  1   
 17   8   9  ar  
 18   8  31  1   
 19   9  11  1   
 20  10  32  1   
 21  10  33  1   
 22  10  34  1   
 23  11  12  1   
 24  11  35  1   
 25  11  36  1   
 26  12  13  1   
 27  12  14  1   
 28  12  37  1   
 29  13  15  1   
 30  13  38  1   
 31  13  39  1   
 32  14  16  1   
 33  14  40  1   
 34  14  41  1   
 35  15  17  1   
 36  15  42  1   
 37  15  43  1   
 38  16  17  1   
 39  16  44  1   
 40  16  45  1   
 41  17  18  1   
 42  18  19  ar  
 43  18  20  ar  
 44  19  21  ar  
 45  20  22  ar  
 46  20  46  1   
 47  21  23  ar  
 48  21  47  1   
 49  22  23  ar  
 50  22  48  1   
 51  23  49  1   
@<TRIPOS>SUBSTRUCTURE
  1 ****  13 GROUP 4 **** **** 0

# MOE 2024.06 (io_trps.svl 2023.06)
