@<TRIPOS>MOLECULE
NONAME
45 47 1 0 0 
SMALL
USER_CHARGES


@<TRIPOS>ATOM
  1 O      -10.3150    -2.9140    -1.5580 O.3   1 <1>  -0.3630 
  2 C       -9.4050    -2.4400    -0.7010 C.ar  1 <1>   0.0830 
  3 C      -11.5380    -2.2390    -1.2710 C.3   1 <1>   0.4000 
  4 C       -9.9720    -1.5050     0.1160 C.ar  1 <1>   0.0830 
  5 C       -8.0740    -2.7890    -0.5930 C.ar  1 <1>  -0.1500 
  6 O      -11.2660    -1.3490    -0.1900 O.3   1 <1>  -0.3630 
  7 C       -9.2400    -0.8620     1.0930 C.ar  1 <1>  -0.1500 
  8 C       -7.3120    -2.1520     0.3890 C.ar  1 <1>   0.0830 
  9 C       -7.8980    -1.1970     1.2210 C.ar  1 <1>  -0.1500 
 10 O       -5.9940    -2.4080     0.5960 O.3   1 <1>  -0.3630 
 11 C       -5.3180    -3.3920    -0.1590 C.3   1 <1>   0.1200 
 12 C       -3.8610    -3.4510     0.3170 C.3   1 <1>   0.2000 
 13 O       -3.3220    -2.1630     0.2930 O.3   1 <1>  -0.6800 
 14 C       -2.9850    -4.3760    -0.5570 C.3   1 <1>   0.3430 
 15 N       -1.5420    -4.0010    -0.4330 N.4   1 <1>  -0.9590 
 16 C       -0.7500    -4.3460    -1.6460 C.3   1 <1>   0.3430 
 17 C       -0.9200    -4.4990     0.8260 C.3   1 <1>   0.3430 
 18 C        0.6550    -3.7540    -1.5280 C.3   1 <1>  -0.1600 
 19 C        0.4810    -3.9080     0.9760 C.3   1 <1>  -0.1600 
 20 C        1.3610    -4.2140    -0.2450 C.3   1 <1>  -0.0800 
 21 C        2.7290    -3.5370    -0.1090 C.3   1 <1>  -0.2400 
 22 H      -12.2840    -2.9540    -0.9700 H     1 <1>   0.0800 
 23 H      -11.8510    -1.6760    -2.1320 H     1 <1>   0.0800 
 24 H       -7.6830    -3.5290    -1.2620 H     1 <1>   0.1500 
 25 H       -9.7050    -0.1280     1.7270 H     1 <1>   0.1500 
 26 H       -7.2980    -0.7160     1.9720 H     1 <1>   0.1500 
 27 H       -5.3690    -3.1160    -1.1990 H     1 <1>   0.0800 
 28 H       -5.8100    -4.3360    -0.0030 H     1 <1>   0.0800 
 29 H       -3.8420    -3.7950     1.3370 H     1 <1>   0.0800 
 30 H       -3.9970    -1.5370     0.6480 H     1 <1>   0.4000 
 31 H       -3.2950    -4.2520    -1.5820 H     1 <1>   0.0800 
 32 H       -3.1400    -5.4070    -0.2870 H     1 <1>   0.0800 
 33 H       -1.5750    -2.9660    -0.3490 H     1 <1>   0.4500 
 34 H       -1.2310    -3.9520    -2.5260 H     1 <1>   0.0800 
 35 H       -0.6810    -5.4170    -1.7440 H     1 <1>   0.0800 
 36 H       -0.8560    -5.5750     0.8020 H     1 <1>   0.0800 
 37 H       -1.5200    -4.2090     1.6740 H     1 <1>   0.0800 
 38 H        0.5870    -2.6800    -1.5510 H     1 <1>   0.0800 
 39 H        1.2320    -4.0580    -2.3840 H     1 <1>   0.0800 
 40 H        0.9390    -4.3190     1.8590 H     1 <1>   0.0800 
 41 H        0.4010    -2.8440     1.1200 H     1 <1>   0.0800 
 42 H        1.5180    -5.2800    -0.3000 H     1 <1>   0.0800 
 43 H        2.6250    -2.4670    -0.0500 H     1 <1>   0.0800 
 44 H        3.3510    -3.7720    -0.9550 H     1 <1>   0.0800 
 45 H        3.2310    -3.8800     0.7790 H     1 <1>   0.0800 
@<TRIPOS>BOND
  1   1   2  1   
  2   1   3  1   
  3   2   4  ar  
  4   2   5  ar  
  5   3   6  1   
  6   3  22  1   
  7   3  23  1   
  8   4   6  1   
  9   4   7  ar  
 10   5   8  ar  
 11   5  24  1   
 12   7   9  ar  
 13   7  25  1   
 14   8   9  ar  
 15   8  10  1   
 16   9  26  1   
 17  10  11  1   
 18  11  12  1   
 19  11  27  1   
 20  11  28  1   
 21  12  13  1   
 22  12  14  1   
 23  12  29  1   
 24  13  30  1   
 25  14  15  1   
 26  14  31  1   
 27  14  32  1   
 28  15  16  1   
 29  15  17  1   
 30  15  33  1   
 31  16  18  1   
 32  16  34  1   
 33  16  35  1   
 34  17  19  1   
 35  17  36  1   
 36  17  37  1   
 37  18  20  1   
 38  18  38  1   
 39  18  39  1   
 40  19  20  1   
 41  19  40  1   
 42  19  41  1   
 43  20  21  1   
 44  20  42  1   
 45  21  43  1   
 46  21  44  1   
 47  21  45  1   
@<TRIPOS>SUBSTRUCTURE
  1 ****  11 GROUP 4 **** **** 0

# MOE 2024.06 (io_trps.svl 2023.06)
