@<TRIPOS>MOLECULE
NONAME
39 40 1 0 0 
SMALL
USER_CHARGES


@<TRIPOS>ATOM
  1 O        1.2250    -1.4010     1.6250 O.3   1 <1>  -0.5600 
  2 C        0.5380    -1.8490     0.4880 C.3   1 <1>   0.1200 
  3 C        1.8310    -0.1430     1.4750 C.3   1 <1>   0.1200 
  4 C        1.5040    -2.0240    -0.7070 C.3   1 <1>   0.3430 
  5 C        2.7470    -0.0940     0.2300 C.3   1 <1>   0.3430 
  6 N        2.8570    -1.4480    -0.4120 N.4   1 <1>  -0.9590 
  7 C        3.8020    -1.4960    -1.5590 C.3   1 <1>   0.4860 
  8 C        5.1600    -1.0120    -1.0840 C.ar  1 <1>  -0.1430 
  9 C        5.9710    -1.7550    -0.2240 C.ar  1 <1>  -0.1430 
 10 C        5.5760     0.2360    -1.5220 C.ar  1 <1>  -0.1500 
 11 C        7.1770    -1.2120     0.2230 C.ar  1 <1>  -0.1430 
 12 C        5.5650    -3.1610     0.2300 C.3   1 <1>  -0.0970 
 13 C        6.7790     0.7610    -1.1030 C.ar  1 <1>  -0.1500 
 14 C        7.5860     0.0450    -0.2270 C.ar  1 <1>   0.0830 
 15 C        8.0750    -1.9810     1.1990 C.3   1 <1>  -0.0970 
 16 O        8.7800     0.5310     0.2060 O.3   1 <1>  -0.3620 
 17 C        9.3350     1.7300    -0.2880 C.3   1 <1>   0.0400 
 18 H       -0.2370    -1.1390     0.2540 H     1 <1>   0.0800 
 19 H        0.0710    -2.7880     0.7310 H     1 <1>   0.0800 
 20 H        2.4090     0.0460     2.3640 H     1 <1>   0.0800 
 21 H        1.0610     0.6060     1.4110 H     1 <1>   0.0800 
 22 H        1.0750    -1.5450    -1.5720 H     1 <1>   0.0800 
 23 H        1.5950    -3.0740    -0.9290 H     1 <1>   0.0800 
 24 H        3.7220     0.2580     0.5280 H     1 <1>   0.0800 
 25 H        2.3470     0.6160    -0.4740 H     1 <1>   0.0800 
 26 H        3.2610    -2.0330     0.3330 H     1 <1>   0.4500 
 27 H        3.4480    -0.8640    -2.3570 H     1 <1>   0.0800 
 28 H        3.8880    -2.5010    -1.9350 H     1 <1>   0.0800 
 29 H        4.9720     0.8160    -2.1990 H     1 <1>   0.1500 
 30 H        6.4150    -3.8200     0.1910 H     1 <1>   0.0800 
 31 H        4.8140    -3.6040    -0.3930 H     1 <1>   0.0800 
 32 H        5.2070    -3.1310     1.2440 H     1 <1>   0.0800 
 33 H        7.0720     1.7280    -1.4660 H     1 <1>   0.1500 
 34 H        7.4940    -2.5080     1.9330 H     1 <1>   0.0800 
 35 H        8.7300    -1.3250     1.7420 H     1 <1>   0.0800 
 36 H        8.6800    -2.6850     0.6560 H     1 <1>   0.0800 
 37 H       10.2980     1.8640     0.1720 H     1 <1>   0.0800 
 38 H        8.6900     2.5490    -0.0260 H     1 <1>   0.0800 
 39 H        9.4490     1.6490    -1.3540 H     1 <1>   0.0800 
@<TRIPOS>BOND
  1   1   2  1   
  2   1   3  1   
  3   2   4  1   
  4   2  18  1   
  5   2  19  1   
  6   3   5  1   
  7   3  20  1   
  8   3  21  1   
  9   4   6  1   
 10   4  22  1   
 11   4  23  1   
 12   5   6  1   
 13   5  24  1   
 14   5  25  1   
 15   6   7  1   
 16   6  26  1   
 17   7   8  1   
 18   7  27  1   
 19   7  28  1   
 20   8   9  ar  
 21   8  10  ar  
 22   9  11  ar  
 23   9  12  1   
 24  10  13  ar  
 25  10  29  1   
 26  11  14  ar  
 27  11  15  1   
 28  12  30  1   
 29  12  31  1   
 30  12  32  1   
 31  13  14  ar  
 32  13  33  1   
 33  14  16  1   
 34  15  34  1   
 35  15  35  1   
 36  15  36  1   
 37  16  17  1   
 38  17  37  1   
 39  17  38  1   
 40  17  39  1   
@<TRIPOS>SUBSTRUCTURE
  1 ****   8 GROUP 4 **** **** 0

# MOE 2024.06 (io_trps.svl 2023.06)
