@<TRIPOS>MOLECULE
NONAME
42 44 1 0 0 
SMALL
USER_CHARGES


@<TRIPOS>ATOM
  1 CL      -3.9040    -2.2380     1.8910 Cl    1 <1>  -0.1770 
  2 C       -2.5720    -2.2340     0.7570 C.ar  1 <1>   0.1770 
  3 C       -2.4000    -1.1660    -0.1230 C.ar  1 <1>   0.0540 
  4 C       -1.7040    -3.3100     0.7820 C.ar  1 <1>  -0.1500 
  5 C       -3.3090    -0.0440    -0.1680 C.2   1 <1>   0.2350 
  6 C       -1.2970    -1.2140    -0.9740 C.ar  1 <1>  -0.1500 
  7 C       -0.6220    -3.3370    -0.0800 C.ar  1 <1>  -0.1500 
  8 N       -2.9760     1.1750     0.0990 N.2   1 <1>  -0.4100 
  9 C       -4.6570    -0.0890    -0.5050 C.2   1 <1>  -0.0860 
 10 C       -0.4200    -2.2840    -0.9560 C.ar  1 <1>  -0.1500 
 11 O       -4.0170     1.9630    -0.0210 O.3   1 <1>  -0.0190 
 12 C       -5.0190     1.2040    -0.3890 C.2   1 <1>  -0.0400 
 13 C       -5.3990    -1.2590    -0.8770 C.2   1 <1>   0.7160 
 14 C       -6.3590     1.8710    -0.6380 C.3   1 <1>  -0.0600 
 15 O       -4.9480    -2.0680    -1.6630 O.2   1 <1>  -0.5700 
 16 N       -6.6340    -1.4550    -0.3450 N.am  1 <1>  -0.7300 
 17 C       -7.6580    -2.3830    -0.8560 C.3   1 <1>   0.2200 
 18 C       -9.0640    -1.8910    -0.4310 C.3   1 <1>   0.2000 
 19 C       -7.3430    -3.7960    -0.3550 C.3   1 <1>  -0.2400 
 20 O       -9.1850    -0.5150    -0.6410 O.3   1 <1>  -0.5600 
 21 C       -9.4110    -2.0520     1.0480 C.3   1 <1>  -0.1600 
 22 C      -10.2650    -0.0220     0.0810 C.3   1 <1>   0.1200 
 23 C      -10.3960    -0.9210     1.3070 C.3   1 <1>  -0.1600 
 24 H       -1.8760    -4.1160     1.4720 H     1 <1>   0.1500 
 25 H       -1.1340    -0.3980    -1.6570 H     1 <1>   0.1500 
 26 H        0.0590    -4.1710    -0.0690 H     1 <1>   0.1500 
 27 H        0.4220    -2.2990    -1.6270 H     1 <1>   0.1500 
 28 H       -6.7510     2.2600     0.2840 H     1 <1>   0.0800 
 29 H       -7.0660     1.1790    -1.0560 H     1 <1>   0.0800 
 30 H       -6.2330     2.6850    -1.3300 H     1 <1>   0.0800 
 31 H       -7.0540    -0.6780     0.1680 H     1 <1>   0.3700 
 32 H       -7.6150    -2.3840    -1.9330 H     1 <1>   0.0800 
 33 H       -9.8140    -2.3780    -1.0310 H     1 <1>   0.0800 
 34 H       -7.2710    -3.8210     0.7170 H     1 <1>   0.0800 
 35 H       -6.4090    -4.1310    -0.7710 H     1 <1>   0.0800 
 36 H       -8.1110    -4.4790    -0.6700 H     1 <1>   0.0800 
 37 H       -8.5310    -1.9160     1.6530 H     1 <1>   0.0800 
 38 H       -9.8320    -3.0200     1.2540 H     1 <1>   0.0800 
 39 H      -11.1410    -0.0830    -0.5430 H     1 <1>   0.0800 
 40 H      -10.0690     1.0040     0.3430 H     1 <1>   0.0800 
 41 H      -10.1480    -0.3850     2.2060 H     1 <1>   0.0800 
 42 H      -11.4040    -1.2880     1.3850 H     1 <1>   0.0800 
@<TRIPOS>BOND
  1   1   2  1   
  2   2   3  ar  
  3   2   4  ar  
  4   3   5  1   
  5   3   6  ar  
  6   4   7  ar  
  7   4  24  1   
  8   5   8  2   
  9   5   9  1   
 10   6  10  ar  
 11   6  25  1   
 12   7  10  ar  
 13   7  26  1   
 14   8  11  1   
 15   9  12  2   
 16   9  13  1   
 17  10  27  1   
 18  11  12  1   
 19  12  14  1   
 20  13  15  2   
 21  13  16  am  
 22  14  28  1   
 23  14  29  1   
 24  14  30  1   
 25  16  17  1   
 26  16  31  1   
 27  17  18  1   
 28  17  19  1   
 29  17  32  1   
 30  18  20  1   
 31  18  21  1   
 32  18  33  1   
 33  19  34  1   
 34  19  35  1   
 35  19  36  1   
 36  20  22  1   
 37  21  23  1   
 38  21  37  1   
 39  21  38  1   
 40  22  23  1   
 41  22  39  1   
 42  22  40  1   
 43  23  41  1   
 44  23  42  1   
@<TRIPOS>SUBSTRUCTURE
  1 ****  13 GROUP 4 **** **** 0

# MOE 2024.06 (io_trps.svl 2023.06)
