@<TRIPOS>MOLECULE
NONAME
43 45 1 0 0 
SMALL
USER_CHARGES


@<TRIPOS>ATOM
  1 O        0.4280    -0.2630     0.1610 O.3   1 <1>  -0.6800 
  2 C       -0.5150    -1.1180     0.6780 C.3   1 <1>   0.2000 
  3 C       -0.5990    -2.3390    -0.2360 C.3   1 <1>  -0.1600 
  4 C       -1.8360    -0.3520     0.7240 C.3   1 <1>  -0.1600 
  5 C       -1.7850    -3.2250     0.1420 C.3   1 <1>   0.3430 
  6 C       -2.9910    -1.2770     1.0880 C.3   1 <1>   0.3430 
  7 N       -3.0350    -2.4190     0.1290 N.4   1 <1>  -0.9590 
  8 C       -4.2380    -3.2520     0.3540 C.3   1 <1>   0.4810 
  9 C       -5.4620    -2.5230    -0.1720 C.2   1 <1>  -0.2540 
 10 C       -5.4530    -1.3400    -0.9720 C.2   1 <1>  -0.2880 
 11 C       -6.8860    -3.3450     0.3350 C.3   1 <1>   0.1160 
 12 C       -7.0240    -0.8090    -1.3920 C.3   1 <1>  -0.0220 
 13 C       -8.5820    -3.1680     0.1130 C.3   1 <1>   0.0000 
 14 C       -7.3480    -2.3510    -0.3540 C.3   1 <1>   0.0000 
 15 C       -8.3740    -1.7580    -0.8470 C.3   1 <1>   0.0000 
 16 C       -9.3900    -2.9060     1.4100 C.3   1 <1>  -0.2400 
 17 C       -9.2270    -4.3660    -0.6320 C.3   1 <1>  -0.2400 
 18 H        1.3280    -0.6400     0.2170 H     1 <1>   0.4000 
 19 H       -0.2070    -1.3980     1.6730 H     1 <1>   0.0800 
 20 H        0.3050    -2.9150    -0.1540 H     1 <1>   0.0800 
 21 H       -0.7090    -2.0270    -1.2600 H     1 <1>   0.0800 
 22 H       -2.0340     0.1010    -0.2320 H     1 <1>   0.0800 
 23 H       -1.7670     0.4310     1.4570 H     1 <1>   0.0800 
 24 H       -1.6270    -3.6390     1.1250 H     1 <1>   0.0800 
 25 H       -1.8620    -4.0390    -0.5620 H     1 <1>   0.0800 
 26 H       -3.9180    -0.7250     1.0510 H     1 <1>   0.0800 
 27 H       -2.8580    -1.6450     2.0930 H     1 <1>   0.0800 
 28 H       -3.1610    -2.0230    -0.8110 H     1 <1>   0.4500 
 29 H       -4.3540    -3.4550     1.4060 H     1 <1>   0.0800 
 30 H       -4.1450    -4.1910    -0.1670 H     1 <1>   0.0800 
 31 H       -4.6370    -0.7460    -1.3480 H     1 <1>   0.1500 
 32 H       -6.8110    -3.2900     1.4110 H     1 <1>   0.0000 
 33 H       -7.0790    -0.7380    -2.4660 H     1 <1>   0.0800 
 34 H       -7.1530     0.1960    -1.0230 H     1 <1>   0.0800 
 35 H       -7.1080    -2.9020    -1.3580 H     1 <1>   0.0000 
 36 H       -7.2240    -1.5940     0.5210 H     1 <1>   0.0000 
 37 H       -8.8210    -2.0730    -1.7780 H     1 <1>   0.0000 
 38 H       -8.9860    -2.0750     1.9610 H     1 <1>   0.0800 
 39 H       -9.3720    -3.7750     2.0440 H     1 <1>   0.0800 
 40 H      -10.4130    -2.6810     1.1680 H     1 <1>   0.0800 
 41 H       -8.6990    -4.5880    -1.5430 H     1 <1>   0.0800 
 42 H      -10.2480    -4.1400    -0.8820 H     1 <1>   0.0800 
 43 H       -9.2120    -5.2430    -0.0110 H     1 <1>   0.0800 
@<TRIPOS>BOND
  1   1   2  1   
  2   1  18  1   
  3   2   3  1   
  4   2   4  1   
  5   2  19  1   
  6   3   5  1   
  7   3  20  1   
  8   3  21  1   
  9   4   6  1   
 10   4  22  1   
 11   4  23  1   
 12   5   7  1   
 13   5  24  1   
 14   5  25  1   
 15   6   7  1   
 16   6  26  1   
 17   6  27  1   
 18   7   8  1   
 19   7  28  1   
 20   8   9  1   
 21   8  29  1   
 22   8  30  1   
 23   9  10  2   
 24   9  11  1   
 25  10  12  1   
 26  10  31  1   
 27  11  13  1   
 28  11  14  1   
 29  11  32  1   
 30  12  15  1   
 31  12  33  1   
 32  12  34  1   
 33  13  15  1   
 34  13  16  1   
 35  13  17  1   
 36  14  15  1   
 37  14  35  1   
 38  14  36  1   
 39  15  37  1   
 40  16  38  1   
 41  16  39  1   
 42  16  40  1   
 43  17  41  1   
 44  17  42  1   
 45  17  43  1   
@<TRIPOS>SUBSTRUCTURE
  1 ****   9 GROUP 4 **** **** 0

# MOE 2024.06 (io_trps.svl 2023.06)
