@<TRIPOS>MOLECULE
NONAME
47 49 1 0 0 
SMALL
USER_CHARGES


@<TRIPOS>ATOM
  1 S       -0.0900    -1.1870    -1.8910 S.o2  1 <1>   1.4470 
  2 O        1.2070    -1.7730    -2.1500 O.2   1 <1>  -0.6500 
  3 O       -0.6890    -0.3110    -2.8740 O.2   1 <1>  -0.6500 
  4 N        0.0370    -0.3110    -0.4460 N.am  1 <1>  -0.8490 
  5 C       -1.2930    -2.4810    -1.4760 C.ar  1 <1>  -0.0090 
  6 C        0.6750     0.9910    -0.6670 C.3   1 <1>   0.1960 
  7 C        0.7410    -1.0670     0.5970 C.3   1 <1>   0.1960 
  8 C       -2.4750    -2.1600    -0.8250 C.ar  1 <1>  -0.1500 
  9 C       -1.0710    -3.8120    -1.8060 C.ar  1 <1>  -0.1500 
 10 C        0.6300     1.8280     0.6170 C.3   1 <1>  -0.1600 
 11 C        0.6820    -0.3100     1.9270 C.3   1 <1>  -0.1600 
 12 C       -3.4380    -3.1140    -0.5010 C.ar  1 <1>   0.0860 
 13 C       -1.9980    -4.7870    -1.4850 C.ar  1 <1>  -0.1500 
 14 C        1.2850     1.0930     1.7920 C.3   1 <1>  -0.1600 
 15 C       -4.6740    -2.7510     0.1680 C.2   1 <1>   0.5440 
 16 C       -3.1670    -4.4390    -0.8360 C.ar  1 <1>  -0.1500 
 17 O       -4.9860    -3.3520     1.1780 O.2   1 <1>  -0.5700 
 18 N       -5.4940    -1.7430    -0.3260 N.am  1 <1>  -0.4770 
 19 C       -6.5420    -1.1540     0.4050 C.ar  1 <1>   0.1170 
 20 C       -5.3720    -1.2880    -1.7390 C.3   1 <1>   0.0600 
 21 C       -7.5820    -1.9180     0.9250 C.ar  1 <1>  -0.1500 
 22 C       -6.5690     0.2230     0.6060 C.ar  1 <1>  -0.1500 
 23 C       -8.6220    -1.3260     1.6180 C.ar  1 <1>  -0.1500 
 24 C       -7.6070     0.8200     1.2980 C.ar  1 <1>  -0.1500 
 25 C       -8.6370     0.0460     1.8040 C.ar  1 <1>  -0.1500 
 26 H        0.1550     1.5270    -1.4440 H     1 <1>   0.0800 
 27 H        1.6960     0.8490    -0.9830 H     1 <1>   0.0800 
 28 H        1.7690    -1.2230     0.3100 H     1 <1>   0.0800 
 29 H        0.2780    -2.0310     0.7260 H     1 <1>   0.0800 
 30 H       -2.6530    -1.1330    -0.5530 H     1 <1>   0.1500 
 31 H       -0.1610    -4.0890    -2.3150 H     1 <1>   0.1500 
 32 H       -0.3980     2.0440     0.8500 H     1 <1>   0.0800 
 33 H        1.1330     2.7640     0.4490 H     1 <1>   0.0800 
 34 H        1.2180    -0.8630     2.6770 H     1 <1>   0.0800 
 35 H       -0.3450    -0.2380     2.2410 H     1 <1>   0.0800 
 36 H       -1.8090    -5.8170    -1.7390 H     1 <1>   0.1500 
 37 H        1.1370     1.6480     2.7030 H     1 <1>   0.0800 
 38 H        2.3450     1.0120     1.6180 H     1 <1>   0.0800 
 39 H       -3.8870    -5.1970    -0.5780 H     1 <1>   0.1500 
 40 H       -4.6640    -0.4800    -1.8040 H     1 <1>   0.0800 
 41 H       -6.3280    -0.9430    -2.0950 H     1 <1>   0.0800 
 42 H       -5.0500    -2.0980    -2.3700 H     1 <1>   0.0800 
 43 H       -7.5670    -2.9840     0.7850 H     1 <1>   0.1500 
 44 H       -5.7690     0.8270     0.2200 H     1 <1>   0.1500 
 45 H       -9.4170    -1.9330     2.0140 H     1 <1>   0.1500 
 46 H       -7.6140     1.8860     1.4450 H     1 <1>   0.1500 
 47 H       -9.4460     0.5080     2.3430 H     1 <1>   0.1500 
@<TRIPOS>BOND
  1   1   2  2   
  2   1   3  2   
  3   1   4  am  
  4   1   5  1   
  5   4   6  1   
  6   4   7  1   
  7   5   8  ar  
  8   5   9  ar  
  9   6  10  1   
 10   6  26  1   
 11   6  27  1   
 12   7  11  1   
 13   7  28  1   
 14   7  29  1   
 15   8  12  ar  
 16   8  30  1   
 17   9  13  ar  
 18   9  31  1   
 19  10  14  1   
 20  10  32  1   
 21  10  33  1   
 22  11  14  1   
 23  11  34  1   
 24  11  35  1   
 25  12  15  1   
 26  12  16  ar  
 27  13  16  ar  
 28  13  36  1   
 29  14  37  1   
 30  14  38  1   
 31  15  17  2   
 32  15  18  am  
 33  16  39  1   
 34  18  19  1   
 35  18  20  1   
 36  19  21  ar  
 37  19  22  ar  
 38  20  40  1   
 39  20  41  1   
 40  20  42  1   
 41  21  23  ar  
 42  21  43  1   
 43  22  24  ar  
 44  22  44  1   
 45  23  25  ar  
 46  23  45  1   
 47  24  25  ar  
 48  24  46  1   
 49  25  47  1   
@<TRIPOS>SUBSTRUCTURE
  1 ****   8 GROUP 4 **** **** 0

# MOE 2024.06 (io_trps.svl 2023.06)
