@<TRIPOS>MOLECULE
NONAME
44 46 1 0 0 
SMALL
USER_CHARGES


@<TRIPOS>ATOM
  1 O        0.5040     1.2650     2.2540 O.2   1 <1>  -0.5700 
  2 C        0.4170     1.8850     1.2240 C.2   1 <1>   0.4950 
  3 C        1.4910     2.0990     0.3280 C.2   1 <1>  -0.1240 
  4 C       -0.9220     2.4820     0.8060 C.3   1 <1>  -0.0990 
  5 C        1.4300     2.8470    -0.7730 C.2   1 <1>  -0.0620 
  6 C        2.8780     1.5360     0.4490 C.3   1 <1>   0.4270 
  7 C       -0.7870     3.7810    -0.0420 C.3   1 <1>   0.0000 
  8 O        2.5610     2.8790    -1.4470 O.3   1 <1>  -0.0560 
  9 C        0.1950     3.5920    -1.2330 C.3   1 <1>  -0.0220 
 10 N        3.5600     2.2300    -0.7000 N.pl3 1 <1>  -0.4900 
 11 C        2.9290    -0.0090     0.3240 C.3   1 <1>  -0.0800 
 12 C       -2.1700     4.1790    -0.5820 C.3   1 <1>  -0.2400 
 13 C       -0.2820     4.9230     0.8610 C.3   1 <1>  -0.2400 
 14 C        4.6890     2.9930    -0.4280 C.ar  1 <1>   0.1000 
 15 C        4.3630    -0.5440     0.4730 C.3   1 <1>  -0.2400 
 16 C        2.3110    -0.5500    -0.9800 C.3   1 <1>  -0.2400 
 17 C        4.6000     4.1880     0.2800 C.ar  1 <1>  -0.1500 
 18 C        5.9410     2.5670    -0.8580 C.ar  1 <1>  -0.1500 
 19 C        5.7330     4.9290     0.5640 C.ar  1 <1>  -0.1500 
 20 C        7.0760     3.3040    -0.5760 C.ar  1 <1>  -0.1500 
 21 C        6.9740     4.4860     0.1380 C.ar  1 <1>  -0.1500 
 22 H       -1.5040     2.6770     1.6890 H     1 <1>   0.0800 
 23 H       -1.4400     1.7320     0.2360 H     1 <1>   0.0800 
 24 H        3.3180     1.8480     1.3800 H     1 <1>   0.0800 
 25 H       -0.2670     3.0220    -2.0190 H     1 <1>   0.0800 
 26 H        0.4780     4.5480    -1.6390 H     1 <1>   0.0800 
 27 H        2.3560    -0.4070     1.1440 H     1 <1>   0.0800 
 28 H       -2.5690     3.4060    -1.2150 H     1 <1>   0.0800 
 29 H       -2.1040     5.0860    -1.1580 H     1 <1>   0.0800 
 30 H       -2.8600     4.3420     0.2270 H     1 <1>   0.0800 
 31 H        0.6950     4.7070     1.2550 H     1 <1>   0.0800 
 32 H       -0.9510     5.0760     1.6900 H     1 <1>   0.0800 
 33 H       -0.2210     5.8440     0.3080 H     1 <1>   0.0800 
 34 H        4.9700    -0.2300    -0.3570 H     1 <1>   0.0800 
 35 H        4.3590    -1.6190     0.5050 H     1 <1>   0.0800 
 36 H        4.8080    -0.1790     1.3810 H     1 <1>   0.0800 
 37 H        2.8460    -0.1750    -1.8350 H     1 <1>   0.0800 
 38 H        1.2810    -0.2530    -1.0660 H     1 <1>   0.0800 
 39 H        2.3520    -1.6240    -0.9950 H     1 <1>   0.0800 
 40 H        3.6360     4.5340     0.6030 H     1 <1>   0.1500 
 41 H        6.0130     1.6540    -1.4190 H     1 <1>   0.1500 
 42 H        5.6510     5.8500     1.1140 H     1 <1>   0.1500 
 43 H        8.0380     2.9600    -0.9140 H     1 <1>   0.1500 
 44 H        7.8570     5.0610     0.3580 H     1 <1>   0.1500 
@<TRIPOS>BOND
  1   1   2  2   
  2   2   3  1   
  3   2   4  1   
  4   3   5  2   
  5   3   6  1   
  6   4   7  1   
  7   4  22  1   
  8   4  23  1   
  9   5   8  1   
 10   5   9  1   
 11   6  10  1   
 12   6  11  1   
 13   6  24  1   
 14   7   9  1   
 15   7  12  1   
 16   7  13  1   
 17   8  10  1   
 18   9  25  1   
 19   9  26  1   
 20  10  14  1   
 21  11  15  1   
 22  11  16  1   
 23  11  27  1   
 24  12  28  1   
 25  12  29  1   
 26  12  30  1   
 27  13  31  1   
 28  13  32  1   
 29  13  33  1   
 30  14  17  ar  
 31  14  18  ar  
 32  15  34  1   
 33  15  35  1   
 34  15  36  1   
 35  16  37  1   
 36  16  38  1   
 37  16  39  1   
 38  17  19  ar  
 39  17  40  1   
 40  18  20  ar  
 41  18  41  1   
 42  19  21  ar  
 43  19  42  1   
 44  20  21  ar  
 45  20  43  1   
 46  21  44  1   
@<TRIPOS>SUBSTRUCTURE
  1 ****   6 GROUP 4 **** **** 0

# MOE 2024.06 (io_trps.svl 2023.06)
