@<TRIPOS>MOLECULE
NONAME
50 52 1 0 0 
SMALL
USER_CHARGES


@<TRIPOS>ATOM
  1 O        0.2830     0.7200    -0.6810 O.2   1 <1>  -0.5700 
  2 C        0.1360     1.6840     0.0470 C.2   1 <1>   0.5440 
  3 N        1.2220     2.1560     0.7620 N.am  1 <1>  -0.6600 
  4 C       -1.1710     2.3050     0.1310 C.ar  1 <1>   0.0860 
  5 C        2.5070     1.4050     0.8100 C.3   1 <1>   0.1400 
  6 C        1.2660     3.5050     1.3940 C.3   1 <1>   0.1400 
  7 C       -1.8320     2.4570     1.3510 C.ar  1 <1>  -0.1500 
  8 C       -1.8170     2.7690    -1.0140 C.ar  1 <1>  -0.1500 
  9 C        3.6140     2.2310     0.1480 C.3   1 <1>  -0.1600 
 10 C        2.3710     4.3420     0.7430 C.3   1 <1>  -0.1600 
 11 C       -3.0720     3.0630     1.4240 C.ar  1 <1>  -0.1500 
 12 C       -3.0580     3.3760    -0.9500 C.ar  1 <1>  -0.1500 
 13 C        3.7380     3.6270     0.7870 C.3   1 <1>  -0.0190 
 14 C       -3.6950     3.5300     0.2780 C.ar  1 <1>   0.0820 
 15 C        4.8530     4.4360     0.1210 C.2   1 <1>   0.5690 
 16 O       -4.9040     4.1150     0.4320 O.3   1 <1>  -0.3630 
 17 O        4.5790     5.2000    -0.7730 O.2   1 <1>  -0.5700 
 18 N        6.1250     4.2460     0.5900 N.am  1 <1>  -0.5470 
 19 C       -5.6420     4.5950    -0.6690 C.3   1 <1>   0.0400 
 20 C        7.3540     4.7990     0.1960 C.ar  1 <1>   0.1170 
 21 C        8.4230     4.7410     1.0820 C.ar  1 <1>  -0.1500 
 22 C        7.5640     5.3890    -1.0470 C.ar  1 <1>  -0.1500 
 23 C        9.6610     5.2580     0.7440 C.ar  1 <1>  -0.1500 
 24 C        8.8000     5.9080    -1.3880 C.ar  1 <1>  -0.1500 
 25 C        9.8570     5.8480    -0.4940 C.ar  1 <1>  -0.1440 
 26 C       11.2130     6.4170    -0.8710 C.3   1 <1>  -0.0970 
 27 H        2.4170     0.4570     0.3070 H     1 <1>   0.0800 
 28 H        2.7570     1.2080     1.8380 H     1 <1>   0.0800 
 29 H        1.4600     3.3930     2.4470 H     1 <1>   0.0800 
 30 H        0.3290     4.0190     1.2780 H     1 <1>   0.0800 
 31 H       -1.3620     2.0900     2.2470 H     1 <1>   0.1500 
 32 H       -1.3280     2.6430    -1.9650 H     1 <1>   0.1500 
 33 H        3.3900     2.3310    -0.9000 H     1 <1>   0.0800 
 34 H        4.5460     1.7020     0.2330 H     1 <1>   0.0800 
 35 H        2.4430     5.2910     1.2440 H     1 <1>   0.0800 
 36 H        2.0940     4.5360    -0.2790 H     1 <1>   0.0800 
 37 H       -3.5710     3.1770     2.3700 H     1 <1>   0.1500 
 38 H       -3.5130     3.7180    -1.8600 H     1 <1>   0.1500 
 39 H        4.0010     3.5010     1.8220 H     1 <1>   0.0800 
 40 H        6.1980     3.6080     1.3780 H     1 <1>   0.3700 
 41 H       -6.5660     5.0020    -0.3000 H     1 <1>   0.0800 
 42 H       -5.8430     3.7770    -1.3380 H     1 <1>   0.0800 
 43 H       -5.0740     5.3650    -1.1610 H     1 <1>   0.0800 
 44 H        8.2920     4.2920     2.0490 H     1 <1>   0.1500 
 45 H        6.7640     5.4440    -1.7610 H     1 <1>   0.1500 
 46 H       10.4730     5.2020     1.4470 H     1 <1>   0.1500 
 47 H        8.9350     6.3590    -2.3550 H     1 <1>   0.1500 
 48 H       11.7380     6.7500     0.0060 H     1 <1>   0.0800 
 49 H       11.0960     7.2540    -1.5350 H     1 <1>   0.0800 
 50 H       11.8000     5.6620    -1.3630 H     1 <1>   0.0800 
@<TRIPOS>BOND
  1   1   2  2   
  2   2   3  am  
  3   2   4  1   
  4   3   5  1   
  5   3   6  1   
  6   4   7  ar  
  7   4   8  ar  
  8   5   9  1   
  9   5  27  1   
 10   5  28  1   
 11   6  10  1   
 12   6  29  1   
 13   6  30  1   
 14   7  11  ar  
 15   7  31  1   
 16   8  12  ar  
 17   8  32  1   
 18   9  13  1   
 19   9  33  1   
 20   9  34  1   
 21  10  13  1   
 22  10  35  1   
 23  10  36  1   
 24  11  14  ar  
 25  11  37  1   
 26  12  14  ar  
 27  12  38  1   
 28  13  15  1   
 29  13  39  1   
 30  14  16  1   
 31  15  17  2   
 32  15  18  am  
 33  16  19  1   
 34  18  20  1   
 35  18  40  1   
 36  19  41  1   
 37  19  42  1   
 38  19  43  1   
 39  20  21  ar  
 40  20  22  ar  
 41  21  23  ar  
 42  21  44  1   
 43  22  24  ar  
 44  22  45  1   
 45  23  25  ar  
 46  23  46  1   
 47  24  25  ar  
 48  24  47  1   
 49  25  26  1   
 50  26  48  1   
 51  26  49  1   
 52  26  50  1   
@<TRIPOS>SUBSTRUCTURE
  1 ****  10 GROUP 4 **** **** 0

# MOE 2024.06 (io_trps.svl 2023.06)
