@<TRIPOS>MOLECULE
NONAME
31 32 1 0 0 
SMALL
USER_CHARGES


@<TRIPOS>ATOM
  1 S        0.2330    -0.1040    -1.3070 S.3   1 <1>  -0.0800 
  2 C        1.7050     0.6420    -0.7390 C.2   1 <1>   0.1660 
  3 C       -0.7630     1.2640    -0.7750 C.2   1 <1>  -0.0450 
  4 N        2.8960     0.0360    -0.8630 N.2   1 <1>  -0.5760 
  5 C        1.4490     1.8600    -0.1870 C.2   1 <1>  -0.0860 
  6 C        0.0550     2.2030    -0.2150 C.2   1 <1>  -0.1810 
  7 C       -2.1830     1.2200    -1.0270 C.2   1 <1>   0.8050 
  8 C        3.9110     0.7060    -0.4070 C.2   1 <1>   0.4490 
  9 C        2.5880     2.5600     0.3050 C.2   1 <1>   0.7160 
 10 C       -0.4260     3.5350     0.3500 C.3   1 <1>  -0.0590 
 11 O       -2.8060     2.1970    -1.3860 O.2   1 <1>  -0.5700 
 12 O       -2.8950     0.1040    -0.8430 O.3   1 <1>  -0.4300 
 13 N        3.8350     1.9530     0.1770 N.am  1 <1>  -0.1110 
 14 C        5.2750     0.0530    -0.5340 C.3   1 <1>  -0.1790 
 15 O        2.5130     3.6680     0.8380 O.2   1 <1>  -0.5700 
 16 C       -2.5700    -0.8720     0.1190 C.3   1 <1>   0.1200 
 17 N        5.0410     2.6440     0.6680 N.3   1 <1>  -0.7290 
 18 C       -3.8610    -1.5750     0.5240 C.3   1 <1>  -0.2400 
 19 H       -1.4950     3.6310     0.2870 H     1 <1>   0.0800 
 20 H        0.0170     4.3470    -0.1980 H     1 <1>   0.0800 
 21 H       -0.1430     3.6230     1.3840 H     1 <1>   0.0800 
 22 H        5.9210     0.6700    -1.1310 H     1 <1>   0.0800 
 23 H        5.1890    -0.9110    -1.0030 H     1 <1>   0.0800 
 24 H        5.7110    -0.0760     0.4390 H     1 <1>   0.0800 
 25 H       -2.1170    -0.3930     0.9710 H     1 <1>   0.0800 
 26 H       -1.8840    -1.5750    -0.3200 H     1 <1>   0.0800 
 27 H        4.8670     2.8910     1.6520 H     1 <1>   0.3600 
 28 H        5.0930     3.5470     0.1770 H     1 <1>   0.3600 
 29 H       -4.5510    -0.8680     0.9490 H     1 <1>   0.0800 
 30 H       -3.6500    -2.3320     1.2580 H     1 <1>   0.0800 
 31 H       -4.3120    -2.0450    -0.3320 H     1 <1>   0.0800 
@<TRIPOS>BOND
  1   1   2  1   
  2   1   3  1   
  3   2   4  1   
  4   2   5  2   
  5   3   6  2   
  6   3   7  1   
  7   4   8  2   
  8   5   6  1   
  9   5   9  1   
 10   6  10  1   
 11   7  11  2   
 12   7  12  1   
 13   8  13  1   
 14   8  14  1   
 15   9  13  am  
 16   9  15  2   
 17  10  19  1   
 18  10  20  1   
 19  10  21  1   
 20  12  16  1   
 21  13  17  1   
 22  14  22  1   
 23  14  23  1   
 24  14  24  1   
 25  16  18  1   
 26  16  25  1   
 27  16  26  1   
 28  17  27  1   
 29  17  28  1   
 30  18  29  1   
 31  18  30  1   
 32  18  31  1   
@<TRIPOS>SUBSTRUCTURE
  1 ****   5 GROUP 4 **** **** 0

# MOE 2024.06 (io_trps.svl 2023.06)
