@<TRIPOS>MOLECULE
NONAME
46 46 1 0 0 
SMALL
USER_CHARGES


@<TRIPOS>ATOM
  1 O       -0.6350     0.1970    -1.5710 O.2   1 <1>  -0.5700 
  2 C       -1.4720     0.7510    -0.8950 C.2   1 <1>   0.4950 
  3 C       -1.5660     2.1660    -0.7160 C.2   1 <1>   0.0290 
  4 C       -2.4710    -0.1570    -0.2010 C.3   1 <1>  -0.0990 
  5 C       -2.6350     2.7350    -0.0450 C.2   1 <1>  -0.0380 
  6 C       -0.5110     2.9750    -1.2570 C.2   1 <1>   0.4950 
  7 C       -3.8660     0.4790    -0.1160 C.3   1 <1>   0.0000 
  8 N       -2.7520     4.0760     0.1300 N.pl3 1 <1>  -0.8690 
  9 C       -3.7440     1.8630     0.5500 C.3   1 <1>  -0.0220 
 10 O       -0.7110     4.0160    -1.8470 O.2   1 <1>  -0.5700 
 11 C        0.9550     2.5880    -1.0580 C.3   1 <1>  -0.0990 
 12 C       -4.4750     0.6190    -1.5240 C.3   1 <1>  -0.2400 
 13 C       -4.7890    -0.4200     0.7210 C.3   1 <1>  -0.2400 
 14 C       -3.7730     4.8710     0.8480 C.3   1 <1>   0.2090 
 15 C        1.7980     3.7310    -0.4640 C.3   1 <1>  -0.1600 
 16 C       -4.7730     5.4160    -0.1710 C.3   1 <1>  -0.1600 
 17 C        3.2490     3.2950    -0.2380 C.3   1 <1>  -0.2400 
 18 C       -5.8780     6.2360     0.5090 C.3   1 <1>  -0.1600 
 19 C       -6.8760     6.7710    -0.5200 C.3   1 <1>  -0.2400 
 20 H       -2.0980    -0.3640     0.7850 H     1 <1>   0.0800 
 21 H       -2.5270    -1.0900    -0.7330 H     1 <1>   0.0800 
 22 H       -2.0720     4.6720    -0.3790 H     1 <1>   0.4000 
 23 H       -4.6920     2.3600     0.4520 H     1 <1>   0.0800 
 24 H       -3.5430     1.7490     1.6000 H     1 <1>   0.0800 
 25 H        1.3560     2.3010    -2.0130 H     1 <1>   0.0800 
 26 H        1.0240     1.7420    -0.4010 H     1 <1>   0.0800 
 27 H       -3.8890     1.2720    -2.1460 H     1 <1>   0.0800 
 28 H       -5.4690     1.0280    -1.4660 H     1 <1>   0.0800 
 29 H       -4.5360    -0.3400    -2.0080 H     1 <1>   0.0800 
 30 H       -4.3980    -0.5530     1.7150 H     1 <1>   0.0800 
 31 H       -4.8870    -1.3900     0.2650 H     1 <1>   0.0800 
 32 H       -5.7700     0.0160     0.8010 H     1 <1>   0.0800 
 33 H       -3.2890     5.6840     1.3610 H     1 <1>   0.0800 
 34 H       -4.2760     4.2650     1.5810 H     1 <1>   0.0800 
 35 H        1.3680     4.0440     0.4720 H     1 <1>   0.0800 
 36 H        1.7810     4.5740    -1.1340 H     1 <1>   0.0800 
 37 H       -5.2150     4.5910    -0.7020 H     1 <1>   0.0800 
 38 H       -4.2500     6.0350    -0.8780 H     1 <1>   0.0800 
 39 H        3.2930     2.4690     0.4490 H     1 <1>   0.0800 
 40 H        3.8180     4.1110     0.1710 H     1 <1>   0.0800 
 41 H        3.7000     2.9970    -1.1690 H     1 <1>   0.0800 
 42 H       -5.4400     7.0640     1.0400 H     1 <1>   0.0800 
 43 H       -6.4010     5.6200     1.2210 H     1 <1>   0.0800 
 44 H       -6.3790     7.4080    -1.2310 H     1 <1>   0.0800 
 45 H       -7.6440     7.3420    -0.0280 H     1 <1>   0.0800 
 46 H       -7.3420     5.9590    -1.0510 H     1 <1>   0.0800 
@<TRIPOS>BOND
  1   1   2  2   
  2   2   3  1   
  3   2   4  1   
  4   3   5  2   
  5   3   6  1   
  6   4   7  1   
  7   4  20  1   
  8   4  21  1   
  9   5   8  1   
 10   5   9  1   
 11   6  10  2   
 12   6  11  1   
 13   7   9  1   
 14   7  12  1   
 15   7  13  1   
 16   8  14  1   
 17   8  22  1   
 18   9  23  1   
 19   9  24  1   
 20  11  15  1   
 21  11  25  1   
 22  11  26  1   
 23  12  27  1   
 24  12  28  1   
 25  12  29  1   
 26  13  30  1   
 27  13  31  1   
 28  13  32  1   
 29  14  16  1   
 30  14  33  1   
 31  14  34  1   
 32  15  17  1   
 33  15  35  1   
 34  15  36  1   
 35  16  18  1   
 36  16  37  1   
 37  16  38  1   
 38  17  39  1   
 39  17  40  1   
 40  17  41  1   
 41  18  19  1   
 42  18  42  1   
 43  18  43  1   
 44  19  44  1   
 45  19  45  1   
 46  19  46  1   
@<TRIPOS>SUBSTRUCTURE
  1 ****   5 GROUP 4 **** **** 0

# MOE 2024.06 (io_trps.svl 2023.06)
