@<TRIPOS>MOLECULE
NONAME
45 46 1 0 0 
SMALL
USER_CHARGES


@<TRIPOS>ATOM
  1 CL      -3.9940    -1.9120    -2.1280 Cl    1 <1>  -0.1770 
  2 C       -3.7860    -0.1950    -1.9000 C.ar  1 <1>   0.1770 
  3 C       -3.3750     0.5780    -2.9690 C.ar  1 <1>  -0.1500 
  4 C       -4.0370     0.3620    -0.6610 C.ar  1 <1>  -0.1500 
  5 C       -3.2150     1.9350    -2.7650 C.ar  1 <1>   0.1770 
  6 C       -3.8850     1.7300    -0.4710 C.ar  1 <1>   0.1000 
  7 CL      -2.6990     2.9390    -4.0950 Cl    1 <1>  -0.1770 
  8 C       -3.4580     2.5150    -1.5350 C.ar  1 <1>  -0.1500 
  9 N       -4.1620     2.3130     0.7550 N.pl3 1 <1>  -0.8690 
 10 C       -5.6110     2.5470     1.1240 C.3   1 <1>   0.4330 
 11 P       -6.9800     1.7320     0.2120 P.3   1 <1>   1.2420 
 12 C       -5.7240     4.0690     1.2180 C.ar  1 <1>  -0.1440 
 13 O       -7.1020     0.2820     0.3840 O.2   1 <1>  -0.7000 
 14 O       -6.8080     2.1300    -1.3370 O.3   1 <1>  -0.5510 
 15 O       -8.3450     2.4930     0.6020 O.3   1 <1>  -0.5510 
 16 C       -5.7390     4.6850     2.4620 C.ar  1 <1>  -0.1500 
 17 C       -5.7970     4.8590     0.0770 C.ar  1 <1>  -0.1500 
 18 C       -7.6660     1.6010    -2.2790 C.3   1 <1>   0.1200 
 19 C       -9.1750     2.0550     1.6210 C.3   1 <1>   0.1200 
 20 C       -5.8400     6.0610     2.5580 C.ar  1 <1>   0.0830 
 21 C       -5.8960     6.2370     0.1760 C.ar  1 <1>  -0.1500 
 22 C       -7.2230     2.1150    -3.6440 C.3   1 <1>  -0.2400 
 23 C       -8.5960     2.4490     2.9790 C.3   1 <1>  -0.2400 
 24 O       -5.8590     6.6280     3.7720 O.3   1 <1>  -0.5330 
 25 C       -5.9190     6.8440     1.4190 C.ar  1 <1>  -0.1500 
 26 H       -3.1840     0.1360    -3.9290 H     1 <1>   0.1500 
 27 H       -4.3570    -0.2640     0.1520 H     1 <1>   0.1500 
 28 H       -3.3240     3.5730    -1.4100 H     1 <1>   0.1500 
 29 H       -3.6760     3.2080     0.8880 H     1 <1>   0.4000 
 30 H       -5.6880     2.1880     2.1330 H     1 <1>   0.0800 
 31 H       -5.6730     4.1140     3.3710 H     1 <1>   0.1500 
 32 H       -5.7790     4.4100    -0.9020 H     1 <1>   0.1500 
 33 H       -8.6700     1.9190    -2.0510 H     1 <1>   0.0800 
 34 H       -7.6040     0.5250    -2.2360 H     1 <1>   0.0800 
 35 H       -9.3090     0.9890     1.5370 H     1 <1>   0.0800 
 36 H      -10.1290     2.5360     1.4810 H     1 <1>   0.0800 
 37 H       -5.9570     6.8350    -0.7170 H     1 <1>   0.1500 
 38 H       -7.2770     3.1890    -3.6700 H     1 <1>   0.0800 
 39 H       -7.8680     1.7200    -4.4070 H     1 <1>   0.0800 
 40 H       -6.2160     1.7990    -3.8490 H     1 <1>   0.0800 
 41 H       -7.7110     1.8840     3.2010 H     1 <1>   0.0800 
 42 H       -9.3190     2.2350     3.7450 H     1 <1>   0.0800 
 43 H       -8.3840     3.5030     3.0030 H     1 <1>   0.0800 
 44 H       -5.9320     7.5980     3.7410 H     1 <1>   0.4500 
 45 H       -5.9980     7.9130     1.4920 H     1 <1>   0.1500 
@<TRIPOS>BOND
  1   1   2  1   
  2   2   3  ar  
  3   2   4  ar  
  4   3   5  ar  
  5   3  26  1   
  6   4   6  ar  
  7   4  27  1   
  8   5   7  1   
  9   5   8  ar  
 10   6   8  ar  
 11   6   9  1   
 12   8  28  1   
 13   9  10  1   
 14   9  29  1   
 15  10  11  1   
 16  10  12  1   
 17  10  30  1   
 18  11  13  2   
 19  11  14  1   
 20  11  15  1   
 21  12  16  ar  
 22  12  17  ar  
 23  14  18  1   
 24  15  19  1   
 25  16  20  ar  
 26  16  31  1   
 27  17  21  ar  
 28  17  32  1   
 29  18  22  1   
 30  18  33  1   
 31  18  34  1   
 32  19  23  1   
 33  19  35  1   
 34  19  36  1   
 35  20  24  1   
 36  20  25  ar  
 37  21  25  ar  
 38  21  37  1   
 39  22  38  1   
 40  22  39  1   
 41  22  40  1   
 42  23  41  1   
 43  23  42  1   
 44  23  43  1   
 45  24  44  1   
 46  25  45  1   
@<TRIPOS>SUBSTRUCTURE
  1 ****  10 GROUP 4 **** **** 0

# MOE 2024.06 (io_trps.svl 2023.06)
