@<TRIPOS>MOLECULE
NONAME
38 39 1 0 0 
SMALL
USER_CHARGES


@<TRIPOS>ATOM
  1 F       -0.6960     1.0490     1.6160 F     1 <1>  -0.1900 
  2 C       -0.3800     1.9970     0.7670 C.ar  1 <1>   0.1900 
  3 C       -1.3770     2.4920    -0.0790 C.ar  1 <1>   0.1170 
  4 C        0.9230     2.4520     0.7590 C.ar  1 <1>  -0.1500 
  5 N       -2.6800     1.9530     0.0120 N.am  1 <1>  -0.5470 
  6 C       -1.0090     3.4930    -0.9800 C.ar  1 <1>  -0.1500 
  7 C        1.2320     3.4470    -0.1460 C.ar  1 <1>   0.1900 
  8 C       -3.8800     2.3930    -0.4870 C.2   1 <1>   0.5690 
  9 C        0.2920     3.9740    -1.0140 C.ar  1 <1>  -0.1500 
 10 F        2.4540     3.9050    -0.1850 F     1 <1>  -0.1900 
 11 O       -4.0020     3.4000    -1.1420 O.2   1 <1>  -0.5700 
 12 C       -5.1660     1.5980    -0.1940 C.3   1 <1>   0.4040 
 13 N       -6.4260     2.4240    -0.3280 N.4   1 <1>  -0.9590 
 14 C       -6.5240     3.4650     0.7390 C.3   1 <1>   0.3430 
 15 C       -7.6560     1.5900    -0.4340 C.3   1 <1>   0.3430 
 16 C       -7.7110     4.3830     0.4510 C.3   1 <1>  -0.1600 
 17 C       -8.8580     2.4850    -0.7370 C.3   1 <1>  -0.1600 
 18 C       -9.0210     3.5940     0.3130 C.3   1 <1>  -0.0800 
 19 C      -10.1750     4.5280    -0.0650 C.3   1 <1>  -0.2400 
 20 H        1.6660     2.0520     1.4240 H     1 <1>   0.1500 
 21 H       -2.6930     1.1150     0.6010 H     1 <1>   0.3700 
 22 H       -1.7240     3.9090    -1.6660 H     1 <1>   0.1500 
 23 H        0.5780     4.7480    -1.7050 H     1 <1>   0.1500 
 24 H       -5.1070     1.1870     0.7990 H     1 <1>   0.0800 
 25 H       -5.2040     0.7800    -0.8930 H     1 <1>   0.0800 
 26 H       -6.3130     2.9540    -1.2090 H     1 <1>   0.4500 
 27 H       -5.6200     4.0540     0.7660 H     1 <1>   0.0800 
 28 H       -6.6570     2.9960     1.7000 H     1 <1>   0.0800 
 29 H       -7.8240     1.0670     0.4940 H     1 <1>   0.0800 
 30 H       -7.5460     0.8630    -1.2220 H     1 <1>   0.0800 
 31 H       -7.5140     4.9420    -0.4470 H     1 <1>   0.0800 
 32 H       -7.8030     5.0920     1.2560 H     1 <1>   0.0800 
 33 H       -9.7470     1.8780    -0.7550 H     1 <1>   0.0800 
 34 H       -8.7420     2.9140    -1.7170 H     1 <1>   0.0800 
 35 H       -9.2540     3.1400     1.2630 H     1 <1>   0.0800 
 36 H       -9.9910     5.0090    -1.0100 H     1 <1>   0.0800 
 37 H      -10.3020     5.2900     0.6850 H     1 <1>   0.0800 
 38 H      -11.0970     3.9770    -0.1380 H     1 <1>   0.0800 
@<TRIPOS>BOND
  1   1   2  1   
  2   2   3  ar  
  3   2   4  ar  
  4   3   5  1   
  5   3   6  ar  
  6   4   7  ar  
  7   4  20  1   
  8   5   8  am  
  9   5  21  1   
 10   6   9  ar  
 11   6  22  1   
 12   7   9  ar  
 13   7  10  1   
 14   8  11  2   
 15   8  12  1   
 16   9  23  1   
 17  12  13  1   
 18  12  24  1   
 19  12  25  1   
 20  13  14  1   
 21  13  15  1   
 22  13  26  1   
 23  14  16  1   
 24  14  27  1   
 25  14  28  1   
 26  15  17  1   
 27  15  29  1   
 28  15  30  1   
 29  16  18  1   
 30  16  31  1   
 31  16  32  1   
 32  17  18  1   
 33  17  33  1   
 34  17  34  1   
 35  18  19  1   
 36  18  35  1   
 37  19  36  1   
 38  19  37  1   
 39  19  38  1   
@<TRIPOS>SUBSTRUCTURE
  1 ****   8 GROUP 4 **** **** 0

# MOE 2024.06 (io_trps.svl 2023.06)
