@<TRIPOS>MOLECULE
NONAME
33 34 1 0 0 
SMALL
USER_CHARGES


@<TRIPOS>ATOM
  1 CL       0.4310    -1.5490    -1.6960 Cl    1 <1>  -0.1770 
  2 C        1.9050    -1.6340    -0.7700 C.ar  1 <1>   0.1770 
  3 C        3.1190    -1.6540    -1.4300 C.ar  1 <1>  -0.1500 
  4 C        1.8280    -1.6850     0.6160 C.ar  1 <1>  -0.1500 
  5 C        4.2830    -1.7280    -0.6740 C.ar  1 <1>   0.0860 
  6 C        2.9920    -1.7570     1.3630 C.ar  1 <1>  -0.1500 
  7 C        5.6700    -1.7760    -1.0310 C.2   1 <1>   0.5440 
  8 C        4.2200    -1.7790     0.7090 C.ar  1 <1>   0.0860 
  9 O        6.1000    -1.8720    -2.1640 O.2   1 <1>  -0.5700 
 10 N        6.4350    -1.7970     0.1160 N.am  1 <1>  -0.4200 
 11 C        5.5710    -1.8500     1.1830 C.2   1 <1>   0.5440 
 12 C        7.6810    -0.9670     0.2490 C.3   1 <1>   0.1140 
 13 O        5.9160    -1.9910     2.3410 O.2   1 <1>  -0.5700 
 14 C        7.3890     0.5420     0.0880 C.2   1 <1>   0.9060 
 15 C        8.8090    -1.4710    -0.6820 C.3   1 <1>  -0.1600 
 16 O        6.2120     0.9360     0.0290 O.co2 1 <1>  -0.9000 
 17 O        8.3370     1.3380     0.0560 O.co2 1 <1>  -0.9000 
 18 C        9.1170    -2.9800    -0.5880 C.3   1 <1>  -0.0800 
 19 C        9.5180    -3.3980     0.8330 C.3   1 <1>  -0.2400 
 20 C       10.2390    -3.3390    -1.5690 C.3   1 <1>  -0.2400 
 21 H        3.1740    -1.6080    -2.5020 H     1 <1>   0.1500 
 22 H        0.8660    -1.6650     1.0960 H     1 <1>   0.1500 
 23 H        2.9690    -1.7910     2.4400 H     1 <1>   0.1500 
 24 H        8.0320    -1.0680     1.2580 H     1 <1>   0.0800 
 25 H        9.6990    -0.9140    -0.4450 H     1 <1>   0.0800 
 26 H        8.5520    -1.2160    -1.6950 H     1 <1>   0.0800 
 27 H        8.2380    -3.5320    -0.8750 H     1 <1>   0.0800 
 28 H       10.3570    -2.8180     1.1740 H     1 <1>   0.0800 
 29 H        9.7850    -4.4390     0.8540 H     1 <1>   0.0800 
 30 H        8.6990    -3.2530     1.5150 H     1 <1>   0.0800 
 31 H       11.1410    -2.8090    -1.3210 H     1 <1>   0.0800 
 32 H        9.9490    -3.0750    -2.5710 H     1 <1>   0.0800 
 33 H       10.4360    -4.3950    -1.5410 H     1 <1>   0.0800 
@<TRIPOS>BOND
  1   1   2  1   
  2   2   3  ar  
  3   2   4  ar  
  4   3   5  ar  
  5   3  21  1   
  6   4   6  ar  
  7   4  22  1   
  8   5   7  1   
  9   5   8  ar  
 10   6   8  ar  
 11   6  23  1   
 12   7   9  2   
 13   7  10  am  
 14   8  11  1   
 15  10  11  am  
 16  10  12  1   
 17  11  13  2   
 18  12  14  1   
 19  12  15  1   
 20  12  24  1   
 21  14  16  ar  
 22  14  17  ar  
 23  15  18  1   
 24  15  25  1   
 25  15  26  1   
 26  18  19  1   
 27  18  20  1   
 28  18  27  1   
 29  19  28  1   
 30  19  29  1   
 31  19  30  1   
 32  20  31  1   
 33  20  32  1   
 34  20  33  1   
@<TRIPOS>SUBSTRUCTURE
  1 ****  10 GROUP 4 **** **** 0

# MOE 2024.06 (io_trps.svl 2023.06)
