@<TRIPOS>MOLECULE
NONAME
39 40 1 0 0 
SMALL
USER_CHARGES


@<TRIPOS>ATOM
  1 S       -0.0360    -2.2860    -0.5930 S.3   1 <1>  -0.2850 
  2 C       -1.0470    -1.3270     0.5670 C.2   1 <1>   0.0550 
  3 C        0.8530    -1.0030    -1.6060 C.3   1 <1>   0.1310 
  4 C       -0.6690    -0.2560     1.3760 C.2   1 <1>   0.1080 
  5 C       -2.3540    -1.5460     0.8070 C.2   1 <1>  -0.3320 
  6 C        2.2910    -0.8290    -1.1450 C.2   1 <1>   0.5690 
  7 N       -1.6770     0.1800     2.0680 N.2   1 <1>  -0.7070 
  8 C        0.7050     0.3640     1.5140 C.3   1 <1>  -0.0590 
  9 N       -2.7120    -0.6140     1.7190 N.pl3 1 <1>   0.3000 
 10 C       -3.3100    -2.5780     0.2310 C.3   1 <1>  -0.0600 
 11 O        2.8510     0.2000    -1.4290 O.2   1 <1>  -0.5700 
 12 N        2.8660    -1.8340    -0.4160 N.am  1 <1>  -0.5470 
 13 C        4.1230    -1.9490     0.1980 C.ar  1 <1>   0.1170 
 14 C        4.2690    -2.7860     1.3060 C.ar  1 <1>  -0.1430 
 15 C        5.2370    -1.2640    -0.2770 C.ar  1 <1>  -0.1500 
 16 C        5.5100    -2.9190     1.9080 C.ar  1 <1>  -0.1500 
 17 C        3.0850    -3.5600     1.8770 C.3   1 <1>  -0.0970 
 18 C        6.4750    -1.3950     0.3270 C.ar  1 <1>  -0.1430 
 19 C        6.6070    -2.2290     1.4230 C.ar  1 <1>  -0.1500 
 20 C        7.6780    -0.6380    -0.2050 C.3   1 <1>  -0.0970 
 21 H        0.3080    -0.0820    -1.5110 H     1 <1>   0.0800 
 22 H        0.8310    -1.3350    -2.6260 H     1 <1>   0.0800 
 23 H        1.4550    -0.4010     1.5790 H     1 <1>   0.0800 
 24 H        0.7470     0.9540     2.4110 H     1 <1>   0.0800 
 25 H        0.9090     1.0050     0.6770 H     1 <1>   0.0800 
 26 H       -3.6480    -0.4950     2.1230 H     1 <1>   0.2700 
 27 H       -2.8000    -3.2120    -0.4720 H     1 <1>   0.0800 
 28 H       -4.1220    -2.0910    -0.2770 H     1 <1>   0.0800 
 29 H       -3.7070    -3.1950     1.0180 H     1 <1>   0.0800 
 30 H        2.2250    -2.5940    -0.1840 H     1 <1>   0.3700 
 31 H        5.1360    -0.6230    -1.1330 H     1 <1>   0.1500 
 32 H        5.6340    -3.5610     2.7620 H     1 <1>   0.1500 
 33 H        2.7300    -4.2750     1.1570 H     1 <1>   0.0800 
 34 H        2.2870    -2.8850     2.1290 H     1 <1>   0.0800 
 35 H        3.3670    -4.0910     2.7680 H     1 <1>   0.0800 
 36 H        7.5630    -2.3440     1.9020 H     1 <1>   0.1500 
 37 H        7.3650     0.2050    -0.7950 H     1 <1>   0.0800 
 38 H        8.2730    -1.2880    -0.8200 H     1 <1>   0.0800 
 39 H        8.2800    -0.2770     0.6090 H     1 <1>   0.0800 
@<TRIPOS>BOND
  1   1   2  1   
  2   1   3  1   
  3   2   4  1   
  4   2   5  2   
  5   3   6  1   
  6   3  21  1   
  7   3  22  1   
  8   4   7  2   
  9   4   8  1   
 10   5   9  1   
 11   5  10  1   
 12   6  11  2   
 13   6  12  am  
 14   7   9  1   
 15   8  23  1   
 16   8  24  1   
 17   8  25  1   
 18   9  26  1   
 19  10  27  1   
 20  10  28  1   
 21  10  29  1   
 22  12  13  1   
 23  12  30  1   
 24  13  14  ar  
 25  13  15  ar  
 26  14  16  ar  
 27  14  17  1   
 28  15  18  ar  
 29  15  31  1   
 30  16  19  ar  
 31  16  32  1   
 32  17  33  1   
 33  17  34  1   
 34  17  35  1   
 35  18  19  ar  
 36  18  20  1   
 37  19  36  1   
 38  20  37  1   
 39  20  38  1   
 40  20  39  1   
@<TRIPOS>SUBSTRUCTURE
  1 ****  12 GROUP 4 **** **** 0

# MOE 2024.06 (io_trps.svl 2023.06)
