@<TRIPOS>MOLECULE
NONAME
49 50 1 0 0 
SMALL
USER_CHARGES


@<TRIPOS>ATOM
  1 S        3.5430    -3.0170    -0.8450 S.3   1 <1>  -0.3710 
  2 C        5.0850    -3.5580    -0.1020 C.2   1 <1>   0.6510 
  3 C        2.6670    -4.6200    -1.2100 C.3   1 <1>   0.0700 
  4 N        5.1570    -4.8140     0.0800 N.2   1 <1>  -0.6210 
  5 N        6.0320    -2.6200     0.2410 N.am  1 <1>  -0.2370 
  6 C        2.2980    -5.3170     0.1160 C.3   1 <1>   0.3430 
  7 C        6.2350    -5.3250     0.7150 C.2   1 <1>   0.0210 
  8 C        7.1720    -3.1190     0.8750 C.2   1 <1>   0.6160 
  9 C        5.8760    -1.2500    -0.0410 C.ar  1 <1>   0.1170 
 10 N        2.2420    -6.8170     0.0100 N.4   1 <1>  -0.9590 
 11 O        6.1810    -6.5430     0.9030 O.3   1 <1>  -0.8500 
 12 C        7.2720    -4.4910     1.1160 C.2   1 <1>  -0.1240 
 13 O        8.0570    -2.3090     1.2120 O.2   1 <1>  -0.5700 
 14 C        6.1210    -0.7580    -1.3190 C.ar  1 <1>  -0.1500 
 15 C        5.4710    -0.3660     0.9520 C.ar  1 <1>  -0.1500 
 16 C        1.5980    -7.3950     1.2140 C.3   1 <1>   0.3430 
 17 C        3.6390    -7.3580    -0.0960 C.3   1 <1>   0.3430 
 18 C        8.4940    -5.0820     1.8110 C.3   1 <1>  -0.0220 
 19 C        5.9540     0.5860    -1.6000 C.ar  1 <1>  -0.1500 
 20 C        5.3040     0.9790     0.6730 C.ar  1 <1>  -0.1500 
 21 C        0.0880    -7.2020     1.1340 C.3   1 <1>  -0.2400 
 22 C        3.6060    -8.7810    -0.6420 C.3   1 <1>  -0.2400 
 23 C        9.6010    -5.3800     0.7970 C.3   1 <1>  -0.2400 
 24 C        5.5440     1.4560    -0.6040 C.ar  1 <1>  -0.1500 
 25 H        3.3520    -5.2040    -1.7980 H     1 <1>   0.0800 
 26 H        1.7930    -4.3800    -1.7860 H     1 <1>   0.0800 
 27 H        1.3480    -4.9330     0.4410 H     1 <1>   0.0800 
 28 H        3.0230    -5.0570     0.8700 H     1 <1>   0.0800 
 29 H        1.7320    -7.0960    -0.8310 H     1 <1>   0.4500 
 30 H        6.4430    -1.4330    -2.0910 H     1 <1>   0.1500 
 31 H        5.2930    -0.7360     1.9450 H     1 <1>   0.1500 
 32 H        1.9950    -6.9290     2.1030 H     1 <1>   0.0800 
 33 H        1.8100    -8.4500     1.2710 H     1 <1>   0.0800 
 34 H        4.1280    -7.3330     0.8660 H     1 <1>   0.0800 
 35 H        4.2320    -6.7550    -0.7630 H     1 <1>   0.0800 
 36 H        8.2120    -5.9940     2.3080 H     1 <1>   0.0800 
 37 H        8.8560    -4.4010     2.5600 H     1 <1>   0.0800 
 38 H        6.1450     0.9560    -2.5930 H     1 <1>   0.1500 
 39 H        4.9900     1.6540     1.4500 H     1 <1>   0.1500 
 40 H       -0.1790    -6.1610     1.1610 H     1 <1>   0.0800 
 41 H       -0.3700    -7.6790     1.9820 H     1 <1>   0.0800 
 42 H       -0.3060    -7.6570     0.2440 H     1 <1>   0.0800 
 43 H        3.1150    -9.4560     0.0330 H     1 <1>   0.0800 
 44 H        4.6230    -9.1140    -0.7530 H     1 <1>   0.0800 
 45 H        3.1380    -8.8100    -1.6090 H     1 <1>   0.0800 
 46 H        9.2310    -6.0690     0.0580 H     1 <1>   0.0800 
 47 H       10.4470    -5.8200     1.2920 H     1 <1>   0.0800 
 48 H        9.9100    -4.4740     0.3080 H     1 <1>   0.0800 
 49 H        5.4150     2.5020    -0.8220 H     1 <1>   0.1500 
@<TRIPOS>BOND
  1   1   2  1   
  2   1   3  1   
  3   2   4  2   
  4   2   5  1   
  5   3   6  1   
  6   3  25  1   
  7   3  26  1   
  8   4   7  1   
  9   5   8  am  
 10   5   9  1   
 11   6  10  1   
 12   6  27  1   
 13   6  28  1   
 14   7  11  1   
 15   7  12  2   
 16   8  12  1   
 17   8  13  2   
 18   9  14  ar  
 19   9  15  ar  
 20  10  16  1   
 21  10  17  1   
 22  10  29  1   
 23  12  18  1   
 24  14  19  ar  
 25  14  30  1   
 26  15  20  ar  
 27  15  31  1   
 28  16  21  1   
 29  16  32  1   
 30  16  33  1   
 31  17  22  1   
 32  17  34  1   
 33  17  35  1   
 34  18  23  1   
 35  18  36  1   
 36  18  37  1   
 37  19  24  ar  
 38  19  38  1   
 39  20  24  ar  
 40  20  39  1   
 41  21  40  1   
 42  21  41  1   
 43  21  42  1   
 44  22  43  1   
 45  22  44  1   
 46  22  45  1   
 47  23  46  1   
 48  23  47  1   
 49  23  48  1   
 50  24  49  1   
@<TRIPOS>SUBSTRUCTURE
  1 ****   2 GROUP 4 **** **** 0

# MOE 2024.06 (io_trps.svl 2023.06)
