@<TRIPOS>MOLECULE
NONAME
32 33 1 0 0 
SMALL
USER_CHARGES


@<TRIPOS>ATOM
  1 S        1.0020    -0.6970    -1.8160 S.3   1 <1>  -0.4600 
  2 C        1.3650     0.5520    -0.5460 C.3   1 <1>   0.0700 
  3 C        0.6390    -2.1770    -0.8170 C.3   1 <1>   0.0700 
  4 C        2.5460     0.0860     0.3290 C.3   1 <1>   0.3430 
  5 C        1.4420    -2.1580     0.4990 C.3   1 <1>   0.3430 
  6 N        2.7310    -1.4110     0.3390 N.4   1 <1>  -0.9590 
  7 C        3.7810    -1.8470     1.2990 C.3   1 <1>   0.4860 
  8 C        5.0900    -1.1700     0.9370 C.ar  1 <1>  -0.1440 
  9 C        5.7890    -1.5500    -0.1990 C.ar  1 <1>  -0.1500 
 10 C        5.5990    -0.1580     1.7370 C.ar  1 <1>  -0.1500 
 11 C        6.9740    -0.9190    -0.5350 C.ar  1 <1>  -0.1500 
 12 C        6.7850     0.4700     1.3990 C.ar  1 <1>  -0.1500 
 13 C        7.4910     0.0990     0.2590 C.ar  1 <1>  -0.1440 
 14 C        8.8070     0.8020    -0.1200 C.3   1 <1>   1.1630 
 15 F        9.6540     0.0000    -0.7530 F     1 <1>  -0.3400 
 16 F        9.4600     1.2770     0.9330 F     1 <1>  -0.3400 
 17 F        8.5950     1.8340    -0.9260 F     1 <1>  -0.3400 
 18 H        0.4720     0.6770     0.0390 H     1 <1>   0.0800 
 19 H        1.5910     1.4760    -1.0490 H     1 <1>   0.0800 
 20 H        0.8980    -3.0300    -1.4200 H     1 <1>   0.0800 
 21 H       -0.4200    -2.1920    -0.6260 H     1 <1>   0.0800 
 22 H        2.3980     0.4490     1.3320 H     1 <1>   0.0800 
 23 H        3.4470     0.5440    -0.0500 H     1 <1>   0.0800 
 24 H        1.6320    -3.1770     0.7980 H     1 <1>   0.0800 
 25 H        0.8500    -1.6930     1.2700 H     1 <1>   0.0800 
 26 H        3.0740    -1.6320    -0.6080 H     1 <1>   0.4500 
 27 H        3.9100    -2.9160     1.2490 H     1 <1>   0.0800 
 28 H        3.4990    -1.5840     2.3060 H     1 <1>   0.0800 
 29 H        5.4280    -2.3400    -0.8370 H     1 <1>   0.1500 
 30 H        5.0870     0.1520     2.6320 H     1 <1>   0.1500 
 31 H        7.4990    -1.2300    -1.4250 H     1 <1>   0.1500 
 32 H        7.1610     1.2560     2.0370 H     1 <1>   0.1500 
@<TRIPOS>BOND
  1   1   2  1   
  2   1   3  1   
  3   2   4  1   
  4   2  18  1   
  5   2  19  1   
  6   3   5  1   
  7   3  20  1   
  8   3  21  1   
  9   4   6  1   
 10   4  22  1   
 11   4  23  1   
 12   5   6  1   
 13   5  24  1   
 14   5  25  1   
 15   6   7  1   
 16   6  26  1   
 17   7   8  1   
 18   7  27  1   
 19   7  28  1   
 20   8   9  ar  
 21   8  10  ar  
 22   9  11  ar  
 23   9  29  1   
 24  10  12  ar  
 25  10  30  1   
 26  11  13  ar  
 27  11  31  1   
 28  12  13  ar  
 29  12  32  1   
 30  13  14  1   
 31  14  15  1   
 32  14  16  1   
 33  14  17  1   
@<TRIPOS>SUBSTRUCTURE
  1 ****   8 GROUP 4 **** **** 0

# MOE 2024.06 (io_trps.svl 2023.06)
