@<TRIPOS>MOLECULE
NONAME
35 35 1 0 0 
SMALL
USER_CHARGES


@<TRIPOS>ATOM
  1 O       -0.9370    -3.4950     1.6190 O.2   1 <1>  -0.5700 
  2 C       -0.1240    -2.8680     0.9810 C.2   1 <1>   0.5690 
  3 N       -0.4580    -1.7410     0.2970 N.am  1 <1>  -0.7300 
  4 C        1.3160    -3.3660     0.9480 C.3   1 <1>   0.1810 
  5 C       -1.8030    -1.1400     0.2120 C.3   1 <1>   0.1400 
  6 O        2.1380    -2.5310     0.1410 O.3   1 <1>  -0.3620 
  7 C       -2.1730    -0.9570    -1.2600 C.3   1 <1>  -0.1600 
  8 C        3.4600    -2.7930    -0.0390 C.ar  1 <1>   0.0820 
  9 C       -3.5630    -0.3300    -1.4110 C.3   1 <1>  -0.2400 
 10 C        4.1820    -1.9330    -0.8610 C.ar  1 <1>  -0.1440 
 11 C        4.1050    -3.8720     0.5610 C.ar  1 <1>  -0.1500 
 12 C        5.5320    -2.1610    -1.0730 C.ar  1 <1>  -0.1500 
 13 C        3.5050    -0.7440    -1.5290 C.3   1 <1>  -0.0970 
 14 C        5.4530    -4.0880     0.3400 C.ar  1 <1>  -0.1500 
 15 C        6.1740    -3.2350    -0.4790 C.ar  1 <1>  -0.1440 
 16 C        7.6540    -3.4690    -0.7220 C.3   1 <1>  -0.0970 
 17 H        0.2910    -1.2680    -0.2160 H     1 <1>   0.3700 
 18 H        1.3370    -4.3590     0.5400 H     1 <1>   0.0800 
 19 H        1.7110    -3.3670     1.9470 H     1 <1>   0.0800 
 20 H       -1.7980    -0.1890     0.7170 H     1 <1>   0.0800 
 21 H       -2.5210    -1.7810     0.6960 H     1 <1>   0.0800 
 22 H       -2.1650    -1.9170    -1.7470 H     1 <1>   0.0800 
 23 H       -1.4470    -0.3220    -1.7370 H     1 <1>   0.0800 
 24 H       -4.3090    -0.9580    -0.9560 H     1 <1>   0.0800 
 25 H       -3.8030    -0.2150    -2.4540 H     1 <1>   0.0800 
 26 H       -3.5940     0.6390    -0.9440 H     1 <1>   0.0800 
 27 H        3.5830    -4.5560     1.2010 H     1 <1>   0.1500 
 28 H        6.0940    -1.4970    -1.7070 H     1 <1>   0.1500 
 29 H        3.0980    -0.0890    -0.7790 H     1 <1>   0.0800 
 30 H        2.7060    -1.0890    -2.1600 H     1 <1>   0.0800 
 31 H        4.2010    -0.1880    -2.1290 H     1 <1>   0.0800 
 32 H        5.9410    -4.9240     0.8090 H     1 <1>   0.1500 
 33 H        7.9160    -3.1910    -1.7260 H     1 <1>   0.0800 
 34 H        7.9020    -4.5060    -0.5820 H     1 <1>   0.0800 
 35 H        8.2320    -2.8780    -0.0350 H     1 <1>   0.0800 
@<TRIPOS>BOND
  1   1   2  2   
  2   2   3  am  
  3   2   4  1   
  4   3   5  1   
  5   3  17  1   
  6   4   6  1   
  7   4  18  1   
  8   4  19  1   
  9   5   7  1   
 10   5  20  1   
 11   5  21  1   
 12   6   8  1   
 13   7   9  1   
 14   7  22  1   
 15   7  23  1   
 16   8  10  ar  
 17   8  11  ar  
 18   9  24  1   
 19   9  25  1   
 20   9  26  1   
 21  10  12  ar  
 22  10  13  1   
 23  11  14  ar  
 24  11  27  1   
 25  12  15  ar  
 26  12  28  1   
 27  13  29  1   
 28  13  30  1   
 29  13  31  1   
 30  14  15  ar  
 31  14  32  1   
 32  15  16  1   
 33  16  33  1   
 34  16  34  1   
 35  16  35  1   
@<TRIPOS>SUBSTRUCTURE
  1 ****   6 GROUP 4 **** **** 0

# MOE 2024.06 (io_trps.svl 2023.06)
