@<TRIPOS>MOLECULE
NONAME
40 43 1 0 0 
SMALL
USER_CHARGES


@<TRIPOS>ATOM
  1 O       -0.9640     0.3250     0.2910 O.2   1 <1>  -0.5700 
  2 C       -1.1970    -0.7670     0.7490 C.2   1 <1>   0.6300 
  3 N       -0.3870    -1.8560     0.6080 N.am  1 <1>  -0.5470 
  4 C       -2.4420    -0.9690     1.5990 C.3   1 <1>  -0.1000 
  5 C        0.8070    -2.0720    -0.0990 C.ar  1 <1>   0.1170 
  6 C       -3.4270    -2.0910     1.4110 C.3   1 <1>  -0.1950 
  7 C       -3.8570    -0.6510     1.2150 C.3   1 <1>  -0.1950 
  8 C        1.1930    -3.3790    -0.4040 C.ar  1 <1>  -0.1430 
  9 C        1.6300    -1.0220    -0.4970 C.ar  1 <1>  -0.1500 
 10 C       -4.0110    -2.8060     0.1720 C.3   1 <1>   0.0150 
 11 C       -4.6400    -0.6820    -0.1130 C.3   1 <1>   0.0150 
 12 C        2.3730    -3.6060    -1.0930 C.ar  1 <1>  -0.1500 
 13 C        0.3390    -4.5750     0.0020 C.3   1 <1>  -0.0970 
 14 C        2.8060    -1.2500    -1.1880 C.ar  1 <1>  -0.1430 
 15 C       -5.3130    -2.0400     0.0040 C.3   1 <1>  -0.1600 
 16 C       -3.2840    -2.3980    -1.1210 C.3   1 <1>  -0.1600 
 17 C       -3.7010    -0.9260    -1.3040 C.3   1 <1>  -0.1600 
 18 C        3.1760    -2.5500    -1.4840 C.ar  1 <1>  -0.1500 
 19 C        3.6850    -0.0880    -1.6140 C.3   1 <1>  -0.0970 
 20 H       -0.7790    -2.6960     1.0240 H     1 <1>   0.3700 
 21 H       -2.1900    -0.7240     2.6140 H     1 <1>   0.1000 
 22 H       -3.7550    -2.5730     2.3160 H     1 <1>   0.1000 
 23 H       -4.4520    -0.2040     1.9940 H     1 <1>   0.1000 
 24 H        1.3520    -0.0120    -0.2610 H     1 <1>   0.1500 
 25 H       -4.1330    -3.8690     0.2950 H     1 <1>   0.0800 
 26 H       -5.3120     0.1480    -0.2440 H     1 <1>   0.0800 
 27 H        2.6800    -4.6080    -1.3340 H     1 <1>   0.1500 
 28 H        0.2700    -4.6330     1.0740 H     1 <1>   0.0800 
 29 H        0.7680    -5.4930    -0.3560 H     1 <1>   0.0800 
 30 H       -0.6480    -4.4830    -0.4140 H     1 <1>   0.0800 
 31 H       -5.9550    -2.1120     0.8660 H     1 <1>   0.0800 
 32 H       -5.8550    -2.3170    -0.8850 H     1 <1>   0.0800 
 33 H       -3.6520    -2.9840    -1.9460 H     1 <1>   0.0800 
 34 H       -2.2220    -2.5270    -1.0690 H     1 <1>   0.0800 
 35 H       -2.8680    -0.2480    -1.3080 H     1 <1>   0.0800 
 36 H       -4.2390    -0.8080    -2.2290 H     1 <1>   0.0800 
 37 H        4.0890    -2.7440    -2.0190 H     1 <1>   0.1500 
 38 H        3.1060     0.8150    -1.6870 H     1 <1>   0.0800 
 39 H        4.1260    -0.2860    -2.5740 H     1 <1>   0.0800 
 40 H        4.4680     0.0580    -0.8920 H     1 <1>   0.0800 
@<TRIPOS>BOND
  1   1   2  2   
  2   2   3  am  
  3   2   4  1   
  4   3   5  1   
  5   3  20  1   
  6   4   6  1   
  7   4   7  1   
  8   4  21  1   
  9   5   8  ar  
 10   5   9  ar  
 11   6   7  1   
 12   6  10  1   
 13   6  22  1   
 14   7  11  1   
 15   7  23  1   
 16   8  12  ar  
 17   8  13  1   
 18   9  14  ar  
 19   9  24  1   
 20  10  15  1   
 21  10  16  1   
 22  10  25  1   
 23  11  15  1   
 24  11  17  1   
 25  11  26  1   
 26  12  18  ar  
 27  12  27  1   
 28  13  28  1   
 29  13  29  1   
 30  13  30  1   
 31  14  18  ar  
 32  14  19  1   
 33  15  31  1   
 34  15  32  1   
 35  16  17  1   
 36  16  33  1   
 37  16  34  1   
 38  17  35  1   
 39  17  36  1   
 40  18  37  1   
 41  19  38  1   
 42  19  39  1   
 43  19  40  1   
@<TRIPOS>SUBSTRUCTURE
  1 ****   3 GROUP 4 **** **** 0

# MOE 2024.06 (io_trps.svl 2023.06)
