@<TRIPOS>MOLECULE
NONAME
37 40 1 0 0 
SMALL
USER_CHARGES


@<TRIPOS>ATOM
  1 O       -9.8290     4.0700    -0.0110 O.3   1 <1>  -0.3630 
  2 C       -9.0300     2.9670     0.0140 C.ar  1 <1>   0.0830 
  3 C      -11.2340     3.9540     0.0230 C.3   1 <1>   0.0400 
  4 C       -7.6730     3.1850    -0.0070 C.ar  1 <1>  -0.1500 
  5 C       -9.5340     1.6510     0.0580 C.ar  1 <1>  -0.1500 
  6 C       -6.7920     2.0980     0.0180 C.ar  1 <1>   0.0000 
  7 C       -8.6790     0.5740     0.0840 C.ar  1 <1>  -0.1500 
  8 C       -7.2980     0.7980     0.0670 C.ar  1 <1>  -0.1520 
  9 C       -5.3950     1.9690    -0.0150 C.2   1 <1>  -0.1810 
 10 N       -6.2410    -0.0770     0.0810 N.pl3 1 <1>   0.0480 
 11 C       -5.0910     0.6510     0.0360 C.2   1 <1>  -0.2270 
 12 C       -4.2990     3.0040    -0.1630 C.3   1 <1>   0.0210 
 13 C       -6.2170    -1.5230    -0.1860 C.3   1 <1>   0.0960 
 14 C       -3.7950     0.0830    -0.0050 C.cat 1 <1>   0.7840 
 15 C       -2.8970     2.4150     0.1490 C.3   1 <1>   0.3300 
 16 C       -4.8570    -2.1360     0.2210 C.3   1 <1>   0.3300 
 17 N       -2.7740     0.9220    -0.0210 N.pl3 1 <1>  -0.7940 
 18 N       -3.6550    -1.2450    -0.0010 N.pl3 1 <1>  -0.8330 
 19 C       -2.3610    -1.9870    -0.0880 C.3   1 <1>   0.2490 
 20 H      -11.6510     4.9440     0.0010 H     1 <1>   0.0800 
 21 H      -11.5220     3.4570     0.9320 H     1 <1>   0.0800 
 22 H      -11.5600     3.4020    -0.8410 H     1 <1>   0.0800 
 23 H       -7.2860     4.1850    -0.0450 H     1 <1>   0.1500 
 24 H      -10.5910     1.4730     0.0730 H     1 <1>   0.1500 
 25 H       -9.0630    -0.4290     0.1180 H     1 <1>   0.1500 
 26 H       -4.4920     3.8400     0.4850 H     1 <1>   0.0800 
 27 H       -4.3110     3.3680    -1.1750 H     1 <1>   0.0800 
 28 H       -6.3780    -1.6700    -1.2380 H     1 <1>   0.0800 
 29 H       -7.0170    -1.9990     0.3520 H     1 <1>   0.0800 
 30 H       -2.6560     2.6500     1.1730 H     1 <1>   0.0800 
 31 H       -2.1690     2.9060    -0.4750 H     1 <1>   0.0800 
 32 H       -4.7310    -3.0570    -0.3230 H     1 <1>   0.0800 
 33 H       -4.9010    -2.3880     1.2670 H     1 <1>   0.0800 
 34 H       -1.8240     0.5660    -0.0480 H     1 <1>   0.4500 
 35 H       -1.5400    -1.3280    -0.3030 H     1 <1>   0.0800 
 36 H       -2.4120    -2.7210    -0.8740 H     1 <1>   0.0800 
 37 H       -2.1630    -2.4900     0.8450 H     1 <1>   0.0800 
@<TRIPOS>BOND
  1   1   2  1   
  2   1   3  1   
  3   2   4  ar  
  4   2   5  ar  
  5   3  20  1   
  6   3  21  1   
  7   3  22  1   
  8   4   6  ar  
  9   4  23  1   
 10   5   7  ar  
 11   5  24  1   
 12   6   8  ar  
 13   6   9  1   
 14   7   8  ar  
 15   7  25  1   
 16   8  10  1   
 17   9  11  2   
 18   9  12  1   
 19  10  11  1   
 20  10  13  1   
 21  11  14  1   
 22  12  15  1   
 23  12  26  1   
 24  12  27  1   
 25  13  16  1   
 26  13  28  1   
 27  13  29  1   
 28  14  17  ar  
 29  14  18  ar  
 30  15  17  1   
 31  15  30  1   
 32  15  31  1   
 33  16  18  1   
 34  16  32  1   
 35  16  33  1   
 36  17  34  1   
 37  18  19  1   
 38  19  35  1   
 39  19  36  1   
 40  19  37  1   
@<TRIPOS>SUBSTRUCTURE
  1 ****   6 GROUP 4 **** **** 0

# MOE 2024.06 (io_trps.svl 2023.06)
