@<TRIPOS>MOLECULE
NONAME
39 40 1 0 0 
SMALL
USER_CHARGES


@<TRIPOS>ATOM
  1 S        0.4780     1.8000    -1.4620 S.3   1 <1>  -0.4600 
  2 C        0.8920     0.3050    -2.4350 C.3   1 <1>   0.2110 
  3 C       -1.1770     1.4390    -0.8110 C.3   1 <1>   0.2140 
  4 C        1.6860    -0.7100    -1.6030 C.2   1 <1>   0.5690 
  5 C        1.6660     0.7950    -3.6630 C.3   1 <1>  -0.2400 
  6 C       -1.0580     0.5010     0.3780 C.ar  1 <1>  -0.1440 
  7 O        1.6170    -1.8810    -1.8980 O.2   1 <1>  -0.5700 
  8 N        2.4600    -0.2680    -0.5810 N.am  1 <1>  -0.7300 
  9 C       -1.2240    -0.8670     0.2220 C.ar  1 <1>  -0.1500 
 10 C       -0.8030     1.0150     1.6410 C.ar  1 <1>  -0.1500 
 11 C        3.3180    -1.0880     0.2840 C.3   1 <1>   0.2200 
 12 C       -1.1500    -1.7090     1.3180 C.ar  1 <1>  -0.1500 
 13 C       -0.7310     0.1730     2.7380 C.ar  1 <1>  -0.1500 
 14 C        2.7620    -1.0550     1.6990 C.3   1 <1>  -0.1600 
 15 C        4.6670    -0.3950     0.4250 C.3   1 <1>  -0.1600 
 16 C       -0.9090    -1.1890     2.5780 C.ar  1 <1>  -0.1500 
 17 C        3.2280     0.2760     2.2960 C.3   1 <1>  -0.1600 
 18 C        4.4700     0.6880     1.4950 C.3   1 <1>  -0.1600 
 19 H       -0.0370    -0.1400    -2.7390 H     1 <1>   0.0800 
 20 H       -1.7580     1.0080    -1.6070 H     1 <1>   0.0800 
 21 H       -1.6100     2.3790    -0.5180 H     1 <1>   0.0800 
 22 H        2.5790     1.2740    -3.3580 H     1 <1>   0.0800 
 23 H        1.0710     1.4920    -4.2250 H     1 <1>   0.0800 
 24 H        1.9110    -0.0410    -4.2940 H     1 <1>   0.0800 
 25 H        2.3600     0.7080    -0.2910 H     1 <1>   0.3700 
 26 H       -1.4110    -1.2880    -0.7500 H     1 <1>   0.1500 
 27 H       -0.6610     2.0730     1.7740 H     1 <1>   0.1500 
 28 H        3.4040    -2.0900    -0.1040 H     1 <1>   0.0800 
 29 H       -1.2780    -2.7700     1.1880 H     1 <1>   0.1500 
 30 H       -0.5360     0.5790     3.7150 H     1 <1>   0.1500 
 31 H        3.1980    -1.8650     2.2570 H     1 <1>   0.0800 
 32 H        1.6940    -1.1650     1.7090 H     1 <1>   0.0800 
 33 H        5.0200     0.0030    -0.5110 H     1 <1>   0.0800 
 34 H        5.3820    -1.1140     0.7840 H     1 <1>   0.0800 
 35 H       -0.8560    -1.8450     3.4290 H     1 <1>   0.1500 
 36 H        3.4470     0.1730     3.3450 H     1 <1>   0.0800 
 37 H        2.4550     1.0160     2.1730 H     1 <1>   0.0800 
 38 H        4.2980     1.6410     1.0250 H     1 <1>   0.0800 
 39 H        5.3390     0.7630     2.1260 H     1 <1>   0.0800 
@<TRIPOS>BOND
  1   1   2  1   
  2   1   3  1   
  3   2   4  1   
  4   2   5  1   
  5   2  19  1   
  6   3   6  1   
  7   3  20  1   
  8   3  21  1   
  9   4   7  2   
 10   4   8  am  
 11   5  22  1   
 12   5  23  1   
 13   5  24  1   
 14   6   9  ar  
 15   6  10  ar  
 16   8  11  1   
 17   8  25  1   
 18   9  12  ar  
 19   9  26  1   
 20  10  13  ar  
 21  10  27  1   
 22  11  14  1   
 23  11  15  1   
 24  11  28  1   
 25  12  16  ar  
 26  12  29  1   
 27  13  16  ar  
 28  13  30  1   
 29  14  17  1   
 30  14  31  1   
 31  14  32  1   
 32  15  18  1   
 33  15  33  1   
 34  15  34  1   
 35  16  35  1   
 36  17  18  1   
 37  17  36  1   
 38  17  37  1   
 39  18  38  1   
 40  18  39  1   
@<TRIPOS>SUBSTRUCTURE
  1 ****   8 GROUP 4 **** **** 0

# MOE 2024.06 (io_trps.svl 2023.06)
