@<TRIPOS>MOLECULE
NONAME
39 40 1 0 0 
SMALL
USER_CHARGES


@<TRIPOS>ATOM
  1 O       -1.4520    -0.2570     0.6490 O.3   1 <1>  -0.5600 
  2 C       -1.2710     1.1350     0.6320 C.3   1 <1>   0.1200 
  3 C       -2.0210    -0.7760    -0.5220 C.3   1 <1>   0.1200 
  4 C       -2.6020     1.8720     0.3520 C.3   1 <1>   0.3430 
  5 C       -3.4140    -0.1570    -0.7840 C.3   1 <1>   0.3430 
  6 N       -3.7460     0.9060     0.2300 N.4   1 <1>  -0.9590 
  7 C       -5.0500     1.6030    -0.0150 C.3   1 <1>   0.3430 
  8 C       -6.2570     0.6750     0.1470 C.3   1 <1>   0.1200 
  9 O       -7.4040     1.4350    -0.1370 O.3   1 <1>  -0.3630 
 10 C       -8.6420     0.8790    -0.1060 C.ar  1 <1>   0.0820 
 11 C       -8.8950    -0.4370     0.2700 C.ar  1 <1>  -0.1500 
 12 C       -9.6970     1.6920    -0.4770 C.ar  1 <1>  -0.1500 
 13 C      -10.1900    -0.9340     0.2710 C.ar  1 <1>  -0.1440 
 14 C      -10.9880     1.2020    -0.4770 C.ar  1 <1>  -0.1500 
 15 C      -11.2450    -0.1090    -0.1060 C.ar  1 <1>  -0.1440 
 16 C      -10.4300    -2.3790     0.6890 C.3   1 <1>  -0.0970 
 17 C      -12.6830    -0.6100    -0.1200 C.3   1 <1>  -0.0970 
 18 H       -0.5350     1.3780    -0.1160 H     1 <1>   0.0800 
 19 H       -0.8810     1.4250     1.5920 H     1 <1>   0.0800 
 20 H       -2.1030    -1.8420    -0.4040 H     1 <1>   0.0800 
 21 H       -1.3540    -0.5800    -1.3450 H     1 <1>   0.0800 
 22 H       -2.5010     2.4400    -0.5580 H     1 <1>   0.0800 
 23 H       -2.7900     2.5710     1.1510 H     1 <1>   0.0800 
 24 H       -4.1520    -0.9420    -0.7520 H     1 <1>   0.0800 
 25 H       -3.4290     0.2610    -1.7770 H     1 <1>   0.0800 
 26 H       -3.7700     0.4180     1.1400 H     1 <1>   0.4500 
 27 H       -5.0590     2.0130    -1.0120 H     1 <1>   0.0800 
 28 H       -5.1580     2.4150     0.6850 H     1 <1>   0.0800 
 29 H       -6.3350     0.3180     1.1590 H     1 <1>   0.0800 
 30 H       -6.2230    -0.1410    -0.5520 H     1 <1>   0.0800 
 31 H       -8.0990    -1.0900     0.5670 H     1 <1>   0.1500 
 32 H       -9.5070     2.7100    -0.7660 H     1 <1>   0.1500 
 33 H      -11.7950     1.8510    -0.7690 H     1 <1>   0.1500 
 34 H       -9.5100    -2.8690     0.9490 H     1 <1>   0.0800 
 35 H      -10.8850    -2.9240    -0.1190 H     1 <1>   0.0800 
 36 H      -11.0820    -2.4110     1.5430 H     1 <1>   0.0800 
 37 H      -12.9740    -0.9250     0.8660 H     1 <1>   0.0800 
 38 H      -12.7780    -1.4400    -0.7970 H     1 <1>   0.0800 
 39 H      -13.3580     0.1630    -0.4390 H     1 <1>   0.0800 
@<TRIPOS>BOND
  1   1   2  1   
  2   1   3  1   
  3   2   4  1   
  4   2  18  1   
  5   2  19  1   
  6   3   5  1   
  7   3  20  1   
  8   3  21  1   
  9   4   6  1   
 10   4  22  1   
 11   4  23  1   
 12   5   6  1   
 13   5  24  1   
 14   5  25  1   
 15   6   7  1   
 16   6  26  1   
 17   7   8  1   
 18   7  27  1   
 19   7  28  1   
 20   8   9  1   
 21   8  29  1   
 22   8  30  1   
 23   9  10  1   
 24  10  11  ar  
 25  10  12  ar  
 26  11  13  ar  
 27  11  31  1   
 28  12  14  ar  
 29  12  32  1   
 30  13  15  ar  
 31  13  16  1   
 32  14  15  ar  
 33  14  33  1   
 34  15  17  1   
 35  16  34  1   
 36  16  35  1   
 37  16  36  1   
 38  17  37  1   
 39  17  38  1   
 40  17  39  1   
@<TRIPOS>SUBSTRUCTURE
  1 ****   8 GROUP 4 **** **** 0

# MOE 2024.06 (io_trps.svl 2023.06)
