@<TRIPOS>MOLECULE
NONAME
32 33 1 0 0 
SMALL
USER_CHARGES


@<TRIPOS>ATOM
  1 F        0.2840    -0.2220    -1.2940 F     1 <1>  -0.3400 
  2 C        0.4940    -1.2770    -0.5180 C.3   1 <1>   1.1640 
  3 F        1.2870    -2.0930    -1.2010 F     1 <1>  -0.3400 
  4 F        1.2050    -0.8460     0.5170 F     1 <1>  -0.3400 
  5 C       -0.8290    -1.9450    -0.0990 C.ar  1 <1>  -0.1440 
  6 C       -1.4720    -1.5800     1.0790 C.ar  1 <1>  -0.1500 
  7 C       -1.4140    -2.9240    -0.8950 C.ar  1 <1>  -0.1500 
  8 C       -2.6630    -2.1780     1.4520 C.ar  1 <1>  -0.1500 
  9 C       -2.6050    -3.5230    -0.5240 C.ar  1 <1>  -0.1500 
 10 C       -3.2410    -3.1500     0.6500 C.ar  1 <1>  -0.1430 
 11 C       -4.5550    -3.7920     1.0510 C.3   1 <1>   0.4870 
 12 N       -5.6310    -3.2770     0.1640 N.4   1 <1>  -0.9590 
 13 C       -5.7840    -1.7820     0.1990 C.3   1 <1>   0.3430 
 14 C       -6.9550    -3.9570     0.3600 C.3   1 <1>   0.3430 
 15 C       -6.8790    -1.3090    -0.7850 C.3   1 <1>   0.1200 
 16 C       -8.0490    -3.3400    -0.5420 C.3   1 <1>   0.1200 
 17 O       -7.5020    -2.3940    -1.4210 O.3   1 <1>  -0.5600 
 18 H       -1.0430    -0.8250     1.7190 H     1 <1>   0.1500 
 19 H       -0.9380    -3.2290    -1.8140 H     1 <1>   0.1500 
 20 H       -3.1270    -1.8740     2.3760 H     1 <1>   0.1500 
 21 H       -3.0200    -4.2840    -1.1640 H     1 <1>   0.1500 
 22 H       -4.7780    -3.5600     2.0800 H     1 <1>   0.0800 
 23 H       -4.4730    -4.8620     0.9530 H     1 <1>   0.0800 
 24 H       -5.3600    -3.4760    -0.8100 H     1 <1>   0.4500 
 25 H       -4.8520    -1.3070    -0.0630 H     1 <1>   0.0800 
 26 H       -6.0430    -1.4610     1.1940 H     1 <1>   0.0800 
 27 H       -7.2670    -3.8750     1.3890 H     1 <1>   0.0800 
 28 H       -6.8670    -5.0060     0.1310 H     1 <1>   0.0800 
 29 H       -6.4450    -0.6890    -1.5500 H     1 <1>   0.0800 
 30 H       -7.6300    -0.7320    -0.2720 H     1 <1>   0.0800 
 31 H       -8.8090    -2.8590     0.0500 H     1 <1>   0.0800 
 32 H       -8.5200    -4.1060    -1.1340 H     1 <1>   0.0800 
@<TRIPOS>BOND
  1   1   2  1   
  2   2   3  1   
  3   2   4  1   
  4   2   5  1   
  5   5   6  ar  
  6   5   7  ar  
  7   6   8  ar  
  8   6  18  1   
  9   7   9  ar  
 10   7  19  1   
 11   8  10  ar  
 12   8  20  1   
 13   9  10  ar  
 14   9  21  1   
 15  10  11  1   
 16  11  12  1   
 17  11  22  1   
 18  11  23  1   
 19  12  13  1   
 20  12  14  1   
 21  12  24  1   
 22  13  15  1   
 23  13  25  1   
 24  13  26  1   
 25  14  16  1   
 26  14  27  1   
 27  14  28  1   
 28  15  17  1   
 29  15  29  1   
 30  15  30  1   
 31  16  17  1   
 32  16  31  1   
 33  16  32  1   
@<TRIPOS>SUBSTRUCTURE
  1 ****  10 GROUP 4 **** **** 0

# MOE 2024.06 (io_trps.svl 2023.06)
