@<TRIPOS>MOLECULE
NONAME
50 52 1 0 0 
SMALL
USER_CHARGES


@<TRIPOS>ATOM
  1 S        0.0900    -0.0520    -0.1140 S.3   1 <1>  -0.0800 
  2 C        1.4290     1.0660    -0.1580 C.2   1 <1>   0.1240 
  3 C       -1.0250     1.2610     0.2710 C.2   1 <1>  -0.1400 
  4 N        2.7130     0.7260    -0.4200 N.pl3 1 <1>  -0.5340 
  5 C        1.0520     2.3360     0.1040 C.2   1 <1>  -0.0860 
  6 C       -0.3690     2.4400     0.3500 C.2   1 <1>  -0.1810 
  7 C       -2.4750     0.8520     0.4420 C.3   1 <1>  -0.0600 
  8 C        3.6850     1.6950    -0.4320 C.2   1 <1>   0.4140 
  9 C        2.1080     3.3040     0.0910 C.2   1 <1>   0.8670 
 10 C       -0.9970     3.7900     0.6620 C.3   1 <1>  -0.0590 
 11 N        3.4040     2.9370    -0.1810 N.2   1 <1>  -0.6610 
 12 C        5.0400     1.2830    -0.7290 C.ar  1 <1>   0.0860 
 13 O        1.8960     4.4870     0.3210 O.2   1 <1>  -0.5700 
 14 C        6.1170     1.7670     0.0130 C.ar  1 <1>  -0.1500 
 15 C        5.3220     0.3850    -1.7610 C.ar  1 <1>  -0.1500 
 16 C        7.4120     1.3610    -0.2480 C.ar  1 <1>   0.0830 
 17 C        6.6130    -0.0330    -2.0280 C.ar  1 <1>  -0.1500 
 18 O        8.4040     1.8490     0.5310 O.3   1 <1>  -0.3630 
 19 C        7.6740     0.4430    -1.2660 C.ar  1 <1>   0.0830 
 20 C        9.2140     2.8430    -0.0510 C.3   1 <1>   0.1200 
 21 O        8.9540     0.0350    -1.4680 O.3   1 <1>  -0.3630 
 22 C       10.2660     3.2550     0.9750 C.3   1 <1>  -0.2400 
 23 C        9.2420    -1.2780    -1.9300 C.3   1 <1>   0.1810 
 24 C        8.5860    -2.3700    -1.0810 C.2   1 <1>   0.6590 
 25 O        7.7680    -3.0990    -1.5760 O.2   1 <1>  -0.5700 
 26 O        8.9440    -2.5390     0.1900 O.3   1 <1>  -0.4300 
 27 C        9.6130    -1.5770     0.9750 C.3   1 <1>   0.1200 
 28 C        9.9110    -2.2050     2.3320 C.3   1 <1>  -0.2400 
 29 H        2.9650    -0.2540    -0.5680 H     1 <1>   0.4000 
 30 H       -2.8360     0.4040    -0.4660 H     1 <1>   0.0800 
 31 H       -3.0930     1.6990     0.6750 H     1 <1>   0.0800 
 32 H       -2.5590     0.1360     1.2390 H     1 <1>   0.0800 
 33 H       -2.0550     3.7070     0.8170 H     1 <1>   0.0800 
 34 H       -0.8250     4.4710    -0.1530 H     1 <1>   0.0800 
 35 H       -0.5540     4.2020     1.5520 H     1 <1>   0.0800 
 36 H        5.9380     2.4680     0.8080 H     1 <1>   0.1500 
 37 H        4.5180     0.0100    -2.3700 H     1 <1>   0.1500 
 38 H        6.7760    -0.7270    -2.8320 H     1 <1>   0.1500 
 39 H        8.5880     3.6770    -0.3180 H     1 <1>   0.0800 
 40 H        9.6790     2.4400    -0.9340 H     1 <1>   0.0800 
 41 H        9.7890     3.6470     1.8550 H     1 <1>   0.0800 
 42 H       10.8990     4.0180     0.5590 H     1 <1>   0.0800 
 43 H       10.8740     2.4100     1.2400 H     1 <1>   0.0800 
 44 H       10.3080    -1.4040    -1.9080 H     1 <1>   0.0800 
 45 H        8.9130    -1.3590    -2.9490 H     1 <1>   0.0800 
 46 H        8.9690    -0.7200     1.0890 H     1 <1>   0.0800 
 47 H       10.5250    -1.2880     0.4830 H     1 <1>   0.0800 
 48 H        8.9940    -2.4980     2.8120 H     1 <1>   0.0800 
 49 H       10.4130    -1.4910     2.9590 H     1 <1>   0.0800 
 50 H       10.5460    -3.0650     2.2130 H     1 <1>   0.0800 
@<TRIPOS>BOND
  1   1   2  1   
  2   1   3  1   
  3   2   4  1   
  4   2   5  2   
  5   3   6  2   
  6   3   7  1   
  7   4   8  1   
  8   4  29  1   
  9   5   6  1   
 10   5   9  1   
 11   6  10  1   
 12   7  30  1   
 13   7  31  1   
 14   7  32  1   
 15   8  11  2   
 16   8  12  1   
 17   9  11  1   
 18   9  13  2   
 19  10  33  1   
 20  10  34  1   
 21  10  35  1   
 22  12  14  ar  
 23  12  15  ar  
 24  14  16  ar  
 25  14  36  1   
 26  15  17  ar  
 27  15  37  1   
 28  16  18  1   
 29  16  19  ar  
 30  17  19  ar  
 31  17  38  1   
 32  18  20  1   
 33  19  21  1   
 34  20  22  1   
 35  20  39  1   
 36  20  40  1   
 37  21  23  1   
 38  22  41  1   
 39  22  42  1   
 40  22  43  1   
 41  23  24  1   
 42  23  44  1   
 43  23  45  1   
 44  24  25  2   
 45  24  26  1   
 46  26  27  1   
 47  27  28  1   
 48  27  46  1   
 49  27  47  1   
 50  28  48  1   
 51  28  49  1   
 52  28  50  1   
@<TRIPOS>SUBSTRUCTURE
  1 ****  12 GROUP 4 **** **** 0

# MOE 2024.06 (io_trps.svl 2023.06)
