@<TRIPOS>MOLECULE
NONAME
36 37 1 0 0 
SMALL
USER_CHARGES


@<TRIPOS>ATOM
  1 S       -0.0620     0.1020     0.3720 S.o2  1 <1>   1.3330 
  2 O       -0.0550     1.2510    -0.5050 O.2   1 <1>  -0.6500 
  3 O        0.0190     0.2940     1.8030 O.2   1 <1>  -0.6500 
  4 N       -1.4700    -0.7800     0.0610 N.am  1 <1>  -0.8490 
  5 C        1.2310    -1.0240    -0.1610 C.3   1 <1>  -0.0550 
  6 C       -2.5830     0.1280    -0.2400 C.3   1 <1>   0.3390 
  7 C       -1.8380    -1.6770     1.1610 C.3   1 <1>   0.1960 
  8 C        2.6510    -0.4610     0.0150 C.3   1 <1>  -0.1600 
  9 C       -3.9180    -0.6000    -0.4000 C.ar  1 <1>  -0.1440 
 10 C       -2.9370    -2.6400     0.7030 C.3   1 <1>  -0.0160 
 11 C        3.7110    -1.4650    -0.4550 C.3   1 <1>  -0.1600 
 12 C       -4.0950    -1.9000     0.0560 C.ar  1 <1>  -0.1440 
 13 C       -4.9790     0.0600    -1.0020 C.ar  1 <1>  -0.1500 
 14 C        5.1210    -0.8970    -0.2760 C.3   1 <1>  -0.2400 
 15 C       -5.3230    -2.5250    -0.0910 C.ar  1 <1>  -0.1500 
 16 C       -6.2050    -0.5660    -1.1470 C.ar  1 <1>  -0.1500 
 17 C       -6.3770    -1.8600    -0.6900 C.ar  1 <1>  -0.1500 
 18 H        1.0770    -1.2570    -1.1970 H     1 <1>   0.0800 
 19 H        1.1510    -1.9370     0.3950 H     1 <1>   0.0800 
 20 H       -2.3700     0.6550    -1.1550 H     1 <1>   0.0800 
 21 H       -2.6800     0.8560     0.5490 H     1 <1>   0.0800 
 22 H       -2.1860    -1.1010     2.0030 H     1 <1>   0.0800 
 23 H       -0.9820    -2.2480     1.4760 H     1 <1>   0.0800 
 24 H        2.8110    -0.2250     1.0540 H     1 <1>   0.0800 
 25 H        2.7410     0.4520    -0.5500 H     1 <1>   0.0800 
 26 H       -3.2880    -3.2010     1.5510 H     1 <1>   0.0800 
 27 H       -2.5230    -3.3320    -0.0080 H     1 <1>   0.0800 
 28 H        3.5550    -1.6980    -1.4950 H     1 <1>   0.0800 
 29 H        3.6240    -2.3780     0.1100 H     1 <1>   0.0800 
 30 H       -4.8570     1.0670    -1.3600 H     1 <1>   0.1500 
 31 H        5.2390     0.0060    -0.8490 H     1 <1>   0.0800 
 32 H        5.8520    -1.6120    -0.6100 H     1 <1>   0.0800 
 33 H        5.3090    -0.6750     0.7600 H     1 <1>   0.0800 
 34 H       -5.4640    -3.5330     0.2580 H     1 <1>   0.1500 
 35 H       -7.0230    -0.0470    -1.6150 H     1 <1>   0.1500 
 36 H       -7.3290    -2.3480    -0.8030 H     1 <1>   0.1500 
@<TRIPOS>BOND
  1   1   2  2   
  2   1   3  2   
  3   1   4  am  
  4   1   5  1   
  5   4   6  1   
  6   4   7  1   
  7   5   8  1   
  8   5  18  1   
  9   5  19  1   
 10   6   9  1   
 11   6  20  1   
 12   6  21  1   
 13   7  10  1   
 14   7  22  1   
 15   7  23  1   
 16   8  11  1   
 17   8  24  1   
 18   8  25  1   
 19   9  12  ar  
 20   9  13  ar  
 21  10  12  1   
 22  10  26  1   
 23  10  27  1   
 24  11  14  1   
 25  11  28  1   
 26  11  29  1   
 27  12  15  ar  
 28  13  16  ar  
 29  13  30  1   
 30  14  31  1   
 31  14  32  1   
 32  14  33  1   
 33  15  17  ar  
 34  15  34  1   
 35  16  17  ar  
 36  16  35  1   
 37  17  36  1   
@<TRIPOS>SUBSTRUCTURE
  1 ****   4 GROUP 4 **** **** 0

# MOE 2024.06 (io_trps.svl 2023.06)
