@<TRIPOS>MOLECULE
NONAME
45 47 1 0 0 
SMALL
USER_CHARGES


@<TRIPOS>ATOM
  1 O       -0.0930    -0.2200     1.9270 O.2   1 <1>  -0.5700 
  2 C       -0.1720    -1.2310     1.2750 C.2   1 <1>   0.5690 
  3 N        0.7990    -1.6870     0.4300 N.am  1 <1>  -0.5470 
  4 C       -1.4370    -2.0570     1.3930 C.3   1 <1>  -0.0990 
  5 C        2.0720    -1.2090     0.0690 C.ar  1 <1>   0.1170 
  6 C       -2.3670    -1.8550     0.1820 C.3   1 <1>  -0.1600 
  7 C        2.7930    -1.9300    -0.8890 C.ar  1 <1>   0.0830 
  8 C        2.6440    -0.0650     0.6150 C.ar  1 <1>  -0.1500 
  9 C       -3.6660    -2.6640     0.2880 C.3   1 <1>   0.2000 
 10 O        2.2000    -3.0510    -1.4040 O.3   1 <1>  -0.3630 
 11 C        4.0570    -1.4980    -1.2790 C.ar  1 <1>  -0.1500 
 12 C        3.9030     0.3640     0.2270 C.ar  1 <1>  -0.1430 
 13 O       -4.3120    -2.5850    -0.9680 O.3   1 <1>  -0.3630 
 14 C       -4.6160    -2.1580     1.3910 C.3   1 <1>   0.1200 
 15 C        2.8450    -3.8320    -2.3870 C.3   1 <1>   0.0400 
 16 C        4.6050    -0.3560    -0.7230 C.ar  1 <1>  -0.1500 
 17 C        4.5030     1.6170     0.8380 C.3   1 <1>  -0.0970 
 18 C       -5.6100    -2.9780    -1.0220 C.ar  1 <1>   0.0830 
 19 O       -5.8330    -2.8820     1.3640 O.3   1 <1>  -0.3630 
 20 C       -6.3650    -3.1400     0.1430 C.ar  1 <1>   0.0830 
 21 C       -6.1840    -3.2240    -2.2570 C.ar  1 <1>  -0.1500 
 22 C       -7.6790    -3.5650     0.0600 C.ar  1 <1>  -0.1500 
 23 C       -7.5020    -3.6440    -2.3350 C.ar  1 <1>  -0.1500 
 24 C       -8.2470    -3.8170    -1.1780 C.ar  1 <1>  -0.1500 
 25 H        0.5770    -2.5430    -0.0780 H     1 <1>   0.3700 
 26 H       -1.9370    -1.7630     2.2980 H     1 <1>   0.0800 
 27 H       -1.1690    -3.0940     1.4880 H     1 <1>   0.0800 
 28 H       -1.8460    -2.1590    -0.7100 H     1 <1>   0.0800 
 29 H       -2.6050    -0.8090     0.0870 H     1 <1>   0.0800 
 30 H        2.1060     0.5020     1.3510 H     1 <1>   0.1500 
 31 H       -3.4370    -3.7010     0.4610 H     1 <1>   0.0800 
 32 H        4.6320    -2.0300    -2.0120 H     1 <1>   0.1500 
 33 H       -4.8440    -1.1180     1.2420 H     1 <1>   0.0800 
 34 H       -4.1840    -2.2890     2.3650 H     1 <1>   0.0800 
 35 H        2.1960    -4.6490    -2.6460 H     1 <1>   0.0800 
 36 H        3.7660    -4.2120    -1.9830 H     1 <1>   0.0800 
 37 H        3.0260    -3.2220    -3.2550 H     1 <1>   0.0800 
 38 H        5.5830    -0.0300    -1.0320 H     1 <1>   0.1500 
 39 H        4.1170     1.7750     1.8290 H     1 <1>   0.0800 
 40 H        4.2570     2.4700     0.2310 H     1 <1>   0.0800 
 41 H        5.5730     1.5300     0.9010 H     1 <1>   0.0800 
 42 H       -5.5980    -3.0890    -3.1480 H     1 <1>   0.1500 
 43 H       -8.2500    -3.6940     0.9620 H     1 <1>   0.1500 
 44 H       -7.9480    -3.8380    -3.2950 H     1 <1>   0.1500 
 45 H       -9.2700    -4.1460    -1.2420 H     1 <1>   0.1500 
@<TRIPOS>BOND
  1   1   2  2   
  2   2   3  am  
  3   2   4  1   
  4   3   5  1   
  5   3  25  1   
  6   4   6  1   
  7   4  26  1   
  8   4  27  1   
  9   5   7  ar  
 10   5   8  ar  
 11   6   9  1   
 12   6  28  1   
 13   6  29  1   
 14   7  10  1   
 15   7  11  ar  
 16   8  12  ar  
 17   8  30  1   
 18   9  13  1   
 19   9  14  1   
 20   9  31  1   
 21  10  15  1   
 22  11  16  ar  
 23  11  32  1   
 24  12  16  ar  
 25  12  17  1   
 26  13  18  1   
 27  14  19  1   
 28  14  33  1   
 29  14  34  1   
 30  15  35  1   
 31  15  36  1   
 32  15  37  1   
 33  16  38  1   
 34  17  39  1   
 35  17  40  1   
 36  17  41  1   
 37  18  20  ar  
 38  18  21  ar  
 39  19  20  1   
 40  20  22  ar  
 41  21  23  ar  
 42  21  42  1   
 43  22  24  ar  
 44  22  43  1   
 45  23  24  ar  
 46  23  44  1   
 47  24  45  1   
@<TRIPOS>SUBSTRUCTURE
  1 ****   6 GROUP 4 **** **** 0

# MOE 2024.06 (io_trps.svl 2023.06)
