@<TRIPOS>MOLECULE
NONAME
41 42 1 0 0 
SMALL
USER_CHARGES


@<TRIPOS>ATOM
  1 O        0.8910    -1.5540     1.4720 O.3   1 <1>  -0.3630 
  2 C       -0.0400    -1.4480     0.4890 C.ar  1 <1>   0.0830 
  3 C        1.6340    -0.4170     1.8930 C.3   1 <1>   0.1200 
  4 C       -0.1360    -2.4700    -0.4560 C.ar  1 <1>  -0.1440 
  5 C       -0.8490    -0.3210     0.3920 C.ar  1 <1>  -0.1500 
  6 C        2.2890     0.2860     0.6860 C.3   1 <1>   0.3430 
  7 C       -1.0100    -2.3210    -1.5290 C.ar  1 <1>  -0.1440 
  8 C        0.6840    -3.7550    -0.3230 C.3   1 <1>  -0.0970 
  9 C       -1.7160    -0.1850    -0.6730 C.ar  1 <1>  -0.1500 
 10 N        2.7400    -0.7070    -0.3360 N.4   1 <1>  -0.9590 
 11 C       -1.7870    -1.1770    -1.6320 C.ar  1 <1>  -0.1500 
 12 C       -1.1600    -3.3940    -2.6010 C.3   1 <1>  -0.0970 
 13 C        4.0540    -1.3270    -0.0090 C.3   1 <1>   0.3430 
 14 C        2.6790    -0.1520    -1.7150 C.3   1 <1>   0.3430 
 15 C        4.3540    -2.4530    -1.0000 C.3   1 <1>  -0.1600 
 16 C        2.9440    -1.2680    -2.7250 C.3   1 <1>  -0.1600 
 17 C        4.2800    -1.9740    -2.4560 C.3   1 <1>  -0.1600 
 18 H        2.3900    -0.7650     2.5740 H     1 <1>   0.0800 
 19 H        0.9820     0.2500     2.4280 H     1 <1>   0.0800 
 20 H       -0.8240     0.4490     1.1400 H     1 <1>   0.1500 
 21 H        3.1110     0.9020     1.0100 H     1 <1>   0.0800 
 22 H        1.5490     0.9330     0.2450 H     1 <1>   0.0800 
 23 H        1.3330    -3.7470     0.5330 H     1 <1>   0.0800 
 24 H        1.2820    -3.9130    -1.2010 H     1 <1>   0.0800 
 25 H        0.0170    -4.5910    -0.2090 H     1 <1>   0.0800 
 26 H       -2.3440     0.6860    -0.7560 H     1 <1>   0.1500 
 27 H        2.0250    -1.4590    -0.2950 H     1 <1>   0.4500 
 28 H       -2.4690    -1.0560    -2.4570 H     1 <1>   0.1500 
 29 H       -1.4910    -4.3160    -2.1570 H     1 <1>   0.0800 
 30 H       -0.2220    -3.5620    -3.0980 H     1 <1>   0.0800 
 31 H       -1.8840    -3.1050    -3.3410 H     1 <1>   0.0800 
 32 H        4.0350    -1.7270     0.9920 H     1 <1>   0.0800 
 33 H        4.8310    -0.5820    -0.0660 H     1 <1>   0.0800 
 34 H        3.4170     0.6250    -1.8310 H     1 <1>   0.0800 
 35 H        1.7030     0.2690    -1.8990 H     1 <1>   0.0800 
 36 H        3.6590    -3.2580    -0.8420 H     1 <1>   0.0800 
 37 H        5.3390    -2.8400    -0.8030 H     1 <1>   0.0800 
 38 H        2.9550    -0.8490    -3.7160 H     1 <1>   0.0800 
 39 H        2.1360    -1.9780    -2.6870 H     1 <1>   0.0800 
 40 H        4.3900    -2.8140    -3.1230 H     1 <1>   0.0800 
 41 H        5.0910    -1.2930    -2.6520 H     1 <1>   0.0800 
@<TRIPOS>BOND
  1   1   2  1   
  2   1   3  1   
  3   2   4  ar  
  4   2   5  ar  
  5   3   6  1   
  6   3  18  1   
  7   3  19  1   
  8   4   7  ar  
  9   4   8  1   
 10   5   9  ar  
 11   5  20  1   
 12   6  10  1   
 13   6  21  1   
 14   6  22  1   
 15   7  11  ar  
 16   7  12  1   
 17   8  23  1   
 18   8  24  1   
 19   8  25  1   
 20   9  11  ar  
 21   9  26  1   
 22  10  13  1   
 23  10  14  1   
 24  10  27  1   
 25  11  28  1   
 26  12  29  1   
 27  12  30  1   
 28  12  31  1   
 29  13  15  1   
 30  13  32  1   
 31  13  33  1   
 32  14  16  1   
 33  14  34  1   
 34  14  35  1   
 35  15  17  1   
 36  15  36  1   
 37  15  37  1   
 38  16  17  1   
 39  16  38  1   
 40  16  39  1   
 41  17  40  1   
 42  17  41  1   
@<TRIPOS>SUBSTRUCTURE
  1 ****   2 GROUP 4 **** **** 0

# MOE 2024.06 (io_trps.svl 2023.06)
