@<TRIPOS>MOLECULE
NONAME
42 42 1 0 0 
SMALL
USER_CHARGES


@<TRIPOS>ATOM
  1 O       -0.5900    -0.4620     2.0340 O.2   1 <1>  -0.5700 
  2 C       -0.1710    -1.3840     1.3720 C.2   1 <1>   0.5690 
  3 N       -0.8990    -1.9080     0.3520 N.am  1 <1>  -0.7300 
  4 C        1.2080    -1.9720     1.7050 C.3   1 <1>   0.2610 
  5 C       -2.2090    -1.4300    -0.1000 C.3   1 <1>   0.2780 
  6 O        1.6880    -2.7390     0.6060 O.3   1 <1>  -0.3620 
  7 C        1.1530    -2.8840     2.9400 C.3   1 <1>  -0.2400 
  8 C       -2.2250    -1.5160    -1.6100 C.2   1 <1>  -0.2880 
  9 C        3.0060    -2.9880     0.3950 C.ar  1 <1>   0.0820 
 10 C       -3.0320    -2.2970    -2.3350 C.2   1 <1>  -0.3000 
 11 C        4.0350    -2.5220     1.2040 C.ar  1 <1>  -0.1500 
 12 C        3.3210    -3.7590    -0.7090 C.ar  1 <1>  -0.1500 
 13 C        5.3500    -2.8300     0.9000 C.ar  1 <1>  -0.1500 
 14 C        4.6370    -4.0630    -1.0080 C.ar  1 <1>  -0.1500 
 15 C        5.6800    -3.6040    -0.2090 C.ar  1 <1>  -0.1430 
 16 C        7.1650    -3.9140    -0.5020 C.3   1 <1>   0.1430 
 17 C        7.7740    -4.6740     0.6860 C.3   1 <1>  -0.2400 
 18 C        7.3670    -4.7780    -1.7580 C.3   1 <1>  -0.2400 
 19 C        7.9310    -2.6000    -0.7150 C.3   1 <1>  -0.2400 
 20 H       -0.4830    -2.6540    -0.2120 H     1 <1>   0.3700 
 21 H        1.8740    -1.1450     1.8640 H     1 <1>   0.0800 
 22 H       -2.3690    -0.4140     0.2210 H     1 <1>   0.0800 
 23 H       -2.9800    -2.0520     0.3230 H     1 <1>   0.0800 
 24 H        0.4740    -3.6990     2.7650 H     1 <1>   0.0800 
 25 H        0.7990    -2.3230     3.7860 H     1 <1>   0.0800 
 26 H        2.1260    -3.2750     3.1740 H     1 <1>   0.0800 
 27 H       -1.4950    -0.8630    -2.0570 H     1 <1>   0.1500 
 28 H       -3.0200    -2.3360    -3.4110 H     1 <1>   0.1500 
 29 H       -3.7710    -2.9610    -1.9200 H     1 <1>   0.1500 
 30 H        3.8440    -1.9230     2.0730 H     1 <1>   0.1500 
 31 H        2.5280    -4.1210    -1.3380 H     1 <1>   0.1500 
 32 H        6.1220    -2.4540     1.5450 H     1 <1>   0.1500 
 33 H        4.8190    -4.6650    -1.8780 H     1 <1>   0.1500 
 34 H        7.7500    -4.0820     1.5810 H     1 <1>   0.0800 
 35 H        8.7990    -4.9330     0.4860 H     1 <1>   0.0800 
 36 H        7.2220    -5.5800     0.8650 H     1 <1>   0.0800 
 37 H        6.8700    -5.7260    -1.6490 H     1 <1>   0.0800 
 38 H        8.4120    -4.9690    -1.9230 H     1 <1>   0.0800 
 39 H        6.9800    -4.2770    -2.6270 H     1 <1>   0.0800 
 40 H        7.4880    -2.0450    -1.5230 H     1 <1>   0.0800 
 41 H        8.9600    -2.7960    -0.9580 H     1 <1>   0.0800 
 42 H        7.9070    -1.9890     0.1670 H     1 <1>   0.0800 
@<TRIPOS>BOND
  1   1   2  2   
  2   2   3  am  
  3   2   4  1   
  4   3   5  1   
  5   3  20  1   
  6   4   6  1   
  7   4   7  1   
  8   4  21  1   
  9   5   8  1   
 10   5  22  1   
 11   5  23  1   
 12   6   9  1   
 13   7  24  1   
 14   7  25  1   
 15   7  26  1   
 16   8  10  2   
 17   8  27  1   
 18   9  11  ar  
 19   9  12  ar  
 20  10  28  1   
 21  10  29  1   
 22  11  13  ar  
 23  11  30  1   
 24  12  14  ar  
 25  12  31  1   
 26  13  15  ar  
 27  13  32  1   
 28  14  15  ar  
 29  14  33  1   
 30  15  16  1   
 31  16  17  1   
 32  16  18  1   
 33  16  19  1   
 34  17  34  1   
 35  17  35  1   
 36  17  36  1   
 37  18  37  1   
 38  18  38  1   
 39  18  39  1   
 40  19  40  1   
 41  19  41  1   
 42  19  42  1   
@<TRIPOS>SUBSTRUCTURE
  1 ****   9 GROUP 4 **** **** 0

# MOE 2024.06 (io_trps.svl 2023.06)
