@<TRIPOS>MOLECULE
NONAME
47 48 1 0 0 
SMALL
USER_CHARGES


@<TRIPOS>ATOM
  1 O       -0.6230     0.0530    -1.2280 O.3   1 <1>  -0.5320 
  2 C       -1.7000    -0.6530    -0.8590 C.ar  1 <1>   0.0830 
  3 C       -2.0580    -0.6760     0.4760 C.ar  1 <1>  -0.1500 
  4 C       -2.4400    -1.3530    -1.7970 C.ar  1 <1>  -0.1500 
  5 C       -3.1680    -1.3950     0.8800 C.ar  1 <1>  -0.1500 
  6 C       -3.5520    -2.0710    -1.3930 C.ar  1 <1>  -0.1500 
  7 C       -3.9280    -2.0860    -0.0550 C.ar  1 <1>  -0.1430 
  8 C       -5.1660    -2.8400     0.3840 C.3   1 <1>   0.4860 
  9 N       -6.3610    -2.0400    -0.0260 N.4   1 <1>  -0.9590 
 10 C       -6.3640    -0.7320     0.7190 C.3   1 <1>   0.4860 
 11 C       -7.6450    -2.8320     0.1050 C.3   1 <1>   0.3430 
 12 C       -7.5960     0.0610     0.3390 C.ar  1 <1>  -0.1430 
 13 C       -8.7310    -2.4960    -0.9660 C.3   1 <1>   0.3430 
 14 C       -7.6730     0.6840    -0.8990 C.ar  1 <1>  -0.1500 
 15 C       -8.6620     0.1590     1.2230 C.ar  1 <1>  -0.1500 
 16 N      -10.0670    -3.1630    -0.7480 N.4   1 <1>  -0.9590 
 17 C       -8.8200     1.3690    -1.2610 C.ar  1 <1>  -0.1500 
 18 C       -9.8050     0.8490     0.8600 C.ar  1 <1>  -0.1500 
 19 C      -10.9390    -2.9520    -1.9530 C.3   1 <1>   0.2630 
 20 C      -10.7880    -2.6260     0.4550 C.3   1 <1>   0.2630 
 21 C       -9.8870     1.4470    -0.3840 C.ar  1 <1>  -0.1500 
 22 H       -0.4050    -0.0190    -2.1750 H     1 <1>   0.4500 
 23 H       -1.4590    -0.1320     1.1880 H     1 <1>   0.1500 
 24 H       -2.1490    -1.3410    -2.8320 H     1 <1>   0.1500 
 25 H       -3.4170    -1.4030     1.9280 H     1 <1>   0.1500 
 26 H       -4.1060    -2.6170    -2.1380 H     1 <1>   0.1500 
 27 H       -5.1520    -2.9870     1.4520 H     1 <1>   0.0800 
 28 H       -5.1750    -3.8060    -0.0950 H     1 <1>   0.0800 
 29 H       -6.1830    -1.7900    -1.0070 H     1 <1>   0.4500 
 30 H       -5.4830    -0.1580     0.4720 H     1 <1>   0.0800 
 31 H       -6.3610    -0.9060     1.7830 H     1 <1>   0.0800 
 32 H       -8.0560    -2.6630     1.0860 H     1 <1>   0.0800 
 33 H       -7.4170    -3.8820     0.0190 H     1 <1>   0.0800 
 34 H       -8.3520    -2.7900    -1.9310 H     1 <1>   0.0800 
 35 H       -8.8930    -1.4330    -0.9900 H     1 <1>   0.0800 
 36 H       -6.8470     0.6580    -1.5920 H     1 <1>   0.1500 
 37 H       -8.6130    -0.2820     2.2060 H     1 <1>   0.1500 
 38 H       -9.9580    -4.1860    -0.6400 H     1 <1>   0.4500 
 39 H       -8.8810     1.8590    -2.2200 H     1 <1>   0.1500 
 40 H      -10.6300     0.9420     1.5500 H     1 <1>   0.1500 
 41 H      -11.1110    -1.8990    -2.1160 H     1 <1>   0.0800 
 42 H      -11.8930    -3.4350    -1.8160 H     1 <1>   0.0800 
 43 H      -10.4740    -3.3650    -2.8350 H     1 <1>   0.0800 
 44 H      -10.9370    -1.5620     0.3590 H     1 <1>   0.0800 
 45 H      -10.2270    -2.8170     1.3550 H     1 <1>   0.0800 
 46 H      -11.7540    -3.0970     0.5530 H     1 <1>   0.0800 
 47 H      -10.7730     1.9940    -0.6640 H     1 <1>   0.1500 
@<TRIPOS>BOND
  1   1   2  1   
  2   1  22  1   
  3   2   3  ar  
  4   2   4  ar  
  5   3   5  ar  
  6   3  23  1   
  7   4   6  ar  
  8   4  24  1   
  9   5   7  ar  
 10   5  25  1   
 11   6   7  ar  
 12   6  26  1   
 13   7   8  1   
 14   8   9  1   
 15   8  27  1   
 16   8  28  1   
 17   9  10  1   
 18   9  11  1   
 19   9  29  1   
 20  10  12  1   
 21  10  30  1   
 22  10  31  1   
 23  11  13  1   
 24  11  32  1   
 25  11  33  1   
 26  12  14  ar  
 27  12  15  ar  
 28  13  16  1   
 29  13  34  1   
 30  13  35  1   
 31  14  17  ar  
 32  14  36  1   
 33  15  18  ar  
 34  15  37  1   
 35  16  19  1   
 36  16  20  1   
 37  16  38  1   
 38  17  21  ar  
 39  17  39  1   
 40  18  21  ar  
 41  18  40  1   
 42  19  41  1   
 43  19  42  1   
 44  19  43  1   
 45  20  44  1   
 46  20  45  1   
 47  20  46  1   
 48  21  47  1   
@<TRIPOS>SUBSTRUCTURE
  1 ****   9 GROUP 4 **** **** 0

# MOE 2024.06 (io_trps.svl 2023.06)
