@<TRIPOS>MOLECULE
NONAME
50 52 1 0 0 
SMALL
USER_CHARGES


@<TRIPOS>ATOM
  1 O        0.1790    -0.8560     1.1110 O.co2 1 <1>  -0.9000 
  2 C       -0.1660    -1.9550     1.5510 C.2   1 <1>   0.9060 
  3 O        0.6560    -2.7230     2.0700 O.co2 1 <1>  -0.9000 
  4 C       -1.6200    -2.4030     1.4350 C.3   1 <1>  -0.1860 
  5 C       -1.7870    -3.9360     1.2960 C.3   1 <1>  -0.0190 
  6 C       -2.3540    -1.6750     0.2940 C.3   1 <1>  -0.0220 
  7 C       -1.1010    -4.5160     0.0480 C.2   1 <1>   0.5690 
  8 C       -3.2810    -4.2940     1.3930 C.3   1 <1>  -0.0220 
  9 C       -3.7760    -2.2060     0.0490 C.2   1 <1>  -0.2760 
 10 O       -1.7320    -5.0230    -0.8540 O.2   1 <1>  -0.5700 
 11 N        0.2490    -4.4720     0.0080 N.am  1 <1>  -0.7300 
 12 C       -4.1750    -3.3890     0.5470 C.2   1 <1>  -0.2760 
 13 C       -4.6800    -1.3190    -0.8330 C.3   1 <1>   0.1380 
 14 C        1.0870    -4.7410    -1.1630 C.3   1 <1>   0.2840 
 15 C       -5.5570    -3.9870     0.3230 C.3   1 <1>  -0.0220 
 16 C       -6.1480    -1.7960    -0.7540 C.3   1 <1>  -0.1600 
 17 C       -4.6700     0.1550    -0.3950 C.3   1 <1>  -0.2400 
 18 C       -4.1780    -1.4040    -2.2830 C.3   1 <1>  -0.2400 
 19 C        1.7350    -6.1060    -1.0260 C.ar  1 <1>  -0.1430 
 20 C       -6.2890    -3.3180    -0.8420 C.3   1 <1>  -0.1600 
 21 C        3.0680    -6.2290    -0.6640 C.ar  1 <1>   0.1600 
 22 C        1.0020    -7.2500    -1.2670 C.ar  1 <1>  -0.1500 
 23 N        3.7210    -7.3780    -0.5490 N.ar  1 <1>  -0.6200 
 24 C        1.6610    -8.4540    -1.1430 C.ar  1 <1>  -0.1500 
 25 C        3.0000    -8.4610    -0.7900 C.ar  1 <1>   0.1600 
 26 H       -2.0840    -2.1070     2.3560 H     1 <1>   0.0800 
 27 H       -1.3030    -4.3990     2.1370 H     1 <1>   0.0800 
 28 H       -1.7820    -1.7710    -0.6120 H     1 <1>   0.0800 
 29 H       -2.3680    -0.6350     0.5580 H     1 <1>   0.0800 
 30 H       -3.5960    -4.2090     2.4170 H     1 <1>   0.0800 
 31 H       -3.4050    -5.3220     1.1000 H     1 <1>   0.0800 
 32 H        0.7110    -3.9540     0.7870 H     1 <1>   0.3700 
 33 H        1.8320    -3.9690    -1.2420 H     1 <1>   0.0800 
 34 H        0.4810    -4.7140    -2.0530 H     1 <1>   0.0800 
 35 H       -6.1300    -3.8770     1.2270 H     1 <1>   0.0800 
 36 H       -5.4740    -5.0380     0.1050 H     1 <1>   0.0800 
 37 H       -6.7270    -1.3360    -1.5350 H     1 <1>   0.0800 
 38 H       -6.5650    -1.4820     0.1870 H     1 <1>   0.0800 
 39 H       -4.8570     0.2250     0.6620 H     1 <1>   0.0800 
 40 H       -5.4290     0.7090    -0.9170 H     1 <1>   0.0800 
 41 H       -3.7250     0.6200    -0.6070 H     1 <1>   0.0800 
 42 H       -4.1100    -2.4300    -2.5930 H     1 <1>   0.0800 
 43 H       -3.1990    -0.9700    -2.3670 H     1 <1>   0.0800 
 44 H       -4.8400    -0.8800    -2.9490 H     1 <1>   0.0800 
 45 H       -7.3270    -3.5950    -0.8210 H     1 <1>   0.0800 
 46 H       -5.8700    -3.6700    -1.7680 H     1 <1>   0.0800 
 47 H        3.6290    -5.3340    -0.4580 H     1 <1>   0.1500 
 48 H       -0.0410    -7.1950    -1.5330 H     1 <1>   0.1500 
 49 H        1.1410    -9.3780    -1.3170 H     1 <1>   0.1500 
 50 H        3.5030    -9.4080    -0.6980 H     1 <1>   0.1500 
@<TRIPOS>BOND
  1   1   2  ar  
  2   2   3  ar  
  3   2   4  1   
  4   4   5  1   
  5   4   6  1   
  6   4  26  1   
  7   5   7  1   
  8   5   8  1   
  9   5  27  1   
 10   6   9  1   
 11   6  28  1   
 12   6  29  1   
 13   7  10  2   
 14   7  11  am  
 15   8  12  1   
 16   8  30  1   
 17   8  31  1   
 18   9  12  2   
 19   9  13  1   
 20  11  14  1   
 21  11  32  1   
 22  12  15  1   
 23  13  16  1   
 24  13  17  1   
 25  13  18  1   
 26  14  19  1   
 27  14  33  1   
 28  14  34  1   
 29  15  20  1   
 30  15  35  1   
 31  15  36  1   
 32  16  20  1   
 33  16  37  1   
 34  16  38  1   
 35  17  39  1   
 36  17  40  1   
 37  17  41  1   
 38  18  42  1   
 39  18  43  1   
 40  18  44  1   
 41  19  21  ar  
 42  19  22  ar  
 43  20  45  1   
 44  20  46  1   
 45  21  23  ar  
 46  21  47  1   
 47  22  24  ar  
 48  22  48  1   
 49  23  25  ar  
 50  24  25  ar  
 51  24  49  1   
 52  25  50  1   
@<TRIPOS>SUBSTRUCTURE
  1 ****   7 GROUP 4 **** **** 0

# MOE 2024.06 (io_trps.svl 2023.06)
