@<TRIPOS>MOLECULE
NONAME
48 50 1 0 0 
SMALL
USER_CHARGES


@<TRIPOS>ATOM
  1 S       -0.1580    -0.4080     1.0690 S.o2  1 <1>   1.4470 
  2 O        0.1640     0.9230     0.6000 O.2   1 <1>  -0.6500 
  3 O       -0.5910    -0.5890     2.4380 O.2   1 <1>  -0.6500 
  4 N       -1.4040    -1.0000     0.0800 N.am  1 <1>  -0.8490 
  5 C        1.2300    -1.5190     0.7000 C.ar  1 <1>  -0.0090 
  6 C       -1.9030    -2.2980     0.5480 C.3   1 <1>   0.1960 
  7 C       -2.5020    -0.0320    -0.0250 C.3   1 <1>   0.1960 
  8 C        1.9410    -2.1480     1.7140 C.ar  1 <1>  -0.1500 
  9 C        1.6170    -1.7660    -0.6110 C.ar  1 <1>  -0.1500 
 10 C       -2.8850    -2.8750    -0.4690 C.3   1 <1>  -0.1600 
 11 C       -3.5210    -0.5080    -1.0590 C.3   1 <1>  -0.1600 
 12 C        2.9970    -2.9980     1.4310 C.ar  1 <1>  -0.1500 
 13 C        2.6720    -2.6140    -0.9020 C.ar  1 <1>  -0.1500 
 14 C       -4.0310    -1.8930    -0.6960 C.3   1 <1>   0.5600 
 15 C        3.3680    -3.2370     0.1190 C.ar  1 <1>  -0.1430 
 16 O       -4.8200    -1.8020     0.4460 O.3   1 <1>  -0.5600 
 17 O       -4.8780    -2.3470    -1.6950 O.3   1 <1>  -0.5600 
 18 C        4.5300    -4.1670    -0.1950 C.3   1 <1>  -0.0170 
 19 C       -5.8920    -2.6680     0.3330 C.3   1 <1>   0.1200 
 20 C       -5.8910    -3.0910    -1.1240 C.3   1 <1>   0.1200 
 21 C        5.8470    -3.3830    -0.2470 C.3   1 <1>  -0.1600 
 22 C        7.0360    -4.2980    -0.5630 C.3   1 <1>  -0.1600 
 23 C        8.3440    -3.5030    -0.6110 C.3   1 <1>  -0.2400 
 24 H       -2.3890    -2.1850     1.5050 H     1 <1>   0.0800 
 25 H       -1.0820    -2.9850     0.6670 H     1 <1>   0.0800 
 26 H       -2.1200     0.9250    -0.3370 H     1 <1>   0.0800 
 27 H       -2.9760     0.0920     0.9360 H     1 <1>   0.0800 
 28 H        1.6660    -1.9710     2.7410 H     1 <1>   0.1500 
 29 H        1.0840    -1.2850    -1.4140 H     1 <1>   0.1500 
 30 H       -3.2620    -3.8170    -0.1190 H     1 <1>   0.0800 
 31 H       -2.3670    -3.0360    -1.3970 H     1 <1>   0.0800 
 32 H       -3.0450    -0.5430    -2.0210 H     1 <1>   0.0800 
 33 H       -4.3450     0.1780    -1.1070 H     1 <1>   0.0800 
 34 H        3.5310    -3.4690     2.2380 H     1 <1>   0.1500 
 35 H        2.9500    -2.7840    -1.9280 H     1 <1>   0.1500 
 36 H        4.3580    -4.6510    -1.1410 H     1 <1>   0.0800 
 37 H        4.5920    -4.9330     0.5580 H     1 <1>   0.0800 
 38 H       -6.7920    -2.1410     0.5960 H     1 <1>   0.0800 
 39 H       -5.7430    -3.5050     0.9910 H     1 <1>   0.0800 
 40 H       -5.6610    -4.1360    -1.2320 H     1 <1>   0.0800 
 41 H       -6.8190    -2.8600    -1.6160 H     1 <1>   0.0800 
 42 H        6.0060    -2.8990     0.7020 H     1 <1>   0.0800 
 43 H        5.7710    -2.6170    -0.9990 H     1 <1>   0.0800 
 44 H        6.8820    -4.7810    -1.5130 H     1 <1>   0.0800 
 45 H        7.1170    -5.0640     0.1910 H     1 <1>   0.0800 
 46 H        8.2950    -2.7450    -1.3730 H     1 <1>   0.0800 
 47 H        9.1660    -4.1590    -0.8340 H     1 <1>   0.0800 
 48 H        8.5320    -3.0290     0.3370 H     1 <1>   0.0800 
@<TRIPOS>BOND
  1   1   2  2   
  2   1   3  2   
  3   1   4  am  
  4   1   5  1   
  5   4   6  1   
  6   4   7  1   
  7   5   8  ar  
  8   5   9  ar  
  9   6  10  1   
 10   6  24  1   
 11   6  25  1   
 12   7  11  1   
 13   7  26  1   
 14   7  27  1   
 15   8  12  ar  
 16   8  28  1   
 17   9  13  ar  
 18   9  29  1   
 19  10  14  1   
 20  10  30  1   
 21  10  31  1   
 22  11  14  1   
 23  11  32  1   
 24  11  33  1   
 25  12  15  ar  
 26  12  34  1   
 27  13  15  ar  
 28  13  35  1   
 29  14  16  1   
 30  14  17  1   
 31  15  18  1   
 32  16  19  1   
 33  17  20  1   
 34  18  21  1   
 35  18  36  1   
 36  18  37  1   
 37  19  20  1   
 38  19  38  1   
 39  19  39  1   
 40  20  40  1   
 41  20  41  1   
 42  21  22  1   
 43  21  42  1   
 44  21  43  1   
 45  22  23  1   
 46  22  44  1   
 47  22  45  1   
 48  23  46  1   
 49  23  47  1   
 50  23  48  1   
@<TRIPOS>SUBSTRUCTURE
  1 ****   5 GROUP 4 **** **** 0

# MOE 2024.06 (io_trps.svl 2023.06)
