@<TRIPOS>MOLECULE
NONAME
43 44 1 0 0 
SMALL
USER_CHARGES


@<TRIPOS>ATOM
  1 N        0.1490     0.2250    -0.7790 N.4   1 <1>  -0.9590 
  2 C       -1.0550    -0.5970    -1.1590 C.3   1 <1>   0.3430 
  3 C       -0.0020     1.7090    -0.9180 C.3   1 <1>   0.3430 
  4 C        1.3620    -0.2100    -1.5400 C.3   1 <1>   0.4860 
  5 C       -2.0830    -0.7840    -0.0050 C.3   1 <1>   0.3430 
  6 C       -1.3460     2.2570    -0.4340 C.3   1 <1>  -0.1600 
  7 C        2.5630     0.3300    -0.7930 C.ar  1 <1>  -0.1440 
  8 N       -2.7730     0.4620     0.5070 N.4   1 <1>  -0.9590 
  9 C       -1.8890     1.6200     0.8440 C.3   1 <1>   0.3430 
 10 C        3.0330    -0.2710     0.3730 C.ar  1 <1>  -0.1440 
 11 C        3.1920     1.4670    -1.2810 C.ar  1 <1>  -0.1500 
 12 C       -3.6120     0.1160     1.7050 C.3   1 <1>   0.2630 
 13 C        4.1020     0.3030     1.0440 C.ar  1 <1>  -0.1500 
 14 C        2.4390    -1.5520     0.9490 C.3   1 <1>  -0.0970 
 15 C        4.2590     2.0240    -0.6030 C.ar  1 <1>  -0.1500 
 16 C        4.7160     1.4460     0.5670 C.ar  1 <1>  -0.1440 
 17 C        5.8870     2.0530     1.3200 C.3   1 <1>  -0.0970 
 18 H        0.4290     0.0380     0.1940 H     1 <1>   0.4500 
 19 H       -0.7240    -1.5810    -1.4510 H     1 <1>   0.0800 
 20 H       -1.5450    -0.1630    -2.0160 H     1 <1>   0.0800 
 21 H        0.1290     1.9930    -1.9510 H     1 <1>   0.0800 
 22 H        0.7890     2.1880    -0.3580 H     1 <1>   0.0800 
 23 H        1.3430     0.1710    -2.5480 H     1 <1>   0.0800 
 24 H        1.4250    -1.2850    -1.5810 H     1 <1>   0.0800 
 25 H       -1.5770    -1.2670     0.8150 H     1 <1>   0.0800 
 26 H       -2.8400    -1.4720    -0.3480 H     1 <1>   0.0800 
 27 H       -2.0740     2.2130    -1.2240 H     1 <1>   0.0800 
 28 H       -1.1900     3.3040    -0.2340 H     1 <1>   0.0800 
 29 H       -3.4380     0.7910    -0.2130 H     1 <1>   0.4500 
 30 H       -2.4750     2.3630     1.3650 H     1 <1>   0.0800 
 31 H       -1.0860     1.3190     1.4980 H     1 <1>   0.0800 
 32 H        2.8690     1.9380    -2.1940 H     1 <1>   0.1500 
 33 H       -2.9910    -0.2220     2.5200 H     1 <1>   0.0800 
 34 H       -4.3150    -0.6650     1.4620 H     1 <1>   0.0800 
 35 H       -4.1690     0.9790     2.0370 H     1 <1>   0.0800 
 36 H        4.4750    -0.1450     1.9500 H     1 <1>   0.1500 
 37 H        1.5400    -1.3430     1.4980 H     1 <1>   0.0800 
 38 H        3.1380    -2.0130     1.6260 H     1 <1>   0.0800 
 39 H        2.2370    -2.2680     0.1730 H     1 <1>   0.0800 
 40 H        4.7390     2.9080    -0.9890 H     1 <1>   0.1500 
 41 H        6.5190     1.2780     1.7150 H     1 <1>   0.0800 
 42 H        5.5270     2.6550     2.1340 H     1 <1>   0.0800 
 43 H        6.4810     2.6700     0.6700 H     1 <1>   0.0800 
@<TRIPOS>BOND
  1   1   2  1   
  2   1   3  1   
  3   1   4  1   
  4   1  18  1   
  5   2   5  1   
  6   2  19  1   
  7   2  20  1   
  8   3   6  1   
  9   3  21  1   
 10   3  22  1   
 11   4   7  1   
 12   4  23  1   
 13   4  24  1   
 14   5   8  1   
 15   5  25  1   
 16   5  26  1   
 17   6   9  1   
 18   6  27  1   
 19   6  28  1   
 20   7  10  ar  
 21   7  11  ar  
 22   8   9  1   
 23   8  12  1   
 24   8  29  1   
 25   9  30  1   
 26   9  31  1   
 27  10  13  ar  
 28  10  14  1   
 29  11  15  ar  
 30  11  32  1   
 31  12  33  1   
 32  12  34  1   
 33  12  35  1   
 34  13  16  ar  
 35  13  36  1   
 36  14  37  1   
 37  14  38  1   
 38  14  39  1   
 39  15  16  ar  
 40  15  40  1   
 41  16  17  1   
 42  17  41  1   
 43  17  42  1   
 44  17  43  1   
@<TRIPOS>SUBSTRUCTURE
  1 ****   1 GROUP 4 **** **** 0

# MOE 2024.06 (io_trps.svl 2023.06)
