@<TRIPOS>MOLECULE
NONAME
37 37 1 0 0 
SMALL
USER_CHARGES


@<TRIPOS>ATOM
  1 CL       0.5370    -0.7930     0.7500 Cl    1 <1>  -0.1770 
  2 C       -0.5880     0.5330     0.5120 C.ar  1 <1>   0.1770 
  3 C       -0.2040     1.8640     0.2790 C.ar  1 <1>   0.0830 
  4 C       -1.9260     0.1840     0.5680 C.ar  1 <1>  -0.1500 
  5 O        1.0610     2.3670     0.1960 O.3   1 <1>  -0.3630 
  6 C       -1.2050     2.8100     0.1080 C.ar  1 <1>  -0.1500 
  7 C       -2.9060     1.1450     0.3940 C.ar  1 <1>  -0.1500 
  8 C        2.2260     1.5990     0.3340 C.3   1 <1>   0.1200 
  9 C       -2.5430     2.4600     0.1640 C.ar  1 <1>  -0.1500 
 10 C        3.4170     2.5420     0.1710 C.3   1 <1>  -0.1600 
 11 C        4.7240     1.7720     0.3100 C.3   1 <1>   0.3430 
 12 N        5.8570     2.7200     0.1460 N.4   1 <1>  -0.9060 
 13 C        7.2080     2.1630     0.2470 C.3   1 <1>   0.5030 
 14 C        7.4140     1.5550     1.6340 C.3   1 <1>  -0.2400 
 15 C        8.1680     3.3300     0.0450 C.3   1 <1>  -0.2400 
 16 C        7.4200     1.1200    -0.8490 C.3   1 <1>  -0.2400 
 17 H       -2.2000    -0.8400     0.7470 H     1 <1>   0.1500 
 18 H       -0.9300     3.8350    -0.0710 H     1 <1>   0.1500 
 19 H       -3.9470     0.8720     0.4380 H     1 <1>   0.1500 
 20 H        2.2240     0.8450    -0.4350 H     1 <1>   0.0800 
 21 H        2.2190     1.1520     1.3130 H     1 <1>   0.0800 
 22 H       -3.3020     3.2120     0.0290 H     1 <1>   0.1500 
 23 H        3.3560     3.3010     0.9310 H     1 <1>   0.0800 
 24 H        3.3600     2.9970    -0.8020 H     1 <1>   0.0800 
 25 H        4.7710     1.0020    -0.4440 H     1 <1>   0.0800 
 26 H        4.7670     1.3050     1.2810 H     1 <1>   0.0800 
 27 H        5.7770     3.4610     0.8490 H     1 <1>   0.4500 
 28 H        5.7820     3.1780    -0.7670 H     1 <1>   0.4500 
 29 H        7.2170     2.2750     2.4080 H     1 <1>   0.0800 
 30 H        8.4360     1.2330     1.7390 H     1 <1>   0.0800 
 31 H        6.7930     0.6900     1.7850 H     1 <1>   0.0800 
 32 H        8.0390     3.7780    -0.9240 H     1 <1>   0.0800 
 33 H        9.1850     2.9830     0.1090 H     1 <1>   0.0800 
 34 H        8.0340     4.0810     0.8040 H     1 <1>   0.0800 
 35 H        7.2280     1.5340    -1.8220 H     1 <1>   0.0800 
 36 H        6.8000     0.2540    -0.7000 H     1 <1>   0.0800 
 37 H        8.4420     0.7820    -0.8330 H     1 <1>   0.0800 
@<TRIPOS>BOND
  1   1   2  1   
  2   2   3  ar  
  3   2   4  ar  
  4   3   5  1   
  5   3   6  ar  
  6   4   7  ar  
  7   4  17  1   
  8   5   8  1   
  9   6   9  ar  
 10   6  18  1   
 11   7   9  ar  
 12   7  19  1   
 13   8  10  1   
 14   8  20  1   
 15   8  21  1   
 16   9  22  1   
 17  10  11  1   
 18  10  23  1   
 19  10  24  1   
 20  11  12  1   
 21  11  25  1   
 22  11  26  1   
 23  12  13  1   
 24  12  27  1   
 25  12  28  1   
 26  13  14  1   
 27  13  15  1   
 28  13  16  1   
 29  14  29  1   
 30  14  30  1   
 31  14  31  1   
 32  15  32  1   
 33  15  33  1   
 34  15  34  1   
 35  16  35  1   
 36  16  36  1   
 37  16  37  1   
@<TRIPOS>SUBSTRUCTURE
  1 ****   8 GROUP 4 **** **** 0

# MOE 2024.06 (io_trps.svl 2023.06)
