@<TRIPOS>MOLECULE
NONAME
57 58 1 0 0 
SMALL
USER_CHARGES


@<TRIPOS>ATOM
  1 O       -6.5160    -6.3790    -1.1430 O.3   1 <1>  -0.3630 
  2 C       -7.4780    -5.8310    -0.3520 C.ar  1 <1>   0.0830 
  3 C       -5.9090    -5.6860    -2.2220 C.3   1 <1>   0.1200 
  4 C       -7.7270    -6.4040     0.8980 C.ar  1 <1>  -0.1440 
  5 C       -8.2100    -4.7160    -0.7610 C.ar  1 <1>  -0.1500 
  6 C       -5.1180    -4.4730    -1.7090 C.3   1 <1>   0.2000 
  7 C       -8.6810    -5.8170     1.7180 C.ar  1 <1>  -0.1500 
  8 C       -7.0200    -7.6630     1.4240 C.3   1 <1>   0.0640 
  9 C       -9.1550    -4.1430     0.0690 C.ar  1 <1>  -0.1440 
 10 O       -4.3260    -3.9810    -2.7280 O.3   1 <1>  -0.6800 
 11 C       -4.1800    -4.8070    -0.5340 C.3   1 <1>   0.1100 
 12 C       -9.3850    -4.6980     1.3140 C.ar  1 <1>  -0.1500 
 13 C       -5.5110    -7.4640     1.6050 C.3   1 <1>  -0.2400 
 14 C       -7.3190    -8.8890     0.5540 C.3   1 <1>  -0.2400 
 15 C       -9.9460    -2.9260    -0.3790 C.3   1 <1>  -0.0970 
 16 N       -3.0970    -3.7970    -0.3560 N.3   1 <1>  -0.8100 
 17 C       -3.6320    -2.5170     0.1780 C.3   1 <1>   0.1100 
 18 C       -2.0530    -4.3270     0.5560 C.3   1 <1>   0.1100 
 19 C       -2.5220    -1.4610     0.4130 C.3   1 <1>   0.3430 
 20 C       -0.9410    -3.2920     0.8650 C.3   1 <1>   0.3430 
 21 N       -1.1580    -2.0150     0.1080 N.4   1 <1>  -0.9590 
 22 C       -0.0360    -1.0440     0.3060 C.3   1 <1>   0.3430 
 23 C       -0.0800     0.1260    -0.6880 C.3   1 <1>   0.1200 
 24 O        0.9970     0.9490    -0.4130 O.3   1 <1>  -0.6800 
 25 H       -6.6660    -5.3990    -2.9280 H     1 <1>   0.0800 
 26 H       -5.2390    -6.3800    -2.6960 H     1 <1>   0.0800 
 27 H       -8.0610    -4.2860    -1.7310 H     1 <1>   0.1500 
 28 H       -5.7960    -3.6880    -1.4240 H     1 <1>   0.0800 
 29 H       -8.8940    -6.2320     2.6880 H     1 <1>   0.1500 
 30 H       -7.4170    -7.8810     2.4010 H     1 <1>   0.0800 
 31 H       -3.4890    -3.7090    -2.2900 H     1 <1>   0.4000 
 32 H       -3.7370    -5.7690    -0.7350 H     1 <1>   0.0800 
 33 H       -4.7610    -4.9040     0.3680 H     1 <1>   0.0800 
 34 H      -10.1200    -4.2670     1.9710 H     1 <1>   0.1500 
 35 H       -5.0210    -7.3850     0.6530 H     1 <1>   0.0800 
 36 H       -5.0920    -8.3040     2.1300 H     1 <1>   0.0800 
 37 H       -5.3260    -6.5730     2.1760 H     1 <1>   0.0800 
 38 H       -6.8860    -8.7850    -0.4230 H     1 <1>   0.0800 
 39 H       -8.3820    -9.0070     0.4440 H     1 <1>   0.0800 
 40 H       -6.9200    -9.7760     1.0120 H     1 <1>   0.0800 
 41 H       -9.4240    -2.3950    -1.1530 H     1 <1>   0.0800 
 42 H      -10.1000    -2.2560     0.4480 H     1 <1>   0.0800 
 43 H      -10.9040    -3.2360    -0.7570 H     1 <1>   0.0800 
 44 H       -4.1480    -2.6950     1.1070 H     1 <1>   0.0800 
 45 H       -4.3500    -2.1070    -0.5110 H     1 <1>   0.0800 
 46 H       -1.6010    -5.1960     0.1090 H     1 <1>   0.0800 
 47 H       -2.5020    -4.6420     1.4840 H     1 <1>   0.0800 
 48 H       -2.5640    -1.1290     1.4380 H     1 <1>   0.0800 
 49 H       -2.7210    -0.6080    -0.2140 H     1 <1>   0.0800 
 50 H        0.0130    -3.7190     0.6030 H     1 <1>   0.0800 
 51 H       -0.9300    -3.0940     1.9240 H     1 <1>   0.0800 
 52 H       -1.2090    -2.3170    -0.8770 H     1 <1>   0.4500 
 53 H        0.9040    -1.5540     0.1750 H     1 <1>   0.0800 
 54 H       -0.0700    -0.6510     1.3080 H     1 <1>   0.0800 
 55 H       -0.9770     0.7080    -0.5740 H     1 <1>   0.0800 
 56 H        0.0180    -0.2240    -1.7010 H     1 <1>   0.0800 
 57 H        1.0450     1.7070    -1.0350 H     1 <1>   0.4000 
@<TRIPOS>BOND
  1   1   2  1   
  2   1   3  1   
  3   2   4  ar  
  4   2   5  ar  
  5   3   6  1   
  6   3  25  1   
  7   3  26  1   
  8   4   7  ar  
  9   4   8  1   
 10   5   9  ar  
 11   5  27  1   
 12   6  10  1   
 13   6  11  1   
 14   6  28  1   
 15   7  12  ar  
 16   7  29  1   
 17   8  13  1   
 18   8  14  1   
 19   8  30  1   
 20   9  12  ar  
 21   9  15  1   
 22  10  31  1   
 23  11  16  1   
 24  11  32  1   
 25  11  33  1   
 26  12  34  1   
 27  13  35  1   
 28  13  36  1   
 29  13  37  1   
 30  14  38  1   
 31  14  39  1   
 32  14  40  1   
 33  15  41  1   
 34  15  42  1   
 35  15  43  1   
 36  16  17  1   
 37  16  18  1   
 38  17  19  1   
 39  17  44  1   
 40  17  45  1   
 41  18  20  1   
 42  18  46  1   
 43  18  47  1   
 44  19  21  1   
 45  19  48  1   
 46  19  49  1   
 47  20  21  1   
 48  20  50  1   
 49  20  51  1   
 50  21  22  1   
 51  21  52  1   
 52  22  23  1   
 53  22  53  1   
 54  22  54  1   
 55  23  24  1   
 56  23  55  1   
 57  23  56  1   
 58  24  57  1   
@<TRIPOS>SUBSTRUCTURE
  1 ****  11 GROUP 4 **** **** 0

# MOE 2024.06 (io_trps.svl 2023.06)
