@<TRIPOS>MOLECULE
NONAME
45 46 1 0 0 
SMALL
USER_CHARGES


@<TRIPOS>ATOM
  1 S       -0.2780    -0.0650     0.1400 S.o2  1 <1>   1.3330 
  2 O        0.1400    -0.1040     1.5220 O.2   1 <1>  -0.6500 
  3 O        0.5570    -0.6450    -0.8850 O.2   1 <1>  -0.6500 
  4 N       -1.7510    -0.9080     0.0830 N.am  1 <1>  -0.8490 
  5 C       -0.7170     1.6100    -0.3390 C.3   1 <1>  -0.0550 
  6 C       -1.5100    -2.3550    -0.1390 C.3   1 <1>   0.1960 
  7 C       -2.5680    -0.7150     1.3040 C.3   1 <1>   0.1960 
  8 C        0.4800     2.5750    -0.3680 C.3   1 <1>  -0.1600 
  9 C       -2.8020    -3.2100    -0.0910 C.3   1 <1>   0.3430 
 10 C       -3.9380    -1.4350     1.2200 C.3   1 <1>   0.3430 
 11 C        0.0470     3.9860    -0.7800 C.3   1 <1>  -0.2400 
 12 N       -4.0270    -2.3520     0.0270 N.4   1 <1>  -0.9590 
 13 C       -5.3080    -3.1040    -0.0470 C.3   1 <1>   0.4860 
 14 C       -6.4450    -2.1030    -0.0620 C.ar  1 <1>  -0.1440 
 15 C       -7.2470    -1.9410     1.0580 C.ar  1 <1>  -0.1500 
 16 C       -6.6840    -1.3300    -1.1890 C.ar  1 <1>  -0.1500 
 17 C       -8.2670    -1.0060     1.0550 C.ar  1 <1>  -0.1500 
 18 C       -7.7040    -0.3950    -1.1870 C.ar  1 <1>  -0.1500 
 19 C       -8.4970    -0.2250    -0.0650 C.ar  1 <1>  -0.1440 
 20 C       -9.6180     0.7990    -0.0650 C.3   1 <1>  -0.0970 
 21 H       -1.4470     1.9940     0.3440 H     1 <1>   0.0800 
 22 H       -1.1600     1.5850    -1.3160 H     1 <1>   0.0800 
 23 H       -0.8140    -2.7270     0.5950 H     1 <1>   0.0800 
 24 H       -1.0520    -2.4930    -1.1050 H     1 <1>   0.0800 
 25 H       -2.7380     0.3350     1.4720 H     1 <1>   0.0800 
 26 H       -2.0370    -1.0920     2.1640 H     1 <1>   0.0800 
 27 H        1.2180     2.2100    -1.0630 H     1 <1>   0.0800 
 28 H        0.9350     2.6110     0.6080 H     1 <1>   0.0800 
 29 H       -2.7420    -3.8810     0.7500 H     1 <1>   0.0800 
 30 H       -2.8530    -3.8110    -0.9850 H     1 <1>   0.0800 
 31 H       -4.7160    -0.6900     1.1580 H     1 <1>   0.0800 
 32 H       -4.0970    -1.9910     2.1290 H     1 <1>   0.0800 
 33 H       -0.3880     3.9770    -1.7650 H     1 <1>   0.0800 
 34 H        0.9010     4.6410    -0.7940 H     1 <1>   0.0800 
 35 H       -0.6720     4.3820    -0.0850 H     1 <1>   0.0800 
 36 H       -3.9960    -1.7120    -0.7800 H     1 <1>   0.4500 
 37 H       -5.4070    -3.7600     0.8020 H     1 <1>   0.0800 
 38 H       -5.3420    -3.6970    -0.9460 H     1 <1>   0.0800 
 39 H       -7.0970    -2.5370     1.9430 H     1 <1>   0.1500 
 40 H       -6.0910    -1.4430    -2.0800 H     1 <1>   0.1500 
 41 H       -8.8890    -0.8880     1.9260 H     1 <1>   0.1500 
 42 H       -7.8840     0.2000    -2.0670 H     1 <1>   0.1500 
 43 H       -9.4080     1.5930    -0.7590 H     1 <1>   0.0800 
 44 H       -9.7350     1.2280     0.9140 H     1 <1>   0.0800 
 45 H      -10.5420     0.3270    -0.3490 H     1 <1>   0.0800 
@<TRIPOS>BOND
  1   1   2  2   
  2   1   3  2   
  3   1   4  am  
  4   1   5  1   
  5   4   6  1   
  6   4   7  1   
  7   5   8  1   
  8   5  21  1   
  9   5  22  1   
 10   6   9  1   
 11   6  23  1   
 12   6  24  1   
 13   7  10  1   
 14   7  25  1   
 15   7  26  1   
 16   8  11  1   
 17   8  27  1   
 18   8  28  1   
 19   9  12  1   
 20   9  29  1   
 21   9  30  1   
 22  10  12  1   
 23  10  31  1   
 24  10  32  1   
 25  11  33  1   
 26  11  34  1   
 27  11  35  1   
 28  12  13  1   
 29  12  36  1   
 30  13  14  1   
 31  13  37  1   
 32  13  38  1   
 33  14  15  ar  
 34  14  16  ar  
 35  15  17  ar  
 36  15  39  1   
 37  16  18  ar  
 38  16  40  1   
 39  17  19  ar  
 40  17  41  1   
 41  18  19  ar  
 42  18  42  1   
 43  19  20  1   
 44  20  43  1   
 45  20  44  1   
 46  20  45  1   
@<TRIPOS>SUBSTRUCTURE
  1 ****  10 GROUP 4 **** **** 0

# MOE 2024.06 (io_trps.svl 2023.06)
