@<TRIPOS>MOLECULE
NONAME
32 32 1 0 0 
SMALL
USER_CHARGES


@<TRIPOS>ATOM
  1 S       -0.1680    -0.3250     0.2670 S.o2  1 <1>   1.3330 
  2 O        1.1200    -0.9380     0.0340 O.2   1 <1>  -0.6500 
  3 O       -0.9960    -0.6730     1.3990 O.2   1 <1>  -0.6500 
  4 N       -0.0120     1.3950     0.1170 N.am  1 <1>  -0.6930 
  5 C       -1.1390    -0.6550    -1.2090 C.3   1 <1>  -0.0550 
  6 C       -1.0790     2.2390     0.4010 C.ar  1 <1>   0.1990 
  7 C        1.3820     1.9700     0.2340 C.3   1 <1>   0.0900 
  8 C       -1.4650    -2.1410    -1.4460 C.3   1 <1>  -0.2400 
  9 C       -1.5640     2.3850     1.6930 C.ar  1 <1>  -0.1500 
 10 C       -1.6810     2.9580    -0.6240 C.ar  1 <1>  -0.1500 
 11 C        2.0850     1.9400     1.6010 C.2   1 <1>   0.9060 
 12 C       -2.6380     3.2160     1.9540 C.ar  1 <1>  -0.1500 
 13 C       -2.7560     3.7930    -0.3710 C.ar  1 <1>  -0.1500 
 14 O        1.4590     1.7000     2.6410 O.co2 1 <1>  -0.9000 
 15 O        3.2900     2.2230     1.6210 O.co2 1 <1>  -0.9000 
 16 C       -3.2440     3.9230     0.9270 C.ar  1 <1>   0.0820 
 17 O       -4.2970     4.7170     1.2660 O.3   1 <1>  -0.3630 
 18 C       -4.9420     5.5140     0.2990 C.3   1 <1>   0.0400 
 19 H       -0.6050    -0.2800    -2.0600 H     1 <1>   0.0800 
 20 H       -2.0610    -0.1110    -1.1390 H     1 <1>   0.0800 
 21 H        1.3560     2.9990    -0.0660 H     1 <1>   0.0800 
 22 H        2.0270     1.4530    -0.4510 H     1 <1>   0.0800 
 23 H       -0.5530    -2.7050    -1.5430 H     1 <1>   0.0800 
 24 H       -2.0470    -2.2580    -2.3420 H     1 <1>   0.0800 
 25 H       -2.0220    -2.5310    -0.6120 H     1 <1>   0.0800 
 26 H       -1.0830     1.8400     2.4900 H     1 <1>   0.1500 
 27 H       -1.2950     2.8570    -1.6200 H     1 <1>   0.1500 
 28 H       -3.0040     3.3190     2.9590 H     1 <1>   0.1500 
 29 H       -3.1960     4.3300    -1.1890 H     1 <1>   0.1500 
 30 H       -5.7210     6.0690     0.7900 H     1 <1>   0.0800 
 31 H       -5.3680     4.8740    -0.4530 H     1 <1>   0.0800 
 32 H       -4.2250     6.1920    -0.1290 H     1 <1>   0.0800 
@<TRIPOS>BOND
  1   1   2  2   
  2   1   3  2   
  3   1   4  am  
  4   1   5  1   
  5   4   6  1   
  6   4   7  1   
  7   5   8  1   
  8   5  19  1   
  9   5  20  1   
 10   6   9  ar  
 11   6  10  ar  
 12   7  11  1   
 13   7  21  1   
 14   7  22  1   
 15   8  23  1   
 16   8  24  1   
 17   8  25  1   
 18   9  12  ar  
 19   9  26  1   
 20  10  13  ar  
 21  10  27  1   
 22  11  14  ar  
 23  11  15  ar  
 24  12  16  ar  
 25  12  28  1   
 26  13  16  ar  
 27  13  29  1   
 28  16  17  1   
 29  17  18  1   
 30  18  30  1   
 31  18  31  1   
 32  18  32  1   
@<TRIPOS>SUBSTRUCTURE
  1 ****   6 GROUP 4 **** **** 0

# MOE 2024.06 (io_trps.svl 2023.06)
