@<TRIPOS>MOLECULE
NONAME
41 42 1 0 0 
SMALL
USER_CHARGES


@<TRIPOS>ATOM
  1 S       -0.1610     0.1590     0.9280 S.o2  1 <1>   1.3330 
  2 O       -1.2670     1.0800     1.0670 O.2   1 <1>  -0.6500 
  3 O        0.2450    -0.6340     2.0680 O.2   1 <1>  -0.6500 
  4 N        1.1920     1.0240     0.3730 N.am  1 <1>  -0.8490 
  5 C       -0.5340    -0.9370    -0.4510 C.3   1 <1>  -0.0550 
  6 C        2.4420     0.5830     1.0010 C.3   1 <1>   0.1960 
  7 C        1.0120     2.4780     0.4450 C.3   1 <1>   0.1960 
  8 C        0.5910    -1.9130    -0.8450 C.3   1 <1>  -0.2400 
  9 C        3.6440     1.2450     0.3260 C.3   1 <1>  -0.1600 
 10 C        2.1800     3.1990    -0.2330 C.3   1 <1>  -0.1600 
 11 C        3.5310     2.7770     0.3670 C.3   1 <1>  -0.0190 
 12 C        4.7020     3.4450    -0.3530 C.2   1 <1>   0.5690 
 13 O        4.8720     3.2150    -1.5250 O.2   1 <1>  -0.5700 
 14 N        5.4980     4.2870     0.3760 N.am  1 <1>  -0.5470 
 15 C        6.6580     4.9900     0.0130 C.ar  1 <1>   0.1170 
 16 C        7.4960     4.5860    -1.0210 C.ar  1 <1>  -0.1500 
 17 C        6.9990     6.1310     0.7340 C.ar  1 <1>  -0.1500 
 18 C        8.6370     5.3070    -1.3200 C.ar  1 <1>   0.0820 
 19 C        8.1410     6.8530     0.4330 C.ar  1 <1>  -0.1500 
 20 O        9.4320     4.8950    -2.3200 O.3   1 <1>  -0.5330 
 21 C        8.9670     6.4430    -0.5980 C.ar  1 <1>  -0.1500 
 22 H       -0.7790    -0.3380    -1.3070 H     1 <1>   0.0800 
 23 H       -1.4060    -1.5090    -0.2010 H     1 <1>   0.0800 
 24 H        2.5370    -0.4860     0.9090 H     1 <1>   0.0800 
 25 H        2.4260     0.8260     2.0510 H     1 <1>   0.0800 
 26 H        0.9280     2.7830     1.4750 H     1 <1>   0.0800 
 27 H        0.1030     2.7570    -0.0630 H     1 <1>   0.0800 
 28 H        1.4580    -1.3680    -1.1760 H     1 <1>   0.0800 
 29 H        0.2630    -2.5530    -1.6450 H     1 <1>   0.0800 
 30 H        0.8640    -2.5240    -0.0020 H     1 <1>   0.0800 
 31 H        3.6970     0.9080    -0.6960 H     1 <1>   0.0800 
 32 H        4.5470     0.9330     0.8190 H     1 <1>   0.0800 
 33 H        2.0510     4.2620    -0.1300 H     1 <1>   0.0800 
 34 H        2.1620     2.9690    -1.2850 H     1 <1>   0.0800 
 35 H        3.5450     3.0810     1.3980 H     1 <1>   0.0800 
 36 H        5.1890     4.4580     1.3290 H     1 <1>   0.3700 
 37 H        7.2740     3.7100    -1.5990 H     1 <1>   0.1500 
 38 H        6.3660     6.4630     1.5360 H     1 <1>   0.1500 
 39 H        8.3870     7.7350     1.0000 H     1 <1>   0.1500 
 40 H       10.1960     5.4780    -2.4670 H     1 <1>   0.4500 
 41 H        9.8530     7.0030    -0.8320 H     1 <1>   0.1500 
@<TRIPOS>BOND
  1   1   2  2   
  2   1   3  2   
  3   1   4  am  
  4   1   5  1   
  5   4   6  1   
  6   4   7  1   
  7   5   8  1   
  8   5  22  1   
  9   5  23  1   
 10   6   9  1   
 11   6  24  1   
 12   6  25  1   
 13   7  10  1   
 14   7  26  1   
 15   7  27  1   
 16   8  28  1   
 17   8  29  1   
 18   8  30  1   
 19   9  11  1   
 20   9  31  1   
 21   9  32  1   
 22  10  11  1   
 23  10  33  1   
 24  10  34  1   
 25  11  12  1   
 26  11  35  1   
 27  12  13  2   
 28  12  14  am  
 29  14  15  1   
 30  14  36  1   
 31  15  16  ar  
 32  15  17  ar  
 33  16  18  ar  
 34  16  37  1   
 35  17  19  ar  
 36  17  38  1   
 37  18  20  1   
 38  18  21  ar  
 39  19  21  ar  
 40  19  39  1   
 41  20  40  1   
 42  21  41  1   
@<TRIPOS>SUBSTRUCTURE
  1 ****  11 GROUP 4 **** **** 0

# MOE 2024.06 (io_trps.svl 2023.06)
