@<TRIPOS>MOLECULE
NONAME
46 48 1 0 0 
SMALL
USER_CHARGES


@<TRIPOS>ATOM
  1 CL      -0.9060     0.2680    -0.4130 Cl    1 <1>  -0.1770 
  2 C       -1.0720     1.9980    -0.5770 C.ar  1 <1>   0.1770 
  3 C       -0.9270     2.8000     0.5410 C.ar  1 <1>  -0.1500 
  4 C       -1.3440     2.5370    -1.8210 C.ar  1 <1>  -0.1500 
  5 C       -1.0620     4.1730     0.4110 C.ar  1 <1>  -0.1500 
  6 C       -1.4790     3.9100    -1.9490 C.ar  1 <1>  -0.1500 
  7 C       -1.3460     4.7270    -0.8340 C.ar  1 <1>   0.0830 
  8 O       -1.4850     6.0660    -1.0030 O.3   1 <1>  -0.1650 
  9 C       -2.1080     6.8330    -0.0760 C.ar  1 <1>   0.0830 
 10 C       -3.2760     6.4140     0.5500 C.ar  1 <1>  -0.1500 
 11 C       -1.5660     8.0700     0.2290 C.ar  1 <1>  -0.1500 
 12 C       -3.8980     7.2300     1.4850 C.ar  1 <1>  -0.1430 
 13 C       -2.1760     8.8810     1.1680 C.ar  1 <1>  -0.1500 
 14 C       -3.3370     8.4610     1.7960 C.ar  1 <1>  -0.1500 
 15 C       -5.1860     6.7860     2.1510 C.3   1 <1>   0.4860 
 16 N       -6.2930     6.8710     1.1600 N.4   1 <1>  -0.9590 
 17 C       -6.5160     8.2710     0.6920 C.3   1 <1>   0.3430 
 18 C       -7.5400     6.2440     1.6760 C.3   1 <1>   0.3430 
 19 C       -7.5400     8.2710    -0.4410 C.3   1 <1>  -0.1600 
 20 C       -8.5840     6.1980     0.5640 C.3   1 <1>  -0.1600 
 21 C       -8.8620     7.5900    -0.0380 C.3   1 <1>  -0.0190 
 22 C       -9.7960     7.4810    -1.2400 C.2   1 <1>   0.5690 
 23 O       -9.4660     6.8100    -2.1820 O.2   1 <1>  -0.5700 
 24 N      -10.9750     8.1260    -1.2490 N.am  1 <1>  -0.8000 
 25 H       -0.7060     2.3530     1.4930 H     1 <1>   0.1500 
 26 H       -1.4450     1.8900    -2.6740 H     1 <1>   0.1500 
 27 H       -0.9350     4.8080     1.2710 H     1 <1>   0.1500 
 28 H       -1.6850     4.3500    -2.9090 H     1 <1>   0.1500 
 29 H       -3.6840     5.4520     0.2930 H     1 <1>   0.1500 
 30 H       -0.6650     8.3900    -0.2670 H     1 <1>   0.1500 
 31 H       -1.7430     9.8380     1.4090 H     1 <1>   0.1500 
 32 H       -3.7900     9.1100     2.5280 H     1 <1>   0.1500 
 33 H       -5.3960     7.4120     3.0020 H     1 <1>   0.0800 
 34 H       -5.0730     5.7700     2.4940 H     1 <1>   0.0800 
 35 H       -5.9870     6.3390     0.3340 H     1 <1>   0.4500 
 36 H       -5.5920     8.6950     0.3320 H     1 <1>   0.0800 
 37 H       -6.8740     8.8790     1.5080 H     1 <1>   0.0800 
 38 H       -7.9210     6.8140     2.5080 H     1 <1>   0.0800 
 39 H       -7.3380     5.2400     2.0150 H     1 <1>   0.0800 
 40 H       -7.1150     7.7710    -1.2950 H     1 <1>   0.0800 
 41 H       -7.7370     9.2870    -0.7370 H     1 <1>   0.0800 
 42 H       -9.5010     5.7910     0.9550 H     1 <1>   0.0800 
 43 H       -8.2450     5.5270    -0.2070 H     1 <1>   0.0800 
 44 H       -9.3430     8.1950     0.7110 H     1 <1>   0.0800 
 45 H      -11.5780     8.0320    -2.0700 H     1 <1>   0.3700 
 46 H      -11.3370     8.7160    -0.5010 H     1 <1>   0.3700 
@<TRIPOS>BOND
  1   1   2  1   
  2   2   3  ar  
  3   2   4  ar  
  4   3   5  ar  
  5   3  25  1   
  6   4   6  ar  
  7   4  26  1   
  8   5   7  ar  
  9   5  27  1   
 10   6   7  ar  
 11   6  28  1   
 12   7   8  1   
 13   8   9  1   
 14   9  10  ar  
 15   9  11  ar  
 16  10  12  ar  
 17  10  29  1   
 18  11  13  ar  
 19  11  30  1   
 20  12  14  ar  
 21  12  15  1   
 22  13  14  ar  
 23  13  31  1   
 24  14  32  1   
 25  15  16  1   
 26  15  33  1   
 27  15  34  1   
 28  16  17  1   
 29  16  18  1   
 30  16  35  1   
 31  17  19  1   
 32  17  36  1   
 33  17  37  1   
 34  18  20  1   
 35  18  38  1   
 36  18  39  1   
 37  19  21  1   
 38  19  40  1   
 39  19  41  1   
 40  20  21  1   
 41  20  42  1   
 42  20  43  1   
 43  21  22  1   
 44  21  44  1   
 45  22  23  2   
 46  22  24  am  
 47  24  45  1   
 48  24  46  1   
@<TRIPOS>SUBSTRUCTURE
  1 ****  10 GROUP 4 **** **** 0

# MOE 2024.06 (io_trps.svl 2023.06)
