@<TRIPOS>MOLECULE
NONAME
39 39 1 0 0 
SMALL
USER_CHARGES


@<TRIPOS>ATOM
  1 S        0.0150     0.0580     0.5240 S.o2  1 <1>   1.3330 
  2 O       -0.2610     1.2600     1.2680 O.2   1 <1>  -0.6500 
  3 O        1.3360    -0.5190     0.4880 O.2   1 <1>  -0.6500 
  4 N       -1.0770    -1.1160     1.1370 N.am  1 <1>  -0.7570 
  5 C       -0.5780     0.2690    -1.1410 C.3   1 <1>  -0.1350 
  6 C       -1.2160    -2.4100     0.6540 C.ar  1 <1>   0.1990 
  7 C       -2.4640    -2.8930     0.2140 C.ar  1 <1>   0.0860 
  8 C       -0.1070    -3.2510     0.6140 C.ar  1 <1>  -0.1500 
  9 C       -3.6560    -2.0720     0.2600 C.2   1 <1>   0.5440 
 10 C       -2.5280    -4.2000    -0.2810 C.ar  1 <1>  -0.1500 
 11 C       -0.1990    -4.5390     0.1290 C.ar  1 <1>  -0.1500 
 12 O       -3.6030    -0.8740     0.0490 O.2   1 <1>  -0.5700 
 13 N       -4.8700    -2.6270     0.5580 N.am  1 <1>  -0.7300 
 14 C       -1.4160    -5.0150    -0.3240 C.ar  1 <1>  -0.1500 
 15 C       -6.1600    -1.9030     0.6010 C.3   1 <1>   0.1400 
 16 C       -7.2250    -2.7410    -0.1100 C.3   1 <1>  -0.1600 
 17 C       -8.6320    -2.1220    -0.0270 C.3   1 <1>  -0.0800 
 18 C       -9.6590    -3.0850    -0.6330 C.3   1 <1>  -0.2400 
 19 C       -8.7120    -0.7710    -0.7520 C.3   1 <1>  -0.2400 
 20 H       -1.9630    -0.6330     1.3090 H     1 <1>   0.4200 
 21 H       -1.6060     0.5780    -1.1320 H     1 <1>   0.0800 
 22 H       -0.5000    -0.6530    -1.6820 H     1 <1>   0.0800 
 23 H        0.0020     1.0160    -1.6450 H     1 <1>   0.0800 
 24 H        0.8410    -2.8920     0.9750 H     1 <1>   0.1500 
 25 H       -3.4660    -4.5820    -0.6460 H     1 <1>   0.1500 
 26 H        0.6730    -5.1710     0.1050 H     1 <1>   0.1500 
 27 H       -4.9100    -3.6000     0.8640 H     1 <1>   0.3700 
 28 H       -1.4880    -6.0190    -0.7090 H     1 <1>   0.1500 
 29 H       -6.0560    -0.9460     0.1200 H     1 <1>   0.0800 
 30 H       -6.4400    -1.7400     1.6280 H     1 <1>   0.0800 
 31 H       -7.2540    -3.7160     0.3450 H     1 <1>   0.0800 
 32 H       -6.9470    -2.8580    -1.1430 H     1 <1>   0.0800 
 33 H       -8.8860    -1.9710     1.0100 H     1 <1>   0.0800 
 34 H       -9.4460    -3.2630    -1.6720 H     1 <1>   0.0800 
 35 H      -10.6500    -2.6750    -0.5520 H     1 <1>   0.0800 
 36 H       -9.6440    -4.0270    -0.1130 H     1 <1>   0.0800 
 37 H       -8.4140    -0.8740    -1.7810 H     1 <1>   0.0800 
 38 H       -8.0790    -0.0410    -0.2810 H     1 <1>   0.0800 
 39 H       -9.7190    -0.3950    -0.7260 H     1 <1>   0.0800 
@<TRIPOS>BOND
  1   1   2  2   
  2   1   3  2   
  3   1   4  am  
  4   1   5  1   
  5   4   6  1   
  6   4  20  1   
  7   5  21  1   
  8   5  22  1   
  9   5  23  1   
 10   6   7  ar  
 11   6   8  ar  
 12   7   9  1   
 13   7  10  ar  
 14   8  11  ar  
 15   8  24  1   
 16   9  12  2   
 17   9  13  am  
 18  10  14  ar  
 19  10  25  1   
 20  11  14  ar  
 21  11  26  1   
 22  13  15  1   
 23  13  27  1   
 24  14  28  1   
 25  15  16  1   
 26  15  29  1   
 27  15  30  1   
 28  16  17  1   
 29  16  31  1   
 30  16  32  1   
 31  17  18  1   
 32  17  19  1   
 33  17  33  1   
 34  18  34  1   
 35  18  35  1   
 36  18  36  1   
 37  19  37  1   
 38  19  38  1   
 39  19  39  1   
@<TRIPOS>SUBSTRUCTURE
  1 ****   9 GROUP 4 **** **** 0

# MOE 2024.06 (io_trps.svl 2023.06)
