@<TRIPOS>MOLECULE
NONAME
50 51 1 0 0 
SMALL
USER_CHARGES


@<TRIPOS>ATOM
  1 S       -0.8990    -0.8850    -0.0400 S.o2  1 <1>   1.4470 
  2 O       -1.0840     0.4640     0.4410 O.2   1 <1>  -0.6500 
  3 O       -1.7970    -1.3530    -1.0710 O.2   1 <1>  -0.6500 
  4 N       -1.2680    -1.8090     1.3170 N.am  1 <1>  -0.9140 
  5 C        0.8330    -1.2960    -0.4200 C.ar  1 <1>  -0.0090 
  6 C       -2.5950    -1.5610     1.9020 C.3   1 <1>   0.1960 
  7 C        1.7450    -0.3660    -0.9290 C.ar  1 <1>  -0.1430 
  8 C        1.2760    -2.5990    -0.2210 C.ar  1 <1>  -0.1500 
  9 C       -3.7680    -2.0290     1.0050 C.3   1 <1>   0.3430 
 10 C        3.0540    -0.7430    -1.1870 C.ar  1 <1>  -0.1500 
 11 C        1.3530     1.0780    -1.2210 C.3   1 <1>  -0.0960 
 12 C        2.5880    -2.9790    -0.4830 C.ar  1 <1>   0.0830 
 13 N       -4.7520    -0.9450     0.6540 N.4   1 <1>  -0.9590 
 14 C        3.4850    -2.0370    -0.9660 C.ar  1 <1>  -0.1430 
 15 O        3.0470    -4.2430    -0.2900 O.3   1 <1>  -0.3620 
 16 C       -5.9130    -1.4900    -0.1290 C.3   1 <1>   0.3430 
 17 C       -4.1650     0.2230    -0.0970 C.3   1 <1>   0.3430 
 18 C        4.9300    -2.4180    -1.2580 C.3   1 <1>  -0.0970 
 19 C        2.1970    -5.3050     0.0740 C.3   1 <1>   0.1200 
 20 C       -6.9060    -0.3740    -0.5300 C.3   1 <1>   0.1200 
 21 C       -5.2410     1.2850    -0.4180 C.3   1 <1>   0.1200 
 22 C        3.0340    -6.5780     0.1300 C.3   1 <1>  -0.2400 
 23 O       -6.5150     0.8640    -0.0020 O.3   1 <1>  -0.5600 
 24 H       -0.5860    -1.4930     2.0100 H     1 <1>   0.4200 
 25 H       -2.6980    -0.5170     2.1490 H     1 <1>   0.0800 
 26 H       -2.6520    -2.1130     2.8250 H     1 <1>   0.0800 
 27 H        0.5750    -3.3250     0.1450 H     1 <1>   0.1500 
 28 H       -4.2910    -2.8130     1.5280 H     1 <1>   0.0800 
 29 H       -3.3690    -2.4600     0.1020 H     1 <1>   0.0800 
 30 H        3.7520    -0.0180    -1.5690 H     1 <1>   0.1500 
 31 H        0.4510     1.1170    -1.8040 H     1 <1>   0.0800 
 32 H        2.1230     1.5810    -1.7790 H     1 <1>   0.0800 
 33 H        1.2040     1.6160    -0.3020 H     1 <1>   0.0800 
 34 H       -5.1700    -0.5340     1.5020 H     1 <1>   0.4500 
 35 H       -6.4370    -2.2300     0.4550 H     1 <1>   0.0800 
 36 H       -5.5570    -1.9760    -1.0230 H     1 <1>   0.0800 
 37 H       -3.7280    -0.1170    -1.0220 H     1 <1>   0.0800 
 38 H       -3.3830     0.6880     0.4790 H     1 <1>   0.0800 
 39 H        5.4930    -1.5760    -1.6150 H     1 <1>   0.0800 
 40 H        4.9570    -3.1920    -2.0050 H     1 <1>   0.0800 
 41 H        5.3960    -2.7890    -0.3630 H     1 <1>   0.0800 
 42 H        1.4230    -5.3920    -0.6690 H     1 <1>   0.0800 
 43 H        1.7720    -5.0880     1.0380 H     1 <1>   0.0800 
 44 H       -7.8890    -0.5970    -0.1530 H     1 <1>   0.0800 
 45 H       -6.9690    -0.2870    -1.6020 H     1 <1>   0.0800 
 46 H       -5.2710     1.4870    -1.4750 H     1 <1>   0.0800 
 47 H       -5.0170     2.2040     0.0930 H     1 <1>   0.0800 
 48 H        3.4690    -6.7770    -0.8330 H     1 <1>   0.0800 
 49 H        2.4140    -7.4120     0.4060 H     1 <1>   0.0800 
 50 H        3.8160    -6.4740     0.8620 H     1 <1>   0.0800 
@<TRIPOS>BOND
  1   1   2  2   
  2   1   3  2   
  3   1   4  am  
  4   1   5  1   
  5   4   6  1   
  6   4  24  1   
  7   5   7  ar  
  8   5   8  ar  
  9   6   9  1   
 10   6  25  1   
 11   6  26  1   
 12   7  10  ar  
 13   7  11  1   
 14   8  12  ar  
 15   8  27  1   
 16   9  13  1   
 17   9  28  1   
 18   9  29  1   
 19  10  14  ar  
 20  10  30  1   
 21  11  31  1   
 22  11  32  1   
 23  11  33  1   
 24  12  14  ar  
 25  12  15  1   
 26  13  16  1   
 27  13  17  1   
 28  13  34  1   
 29  14  18  1   
 30  15  19  1   
 31  16  20  1   
 32  16  35  1   
 33  16  36  1   
 34  17  21  1   
 35  17  37  1   
 36  17  38  1   
 37  18  39  1   
 38  18  40  1   
 39  18  41  1   
 40  19  22  1   
 41  19  42  1   
 42  19  43  1   
 43  20  23  1   
 44  20  44  1   
 45  20  45  1   
 46  21  23  1   
 47  21  46  1   
 48  21  47  1   
 49  22  48  1   
 50  22  49  1   
 51  22  50  1   
@<TRIPOS>SUBSTRUCTURE
  1 ****   1 GROUP 4 **** **** 0

# MOE 2024.06 (io_trps.svl 2023.06)
