@<TRIPOS>MOLECULE
NONAME
49 50 1 0 0 
SMALL
USER_CHARGES


@<TRIPOS>ATOM
  1 S        1.0250    -0.1190     1.1300 S.o2  1 <1>   1.3330 
  2 O        2.3710    -0.0370     1.6490 O.2   1 <1>  -0.6500 
  3 O        0.7280    -0.9850     0.0180 O.2   1 <1>  -0.6500 
  4 N        0.5840     1.4920     0.6810 N.am  1 <1>  -0.6930 
  5 C       -0.0910    -0.4550     2.4740 C.3   1 <1>  -0.1350 
  6 C       -0.5410     1.7320    -0.0960 C.ar  1 <1>   0.1990 
  7 C        1.6670     2.5260     0.6700 C.3   1 <1>   0.2570 
  8 C       -1.7100     2.1890     0.4970 C.ar  1 <1>  -0.1500 
  9 C       -0.5180     1.5300    -1.4750 C.ar  1 <1>  -0.1500 
 10 C        2.6760     2.3830    -0.4740 C.2   1 <1>   0.5690 
 11 C       -2.8140     2.4220    -0.2960 C.ar  1 <1>   0.1900 
 12 C       -1.6380     1.7710    -2.2550 C.ar  1 <1>  -0.1500 
 13 O        2.5780     3.1300    -1.4180 O.2   1 <1>  -0.5700 
 14 N        3.6590     1.4390    -0.3770 N.am  1 <1>  -0.5470 
 15 F       -3.9120     2.8480     0.2690 F     1 <1>  -0.1900 
 16 C       -2.8060     2.2220    -1.6630 C.ar  1 <1>  -0.1500 
 17 C        4.6670     1.1400    -1.3080 C.ar  1 <1>   0.1170 
 18 C        5.7780     1.9780    -1.4540 C.ar  1 <1>  -0.1430 
 19 C        4.5700    -0.0280    -2.0740 C.ar  1 <1>  -0.1430 
 20 C        6.7730     1.6460    -2.3570 C.ar  1 <1>  -0.1500 
 21 C        5.9540     3.2590    -0.6410 C.3   1 <1>  -0.0170 
 22 C        5.5840    -0.3360    -2.9710 C.ar  1 <1>  -0.1500 
 23 C        3.3430    -0.9350    -1.9050 C.3   1 <1>  -0.0170 
 24 C        6.6790     0.4950    -3.1130 C.ar  1 <1>  -0.1500 
 25 C        6.5190     2.9520     0.7490 C.3   1 <1>  -0.2400 
 26 C        3.2400    -2.1250    -2.8670 C.3   1 <1>  -0.2400 
 27 H        0.0960    -1.4340     2.8700 H     1 <1>   0.0800 
 28 H       -1.1060    -0.4120     2.1310 H     1 <1>   0.0800 
 29 H        0.0420     0.2650     3.2580 H     1 <1>   0.0800 
 30 H        2.1970     2.4990     1.6050 H     1 <1>   0.0800 
 31 H        1.2130     3.4970     0.5870 H     1 <1>   0.0800 
 32 H       -1.7570     2.3640     1.5540 H     1 <1>   0.1500 
 33 H        0.3880     1.1790    -1.9380 H     1 <1>   0.1500 
 34 H       -1.5960     1.6070    -3.3190 H     1 <1>   0.1500 
 35 H        3.5580     0.7600     0.3890 H     1 <1>   0.3700 
 36 H       -3.6890     2.4160    -2.2460 H     1 <1>   0.1500 
 37 H        7.6320     2.2810    -2.4760 H     1 <1>   0.1500 
 38 H        5.0180     3.7780    -0.5510 H     1 <1>   0.0800 
 39 H        6.6250     3.9240    -1.1540 H     1 <1>   0.0800 
 40 H        5.5460    -1.2220    -3.5760 H     1 <1>   0.1500 
 41 H        2.4590    -0.3360    -2.0320 H     1 <1>   0.0800 
 42 H        3.3360    -1.3160    -0.8980 H     1 <1>   0.0800 
 43 H        7.4570     0.2450    -3.8130 H     1 <1>   0.1500 
 44 H        5.8480     2.3100     1.2910 H     1 <1>   0.0800 
 45 H        6.6530     3.8630     1.3030 H     1 <1>   0.0800 
 46 H        7.4690     2.4570     0.6580 H     1 <1>   0.0800 
 47 H        3.2280    -1.7820    -3.8860 H     1 <1>   0.0800 
 48 H        2.3270    -2.6610    -2.6760 H     1 <1>   0.0800 
 49 H        4.0650    -2.7990    -2.7230 H     1 <1>   0.0800 
@<TRIPOS>BOND
  1   1   2  2   
  2   1   3  2   
  3   1   4  am  
  4   1   5  1   
  5   4   6  1   
  6   4   7  1   
  7   5  27  1   
  8   5  28  1   
  9   5  29  1   
 10   6   8  ar  
 11   6   9  ar  
 12   7  10  1   
 13   7  30  1   
 14   7  31  1   
 15   8  11  ar  
 16   8  32  1   
 17   9  12  ar  
 18   9  33  1   
 19  10  13  2   
 20  10  14  am  
 21  11  15  1   
 22  11  16  ar  
 23  12  16  ar  
 24  12  34  1   
 25  14  17  1   
 26  14  35  1   
 27  16  36  1   
 28  17  18  ar  
 29  17  19  ar  
 30  18  20  ar  
 31  18  21  1   
 32  19  22  ar  
 33  19  23  1   
 34  20  24  ar  
 35  20  37  1   
 36  21  25  1   
 37  21  38  1   
 38  21  39  1   
 39  22  24  ar  
 40  22  40  1   
 41  23  26  1   
 42  23  41  1   
 43  23  42  1   
 44  24  43  1   
 45  25  44  1   
 46  25  45  1   
 47  25  46  1   
 48  26  47  1   
 49  26  48  1   
 50  26  49  1   
@<TRIPOS>SUBSTRUCTURE
  1 ****  10 GROUP 4 **** **** 0

# MOE 2024.06 (io_trps.svl 2023.06)
