@<TRIPOS>MOLECULE
ka-07778
42 43 1 0 0 
SMALL
USER_CHARGES


@<TRIPOS>ATOM
  1 O       -0.3580     1.2690     1.2940 O.3   1 <1>  -0.3630 
  2 C       -0.8940     1.7330     0.1350 C.ar  1 <1>   0.0830 
  3 C        1.0180     0.9350     1.3700 C.3   1 <1>   0.3440 
  4 C       -1.4710     0.8660    -0.7970 C.ar  1 <1>   0.0830 
  5 C       -0.8920     3.0970    -0.1080 C.ar  1 <1>  -0.1500 
  6 C        1.9280     2.1460     1.1410 C.ar  1 <1>  -0.1440 
  7 C        1.3500    -0.2460     0.4470 C.3   1 <1>  -0.1600 
  8 O       -1.5400    -0.4690    -0.5790 O.3   1 <1>  -0.3630 
  9 C       -1.9840     1.3670    -1.9810 C.ar  1 <1>  -0.1500 
 10 C       -1.4160     3.5940    -1.2900 C.ar  1 <1>  -0.1500 
 11 C        2.1960     2.6420    -0.1310 C.ar  1 <1>  -0.1500 
 12 C        2.5250     2.7560     2.2350 C.ar  1 <1>  -0.1500 
 13 C        2.8330    -0.5840     0.5210 C.3   1 <1>   0.3430 
 14 C       -2.5500    -0.8760     0.3180 C.3   1 <1>   0.0400 
 15 C       -1.9560     2.7300    -2.2280 C.ar  1 <1>  -0.1500 
 16 C        3.0540     3.7140    -0.3030 C.ar  1 <1>  -0.1500 
 17 C        3.3840     3.8280     2.0640 C.ar  1 <1>  -0.1500 
 18 N        3.1220    -1.6770    -0.4410 N.4   1 <1>  -0.9060 
 19 C        3.6520     4.3050     0.7940 C.ar  1 <1>  -0.1500 
 20 C        4.5700    -2.0360    -0.4750 C.3   1 <1>   0.2630 
 21 H        1.1640     0.6040     2.3840 H     1 <1>   0.0800 
 22 H       -0.4740     3.7670     0.6230 H     1 <1>   0.1500 
 23 H        1.1050     0.0130    -0.5660 H     1 <1>   0.0800 
 24 H        0.7630    -1.0930     0.7520 H     1 <1>   0.0800 
 25 H       -2.4110     0.6930    -2.7020 H     1 <1>   0.1500 
 26 H       -1.4040     4.6540    -1.4770 H     1 <1>   0.1500 
 27 H        1.7290     2.2130    -1.0000 H     1 <1>   0.1500 
 28 H        2.3250     2.4090     3.2350 H     1 <1>   0.1500 
 29 H        3.0920    -0.8890     1.5230 H     1 <1>   0.0800 
 30 H        3.4170     0.2880     0.2690 H     1 <1>   0.0800 
 31 H       -2.5370    -1.9490     0.3800 H     1 <1>   0.0800 
 32 H       -3.5020    -0.5400    -0.0550 H     1 <1>   0.0800 
 33 H       -2.3570    -0.4470     1.2850 H     1 <1>   0.0800 
 34 H       -2.3590     3.1190    -3.1480 H     1 <1>   0.1500 
 35 H        3.2520     4.0950    -1.2910 H     1 <1>   0.1500 
 36 H        3.8410     4.2950     2.9190 H     1 <1>   0.1500 
 37 H        2.8140    -1.3810    -1.3780 H     1 <1>   0.4500 
 38 H        2.5560    -2.5020    -0.2000 H     1 <1>   0.4500 
 39 H        4.3180     5.1410     0.6620 H     1 <1>   0.1500 
 40 H        5.1620    -1.1800    -0.7580 H     1 <1>   0.0800 
 41 H        4.7430    -2.8250    -1.1900 H     1 <1>   0.0800 
 42 H        4.8960    -2.3750     0.4960 H     1 <1>   0.0800 
@<TRIPOS>BOND
  1   1   2  1   
  2   1   3  1   
  3   2   4  ar  
  4   2   5  ar  
  5   3   6  1   
  6   3   7  1   
  7   3  21  1   
  8   4   8  1   
  9   4   9  ar  
 10   5  10  ar  
 11   5  22  1   
 12   6  11  ar  
 13   6  12  ar  
 14   7  13  1   
 15   7  23  1   
 16   7  24  1   
 17   8  14  1   
 18   9  15  ar  
 19   9  25  1   
 20  10  15  ar  
 21  10  26  1   
 22  11  16  ar  
 23  11  27  1   
 24  12  17  ar  
 25  12  28  1   
 26  13  18  1   
 27  13  29  1   
 28  13  30  1   
 29  14  31  1   
 30  14  32  1   
 31  14  33  1   
 32  15  34  1   
 33  16  19  ar  
 34  16  35  1   
 35  17  19  ar  
 36  17  36  1   
 37  18  20  1   
 38  18  37  1   
 39  18  38  1   
 40  19  39  1   
 41  20  40  1   
 42  20  41  1   
 43  20  42  1   
@<TRIPOS>SUBSTRUCTURE
  1 ****   3 GROUP 4 **** **** 0

# MOE 2024.06 (io_trps.svl 2023.06)
