@<TRIPOS>MOLECULE
NONAME
48 50 1 0 0 
SMALL
USER_CHARGES


@<TRIPOS>ATOM
  1 CL      -1.3400    -0.1140    -3.8790 Cl    1 <1>  -0.1770 
  2 C       -2.6330     0.0000    -2.7130 C.ar  1 <1>   0.1770 
  3 C       -3.9430    -0.0220    -3.1500 C.ar  1 <1>  -0.1500 
  4 C       -2.3260     0.1110    -1.3710 C.ar  1 <1>  -0.1500 
  5 C       -4.9660     0.0710    -2.2220 C.ar  1 <1>  -0.1500 
  6 C       -3.3540     0.2030    -0.4470 C.ar  1 <1>  -0.1500 
  7 C       -4.6800     0.1850    -0.8660 C.ar  1 <1>  -0.1430 
  8 C       -5.8110     0.2960     0.1560 C.3   1 <1>   0.5020 
  9 N       -6.5830    -0.9610     0.0940 N.am  1 <1>  -0.7300 
 10 C       -6.6720     1.5380    -0.1050 C.2   1 <1>  -0.1240 
 11 C       -7.8430    -1.0420    -0.3600 C.2   1 <1>   0.6900 
 12 C       -7.9660     1.3780    -0.4960 C.2   1 <1>  -0.0290 
 13 C       -5.9730     2.7730     0.0860 C.2   1 <1>   0.7060 
 14 O       -8.3780    -2.1150    -0.5110 O.2   1 <1>  -0.5700 
 15 N       -8.4920     0.1100    -0.6500 N.am  1 <1>  -0.5390 
 16 C       -8.9580     2.5090    -0.8010 C.3   1 <1>   0.2480 
 17 O       -6.3630     3.8400    -0.3460 O.2   1 <1>  -0.5700 
 18 O       -4.8320     2.7560     0.7850 O.3   1 <1>  -0.4300 
 19 N      -10.3420     2.1210    -0.4540 N.3   1 <1>  -0.8100 
 20 C       -4.0640     3.9240     0.9750 C.3   1 <1>   0.1200 
 21 C      -10.5330     2.0530     1.0110 C.3   1 <1>   0.1100 
 22 C      -11.3110     3.0760    -1.0240 C.3   1 <1>   0.1100 
 23 C       -2.8050     3.5400     1.7440 C.3   1 <1>  -0.2400 
 24 C      -11.9940     1.7220     1.3630 C.3   1 <1>   0.1200 
 25 C      -12.7500     2.7160    -0.6130 C.3   1 <1>   0.1200 
 26 O      -12.8610     2.6530     0.7800 O.3   1 <1>  -0.5600 
 27 H       -4.1560    -0.1100    -4.2000 H     1 <1>   0.1500 
 28 H       -1.2980     0.1250    -1.0580 H     1 <1>   0.1500 
 29 H       -5.9900     0.0510    -2.5600 H     1 <1>   0.1500 
 30 H       -3.1130     0.2930     0.5990 H     1 <1>   0.1500 
 31 H       -5.3960     0.3640     1.1470 H     1 <1>   0.0800 
 32 H       -6.0530    -1.8290     0.1270 H     1 <1>   0.3700 
 33 H       -9.4880     0.0290    -0.8780 H     1 <1>   0.3700 
 34 H       -8.9060     2.7140    -1.8560 H     1 <1>   0.0800 
 35 H       -8.7010     3.4110    -0.2740 H     1 <1>   0.0800 
 36 H       -4.6550     4.6360     1.5270 H     1 <1>   0.0800 
 37 H       -3.8150     4.3320     0.0090 H     1 <1>   0.0800 
 38 H      -10.2720     2.9940     1.4640 H     1 <1>   0.0800 
 39 H       -9.8950     1.2920     1.4280 H     1 <1>   0.0800 
 40 H      -11.2400     3.0620    -2.0980 H     1 <1>   0.0800 
 41 H      -11.0920     4.0750    -0.6850 H     1 <1>   0.0800 
 42 H       -3.0650     3.1190     2.6990 H     1 <1>   0.0800 
 43 H       -2.2030     4.4160     1.9100 H     1 <1>   0.0800 
 44 H       -2.2270     2.8320     1.1790 H     1 <1>   0.0800 
 45 H      -12.1400     1.7580     2.4280 H     1 <1>   0.0800 
 46 H      -12.2540     0.7390     1.0100 H     1 <1>   0.0800 
 47 H      -13.0320     1.7630    -1.0250 H     1 <1>   0.0800 
 48 H      -13.4380     3.4640    -0.9630 H     1 <1>   0.0800 
@<TRIPOS>BOND
  1   1   2  1   
  2   2   3  ar  
  3   2   4  ar  
  4   3   5  ar  
  5   3  27  1   
  6   4   6  ar  
  7   4  28  1   
  8   5   7  ar  
  9   5  29  1   
 10   6   7  ar  
 11   6  30  1   
 12   7   8  1   
 13   8   9  1   
 14   8  10  1   
 15   8  31  1   
 16   9  11  am  
 17   9  32  1   
 18  10  12  2   
 19  10  13  1   
 20  11  14  2   
 21  11  15  am  
 22  12  15  1   
 23  12  16  1   
 24  13  17  2   
 25  13  18  1   
 26  15  33  1   
 27  16  19  1   
 28  16  34  1   
 29  16  35  1   
 30  18  20  1   
 31  19  21  1   
 32  19  22  1   
 33  20  23  1   
 34  20  36  1   
 35  20  37  1   
 36  21  24  1   
 37  21  38  1   
 38  21  39  1   
 39  22  25  1   
 40  22  40  1   
 41  22  41  1   
 42  23  42  1   
 43  23  43  1   
 44  23  44  1   
 45  24  26  1   
 46  24  45  1   
 47  24  46  1   
 48  25  26  1   
 49  25  47  1   
 50  25  48  1   
@<TRIPOS>SUBSTRUCTURE
  1 ****  10 GROUP 4 **** **** 0

# MOE 2024.06 (io_trps.svl 2023.06)
