@<TRIPOS>MOLECULE
NONAME
39 40 1 0 0 
SMALL
USER_CHARGES


@<TRIPOS>ATOM
  1 S        0.1000    -0.0640    -0.3100 S.o2  1 <1>   1.3330 
  2 O        0.1030     0.8580    -1.4240 O.2   1 <1>  -0.6500 
  3 O       -0.0640    -1.4820    -0.5200 O.2   1 <1>  -0.6500 
  4 N       -1.1990     0.3220     0.6780 N.am  1 <1>  -0.9140 
  5 C        1.5120     0.2630     0.7550 C.3   1 <1>   0.0890 
  6 C       -2.3200     0.9750     0.0200 C.3   1 <1>   0.2760 
  7 C        2.8590    -0.0670     0.1240 C.ar  1 <1>  -0.1430 
  8 C       -3.2630     1.5610     1.0960 C.3   1 <1>  -0.0800 
  9 C       -3.0620    -0.0390    -0.8680 C.3   1 <1>  -0.1600 
 10 C        3.5640    -1.1950     0.5190 C.ar  1 <1>  -0.1500 
 11 C        3.3890     0.7590    -0.8550 C.ar  1 <1>  -0.1500 
 12 C       -4.5190     2.1720     0.4480 C.3   1 <1>  -0.1600 
 13 C       -2.5690     2.6280     1.9610 C.3   1 <1>  -0.2400 
 14 C       -4.3160     0.5780    -1.5040 C.3   1 <1>  -0.1600 
 15 C        4.7890    -1.4880    -0.0550 C.ar  1 <1>  -0.1500 
 16 C        4.6140     0.4650    -1.4290 C.ar  1 <1>  -0.1500 
 17 C       -5.2510     1.1540    -0.4350 C.3   1 <1>  -0.1600 
 18 C        5.3150    -0.6580    -1.0280 C.ar  1 <1>  -0.1500 
 19 H       -1.5440    -0.5850     0.9860 H     1 <1>   0.4200 
 20 H        1.4040    -0.3000     1.6600 H     1 <1>   0.0800 
 21 H        1.5100     1.3010     1.0230 H     1 <1>   0.0800 
 22 H       -1.9660     1.7920    -0.5880 H     1 <1>   0.0800 
 23 H       -3.5830     0.7580     1.7380 H     1 <1>   0.0800 
 24 H       -3.3540    -0.8910    -0.2810 H     1 <1>   0.0800 
 25 H       -2.4170    -0.3770    -1.6600 H     1 <1>   0.0800 
 26 H        3.1650    -1.8540     1.2700 H     1 <1>   0.1500 
 27 H        2.8500     1.6320    -1.1830 H     1 <1>   0.1500 
 28 H       -4.2380     3.0210    -0.1520 H     1 <1>   0.0800 
 29 H       -5.1910     2.5190     1.2140 H     1 <1>   0.0800 
 30 H       -2.2090     3.4350     1.3470 H     1 <1>   0.0800 
 31 H       -1.7350     2.2020     2.4890 H     1 <1>   0.0800 
 32 H       -3.2550     3.0260     2.6870 H     1 <1>   0.0800 
 33 H       -4.8370    -0.1720    -2.0740 H     1 <1>   0.0800 
 34 H       -4.0220     1.3610    -2.1820 H     1 <1>   0.0800 
 35 H        5.3320    -2.3650     0.2540 H     1 <1>   0.1500 
 36 H        5.0190     1.1100    -2.1900 H     1 <1>   0.1500 
 37 H       -6.0920     1.6290    -0.9110 H     1 <1>   0.0800 
 38 H       -5.6300     0.3540     0.1780 H     1 <1>   0.0800 
 39 H        6.2670    -0.8860    -1.4750 H     1 <1>   0.1500 
@<TRIPOS>BOND
  1   1   2  2   
  2   1   3  2   
  3   1   4  am  
  4   1   5  1   
  5   4   6  1   
  6   4  19  1   
  7   5   7  1   
  8   5  20  1   
  9   5  21  1   
 10   6   8  1   
 11   6   9  1   
 12   6  22  1   
 13   7  10  ar  
 14   7  11  ar  
 15   8  12  1   
 16   8  13  1   
 17   8  23  1   
 18   9  14  1   
 19   9  24  1   
 20   9  25  1   
 21  10  15  ar  
 22  10  26  1   
 23  11  16  ar  
 24  11  27  1   
 25  12  17  1   
 26  12  28  1   
 27  12  29  1   
 28  13  30  1   
 29  13  31  1   
 30  13  32  1   
 31  14  17  1   
 32  14  33  1   
 33  14  34  1   
 34  15  18  ar  
 35  15  35  1   
 36  16  18  ar  
 37  16  36  1   
 38  17  37  1   
 39  17  38  1   
 40  18  39  1   
@<TRIPOS>SUBSTRUCTURE
  1 ****   1 GROUP 4 **** **** 0

# MOE 2024.06 (io_trps.svl 2023.06)
