@<TRIPOS>MOLECULE
NONAME
44 45 1 0 0 
SMALL
USER_CHARGES


@<TRIPOS>ATOM
  1 O       -5.8960     1.5630    -0.3210 O.3   1 <1>  -0.5600 
  2 C       -5.1340     0.4380     0.0060 C.3   1 <1>   0.1200 
  3 C       -5.3950     2.7480     0.2210 C.3   1 <1>   0.1200 
  4 C       -3.6900     0.6090    -0.4990 C.3   1 <1>   0.1100 
  5 C       -3.9610     2.9970    -0.2820 C.3   1 <1>   0.1100 
  6 N       -3.0720     1.8490     0.0280 N.3   1 <1>  -0.8100 
  7 C       -1.7120     2.0230    -0.4940 C.3   1 <1>   0.1100 
  8 C       -0.9190     2.9640     0.4240 C.3   1 <1>   0.3430 
  9 N        0.5030     3.0790    -0.0060 N.4   1 <1>  -0.9060 
 10 C        1.3050     3.9600     0.8660 C.3   1 <1>   0.4860 
 11 C        2.6980     3.9780     0.2830 C.ar  1 <1>  -0.1440 
 12 C        3.6000     2.9790     0.6150 C.ar  1 <1>  -0.1500 
 13 C        3.0850     4.9820    -0.5940 C.ar  1 <1>  -0.1500 
 14 C        4.8750     2.9690     0.0740 C.ar  1 <1>   0.0820 
 15 C        4.3590     4.9780    -1.1360 C.ar  1 <1>  -0.1500 
 16 O        5.6810     1.9490     0.4540 O.3   1 <1>  -0.3620 
 17 C        5.2540     3.9760    -0.8070 C.ar  1 <1>  -0.1500 
 18 C        7.0230     1.8750     0.0280 C.3   1 <1>   0.1200 
 19 C        7.6520     0.6390     0.6630 C.3   1 <1>  -0.2400 
 20 H       -5.5950    -0.4160    -0.4580 H     1 <1>   0.0800 
 21 H       -5.1530     0.3060     1.0740 H     1 <1>   0.0800 
 22 H       -5.4170     2.6740     1.2940 H     1 <1>   0.0800 
 23 H       -6.0450     3.5480    -0.0860 H     1 <1>   0.0800 
 24 H       -3.7030     0.6280    -1.5760 H     1 <1>   0.0800 
 25 H       -3.1140    -0.2450    -0.1850 H     1 <1>   0.0800 
 26 H       -3.5870     3.8900     0.1850 H     1 <1>   0.0800 
 27 H       -3.9990     3.1600    -1.3460 H     1 <1>   0.0800 
 28 H       -1.7530     2.4070    -1.5000 H     1 <1>   0.0800 
 29 H       -1.2210     1.0650    -0.5060 H     1 <1>   0.0800 
 30 H       -0.9650     2.5730     1.4280 H     1 <1>   0.0800 
 31 H       -1.3840     3.9350     0.4140 H     1 <1>   0.0800 
 32 H        0.5770     3.4380    -0.9650 H     1 <1>   0.4500 
 33 H        0.9590     2.1580    -0.0130 H     1 <1>   0.4500 
 34 H        1.3320     3.5770     1.8740 H     1 <1>   0.0800 
 35 H        0.8970     4.9580     0.8800 H     1 <1>   0.0800 
 36 H        3.3440     2.1900     1.3010 H     1 <1>   0.1500 
 37 H        2.4110     5.7780    -0.8650 H     1 <1>   0.1500 
 38 H        4.6590     5.7580    -1.8150 H     1 <1>   0.1500 
 39 H        6.2360     3.9970    -1.2430 H     1 <1>   0.1500 
 40 H        7.5330     2.7680     0.3480 H     1 <1>   0.0800 
 41 H        7.0380     1.8000    -1.0460 H     1 <1>   0.0800 
 42 H        7.6180     0.7160     1.7350 H     1 <1>   0.0800 
 43 H        8.6790     0.5560     0.3580 H     1 <1>   0.0800 
 44 H        7.1280    -0.2460     0.3490 H     1 <1>   0.0800 
@<TRIPOS>BOND
  1   1   2  1   
  2   1   3  1   
  3   2   4  1   
  4   2  20  1   
  5   2  21  1   
  6   3   5  1   
  7   3  22  1   
  8   3  23  1   
  9   4   6  1   
 10   4  24  1   
 11   4  25  1   
 12   5   6  1   
 13   5  26  1   
 14   5  27  1   
 15   6   7  1   
 16   7   8  1   
 17   7  28  1   
 18   7  29  1   
 19   8   9  1   
 20   8  30  1   
 21   8  31  1   
 22   9  10  1   
 23   9  32  1   
 24   9  33  1   
 25  10  11  1   
 26  10  34  1   
 27  10  35  1   
 28  11  12  ar  
 29  11  13  ar  
 30  12  14  ar  
 31  12  36  1   
 32  13  15  ar  
 33  13  37  1   
 34  14  16  1   
 35  14  17  ar  
 36  15  17  ar  
 37  15  38  1   
 38  16  18  1   
 39  17  39  1   
 40  18  19  1   
 41  18  40  1   
 42  18  41  1   
 43  19  42  1   
 44  19  43  1   
 45  19  44  1   
@<TRIPOS>SUBSTRUCTURE
  1 ****   9 GROUP 4 **** **** 0

# MOE 2024.06 (io_trps.svl 2023.06)
