@<TRIPOS>MOLECULE
NONAME
53 55 1 0 0 
SMALL
USER_CHARGES


@<TRIPOS>ATOM
  1 CL       0.9450     1.1170     2.6400 Cl    1 <1>  -0.1770 
  2 C        1.0810    -0.0330     1.3240 C.ar  1 <1>   0.1770 
  3 C        2.0740     0.1310     0.3520 C.ar  1 <1>   0.1990 
  4 C        0.1790    -1.0810     1.2820 C.ar  1 <1>  -0.1500 
  5 N        2.9830     1.1930     0.3780 N.am  1 <1>  -0.6930 
  6 C        2.1300    -0.7970    -0.6820 C.ar  1 <1>  -0.1500 
  7 C        0.2520    -2.0000     0.2480 C.ar  1 <1>  -0.1500 
  8 S        2.8630     2.4740    -0.7860 S.o2  1 <1>   1.4470 
  9 C        4.0050     1.2770     1.4580 C.3   1 <1>   0.1960 
 10 C        1.2280    -1.8430    -0.7210 C.ar  1 <1>   0.1770 
 11 O        3.6230     3.5610    -0.2130 O.2   1 <1>  -0.6500 
 12 O        3.3570     1.8690    -2.0020 O.2   1 <1>  -0.6500 
 13 C        1.0880     2.8330    -0.8300 C.ar  1 <1>  -0.0090 
 14 C        5.3910     0.8270     0.9550 C.3   1 <1>   0.2000 
 15 CL       1.3230    -2.9940    -2.0270 Cl    1 <1>  -0.1770 
 16 C        0.2760     2.3090    -1.8310 C.ar  1 <1>  -0.1500 
 17 C        0.4890     3.6070     0.1570 C.ar  1 <1>  -0.1500 
 18 O        6.2660     0.6990     2.0420 O.3   1 <1>  -0.6800 
 19 C        6.0110     1.8170    -0.0580 C.3   1 <1>   0.3430 
 20 C       -1.0870     2.5500    -1.8480 C.ar  1 <1>  -0.1500 
 21 C       -0.8740     3.8520     0.1470 C.ar  1 <1>  -0.1500 
 22 N        7.4950     1.6620    -0.1420 N.4   1 <1>  -0.9590 
 23 C       -1.6630     3.3230    -0.8570 C.ar  1 <1>  -0.1500 
 24 C        8.1470     2.9340    -0.5570 C.3   1 <1>   0.3430 
 25 C        7.8940     0.5060    -0.9920 C.3   1 <1>   0.3430 
 26 C        9.6670     2.7820    -0.4760 C.3   1 <1>  -0.1600 
 27 C        9.4100     0.3130    -0.9160 C.3   1 <1>  -0.1600 
 28 C       10.1660     1.5900    -1.3040 C.3   1 <1>  -0.1600 
 29 H       -0.5720    -1.1750     2.0480 H     1 <1>   0.1500 
 30 H        2.8670    -0.7070    -1.4580 H     1 <1>   0.1500 
 31 H       -0.4360    -2.8260     0.1880 H     1 <1>   0.1500 
 32 H        3.7040     0.6310     2.2640 H     1 <1>   0.0800 
 33 H        4.0520     2.2820     1.8430 H     1 <1>   0.0800 
 34 H        5.3010    -0.1460     0.5020 H     1 <1>   0.0800 
 35 H        0.7110     1.7040    -2.6090 H     1 <1>   0.1500 
 36 H        1.0910     4.0230     0.9470 H     1 <1>   0.1500 
 37 H        5.9250     0.0580     2.7030 H     1 <1>   0.4000 
 38 H        5.7810     2.8150     0.2770 H     1 <1>   0.0800 
 39 H        5.5610     1.6900    -1.0290 H     1 <1>   0.0800 
 40 H       -1.7000     2.1380    -2.6320 H     1 <1>   0.1500 
 41 H       -1.3190     4.4540     0.9210 H     1 <1>   0.1500 
 42 H        7.7780     1.4470     0.8310 H     1 <1>   0.4500 
 43 H       -2.7230     3.5130    -0.8670 H     1 <1>   0.1500 
 44 H        7.8310     3.7390     0.0860 H     1 <1>   0.0800 
 45 H        7.8630     3.1750    -1.5690 H     1 <1>   0.0800 
 46 H        7.6040     0.6900    -2.0140 H     1 <1>   0.0800 
 47 H        7.4010    -0.3900    -0.6520 H     1 <1>   0.0800 
 48 H        9.9570     2.6590     0.5540 H     1 <1>   0.0800 
 49 H       10.1300     3.6850    -0.8350 H     1 <1>   0.0800 
 50 H        9.6960    -0.4860    -1.5780 H     1 <1>   0.0800 
 51 H        9.6800     0.0160     0.0820 H     1 <1>   0.0800 
 52 H       11.2230     1.4520    -1.1470 H     1 <1>   0.0800 
 53 H       10.0150     1.7930    -2.3520 H     1 <1>   0.0800 
@<TRIPOS>BOND
  1   1   2  1   
  2   2   3  ar  
  3   2   4  ar  
  4   3   5  1   
  5   3   6  ar  
  6   4   7  ar  
  7   4  29  1   
  8   5   8  am  
  9   5   9  1   
 10   6  10  ar  
 11   6  30  1   
 12   7  10  ar  
 13   7  31  1   
 14   8  11  2   
 15   8  12  2   
 16   8  13  1   
 17   9  14  1   
 18   9  32  1   
 19   9  33  1   
 20  10  15  1   
 21  13  16  ar  
 22  13  17  ar  
 23  14  18  1   
 24  14  19  1   
 25  14  34  1   
 26  16  20  ar  
 27  16  35  1   
 28  17  21  ar  
 29  17  36  1   
 30  18  37  1   
 31  19  22  1   
 32  19  38  1   
 33  19  39  1   
 34  20  23  ar  
 35  20  40  1   
 36  21  23  ar  
 37  21  41  1   
 38  22  24  1   
 39  22  25  1   
 40  22  42  1   
 41  23  43  1   
 42  24  26  1   
 43  24  44  1   
 44  24  45  1   
 45  25  27  1   
 46  25  46  1   
 47  25  47  1   
 48  26  28  1   
 49  26  48  1   
 50  26  49  1   
 51  27  28  1   
 52  27  50  1   
 53  27  51  1   
 54  28  52  1   
 55  28  53  1   
@<TRIPOS>SUBSTRUCTURE
  1 ****   5 GROUP 4 **** **** 0

# MOE 2024.06 (io_trps.svl 2023.06)
