@<TRIPOS>MOLECULE
NONAME
43 45 1 0 0 
SMALL
USER_CHARGES


@<TRIPOS>ATOM
  1 F       -0.1160    -2.2470     1.4520 F     1 <1>  -0.1900 
  2 C       -1.1280    -2.1010     0.6280 C.ar  1 <1>   0.1900 
  3 C       -1.1040    -2.7480    -0.6140 C.ar  1 <1>   0.1000 
  4 C       -2.1780    -1.3050     1.0390 C.ar  1 <1>  -0.1500 
  5 N       -0.0590    -3.5650    -1.0700 N.pl3 1 <1>  -0.8380 
  6 C       -2.2030    -2.5560    -1.4410 C.ar  1 <1>  -0.1500 
  7 C       -3.2590    -1.1340     0.1900 C.ar  1 <1>  -0.1500 
  8 C        1.2100    -2.8880    -1.4790 C.3   1 <1>   0.2090 
  9 C        0.0830    -4.9130    -0.4410 C.3   1 <1>   0.2090 
 10 C       -3.2670    -1.7600    -1.0470 C.ar  1 <1>  -0.1500 
 11 C        2.2940    -2.9660    -0.3830 C.3   1 <1>   0.3430 
 12 C        1.1930    -4.9470     0.6330 C.3   1 <1>   0.3430 
 13 N        2.4930    -4.3650     0.1470 N.4   1 <1>  -0.9590 
 14 C        3.5430    -4.4040     1.1980 C.3   1 <1>   0.4860 
 15 C        4.8610    -3.9870     0.5720 C.ar  1 <1>  -0.1430 
 16 C        5.5930    -4.8450    -0.2450 C.ar  1 <1>  -0.1430 
 17 C        5.3330    -2.7050     0.8220 C.ar  1 <1>  -0.1500 
 18 C        6.7720    -4.3920    -0.8170 C.ar  1 <1>  -0.1500 
 19 C        5.1600    -6.2780    -0.5380 C.3   1 <1>  -0.0970 
 20 C        6.5120    -2.2670     0.2500 C.ar  1 <1>  -0.1500 
 21 C        7.2300    -3.1110    -0.5740 C.ar  1 <1>  -0.1500 
 22 H       -2.1550    -0.8270     2.0020 H     1 <1>   0.1500 
 23 H       -2.2190    -3.0370    -2.4030 H     1 <1>   0.1500 
 24 H       -4.0910    -0.5180     0.4880 H     1 <1>   0.1500 
 25 H        1.0080    -1.8540    -1.7030 H     1 <1>   0.0800 
 26 H        1.5770    -3.3470    -2.3810 H     1 <1>   0.0800 
 27 H        0.3000    -5.6350    -1.2090 H     1 <1>   0.0800 
 28 H       -0.8540    -5.1960     0.0100 H     1 <1>   0.0800 
 29 H       -4.1080    -1.6270    -1.7070 H     1 <1>   0.1500 
 30 H        2.0050    -2.3130     0.4230 H     1 <1>   0.0800 
 31 H        3.2210    -2.5920    -0.7880 H     1 <1>   0.0800 
 32 H        1.3400    -5.9670     0.9470 H     1 <1>   0.0800 
 33 H        0.8470    -4.3890     1.4870 H     1 <1>   0.0800 
 34 H        2.8440    -4.9260    -0.6370 H     1 <1>   0.4500 
 35 H        3.6370    -5.3990     1.5990 H     1 <1>   0.0800 
 36 H        3.2890    -3.7350     2.0040 H     1 <1>   0.0800 
 37 H        4.7930    -2.0300     1.4660 H     1 <1>   0.1500 
 38 H        7.3530    -5.0360    -1.4560 H     1 <1>   0.1500 
 39 H        4.8190    -6.7680     0.3550 H     1 <1>   0.0800 
 40 H        5.9890    -6.8490    -0.9190 H     1 <1>   0.0800 
 41 H        4.3820    -6.2930    -1.2790 H     1 <1>   0.0800 
 42 H        6.8760    -1.2720     0.4450 H     1 <1>   0.1500 
 43 H        8.1490    -2.7730    -1.0230 H     1 <1>   0.1500 
@<TRIPOS>BOND
  1   1   2  1   
  2   2   3  ar  
  3   2   4  ar  
  4   3   5  1   
  5   3   6  ar  
  6   4   7  ar  
  7   4  22  1   
  8   5   8  1   
  9   5   9  1   
 10   6  10  ar  
 11   6  23  1   
 12   7  10  ar  
 13   7  24  1   
 14   8  11  1   
 15   8  25  1   
 16   8  26  1   
 17   9  12  1   
 18   9  27  1   
 19   9  28  1   
 20  10  29  1   
 21  11  13  1   
 22  11  30  1   
 23  11  31  1   
 24  12  13  1   
 25  12  32  1   
 26  12  33  1   
 27  13  14  1   
 28  13  34  1   
 29  14  15  1   
 30  14  35  1   
 31  14  36  1   
 32  15  16  ar  
 33  15  17  ar  
 34  16  18  ar  
 35  16  19  1   
 36  17  20  ar  
 37  17  37  1   
 38  18  21  ar  
 39  18  38  1   
 40  19  39  1   
 41  19  40  1   
 42  19  41  1   
 43  20  21  ar  
 44  20  42  1   
 45  21  43  1   
@<TRIPOS>SUBSTRUCTURE
  1 ****  11 GROUP 4 **** **** 0

# MOE 2024.06 (io_trps.svl 2023.06)
