@<TRIPOS>MOLECULE
NONAME
44 45 1 0 0 
SMALL
USER_CHARGES


@<TRIPOS>ATOM
  1 O       -0.1710    -0.6730    -1.2490 O.2   1 <1>  -0.5700 
  2 C       -0.6710    -1.6520    -0.7450 C.2   1 <1>   0.4950 
  3 C       -2.0160    -1.6840    -0.2480 C.2   1 <1>   0.0290 
  4 C        0.2250    -2.8840    -0.7270 C.3   1 <1>  -0.0990 
  5 C       -2.3470    -2.7890     0.6040 C.2   1 <1>   0.4950 
  6 C       -2.8700    -0.6530    -0.6050 C.2   1 <1>  -0.0500 
  7 C       -0.0730    -3.8560     0.4230 C.3   1 <1>   0.0000 
  8 O       -3.1700    -2.7710     1.4900 O.2   1 <1>  -0.5700 
  9 C       -1.5870    -4.0950     0.4630 C.3   1 <1>  -0.0990 
 10 N       -4.2100    -0.4630    -0.4490 N.pl3 1 <1>  -0.8690 
 11 C        0.6540    -5.1870     0.1780 C.3   1 <1>  -0.2400 
 12 C        0.4200    -3.2710     1.7590 C.3   1 <1>  -0.2400 
 13 C       -5.2420    -1.3950     0.0860 C.3   1 <1>   0.2090 
 14 C       -6.6350    -1.0640    -0.4750 C.3   1 <1>   0.0630 
 15 C       -7.6400    -2.1390    -0.0670 C.ar  1 <1>  -0.1430 
 16 C       -7.1370     0.3210    -0.0330 C.3   1 <1>  -0.2400 
 17 C       -7.8790    -2.4280     1.2700 C.ar  1 <1>  -0.1500 
 18 C       -8.3310    -2.8460    -1.0410 C.ar  1 <1>  -0.1500 
 19 C       -8.7890    -3.4090     1.6260 C.ar  1 <1>  -0.1500 
 20 C       -9.2420    -3.8270    -0.6860 C.ar  1 <1>  -0.1500 
 21 C       -9.4710    -4.1090     0.6480 C.ar  1 <1>  -0.1500 
 22 H        0.0940    -3.3830    -1.6700 H     1 <1>   0.0800 
 23 H        1.2520    -2.5680    -0.6760 H     1 <1>   0.0800 
 24 H       -2.4010     0.1690    -1.1260 H     1 <1>   0.1500 
 25 H       -1.8310    -4.7400     1.2880 H     1 <1>   0.0800 
 26 H       -1.9160    -4.5810    -0.4380 H     1 <1>   0.0800 
 27 H       -4.6250     0.4290    -0.7460 H     1 <1>   0.4000 
 28 H        1.7180    -5.0330     0.1240 H     1 <1>   0.0800 
 29 H        0.3320    -5.6390    -0.7440 H     1 <1>   0.0800 
 30 H        0.4550    -5.8790     0.9780 H     1 <1>   0.0800 
 31 H       -0.0320    -2.3180     1.9710 H     1 <1>   0.0800 
 32 H        1.4870    -3.1320     1.7400 H     1 <1>   0.0800 
 33 H        0.1850    -3.9370     2.5710 H     1 <1>   0.0800 
 34 H       -4.9900    -2.4040    -0.1910 H     1 <1>   0.0800 
 35 H       -5.2520    -1.3300     1.1600 H     1 <1>   0.0800 
 36 H       -6.5550    -1.0680    -1.5480 H     1 <1>   0.0800 
 37 H       -7.1630     0.3890     1.0390 H     1 <1>   0.0800 
 38 H       -8.1310     0.4840    -0.4100 H     1 <1>   0.0800 
 39 H       -6.5000     1.0980    -0.4120 H     1 <1>   0.0800 
 40 H       -7.3590    -1.8940     2.0450 H     1 <1>   0.1500 
 41 H       -8.1660    -2.6400    -2.0840 H     1 <1>   0.1500 
 42 H       -8.9650    -3.6260     2.6650 H     1 <1>   0.1500 
 43 H       -9.7720    -4.3700    -1.4490 H     1 <1>   0.1500 
 44 H      -10.1780    -4.8710     0.9250 H     1 <1>   0.1500 
@<TRIPOS>BOND
  1   1   2  2   
  2   2   3  1   
  3   2   4  1   
  4   3   5  1   
  5   3   6  2   
  6   4   7  1   
  7   4  22  1   
  8   4  23  1   
  9   5   8  2   
 10   5   9  1   
 11   6  10  1   
 12   6  24  1   
 13   7   9  1   
 14   7  11  1   
 15   7  12  1   
 16   9  25  1   
 17   9  26  1   
 18  10  13  1   
 19  10  27  1   
 20  11  28  1   
 21  11  29  1   
 22  11  30  1   
 23  12  31  1   
 24  12  32  1   
 25  12  33  1   
 26  13  14  1   
 27  13  34  1   
 28  13  35  1   
 29  14  15  1   
 30  14  16  1   
 31  14  36  1   
 32  15  17  ar  
 33  15  18  ar  
 34  16  37  1   
 35  16  38  1   
 36  16  39  1   
 37  17  19  ar  
 38  17  40  1   
 39  18  20  ar  
 40  18  41  1   
 41  19  21  ar  
 42  19  42  1   
 43  20  21  ar  
 44  20  43  1   
 45  21  44  1   
@<TRIPOS>SUBSTRUCTURE
  1 ****  13 GROUP 4 **** **** 0

# MOE 2024.06 (io_trps.svl 2023.06)
