@<TRIPOS>MOLECULE
NONAME
40 40 1 0 0 
SMALL
USER_CHARGES


@<TRIPOS>ATOM
  1 S        0.1880    -0.1830     0.1910 S.o2  1 <1>   1.3330 
  2 O        0.5330    -1.4520    -0.4090 O.2   1 <1>  -0.6500 
  3 O       -0.1480    -0.1170     1.5960 O.2   1 <1>  -0.6500 
  4 N        1.4700     0.8920    -0.0810 N.am  1 <1>  -0.8490 
  5 C       -1.1480     0.5360    -0.7770 C.3   1 <1>  -0.0550 
  6 C        2.7760     0.2300     0.0920 C.3   1 <1>   0.1960 
  7 C        1.3910     2.0820     0.7750 C.3   1 <1>   0.1960 
  8 C       -2.4670    -0.2550    -0.7300 C.3   1 <1>  -0.2400 
  9 C        3.9180     1.1630    -0.3350 C.3   1 <1>  -0.0190 
 10 C        2.4620     3.0980     0.3660 C.3   1 <1>  -0.1600 
 11 C        5.2550     0.4610    -0.1550 C.2   1 <1>   0.5690 
 12 C        3.8670     2.4870     0.4500 C.3   1 <1>  -0.1600 
 13 O        5.5320    -0.0190     0.9170 O.2   1 <1>  -0.5700 
 14 N        6.1140     0.4030    -1.2050 N.am  1 <1>  -0.7300 
 15 C        7.4260    -0.2970    -1.1820 C.3   1 <1>   0.1400 
 16 C        8.4700     0.5380    -0.4390 C.3   1 <1>   0.1200 
 17 O        9.7200    -0.0480    -0.6300 O.3   1 <1>  -0.5600 
 18 C       10.7450     0.5760     0.0740 C.3   1 <1>   0.0400 
 19 H       -0.8280     0.6070    -1.7990 H     1 <1>   0.0800 
 20 H       -1.3370     1.5320    -0.4280 H     1 <1>   0.0800 
 21 H        2.8220    -0.6580    -0.5170 H     1 <1>   0.0800 
 22 H        2.9020    -0.0690     1.1210 H     1 <1>   0.0800 
 23 H        1.5290     1.8020     1.8080 H     1 <1>   0.0800 
 24 H        0.4200     2.5380     0.6810 H     1 <1>   0.0800 
 25 H       -2.3120    -1.2520    -1.1050 H     1 <1>   0.0800 
 26 H       -3.2160     0.2300    -1.3300 H     1 <1>   0.0800 
 27 H       -2.8220    -0.3220     0.2850 H     1 <1>   0.0800 
 28 H        3.7850     1.3750    -1.3800 H     1 <1>   0.0800 
 29 H        2.4040     3.9560     1.0130 H     1 <1>   0.0800 
 30 H        2.2640     3.4280    -0.6390 H     1 <1>   0.0800 
 31 H        4.5950     3.1770     0.0590 H     1 <1>   0.0800 
 32 H        4.1090     2.2960     1.4820 H     1 <1>   0.0800 
 33 H        5.8590     0.8310    -2.0970 H     1 <1>   0.3700 
 34 H        7.7530    -0.4680    -2.1920 H     1 <1>   0.0800 
 35 H        7.3150    -1.2450    -0.6840 H     1 <1>   0.0800 
 36 H        8.2460     0.5530     0.6140 H     1 <1>   0.0800 
 37 H        8.5020     1.5390    -0.8320 H     1 <1>   0.0800 
 38 H       11.6620     0.0570    -0.1400 H     1 <1>   0.0800 
 39 H       10.5360     0.5200     1.1290 H     1 <1>   0.0800 
 40 H       10.8240     1.6010    -0.2440 H     1 <1>   0.0800 
@<TRIPOS>BOND
  1   1   2  2   
  2   1   3  2   
  3   1   4  am  
  4   1   5  1   
  5   4   6  1   
  6   4   7  1   
  7   5   8  1   
  8   5  19  1   
  9   5  20  1   
 10   6   9  1   
 11   6  21  1   
 12   6  22  1   
 13   7  10  1   
 14   7  23  1   
 15   7  24  1   
 16   8  25  1   
 17   8  26  1   
 18   8  27  1   
 19   9  11  1   
 20   9  12  1   
 21   9  28  1   
 22  10  12  1   
 23  10  29  1   
 24  10  30  1   
 25  11  13  2   
 26  11  14  am  
 27  12  31  1   
 28  12  32  1   
 29  14  15  1   
 30  14  33  1   
 31  15  16  1   
 32  15  34  1   
 33  15  35  1   
 34  16  17  1   
 35  16  36  1   
 36  16  37  1   
 37  17  18  1   
 38  18  38  1   
 39  18  39  1   
 40  18  40  1   
@<TRIPOS>SUBSTRUCTURE
  1 ****   9 GROUP 4 **** **** 0

# MOE 2024.06 (io_trps.svl 2023.06)
