@<TRIPOS>MOLECULE
NONAME
43 45 1 0 0 
SMALL
USER_CHARGES


@<TRIPOS>ATOM
  1 CL       0.2400    -0.2010    -0.6740 Cl    1 <1>  -0.1770 
  2 C        1.8120    -0.8080    -0.1900 C.ar  1 <1>   0.1770 
  3 C        2.5030    -0.1630     0.8290 C.ar  1 <1>  -0.1440 
  4 C        2.3350    -1.9220    -0.8340 C.ar  1 <1>  -0.1440 
  5 C        3.7460    -0.6480     1.2060 C.ar  1 <1>  -0.1500 
  6 C        1.9130     1.0540     1.5270 C.3   1 <1>  -0.0960 
  7 C        3.5780    -2.3900    -0.4420 C.ar  1 <1>  -0.1500 
  8 C        1.5690    -2.6250    -1.9450 C.3   1 <1>  -0.0960 
  9 C        4.2880    -1.7620     0.5680 C.ar  1 <1>   0.0830 
 10 O        5.4990    -2.2890     0.8730 O.3   1 <1>  -0.3630 
 11 C        6.3590    -1.6650     1.8160 C.3   1 <1>   0.1810 
 12 C        7.7030    -2.3840     1.9080 C.2   1 <1>   0.5690 
 13 O        7.9800    -2.8930     2.9710 O.2   1 <1>  -0.5700 
 14 N        8.5770    -2.4250     0.8490 N.am  1 <1>  -0.6600 
 15 C        9.9030    -3.0940     0.9950 C.3   1 <1>   0.2840 
 16 C        8.2940    -1.9180    -0.5220 C.3   1 <1>   0.1400 
 17 C       11.0060    -2.4200     0.1790 C.ar  1 <1>  -0.1430 
 18 C        9.3310    -0.8590    -0.8960 C.3   1 <1>  -0.0170 
 19 C       10.7470    -1.3820    -0.7110 C.ar  1 <1>  -0.1430 
 20 C       12.3090    -2.8710     0.3320 C.ar  1 <1>  -0.1500 
 21 C       11.7860    -0.8120    -1.4290 C.ar  1 <1>  -0.1500 
 22 C       13.3430    -2.3000    -0.3880 C.ar  1 <1>  -0.1500 
 23 C       13.0810    -1.2690    -1.2700 C.ar  1 <1>  -0.1500 
 24 H        4.2750    -0.1520     1.9960 H     1 <1>   0.1500 
 25 H        0.9770     0.7930     1.9890 H     1 <1>   0.0800 
 26 H        1.7390     1.8390     0.8130 H     1 <1>   0.0800 
 27 H        2.5750     1.4270     2.2880 H     1 <1>   0.0800 
 28 H        4.0130    -3.2520    -0.9160 H     1 <1>   0.1500 
 29 H        0.6260    -2.9820    -1.5710 H     1 <1>   0.0800 
 30 H        2.1230    -3.4630    -2.3270 H     1 <1>   0.0800 
 31 H        1.3840    -1.9400    -2.7540 H     1 <1>   0.0800 
 32 H        5.8760    -1.6910     2.7760 H     1 <1>   0.0800 
 33 H        6.5200    -0.6480     1.5140 H     1 <1>   0.0800 
 34 H        9.8060    -4.1170     0.6780 H     1 <1>   0.0800 
 35 H       10.1970    -3.0960     2.0310 H     1 <1>   0.0800 
 36 H        7.3100    -1.4930    -0.5950 H     1 <1>   0.0800 
 37 H        8.3550    -2.7400    -1.2150 H     1 <1>   0.0800 
 38 H        9.1920     0.0100    -0.2790 H     1 <1>   0.0800 
 39 H        9.1790    -0.5700    -1.9200 H     1 <1>   0.0800 
 40 H       12.5260    -3.6730     1.0170 H     1 <1>   0.1500 
 41 H       11.5920    -0.0060    -2.1160 H     1 <1>   0.1500 
 42 H       14.3500    -2.6580    -0.2610 H     1 <1>   0.1500 
 43 H       13.8840    -0.8220    -1.8310 H     1 <1>   0.1500 
@<TRIPOS>BOND
  1   1   2  1   
  2   2   3  ar  
  3   2   4  ar  
  4   3   5  ar  
  5   3   6  1   
  6   4   7  ar  
  7   4   8  1   
  8   5   9  ar  
  9   5  24  1   
 10   6  25  1   
 11   6  26  1   
 12   6  27  1   
 13   7   9  ar  
 14   7  28  1   
 15   8  29  1   
 16   8  30  1   
 17   8  31  1   
 18   9  10  1   
 19  10  11  1   
 20  11  12  1   
 21  11  32  1   
 22  11  33  1   
 23  12  13  2   
 24  12  14  am  
 25  14  15  1   
 26  14  16  1   
 27  15  17  1   
 28  15  34  1   
 29  15  35  1   
 30  16  18  1   
 31  16  36  1   
 32  16  37  1   
 33  17  19  ar  
 34  17  20  ar  
 35  18  19  1   
 36  18  38  1   
 37  18  39  1   
 38  19  21  ar  
 39  20  22  ar  
 40  20  40  1   
 41  21  23  ar  
 42  21  41  1   
 43  22  23  ar  
 44  22  42  1   
 45  23  43  1   
@<TRIPOS>SUBSTRUCTURE
  1 ****  16 GROUP 4 **** **** 0

# MOE 2024.06 (io_trps.svl 2023.06)
