@<TRIPOS>MOLECULE
NONAME
43 44 1 0 0 
SMALL
USER_CHARGES


@<TRIPOS>ATOM
  1 O        0.3740    -1.7500     2.4450 O.2   1 <1>  -0.5700 
  2 C        0.2600    -2.2500     1.3410 C.2   1 <1>   0.5440 
  3 N        1.3830    -2.3700     0.5450 N.am  1 <1>  -0.6600 
  4 C       -1.0450    -2.7130     0.9100 C.ar  1 <1>   0.0860 
  5 C        2.6390    -1.6310     0.8510 C.3   1 <1>   0.1400 
  6 C        1.5050    -3.3390    -0.5790 C.3   1 <1>   0.1400 
  7 C       -1.5750    -2.3650    -0.3300 C.ar  1 <1>  -0.1500 
  8 C       -1.8250    -3.5210     1.7330 C.ar  1 <1>  -0.1500 
  9 C        3.1150    -0.8870    -0.4020 C.3   1 <1>  -0.1600 
 10 C        1.9620    -2.6070    -1.8460 C.3   1 <1>  -0.1600 
 11 C       -2.8120    -2.8120    -0.7560 C.ar  1 <1>   0.0830 
 12 C       -3.0640    -3.9850     1.3280 C.ar  1 <1>  -0.1500 
 13 C        3.2640    -1.8300    -1.6050 C.3   1 <1>  -0.1600 
 14 O       -3.1810    -2.3820    -1.9950 O.3   1 <1>  -0.3630 
 15 C       -3.5740    -3.6490     0.0760 C.ar  1 <1>   0.0830 
 16 C       -4.5300    -2.0980    -2.2920 C.3   1 <1>   0.0400 
 17 O       -4.7730    -4.1270    -0.3550 O.3   1 <1>  -0.3630 
 18 C       -5.5550    -5.0190     0.4060 C.3   1 <1>   0.1200 
 19 C       -6.8080    -5.3600    -0.4020 C.3   1 <1>  -0.1600 
 20 C       -7.7160    -6.3310     0.3590 C.3   1 <1>  -0.2400 
 21 H        3.3880    -2.3330     1.1730 H     1 <1>   0.0800 
 22 H        2.4780    -0.9230     1.6460 H     1 <1>   0.0800 
 23 H        0.5740    -3.8450    -0.7620 H     1 <1>   0.0800 
 24 H        2.2350    -4.0840    -0.3130 H     1 <1>   0.0800 
 25 H       -1.0060    -1.7220    -0.9760 H     1 <1>   0.1500 
 26 H       -1.4440    -3.7840     2.7050 H     1 <1>   0.1500 
 27 H        4.0570    -0.4120    -0.1950 H     1 <1>   0.0800 
 28 H        2.4030    -0.1140    -0.6330 H     1 <1>   0.0800 
 29 H        1.1860    -1.9290    -2.1570 H     1 <1>   0.0800 
 30 H        2.1080    -3.3220    -2.6360 H     1 <1>   0.0800 
 31 H       -3.6120    -4.6080     2.0080 H     1 <1>   0.1500 
 32 H        4.0640    -2.5250    -1.4160 H     1 <1>   0.0800 
 33 H        3.5170    -1.2620    -2.4840 H     1 <1>   0.0800 
 34 H       -4.5550    -1.4370    -3.1390 H     1 <1>   0.0800 
 35 H       -4.9870    -1.6260    -1.4400 H     1 <1>   0.0800 
 36 H       -5.0330    -3.0170    -2.5340 H     1 <1>   0.0800 
 37 H       -5.8200    -4.5370     1.3310 H     1 <1>   0.0800 
 38 H       -4.9740    -5.9040     0.5960 H     1 <1>   0.0800 
 39 H       -6.5140    -5.8070    -1.3360 H     1 <1>   0.0800 
 40 H       -7.3520    -4.4540    -0.6090 H     1 <1>   0.0800 
 41 H       -7.1980    -7.2520     0.5630 H     1 <1>   0.0800 
 42 H       -8.5890    -6.5550    -0.2290 H     1 <1>   0.0800 
 43 H       -8.0360    -5.8980     1.2910 H     1 <1>   0.0800 
@<TRIPOS>BOND
  1   1   2  2   
  2   2   3  am  
  3   2   4  1   
  4   3   5  1   
  5   3   6  1   
  6   4   7  ar  
  7   4   8  ar  
  8   5   9  1   
  9   5  21  1   
 10   5  22  1   
 11   6  10  1   
 12   6  23  1   
 13   6  24  1   
 14   7  11  ar  
 15   7  25  1   
 16   8  12  ar  
 17   8  26  1   
 18   9  13  1   
 19   9  27  1   
 20   9  28  1   
 21  10  13  1   
 22  10  29  1   
 23  10  30  1   
 24  11  14  1   
 25  11  15  ar  
 26  12  15  ar  
 27  12  31  1   
 28  13  32  1   
 29  13  33  1   
 30  14  16  1   
 31  15  17  1   
 32  16  34  1   
 33  16  35  1   
 34  16  36  1   
 35  17  18  1   
 36  18  19  1   
 37  18  37  1   
 38  18  38  1   
 39  19  20  1   
 40  19  39  1   
 41  19  40  1   
 42  20  41  1   
 43  20  42  1   
 44  20  43  1   
@<TRIPOS>SUBSTRUCTURE
  1 ****   7 GROUP 4 **** **** 0

# MOE 2024.06 (io_trps.svl 2023.06)
