@<TRIPOS>MOLECULE
NONAME
45 46 1 0 0 
SMALL
USER_CHARGES


@<TRIPOS>ATOM
  1 S       -0.0790     1.8740    -0.9110 S.3   1 <1>  -0.4600 
  2 C       -0.4120     0.1220    -1.2610 C.3   1 <1>   0.2140 
  3 C        1.4260     2.2150    -1.8910 C.3   1 <1>   0.1310 
  4 C       -1.5690    -0.3250    -0.3830 C.ar  1 <1>  -0.1440 
  5 C        2.5180     1.1920    -1.5960 C.2   1 <1>   0.5690 
  6 C       -1.3320    -1.1380     0.7190 C.ar  1 <1>  -0.1500 
  7 C       -2.8650     0.0790    -0.6820 C.ar  1 <1>  -0.1500 
  8 O        2.7450     0.3790    -2.4620 O.2   1 <1>  -0.5700 
  9 N        3.1980     1.1800    -0.4010 N.am  1 <1>  -0.6600 
 10 C       -2.3840    -1.5530     1.5190 C.ar  1 <1>  -0.1500 
 11 C       -3.9250    -0.3290     0.1110 C.ar  1 <1>  -0.1500 
 12 C        4.2430     0.1530    -0.1130 C.3   1 <1>   0.1400 
 13 C        2.9470     2.1130     0.7350 C.3   1 <1>   0.1400 
 14 C       -3.6620    -1.1390     1.1980 C.ar  1 <1>   0.1900 
 15 C        5.5700     0.8390     0.2410 C.3   1 <1>  -0.0190 
 16 C        4.2500     2.8300     1.1020 C.3   1 <1>  -0.1600 
 17 F       -4.6570    -1.5290     1.9490 F     1 <1>  -0.1900 
 18 C        6.6330    -0.1970     0.5720 C.2   1 <1>   0.6590 
 19 C        5.3820     1.8360     1.4030 C.3   1 <1>  -0.1600 
 20 O        6.3650    -1.2530     1.0870 O.2   1 <1>  -0.5700 
 21 O        7.8790     0.1420     0.2690 O.3   1 <1>  -0.4300 
 22 C        8.9600    -0.7220     0.5310 C.3   1 <1>   0.1200 
 23 C       10.2390    -0.0320     0.0700 C.3   1 <1>  -0.2400 
 24 H        0.4820    -0.4360    -1.0440 H     1 <1>   0.0800 
 25 H       -0.6510     0.0380    -2.3060 H     1 <1>   0.0800 
 26 H        1.7520     3.2100    -1.6560 H     1 <1>   0.0800 
 27 H        1.1430     2.1660    -2.9270 H     1 <1>   0.0800 
 28 H       -0.3300    -1.4480     0.9580 H     1 <1>   0.1500 
 29 H       -3.0480     0.7170    -1.5300 H     1 <1>   0.1500 
 30 H       -2.2190    -2.1810     2.3750 H     1 <1>   0.1500 
 31 H       -4.9320    -0.0250    -0.1060 H     1 <1>   0.1500 
 32 H        4.3900    -0.4930    -0.9620 H     1 <1>   0.0800 
 33 H        3.9130    -0.4580     0.7100 H     1 <1>   0.0800 
 34 H        2.5920     1.5450     1.5790 H     1 <1>   0.0800 
 35 H        2.1950     2.8410     0.4910 H     1 <1>   0.0800 
 36 H        5.9020     1.3740    -0.6300 H     1 <1>   0.0800 
 37 H        4.0810     3.4540     1.9620 H     1 <1>   0.0800 
 38 H        4.5370     3.4710     0.2860 H     1 <1>   0.0800 
 39 H        6.3000     2.3720     1.5740 H     1 <1>   0.0800 
 40 H        5.1450     1.2910     2.3020 H     1 <1>   0.0800 
 41 H        8.8000    -1.6410    -0.0070 H     1 <1>   0.0800 
 42 H        8.9880    -0.9230     1.5890 H     1 <1>   0.0800 
 43 H       10.1920     0.1710    -0.9850 H     1 <1>   0.0800 
 44 H       11.0830    -0.6700     0.2580 H     1 <1>   0.0800 
 45 H       10.3790     0.8890     0.6080 H     1 <1>   0.0800 
@<TRIPOS>BOND
  1   1   2  1   
  2   1   3  1   
  3   2   4  1   
  4   2  24  1   
  5   2  25  1   
  6   3   5  1   
  7   3  26  1   
  8   3  27  1   
  9   4   6  ar  
 10   4   7  ar  
 11   5   8  2   
 12   5   9  am  
 13   6  10  ar  
 14   6  28  1   
 15   7  11  ar  
 16   7  29  1   
 17   9  12  1   
 18   9  13  1   
 19  10  14  ar  
 20  10  30  1   
 21  11  14  ar  
 22  11  31  1   
 23  12  15  1   
 24  12  32  1   
 25  12  33  1   
 26  13  16  1   
 27  13  34  1   
 28  13  35  1   
 29  14  17  1   
 30  15  18  1   
 31  15  19  1   
 32  15  36  1   
 33  16  19  1   
 34  16  37  1   
 35  16  38  1   
 36  18  20  2   
 37  18  21  1   
 38  19  39  1   
 39  19  40  1   
 40  21  22  1   
 41  22  23  1   
 42  22  41  1   
 43  22  42  1   
 44  23  43  1   
 45  23  44  1   
 46  23  45  1   
@<TRIPOS>SUBSTRUCTURE
  1 ****   9 GROUP 4 **** **** 0

# MOE 2024.06 (io_trps.svl 2023.06)
