@<TRIPOS>MOLECULE
NONAME
40 42 1 0 0 
SMALL
USER_CHARGES


@<TRIPOS>ATOM
  1 O        3.3010     1.6870    -2.1640 O.co2 1 <1>  -0.9000 
  2 C        3.7120     0.6220    -1.7020 C.2   1 <1>   0.9060 
  3 O        4.7610     0.1030    -2.1080 O.co2 1 <1>  -0.9000 
  4 C        2.9250    -0.0330    -0.5720 C.3   1 <1>  -0.1860 
  5 C        3.3130     0.3990     0.8840 C.3   1 <1>  -0.0190 
  6 C        2.8230    -1.5800    -0.6600 C.3   1 <1>  -0.0800 
  7 C        4.6440     1.1320     1.1200 C.2   1 <1>   0.5690 
  8 C        3.2010    -0.8290     1.8290 C.3   1 <1>  -0.0800 
  9 C        4.0940    -2.2370    -0.0740 C.3   1 <1>  -0.1600 
 10 C        1.6320    -2.0150     0.2210 C.3   1 <1>  -0.1600 
 11 O        4.7090     1.9070     2.0490 O.2   1 <1>  -0.5700 
 12 N        5.7270     0.8960     0.3450 N.am  1 <1>  -0.7300 
 13 C        4.2500    -1.8850     1.4210 C.3   1 <1>  -0.1600 
 14 C        1.8050    -1.4710     1.6580 C.3   1 <1>  -0.1600 
 15 C        6.9530     1.6950     0.3440 C.3   1 <1>   0.2840 
 16 C        8.0980     0.8450    -0.1800 C.ar  1 <1>  -0.1440 
 17 C        9.2110     0.5520     0.5810 C.ar  1 <1>  -0.1500 
 18 C        8.0780     0.3190    -1.4560 C.ar  1 <1>  -0.1500 
 19 C       10.2230    -0.2250     0.0410 C.ar  1 <1>   0.1600 
 20 C        9.1400    -0.4490    -1.8980 C.ar  1 <1>   0.1600 
 21 N       10.2200    -0.7300    -1.1820 N.ar  1 <1>  -0.6200 
 22 H        1.9290     0.3340    -0.7350 H     1 <1>   0.0800 
 23 H        2.5620     1.1040     1.1920 H     1 <1>   0.0800 
 24 H        2.6750    -1.8870    -1.6820 H     1 <1>   0.0800 
 25 H        3.3500    -0.5250     2.8510 H     1 <1>   0.0800 
 26 H        4.9600    -1.9010    -0.6170 H     1 <1>   0.0800 
 27 H        4.0390    -3.3040    -0.1920 H     1 <1>   0.0800 
 28 H        1.5780    -3.0890     0.2410 H     1 <1>   0.0800 
 29 H        0.7120    -1.6480    -0.2000 H     1 <1>   0.0800 
 30 H        5.5630     0.3940    -0.5510 H     1 <1>   0.3700 
 31 H        4.1160    -2.7710     2.0170 H     1 <1>   0.0800 
 32 H        5.2450    -1.5210     1.6060 H     1 <1>   0.0800 
 33 H        1.0470    -0.7340     1.8610 H     1 <1>   0.0800 
 34 H        1.6820    -2.2720     2.3660 H     1 <1>   0.0800 
 35 H        7.1590     2.0440     1.3410 H     1 <1>   0.0800 
 36 H        6.8090     2.5470    -0.2980 H     1 <1>   0.0800 
 37 H        9.2960     0.9170     1.5880 H     1 <1>   0.1500 
 38 H        7.2360     0.4950    -2.1070 H     1 <1>   0.1500 
 39 H       11.0830    -0.4430     0.6510 H     1 <1>   0.1500 
 40 H        9.0940    -0.8520    -2.8950 H     1 <1>   0.1500 
@<TRIPOS>BOND
  1   1   2  ar  
  2   2   3  ar  
  3   2   4  1   
  4   4   5  1   
  5   4   6  1   
  6   4  22  1   
  7   5   7  1   
  8   5   8  1   
  9   5  23  1   
 10   6   9  1   
 11   6  10  1   
 12   6  24  1   
 13   7  11  2   
 14   7  12  am  
 15   8  13  1   
 16   8  14  1   
 17   8  25  1   
 18   9  13  1   
 19   9  26  1   
 20   9  27  1   
 21  10  14  1   
 22  10  28  1   
 23  10  29  1   
 24  12  15  1   
 25  12  30  1   
 26  13  31  1   
 27  13  32  1   
 28  14  33  1   
 29  14  34  1   
 30  15  16  1   
 31  15  35  1   
 32  15  36  1   
 33  16  17  ar  
 34  16  18  ar  
 35  17  19  ar  
 36  17  37  1   
 37  18  20  ar  
 38  18  38  1   
 39  19  21  ar  
 40  19  39  1   
 41  20  21  ar  
 42  20  40  1   
@<TRIPOS>SUBSTRUCTURE
  1 ****  12 GROUP 4 **** **** 0

# MOE 2024.06 (io_trps.svl 2023.06)
