@<TRIPOS>MOLECULE
NONAME
46 49 1 0 0 
SMALL
USER_CHARGES


@<TRIPOS>ATOM
  1 BR       1.5590    -1.7970    -0.8230 Br    1 <1>  -0.1110 
  2 C       -0.2070    -2.3260    -1.3870 C.ar  1 <1>   0.1110 
  3 C       -0.6810    -1.9660    -2.6360 C.ar  1 <1>   0.1900 
  4 C       -0.9870    -3.0690    -0.5200 C.ar  1 <1>  -0.1500 
  5 F        0.0650    -1.2620    -3.4460 F     1 <1>  -0.1900 
  6 C       -1.9460    -2.3420    -3.0460 C.ar  1 <1>  -0.1500 
  7 C       -2.2630    -3.4510    -0.9190 C.ar  1 <1>  -0.1440 
  8 C       -2.7330    -3.0860    -2.1780 C.ar  1 <1>  -0.1500 
  9 C       -3.1490    -4.2660     0.0130 C.3   1 <1>   0.2540 
 10 N       -4.3590    -3.5030     0.3760 N.3   1 <1>  -0.8100 
 11 C       -5.3240    -4.3400     1.1280 C.3   1 <1>   0.1100 
 12 C       -4.0410    -2.2640     1.1310 C.3   1 <1>   0.1100 
 13 C       -6.6080    -3.5630     1.5130 C.3   1 <1>   0.3430 
 14 C       -5.3100    -1.4560     1.5040 C.3   1 <1>   0.3430 
 15 N       -6.5490    -2.1450     1.0200 N.4   1 <1>  -0.9590 
 16 C       -7.8000    -1.3740     1.2300 C.3   1 <1>   0.4860 
 17 C       -8.9400    -2.1020     0.5450 C.ar  1 <1>  -0.1430 
 18 C       -8.9980    -2.1470    -0.8460 C.ar  1 <1>  -0.1500 
 19 C       -9.9260    -2.7340     1.3060 C.ar  1 <1>  -0.1500 
 20 C      -10.0380    -2.8390    -1.4320 C.ar  1 <1>   0.0830 
 21 C      -10.9660    -3.4240     0.6950 C.ar  1 <1>  -0.1500 
 22 O      -10.2820    -3.0160    -2.7330 O.3   1 <1>  -0.3630 
 23 C      -10.9940    -3.4610    -0.6840 C.ar  1 <1>   0.0830 
 24 C      -11.4800    -3.7880    -2.8230 C.3   1 <1>   0.4000 
 25 O      -11.8840    -4.0580    -1.4810 O.3   1 <1>  -0.3620 
 26 H       -0.5940    -3.3390     0.4440 H     1 <1>   0.1500 
 27 H       -2.3030    -2.0590    -4.0200 H     1 <1>   0.1500 
 28 H       -3.7210    -3.3850    -2.4840 H     1 <1>   0.1500 
 29 H       -2.6050    -4.5420     0.9010 H     1 <1>   0.0800 
 30 H       -3.4350    -5.1710    -0.4970 H     1 <1>   0.0800 
 31 H       -4.8620    -4.7200     2.0240 H     1 <1>   0.0800 
 32 H       -5.6050    -5.1880     0.5260 H     1 <1>   0.0800 
 33 H       -3.4030    -1.6300     0.5380 H     1 <1>   0.0800 
 34 H       -3.5020    -2.5100     2.0310 H     1 <1>   0.0800 
 35 H       -6.7270    -3.5790     2.5830 H     1 <1>   0.0800 
 36 H       -7.4580    -4.0670     1.0820 H     1 <1>   0.0800 
 37 H       -5.2380    -0.4760     1.0610 H     1 <1>   0.0800 
 38 H       -5.3480    -1.3320     2.5730 H     1 <1>   0.0800 
 39 H       -6.4000    -2.2590     0.0070 H     1 <1>   0.4500 
 40 H       -7.7030    -0.3870     0.8080 H     1 <1>   0.0800 
 41 H       -8.0060    -1.2770     2.2840 H     1 <1>   0.0800 
 42 H       -8.2710    -1.6660    -1.4770 H     1 <1>   0.1500 
 43 H       -9.8990    -2.6980     2.3830 H     1 <1>   0.1500 
 44 H      -11.7360    -3.9170     1.2620 H     1 <1>   0.1500 
 45 H      -11.2790    -4.7120    -3.3340 H     1 <1>   0.0800 
 46 H      -12.2420    -3.2150    -3.3210 H     1 <1>   0.0800 
@<TRIPOS>BOND
  1   1   2  1   
  2   2   3  ar  
  3   2   4  ar  
  4   3   5  1   
  5   3   6  ar  
  6   4   7  ar  
  7   4  26  1   
  8   6   8  ar  
  9   6  27  1   
 10   7   8  ar  
 11   7   9  1   
 12   8  28  1   
 13   9  10  1   
 14   9  29  1   
 15   9  30  1   
 16  10  11  1   
 17  10  12  1   
 18  11  13  1   
 19  11  31  1   
 20  11  32  1   
 21  12  14  1   
 22  12  33  1   
 23  12  34  1   
 24  13  15  1   
 25  13  35  1   
 26  13  36  1   
 27  14  15  1   
 28  14  37  1   
 29  14  38  1   
 30  15  16  1   
 31  15  39  1   
 32  16  17  1   
 33  16  40  1   
 34  16  41  1   
 35  17  18  ar  
 36  17  19  ar  
 37  18  20  ar  
 38  18  42  1   
 39  19  21  ar  
 40  19  43  1   
 41  20  22  1   
 42  20  23  ar  
 43  21  23  ar  
 44  21  44  1   
 45  22  24  1   
 46  23  25  1   
 47  24  25  1   
 48  24  45  1   
 49  24  46  1   
@<TRIPOS>SUBSTRUCTURE
  1 ****  10 GROUP 4 **** **** 0

# MOE 2024.06 (io_trps.svl 2023.06)
