@<TRIPOS>MOLECULE
NONAME
35 35 1 0 0 
SMALL
USER_CHARGES


@<TRIPOS>ATOM
  1 O       -1.3600    -0.9520     2.6380 O.co2 1 <1>  -0.9000 
  2 C       -0.5980    -1.1990     1.6990 C.2   1 <1>   0.9060 
  3 O        0.3710    -0.4790     1.4340 O.co2 1 <1>  -0.9000 
  4 C       -0.8030    -2.4560     0.8860 C.3   1 <1>  -0.2660 
  5 C       -1.5130    -2.3080    -0.4860 C.3   1 <1>   0.1440 
  6 C       -3.0530    -2.4010    -0.3350 C.ar  1 <1>  -0.1440 
  7 C       -1.1640    -0.9820    -1.1830 C.3   1 <1>  -0.2400 
  8 C       -0.9620    -3.4300    -1.3890 C.3   1 <1>  -0.2400 
  9 C       -3.8330    -3.3680    -0.9670 C.ar  1 <1>  -0.1500 
 10 C       -3.7170    -1.4780     0.4630 C.ar  1 <1>  -0.1500 
 11 C       -5.2080    -3.4030    -0.8100 C.ar  1 <1>  -0.1500 
 12 C       -5.0910    -1.5110     0.6250 C.ar  1 <1>  -0.1500 
 13 C       -5.8560    -2.4750    -0.0120 C.ar  1 <1>  -0.1430 
 14 C       -7.3730    -2.5280     0.1540 C.3   1 <1>   0.0630 
 15 C       -8.0250    -1.2440    -0.3680 C.3   1 <1>  -0.2400 
 16 C       -7.7530    -2.7760     1.6170 C.3   1 <1>  -0.2400 
 17 H       -1.3460    -3.1550     1.4940 H     1 <1>   0.0800 
 18 H        0.1820    -2.8560     0.7470 H     1 <1>   0.0800 
 19 H       -0.0980    -0.8840    -1.2890 H     1 <1>   0.0800 
 20 H       -1.5140    -0.1430    -0.6100 H     1 <1>   0.0800 
 21 H       -1.6200    -0.9370    -2.1550 H     1 <1>   0.0800 
 22 H        0.1030    -3.3310    -1.5000 H     1 <1>   0.0800 
 23 H       -1.4000    -3.3800    -2.3690 H     1 <1>   0.0800 
 24 H       -1.1660    -4.3920    -0.9550 H     1 <1>   0.0800 
 25 H       -3.3930    -4.1160    -1.5950 H     1 <1>   0.1500 
 26 H       -3.1630    -0.7140     0.9800 H     1 <1>   0.1500 
 27 H       -5.7710    -4.1650    -1.3160 H     1 <1>   0.1500 
 28 H       -5.5510    -0.7760     1.2590 H     1 <1>   0.1500 
 29 H       -7.7540    -3.3500    -0.4280 H     1 <1>   0.0800 
 30 H       -7.7120    -0.3950     0.2120 H     1 <1>   0.0800 
 31 H       -9.0960    -1.3210    -0.3180 H     1 <1>   0.0800 
 32 H       -7.7380    -1.0810    -1.3920 H     1 <1>   0.0800 
 33 H       -7.4340    -1.9590     2.2370 H     1 <1>   0.0800 
 34 H       -7.2780    -3.6750     1.9680 H     1 <1>   0.0800 
 35 H       -8.8180    -2.8890     1.7130 H     1 <1>   0.0800 
@<TRIPOS>BOND
  1   1   2  ar  
  2   2   3  ar  
  3   2   4  1   
  4   4   5  1   
  5   4  17  1   
  6   4  18  1   
  7   5   6  1   
  8   5   7  1   
  9   5   8  1   
 10   6   9  ar  
 11   6  10  ar  
 12   7  19  1   
 13   7  20  1   
 14   7  21  1   
 15   8  22  1   
 16   8  23  1   
 17   8  24  1   
 18   9  11  ar  
 19   9  25  1   
 20  10  12  ar  
 21  10  26  1   
 22  11  13  ar  
 23  11  27  1   
 24  12  13  ar  
 25  12  28  1   
 26  13  14  1   
 27  14  15  1   
 28  14  16  1   
 29  14  29  1   
 30  15  30  1   
 31  15  31  1   
 32  15  32  1   
 33  16  33  1   
 34  16  34  1   
 35  16  35  1   
@<TRIPOS>SUBSTRUCTURE
  1 ****  10 GROUP 4 **** **** 0

# MOE 2024.06 (io_trps.svl 2023.06)
