@<TRIPOS>MOLECULE
NONAME
50 52 1 0 0 
SMALL
USER_CHARGES


@<TRIPOS>ATOM
  1 O       -0.4620     5.2160    -0.7850 O.3   1 <1>  -0.5600 
  2 C       -0.4910     4.2720     0.2430 C.3   1 <1>   0.1200 
  3 C        0.4560     6.2610    -0.6000 C.3   1 <1>   0.1200 
  4 C        0.8780     3.5680     0.3900 C.3   1 <1>   0.1100 
  5 C        1.7370     5.8300     0.1540 C.3   1 <1>   0.1100 
  6 N        2.0290     4.3970    -0.0520 N.3   1 <1>  -0.8100 
  7 C        3.3020     3.9460     0.5110 C.3   1 <1>   0.1100 
  8 C        4.4330     4.2920    -0.4660 C.3   1 <1>   0.3430 
  9 N        5.7420     3.7730     0.0110 N.4   1 <1>  -0.9060 
 10 C        6.8430     3.9850    -0.9470 C.3   1 <1>   0.4860 
 11 C        8.0700     3.3410    -0.3410 C.ar  1 <1>  -0.1440 
 12 C        8.0940     1.9690    -0.2480 C.ar  1 <1>   0.0820 
 13 C        9.1550     4.1300     0.1170 C.ar  1 <1>   0.0000 
 14 O        7.0040     1.2790    -0.6770 O.3   1 <1>  -0.3630 
 15 C        9.2160     1.3210     0.2980 C.ar  1 <1>  -0.1500 
 16 C       10.2750     3.4640     0.6670 C.ar  1 <1>   0.0000 
 17 C        9.1980     5.5460     0.0650 C.ar  1 <1>  -0.1500 
 18 C        7.0590    -0.1100    -0.9240 C.3   1 <1>   0.1200 
 19 C       10.2750     2.0580     0.7400 C.ar  1 <1>  -0.1500 
 20 C       11.3690     4.2180     1.1360 C.ar  1 <1>  -0.1500 
 21 C       10.2730     6.2520     0.5290 C.ar  1 <1>  -0.1500 
 22 C        5.7400    -0.5260    -1.5690 C.3   1 <1>  -0.2400 
 23 C       11.3720     5.5820     1.0710 C.ar  1 <1>  -0.1500 
 24 H       -1.2580     3.5540     0.0140 H     1 <1>   0.0800 
 25 H       -0.7580     4.7770     1.1550 H     1 <1>   0.0800 
 26 H       -0.0410     7.0530    -0.0680 H     1 <1>   0.0800 
 27 H        0.7140     6.6240    -1.5790 H     1 <1>   0.0800 
 28 H        0.8620     2.6650    -0.1960 H     1 <1>   0.0800 
 29 H        0.9960     3.2830     1.4220 H     1 <1>   0.0800 
 30 H        1.6010     6.0220     1.2050 H     1 <1>   0.0800 
 31 H        2.5560     6.4380    -0.1870 H     1 <1>   0.0800 
 32 H        3.2710     2.8760     0.6300 H     1 <1>   0.0800 
 33 H        3.4610     4.4040     1.4720 H     1 <1>   0.0800 
 34 H        4.4810     5.3620    -0.5810 H     1 <1>   0.0800 
 35 H        4.1950     3.8560    -1.4230 H     1 <1>   0.0800 
 36 H        5.7070     2.7480     0.1330 H     1 <1>   0.4500 
 37 H        6.0150     4.1680     0.9170 H     1 <1>   0.4500 
 38 H        6.9930     5.0330    -1.1340 H     1 <1>   0.0800 
 39 H        6.6160     3.4990    -1.8830 H     1 <1>   0.0800 
 40 H        9.2530     0.2510     0.3780 H     1 <1>   0.1500 
 41 H        8.3800     6.1050    -0.3440 H     1 <1>   0.1500 
 42 H        7.2000    -0.6240     0.0120 H     1 <1>   0.0800 
 43 H        7.8850    -0.3110    -1.5860 H     1 <1>   0.0800 
 44 H       11.1380     1.5690     1.1580 H     1 <1>   0.1500 
 45 H       12.2140     3.6980     1.5510 H     1 <1>   0.1500 
 46 H       10.2960     7.3280     0.4840 H     1 <1>   0.1500 
 47 H        4.9170    -0.3250    -0.9080 H     1 <1>   0.0800 
 48 H        5.7580    -1.5820    -1.7750 H     1 <1>   0.0800 
 49 H        5.5980    -0.0050    -2.4990 H     1 <1>   0.0800 
 50 H       12.2120     6.1530     1.4310 H     1 <1>   0.1500 
@<TRIPOS>BOND
  1   1   2  1   
  2   1   3  1   
  3   2   4  1   
  4   2  24  1   
  5   2  25  1   
  6   3   5  1   
  7   3  26  1   
  8   3  27  1   
  9   4   6  1   
 10   4  28  1   
 11   4  29  1   
 12   5   6  1   
 13   5  30  1   
 14   5  31  1   
 15   6   7  1   
 16   7   8  1   
 17   7  32  1   
 18   7  33  1   
 19   8   9  1   
 20   8  34  1   
 21   8  35  1   
 22   9  10  1   
 23   9  36  1   
 24   9  37  1   
 25  10  11  1   
 26  10  38  1   
 27  10  39  1   
 28  11  12  ar  
 29  11  13  ar  
 30  12  14  1   
 31  12  15  ar  
 32  13  16  ar  
 33  13  17  ar  
 34  14  18  1   
 35  15  19  ar  
 36  15  40  1   
 37  16  19  ar  
 38  16  20  ar  
 39  17  21  ar  
 40  17  41  1   
 41  18  22  1   
 42  18  42  1   
 43  18  43  1   
 44  19  44  1   
 45  20  23  ar  
 46  20  45  1   
 47  21  23  ar  
 48  21  46  1   
 49  22  47  1   
 50  22  48  1   
 51  22  49  1   
 52  23  50  1   
@<TRIPOS>SUBSTRUCTURE
  1 ****   9 GROUP 4 **** **** 0

# MOE 2024.06 (io_trps.svl 2023.06)
