@<TRIPOS>MOLECULE
NONAME
45 47 1 0 0 
SMALL
USER_CHARGES


@<TRIPOS>ATOM
  1 O       -0.9380     0.0300    -0.1950 O.2   1 <1>  -0.5700 
  2 C       -1.1930    -0.9640     0.4530 C.2   1 <1>   0.6900 
  3 N       -0.3320    -2.0190     0.5160 N.am  1 <1>  -0.5470 
  4 N       -2.3570    -1.0850     1.1420 N.am  1 <1>  -0.7300 
  5 C        0.9880    -2.1480     0.0610 C.ar  1 <1>   0.1170 
  6 C       -3.4970    -0.1390     1.1810 C.3   1 <1>   0.2200 
  7 C        1.8540    -1.0670    -0.0560 C.ar  1 <1>  -0.1500 
  8 C        1.4630    -3.4130    -0.2660 C.ar  1 <1>  -0.1500 
  9 C       -4.0860     0.0930    -0.2290 C.3   1 <1>  -0.0800 
 10 C       -3.0570     1.1550     1.8680 C.3   1 <1>  -0.2400 
 11 C        3.1580    -1.2350    -0.4870 C.ar  1 <1>   0.0830 
 12 C        2.7640    -3.5940    -0.6990 C.ar  1 <1>  -0.1500 
 13 C       -5.3210     1.0210    -0.3230 C.3   1 <1>  -0.0800 
 14 C       -4.5840    -1.1930    -0.9240 C.3   1 <1>  -0.1600 
 15 O        3.9270    -0.1180    -0.5650 O.3   1 <1>  -0.3630 
 16 C        3.6150    -2.5090    -0.8110 C.ar  1 <1>  -0.1500 
 17 C       -5.8430     0.6570    -1.7030 C.3   1 <1>  -0.1600 
 18 C       -6.4740     0.5110     0.5600 C.3   1 <1>  -0.1600 
 19 C       -6.0010    -0.8210    -1.3910 C.3   1 <1>  -0.0800 
 20 C        5.2490    -0.1700    -1.0510 C.3   1 <1>   0.0400 
 21 C       -6.9170    -0.7770    -0.1560 C.3   1 <1>  -0.1600 
 22 H       -0.7630    -2.8760     0.8390 H     1 <1>   0.3700 
 23 H       -2.4210    -1.8310     1.8280 H     1 <1>   0.3700 
 24 H       -4.2550    -0.5950     1.7910 H     1 <1>   0.0800 
 25 H        1.5170    -0.0770     0.1920 H     1 <1>   0.1500 
 26 H        0.8110    -4.2630    -0.1860 H     1 <1>   0.1500 
 27 H       -3.3210     0.5360    -0.8430 H     1 <1>   0.0800 
 28 H       -2.3460     1.6830     1.2590 H     1 <1>   0.0800 
 29 H       -2.6130     0.9380     2.8220 H     1 <1>   0.0800 
 30 H       -3.9040     1.7960     2.0270 H     1 <1>   0.0800 
 31 H        3.1160    -4.5800    -0.9510 H     1 <1>   0.1500 
 32 H       -5.0940     2.0660    -0.1940 H     1 <1>   0.0800 
 33 H       -4.5970    -2.0450    -0.2660 H     1 <1>   0.0800 
 34 H       -3.9540    -1.4160    -1.7680 H     1 <1>   0.0800 
 35 H        4.6210    -2.6730    -1.1490 H     1 <1>   0.1500 
 36 H       -5.1260     0.8430    -2.4860 H     1 <1>   0.0800 
 37 H       -6.7790     1.1360    -1.9380 H     1 <1>   0.0800 
 38 H       -7.2800     1.2250     0.5520 H     1 <1>   0.0800 
 39 H       -6.1870     0.3370     1.5810 H     1 <1>   0.0800 
 40 H       -6.3750    -1.4290    -2.1970 H     1 <1>   0.0800 
 41 H        5.6450     0.8290    -1.0440 H     1 <1>   0.0800 
 42 H        5.2350    -0.5510    -2.0570 H     1 <1>   0.0800 
 43 H        5.8340    -0.8000    -0.4050 H     1 <1>   0.0800 
 44 H       -7.9470    -0.6990    -0.4580 H     1 <1>   0.0800 
 45 H       -6.7960    -1.6470     0.4650 H     1 <1>   0.0800 
@<TRIPOS>BOND
  1   1   2  2   
  2   2   3  am  
  3   2   4  am  
  4   3   5  1   
  5   3  22  1   
  6   4   6  1   
  7   4  23  1   
  8   5   7  ar  
  9   5   8  ar  
 10   6   9  1   
 11   6  10  1   
 12   6  24  1   
 13   7  11  ar  
 14   7  25  1   
 15   8  12  ar  
 16   8  26  1   
 17   9  13  1   
 18   9  14  1   
 19   9  27  1   
 20  10  28  1   
 21  10  29  1   
 22  10  30  1   
 23  11  15  1   
 24  11  16  ar  
 25  12  16  ar  
 26  12  31  1   
 27  13  17  1   
 28  13  18  1   
 29  13  32  1   
 30  14  19  1   
 31  14  33  1   
 32  14  34  1   
 33  15  20  1   
 34  16  35  1   
 35  17  19  1   
 36  17  36  1   
 37  17  37  1   
 38  18  21  1   
 39  18  38  1   
 40  18  39  1   
 41  19  21  1   
 42  19  40  1   
 43  20  41  1   
 44  20  42  1   
 45  20  43  1   
 46  21  44  1   
 47  21  45  1   
@<TRIPOS>SUBSTRUCTURE
  1 ****   2 GROUP 4 **** **** 0

# MOE 2024.06 (io_trps.svl 2023.06)
