@<TRIPOS>MOLECULE
NONAME
52 53 1 0 0 
SMALL
USER_CHARGES


@<TRIPOS>ATOM
  1 N       -0.1430     0.0010    -0.1840 N.3   1 <1>  -0.8100 
  2 C       -0.6420    -0.0050    -1.5840 C.3   1 <1>   0.1100 
  3 C       -1.1780    -0.5380     0.7290 C.3   1 <1>   0.1100 
  4 C        1.1220    -0.7480    -0.0360 C.3   1 <1>   0.1100 
  5 C       -2.0210     0.6850    -1.7290 C.3   1 <1>   0.3430 
  6 C       -2.5090     0.2490     0.6420 C.3   1 <1>   0.3430 
  7 C        2.3130     0.0220    -0.6210 C.3   1 <1>  -0.0220 
  8 N       -2.4570     1.2980    -0.4330 N.4   1 <1>  -0.9590 
  9 C        3.6210    -0.7400    -0.3670 C.2   1 <1>  -0.2760 
 10 C       -3.6830     2.1220    -0.5630 C.3   1 <1>   0.3430 
 11 C        3.9430    -1.8470    -1.0650 C.2   1 <1>  -0.2760 
 12 C        4.5250    -0.1600     0.7510 C.3   1 <1>   0.1380 
 13 C       -3.8490     2.9990     0.6720 C.3   1 <1>  -0.2400 
 14 C        5.1880    -2.6820    -0.7880 C.3   1 <1>  -0.0220 
 15 C        3.1490    -2.4550    -2.2200 C.3   1 <1>  -0.1020 
 16 C        5.8910    -0.8850     0.7920 C.3   1 <1>  -0.1600 
 17 C        3.8280    -0.3140     2.1110 C.3   1 <1>  -0.2400 
 18 C        4.8440     1.3300     0.5220 C.3   1 <1>  -0.2400 
 19 C        5.7690    -2.3950     0.5950 C.3   1 <1>  -0.1600 
 20 H       -0.7160    -1.0180    -1.9430 H     1 <1>   0.0800 
 21 H        0.0600     0.5100    -2.2160 H     1 <1>   0.0800 
 22 H       -0.8190    -0.4940     1.7430 H     1 <1>   0.0800 
 23 H       -1.3630    -1.5740     0.4980 H     1 <1>   0.0800 
 24 H        1.0410    -1.7160    -0.4980 H     1 <1>   0.0800 
 25 H        1.3170    -0.9080     1.0100 H     1 <1>   0.0800 
 26 H       -2.7470    -0.0420    -2.0540 H     1 <1>   0.0800 
 27 H       -1.9510     1.4430    -2.4920 H     1 <1>   0.0800 
 28 H       -2.6940     0.7140     1.5960 H     1 <1>   0.0800 
 29 H       -3.3160    -0.4390     0.4510 H     1 <1>   0.0800 
 30 H        2.3220     1.0000    -0.1840 H     1 <1>   0.0800 
 31 H        2.1920     0.1570    -1.6780 H     1 <1>   0.0800 
 32 H       -1.6560     1.8890    -0.1600 H     1 <1>   0.4500 
 33 H       -4.5470     1.4890    -0.6880 H     1 <1>   0.0800 
 34 H       -3.6000     2.7570    -1.4310 H     1 <1>   0.0800 
 35 H       -4.0370     2.4100     1.5510 H     1 <1>   0.0800 
 36 H       -4.6930     3.6500     0.5300 H     1 <1>   0.0800 
 37 H       -2.9790     3.6130     0.8250 H     1 <1>   0.0800 
 38 H        5.9250    -2.4720    -1.5440 H     1 <1>   0.0800 
 39 H        4.9520    -3.7310    -0.8390 H     1 <1>   0.0800 
 40 H        3.7770    -2.5300    -3.0900 H     1 <1>   0.0800 
 41 H        2.2890    -1.8760    -2.4910 H     1 <1>   0.0800 
 42 H        2.8150    -3.4420    -1.9540 H     1 <1>   0.0800 
 43 H        6.3920    -0.6820     1.7220 H     1 <1>   0.0800 
 44 H        6.5170    -0.5040     0.0040 H     1 <1>   0.0800 
 45 H        4.4780    -0.0010     2.9090 H     1 <1>   0.0800 
 46 H        2.9390     0.2880     2.1540 H     1 <1>   0.0800 
 47 H        3.5530    -1.3390     2.2750 H     1 <1>   0.0800 
 48 H        5.1740     1.4820    -0.4910 H     1 <1>   0.0800 
 49 H        5.6260     1.6520     1.1860 H     1 <1>   0.0800 
 50 H        3.9950     1.9600     0.7050 H     1 <1>   0.0800 
 51 H        6.7370    -2.8570     0.6820 H     1 <1>   0.0800 
 52 H        5.1290    -2.8150     1.3490 H     1 <1>   0.0800 
@<TRIPOS>BOND
  1   1   2  1   
  2   1   3  1   
  3   1   4  1   
  4   2   5  1   
  5   2  20  1   
  6   2  21  1   
  7   3   6  1   
  8   3  22  1   
  9   3  23  1   
 10   4   7  1   
 11   4  24  1   
 12   4  25  1   
 13   5   8  1   
 14   5  26  1   
 15   5  27  1   
 16   6   8  1   
 17   6  28  1   
 18   6  29  1   
 19   7   9  1   
 20   7  30  1   
 21   7  31  1   
 22   8  10  1   
 23   8  32  1   
 24   9  11  2   
 25   9  12  1   
 26  10  13  1   
 27  10  33  1   
 28  10  34  1   
 29  11  14  1   
 30  11  15  1   
 31  12  16  1   
 32  12  17  1   
 33  12  18  1   
 34  13  35  1   
 35  13  36  1   
 36  13  37  1   
 37  14  19  1   
 38  14  38  1   
 39  14  39  1   
 40  15  40  1   
 41  15  41  1   
 42  15  42  1   
 43  16  19  1   
 44  16  43  1   
 45  16  44  1   
 46  17  45  1   
 47  17  46  1   
 48  17  47  1   
 49  18  48  1   
 50  18  49  1   
 51  18  50  1   
 52  19  51  1   
 53  19  52  1   
@<TRIPOS>SUBSTRUCTURE
  1 ****   4 GROUP 4 **** **** 0

# MOE 2024.06 (io_trps.svl 2023.06)
