@<TRIPOS>MOLECULE
NONAME
36 37 1 0 0 
SMALL
USER_CHARGES


@<TRIPOS>ATOM
  1 S       -0.8690    -0.1200     0.3060 S.3   1 <1>  -0.3320 
  2 C       -1.3190     1.5780     0.7320 C.ar  1 <1>   0.1020 
  3 C        0.8800    -0.1010    -0.2840 C.3   1 <1>   0.0700 
  4 C       -2.5460     1.8080     1.3610 C.ar  1 <1>   0.0860 
  5 C       -0.4550     2.6210     0.4340 C.ar  1 <1>  -0.1500 
  6 C        1.3030    -1.5480    -0.5400 C.3   1 <1>  -0.1600 
  7 C       -3.4810     0.7520     1.6810 C.2   1 <1>   0.5440 
  8 C       -2.8630     3.1260     1.6890 C.ar  1 <1>  -0.1500 
  9 C       -0.8000     3.9190     0.7650 C.ar  1 <1>  -0.1500 
 10 C        2.7500    -1.6250    -1.0370 C.3   1 <1>  -0.2400 
 11 O       -3.5880     0.3710     2.8320 O.2   1 <1>  -0.5700 
 12 N       -4.3040     0.2070     0.7230 N.am  1 <1>  -0.6600 
 13 C       -2.0060     4.1710     1.3960 C.ar  1 <1>  -0.1500 
 14 C       -5.2010    -0.9330     0.9980 C.3   1 <1>   0.1400 
 15 C       -4.3050     0.5600    -0.7120 C.3   1 <1>   0.1400 
 16 C       -5.9650    -1.1480    -0.3040 C.3   1 <1>  -0.1600 
 17 C       -5.0450    -0.5890    -1.3880 C.3   1 <1>  -0.1600 
 18 H        1.4760     0.3530     0.4890 H     1 <1>   0.0800 
 19 H        0.9120     0.4840    -1.1860 H     1 <1>   0.0800 
 20 H        0.4840     2.4490    -0.0540 H     1 <1>   0.1500 
 21 H        0.6490    -1.9840    -1.2750 H     1 <1>   0.0800 
 22 H        1.2070    -2.1110     0.3720 H     1 <1>   0.0800 
 23 H       -3.7980     3.3220     2.1860 H     1 <1>   0.1500 
 24 H       -0.1330     4.7330     0.5370 H     1 <1>   0.1500 
 25 H        2.8620    -1.0830    -1.9590 H     1 <1>   0.0800 
 26 H        3.0240    -2.6520    -1.2080 H     1 <1>   0.0800 
 27 H        3.4220    -1.2110    -0.3050 H     1 <1>   0.0800 
 28 H       -2.2750     5.1790     1.6600 H     1 <1>   0.1500 
 29 H       -5.8600    -0.7110     1.8200 H     1 <1>   0.0800 
 30 H       -4.6030    -1.7960     1.2380 H     1 <1>   0.0800 
 31 H       -3.3040     0.6590    -1.0950 H     1 <1>   0.0800 
 32 H       -4.8410     1.4840    -0.8450 H     1 <1>   0.0800 
 33 H       -6.8780    -0.5800    -0.2690 H     1 <1>   0.0800 
 34 H       -6.2010    -2.1850    -0.4600 H     1 <1>   0.0800 
 35 H       -4.3290    -1.3370    -1.6790 H     1 <1>   0.0800 
 36 H       -5.5850    -0.2610    -2.2580 H     1 <1>   0.0800 
@<TRIPOS>BOND
  1   1   2  1   
  2   1   3  1   
  3   2   4  ar  
  4   2   5  ar  
  5   3   6  1   
  6   3  18  1   
  7   3  19  1   
  8   4   7  1   
  9   4   8  ar  
 10   5   9  ar  
 11   5  20  1   
 12   6  10  1   
 13   6  21  1   
 14   6  22  1   
 15   7  11  2   
 16   7  12  am  
 17   8  13  ar  
 18   8  23  1   
 19   9  13  ar  
 20   9  24  1   
 21  10  25  1   
 22  10  26  1   
 23  10  27  1   
 24  12  14  1   
 25  12  15  1   
 26  13  28  1   
 27  14  16  1   
 28  14  29  1   
 29  14  30  1   
 30  15  17  1   
 31  15  31  1   
 32  15  32  1   
 33  16  17  1   
 34  16  33  1   
 35  16  34  1   
 36  17  35  1   
 37  17  36  1   
@<TRIPOS>SUBSTRUCTURE
  1 ****   2 GROUP 4 **** **** 0

# MOE 2024.06 (io_trps.svl 2023.06)
