@<TRIPOS>MOLECULE
NONAME
42 45 1 0 0 
SMALL
USER_CHARGES


@<TRIPOS>ATOM
  1 CL      -0.1390     0.0380     0.4180 Cl    1 <1>  -0.1230 
  2 C        0.4280     1.6880     0.2030 C.2   1 <1>   0.1230 
  3 C        1.7290     2.0580     0.1200 C.2   1 <1>  -0.0260 
  4 C       -0.3560     2.8330     0.1020 C.2   1 <1>   0.2030 
  5 N        2.8920     1.3220     0.1630 N.2   1 <1>  -0.5760 
  6 N        1.6920     3.4240    -0.0240 N.pl3 1 <1>   0.6010 
  7 N        0.4330     3.8950    -0.0390 N.2   1 <1>  -0.7070 
  8 C       -1.8140     2.8470     0.1460 C.2   1 <1>   0.7160 
  9 C        4.0300     1.9550     0.0620 C.2   1 <1>   0.5210 
 10 C        2.8820     4.1050    -0.1330 C.2   1 <1>  -0.1690 
 11 O       -2.4270     3.7870     0.6210 O.2   1 <1>  -0.5700 
 12 N       -2.5460     1.8000    -0.3440 N.am  1 <1>  -0.7300 
 13 C        5.2910     1.2430     0.0990 C.2   1 <1>   0.0550 
 14 C        4.0370     3.3810    -0.0900 C.2   1 <1>  -0.1360 
 15 C        2.7700     5.6060    -0.2890 C.3   1 <1>   1.1580 
 16 C       -4.0190     1.6430    -0.2780 C.3   1 <1>   0.1400 
 17 O        5.3140    -0.0820     0.2260 O.3   1 <1>  -0.2800 
 18 C        6.5830     1.6790     0.0260 C.2   1 <1>  -0.1500 
 19 F        2.1200     5.9720    -1.3850 F     1 <1>  -0.3400 
 20 F        3.9720     6.1610    -0.3860 F     1 <1>  -0.3400 
 21 F        2.1850     6.1990     0.7410 F     1 <1>  -0.3400 
 22 C       -4.3690     0.2400     0.2410 C.3   1 <1>   0.2000 
 23 C        6.5610    -0.4950     0.2350 C.2   1 <1>  -0.0100 
 24 C        7.4020     0.5520     0.1140 C.2   1 <1>  -0.1500 
 25 O       -3.6550    -0.7240    -0.4670 O.3   1 <1>  -0.5600 
 26 C       -5.8250    -0.1600     0.0540 C.3   1 <1>  -0.1600 
 27 C       -4.2830    -1.9620    -0.3570 C.3   1 <1>   0.1200 
 28 C       -5.7480    -1.6760    -0.0300 C.3   1 <1>  -0.1600 
 29 H       -2.0750     0.9360    -0.6340 H     1 <1>   0.3700 
 30 H        4.9960     3.8580    -0.1700 H     1 <1>   0.1500 
 31 H       -4.4280     1.7760    -1.2640 H     1 <1>   0.0800 
 32 H       -4.4500     2.3880     0.3690 H     1 <1>   0.0800 
 33 H        6.9560     2.6820    -0.0780 H     1 <1>   0.1500 
 34 H       -4.0920     0.1520     1.2780 H     1 <1>   0.0800 
 35 H        6.7600    -1.5480     0.3310 H     1 <1>   0.1500 
 36 H        8.4770     0.5470     0.0890 H     1 <1>   0.1500 
 37 H       -6.2010     0.2410    -0.8720 H     1 <1>   0.0800 
 38 H       -6.4420     0.1810     0.8670 H     1 <1>   0.0800 
 39 H       -3.8040    -2.5130     0.4350 H     1 <1>   0.0800 
 40 H       -4.1690    -2.4840    -1.2910 H     1 <1>   0.0800 
 41 H       -6.4010    -2.0670    -0.7910 H     1 <1>   0.0800 
 42 H       -6.0000    -2.1280     0.9130 H     1 <1>   0.0800 
@<TRIPOS>BOND
  1   1   2  1   
  2   2   3  2   
  3   2   4  1   
  4   3   5  1   
  5   3   6  1   
  6   4   7  2   
  7   4   8  1   
  8   5   9  2   
  9   6   7  1   
 10   6  10  1   
 11   8  11  2   
 12   8  12  am  
 13   9  13  1   
 14   9  14  1   
 15  10  14  2   
 16  10  15  1   
 17  12  16  1   
 18  12  29  1   
 19  13  17  1   
 20  13  18  2   
 21  14  30  1   
 22  15  19  1   
 23  15  20  1   
 24  15  21  1   
 25  16  22  1   
 26  16  31  1   
 27  16  32  1   
 28  17  23  1   
 29  18  24  1   
 30  18  33  1   
 31  22  25  1   
 32  22  26  1   
 33  22  34  1   
 34  23  24  2   
 35  23  35  1   
 36  24  36  1   
 37  25  27  1   
 38  26  28  1   
 39  26  37  1   
 40  26  38  1   
 41  27  28  1   
 42  27  39  1   
 43  27  40  1   
 44  28  41  1   
 45  28  42  1   
@<TRIPOS>SUBSTRUCTURE
  1 ****   2 GROUP 4 **** **** 0

# MOE 2024.06 (io_trps.svl 2023.06)
