@<TRIPOS>MOLECULE
NONAME
40 42 1 0 0 
SMALL
USER_CHARGES


@<TRIPOS>ATOM
  1 F       -0.3490    -0.9000    -1.5560 F     1 <1>  -0.3400 
  2 C        0.9080    -1.0870    -1.1590 C.3   1 <1>   1.0200 
  3 F        1.6130    -1.1850    -2.2860 F     1 <1>  -0.3400 
  4 F        1.2810     0.0650    -0.6060 F     1 <1>  -0.3400 
  5 C        1.1010    -2.3520    -0.1960 C.3   1 <1>   0.5500 
  6 O        0.1540    -2.2680     0.8600 O.3   1 <1>  -0.3630 
  7 N        2.4420    -2.4010     0.5090 N.3   1 <1>  -0.8100 
  8 C        0.8600    -3.6800    -0.9350 C.3   1 <1>  -0.0990 
  9 C       -1.1350    -2.6300     0.7410 C.ar  1 <1>   0.3920 
 10 C        3.6310    -2.5400    -0.3690 C.3   1 <1>   0.1100 
 11 C        2.5500    -3.3260     1.6710 C.3   1 <1>   0.1100 
 12 C       -0.5910    -3.8110    -1.3170 C.2   1 <1>   0.4230 
 13 N       -1.8940    -2.1930     1.7310 N.ar  1 <1>  -0.6200 
 14 C       -1.5750    -3.3930    -0.3510 C.ar  1 <1>   0.0860 
 15 C        4.9380    -2.4230     0.4340 C.3   1 <1>   0.1200 
 16 C        3.9030    -3.1690     2.3840 C.3   1 <1>   0.1200 
 17 O       -0.8190    -4.2610    -2.4080 O.2   1 <1>  -0.5700 
 18 C       -3.1740    -2.4910     1.6520 C.ar  1 <1>   0.1670 
 19 C       -2.9390    -3.6910    -0.4090 C.ar  1 <1>  -0.1440 
 20 O        4.9530    -3.3490     1.4800 O.3   1 <1>  -0.5600 
 21 C       -3.7320    -3.2220     0.6180 C.ar  1 <1>  -0.1500 
 22 C       -4.0420    -1.9790     2.7820 C.3   1 <1>  -0.0970 
 23 C       -3.5780    -4.5000    -1.5320 C.3   1 <1>  -0.0970 
 24 H        1.1120    -4.5210    -0.3210 H     1 <1>   0.0800 
 25 H        1.4630    -3.7260    -1.8240 H     1 <1>   0.0800 
 26 H        3.6390    -1.7670    -1.1160 H     1 <1>   0.0800 
 27 H        3.6220    -3.4950    -0.8660 H     1 <1>   0.0800 
 28 H        2.4550    -4.3490     1.3560 H     1 <1>   0.0800 
 29 H        1.7740    -3.1190     2.3880 H     1 <1>   0.0800 
 30 H        5.0430    -1.4340     0.8460 H     1 <1>   0.0800 
 31 H        5.7850    -2.6270    -0.1970 H     1 <1>   0.0800 
 32 H        4.0050    -3.9080     3.1590 H     1 <1>   0.0800 
 33 H        3.9870    -2.1900     2.8250 H     1 <1>   0.0800 
 34 H       -4.7880    -3.4230     0.6220 H     1 <1>   0.1500 
 35 H       -3.6870    -2.3760     3.7160 H     1 <1>   0.0800 
 36 H       -5.0680    -2.2670     2.6490 H     1 <1>   0.0800 
 37 H       -3.9830    -0.9060     2.8210 H     1 <1>   0.0800 
 38 H       -3.0950    -5.4570    -1.6220 H     1 <1>   0.0800 
 39 H       -3.4760    -3.9760    -2.4660 H     1 <1>   0.0800 
 40 H       -4.6240    -4.6660    -1.3500 H     1 <1>   0.0800 
@<TRIPOS>BOND
  1   1   2  1   
  2   2   3  1   
  3   2   4  1   
  4   2   5  1   
  5   5   6  1   
  6   5   7  1   
  7   5   8  1   
  8   6   9  1   
  9   7  10  1   
 10   7  11  1   
 11   8  12  1   
 12   8  24  1   
 13   8  25  1   
 14   9  13  ar  
 15   9  14  ar  
 16  10  15  1   
 17  10  26  1   
 18  10  27  1   
 19  11  16  1   
 20  11  28  1   
 21  11  29  1   
 22  12  14  1   
 23  12  17  2   
 24  13  18  ar  
 25  14  19  ar  
 26  15  20  1   
 27  15  30  1   
 28  15  31  1   
 29  16  20  1   
 30  16  32  1   
 31  16  33  1   
 32  18  21  ar  
 33  18  22  1   
 34  19  21  ar  
 35  19  23  1   
 36  21  34  1   
 37  22  35  1   
 38  22  36  1   
 39  22  37  1   
 40  23  38  1   
 41  23  39  1   
 42  23  40  1   
@<TRIPOS>SUBSTRUCTURE
  1 ****   6 GROUP 4 **** **** 0

# MOE 2024.06 (io_trps.svl 2023.06)
