@<TRIPOS>MOLECULE
NONAME
40 42 1 0 0 
SMALL
USER_CHARGES


@<TRIPOS>ATOM
  1 O        1.4260     1.9600    -1.1660 O.2   1 <1>  -0.5700 
  2 C        1.6250     1.2950    -0.1690 C.2   1 <1>   0.7060 
  3 O        0.8340     1.5060     0.8920 O.3   1 <1>  -0.4300 
  4 C        2.6520     0.3040    -0.0550 C.2   1 <1>  -0.1240 
  5 C       -0.2390     2.4280     0.8470 C.3   1 <1>   0.0400 
  6 C        3.7960     0.1890    -0.8000 C.2   1 <1>  -0.0380 
  7 C        2.3470    -0.7400     1.0400 C.3   1 <1>   0.4570 
  8 N        4.6940    -0.8310    -0.5770 N.pl3 1 <1>  -0.5840 
  9 C        4.2320     1.1290    -1.9140 C.3   1 <1>  -0.1020 
 10 N        3.4770    -1.6720     1.2560 N.pl3 1 <1>   0.3140 
 11 C        1.0980    -1.5450     0.6720 C.ar  1 <1>  -0.1440 
 12 C        4.5450    -1.7060     0.4880 C.2   1 <1>   0.2700 
 13 N        3.6370    -2.5720     2.2120 N.2   1 <1>  -0.4180 
 14 C        0.0330    -1.6300     1.5590 C.ar  1 <1>  -0.1500 
 15 C        1.0110    -2.1960    -0.5520 C.ar  1 <1>  -0.1500 
 16 N        5.3600    -2.6010     0.9030 N.2   1 <1>  -0.3380 
 17 N        4.7720    -3.1290     1.9800 N.2   1 <1>   0.0000 
 18 C       -1.1020    -2.3500     1.2300 C.ar  1 <1>  -0.1500 
 19 C       -0.1240    -2.9140    -0.8820 C.ar  1 <1>  -0.1500 
 20 C       -1.1870    -2.9970     0.0010 C.ar  1 <1>   0.0820 
 21 O       -2.2600    -3.7200    -0.4010 O.3   1 <1>  -0.3630 
 22 C       -3.3780    -3.9030     0.4350 C.3   1 <1>   0.1200 
 23 C       -4.3860    -4.7740    -0.3070 C.3   1 <1>  -0.2400 
 24 H       -0.7340     2.4250     1.8020 H     1 <1>   0.0800 
 25 H       -0.9250     2.1260     0.0740 H     1 <1>   0.0800 
 26 H        0.1510     3.4090     0.6350 H     1 <1>   0.0800 
 27 H        2.1890    -0.2370     1.9760 H     1 <1>   0.0800 
 28 H        5.5540    -0.9300    -1.1280 H     1 <1>   0.4000 
 29 H        4.0180     0.6850    -2.8700 H     1 <1>   0.0800 
 30 H        5.2890     1.3170    -1.8500 H     1 <1>   0.0800 
 31 H        3.7400     2.0810    -1.8620 H     1 <1>   0.0800 
 32 H        0.0790    -1.1370     2.5150 H     1 <1>   0.1500 
 33 H        1.8230    -2.1520    -1.2590 H     1 <1>   0.1500 
 34 H       -1.9060    -2.3950     1.9400 H     1 <1>   0.1500 
 35 H       -0.1940    -3.4180    -1.8290 H     1 <1>   0.1500 
 36 H       -3.7990    -2.9370     0.6560 H     1 <1>   0.0800 
 37 H       -3.0500    -4.3860     1.3400 H     1 <1>   0.0800 
 38 H       -4.6920    -4.2910    -1.2170 H     1 <1>   0.0800 
 39 H       -5.2530    -4.9320     0.3070 H     1 <1>   0.0800 
 40 H       -3.9490    -5.7290    -0.5370 H     1 <1>   0.0800 
@<TRIPOS>BOND
  1   1   2  2   
  2   2   3  1   
  3   2   4  1   
  4   3   5  1   
  5   4   6  2   
  6   4   7  1   
  7   5  24  1   
  8   5  25  1   
  9   5  26  1   
 10   6   8  1   
 11   6   9  1   
 12   7  10  1   
 13   7  11  1   
 14   7  27  1   
 15   8  12  1   
 16   8  28  1   
 17   9  29  1   
 18   9  30  1   
 19   9  31  1   
 20  10  12  1   
 21  10  13  1   
 22  11  14  ar  
 23  11  15  ar  
 24  12  16  2   
 25  13  17  2   
 26  14  18  ar  
 27  14  32  1   
 28  15  19  ar  
 29  15  33  1   
 30  16  17  1   
 31  18  20  ar  
 32  18  34  1   
 33  19  20  ar  
 34  19  35  1   
 35  20  21  1   
 36  21  22  1   
 37  22  23  1   
 38  22  36  1   
 39  22  37  1   
 40  23  38  1   
 41  23  39  1   
 42  23  40  1   
@<TRIPOS>SUBSTRUCTURE
  1 ****  11 GROUP 4 **** **** 0

# MOE 2024.06 (io_trps.svl 2023.06)
