@<TRIPOS>MOLECULE
NONAME
50 52 1 0 0 
SMALL
USER_CHARGES


@<TRIPOS>ATOM
  1 CL      -1.9220    -1.1810    -1.0610 Cl    1 <1>  -0.1770 
  2 C       -0.6130    -1.7820    -0.0760 C.ar  1 <1>   0.1770 
  3 C       -0.7690    -1.8200     1.2960 C.ar  1 <1>  -0.1500 
  4 C        0.5530    -2.2050    -0.6830 C.ar  1 <1>  -0.1500 
  5 C        0.2840    -2.2930     2.0530 C.ar  1 <1>   0.1770 
  6 C        1.6080    -2.6900     0.0850 C.ar  1 <1>   0.1990 
  7 CL       0.1210    -2.3530     3.7890 Cl    1 <1>  -0.1770 
  8 C        1.4600    -2.7210     1.4690 C.ar  1 <1>  -0.1500 
  9 N        2.7900    -3.1330    -0.5050 N.am  1 <1>  -0.6930 
 10 S        2.8290    -4.3780    -1.7190 S.o2  1 <1>   1.4470 
 11 C        4.0990    -2.5420    -0.0750 C.3   1 <1>   0.2570 
 12 O        1.9750    -3.9390    -2.7970 O.2   1 <1>  -0.6500 
 13 O        4.2270    -4.6350    -1.9910 O.2   1 <1>  -0.6500 
 14 C        2.1020    -5.8160    -0.8850 C.ar  1 <1>  -0.0090 
 15 C        4.8950    -3.4090     0.9070 C.2   1 <1>   0.5690 
 16 C        1.3420    -6.7340    -1.5990 C.ar  1 <1>  -0.1500 
 17 C        2.2940    -6.0590     0.4710 C.ar  1 <1>  -0.1500 
 18 O        4.8950    -3.1130     2.0780 O.2   1 <1>  -0.5700 
 19 N        5.5740    -4.4870     0.4440 N.am  1 <1>  -0.7300 
 20 C        0.7920    -7.8470    -0.9880 C.ar  1 <1>  -0.1500 
 21 C        1.7490    -7.1690     1.0900 C.ar  1 <1>  -0.1500 
 22 C        6.4670    -5.3630     1.2180 C.3   1 <1>   0.2200 
 23 C        0.9950    -8.0720     0.3620 C.ar  1 <1>  -0.1430 
 24 C        7.6350    -5.7560     0.3210 C.3   1 <1>  -0.1600 
 25 C        5.7730    -6.6950     1.4710 C.3   1 <1>  -0.1600 
 26 C        0.3940    -9.2910     1.0370 C.3   1 <1>  -0.0970 
 27 C        7.1070    -6.8880    -0.5720 C.3   1 <1>  -0.1600 
 28 C        5.8890    -7.4740     0.1560 C.3   1 <1>  -0.1600 
 29 H       -1.6810    -1.4890     1.7590 H     1 <1>   0.1500 
 30 H        0.6340    -2.1490    -1.7530 H     1 <1>   0.1500 
 31 H        2.2530    -3.0830     2.0970 H     1 <1>   0.1500 
 32 H        3.9160    -1.5930     0.3940 H     1 <1>   0.0800 
 33 H        4.7070    -2.3560    -0.9420 H     1 <1>   0.0800 
 34 H        1.1740    -6.5750    -2.6520 H     1 <1>   0.1500 
 35 H        2.8790    -5.3750     1.0600 H     1 <1>   0.1500 
 36 H        5.4700    -4.7610    -0.5450 H     1 <1>   0.3700 
 37 H        0.2060    -8.5380    -1.5690 H     1 <1>   0.1500 
 38 H        1.9140    -7.3270     2.1420 H     1 <1>   0.1500 
 39 H        6.7820    -4.8800     2.1290 H     1 <1>   0.0800 
 40 H        8.4250    -6.1410     0.9410 H     1 <1>   0.0800 
 41 H        8.0160    -4.9240    -0.2440 H     1 <1>   0.0800 
 42 H        4.7590    -6.5740     1.8020 H     1 <1>   0.0800 
 43 H        6.3180    -7.2210     2.2350 H     1 <1>   0.0800 
 44 H       -0.5850    -9.0530     1.4150 H     1 <1>   0.0800 
 45 H        1.0130    -9.6120     1.8560 H     1 <1>   0.0800 
 46 H        0.3080   -10.1050     0.3390 H     1 <1>   0.0800 
 47 H        7.8660    -7.6340    -0.7330 H     1 <1>   0.0800 
 48 H        6.8010    -6.4930    -1.5260 H     1 <1>   0.0800 
 49 H        5.0040    -7.3190    -0.4390 H     1 <1>   0.0800 
 50 H        6.0040    -8.5280     0.3390 H     1 <1>   0.0800 
@<TRIPOS>BOND
  1   1   2  1   
  2   2   3  ar  
  3   2   4  ar  
  4   3   5  ar  
  5   3  29  1   
  6   4   6  ar  
  7   4  30  1   
  8   5   7  1   
  9   5   8  ar  
 10   6   8  ar  
 11   6   9  1   
 12   8  31  1   
 13   9  10  am  
 14   9  11  1   
 15  10  12  2   
 16  10  13  2   
 17  10  14  1   
 18  11  15  1   
 19  11  32  1   
 20  11  33  1   
 21  14  16  ar  
 22  14  17  ar  
 23  15  18  2   
 24  15  19  am  
 25  16  20  ar  
 26  16  34  1   
 27  17  21  ar  
 28  17  35  1   
 29  19  22  1   
 30  19  36  1   
 31  20  23  ar  
 32  20  37  1   
 33  21  23  ar  
 34  21  38  1   
 35  22  24  1   
 36  22  25  1   
 37  22  39  1   
 38  23  26  1   
 39  24  27  1   
 40  24  40  1   
 41  24  41  1   
 42  25  28  1   
 43  25  42  1   
 44  25  43  1   
 45  26  44  1   
 46  26  45  1   
 47  26  46  1   
 48  27  28  1   
 49  27  47  1   
 50  27  48  1   
 51  28  49  1   
 52  28  50  1   
@<TRIPOS>SUBSTRUCTURE
  1 ****  17 GROUP 4 **** **** 0

# MOE 2024.06 (io_trps.svl 2023.06)
