@<TRIPOS>MOLECULE
NONAME
45 47 1 0 0 
SMALL
USER_CHARGES


@<TRIPOS>ATOM
  1 O        1.4270    -3.0110    -2.4360 O.co2 1 <1>  -0.9000 
  2 C        1.9800    -2.0890    -1.8270 C.2   1 <1>   0.9060 
  3 O        1.4550    -0.9840    -1.6930 O.co2 1 <1>  -0.9000 
  4 C        3.3090    -2.4120    -1.1720 C.3   1 <1>  -0.1860 
  5 C        3.1870    -3.2320     0.3350 C.3   1 <1>  -0.0190 
  6 C        4.3060    -1.1090    -0.9290 C.3   1 <1>   0.0580 
  7 C        1.8060    -3.6290     0.8910 C.2   1 <1>   0.5690 
  8 C        4.1130    -2.3550     1.4050 C.3   1 <1>   0.0580 
  9 C        5.2910    -0.4970     0.1990 C.2   1 <1>  -0.2880 
 10 C        4.1170    -1.8030     0.1930 C.3   1 <1>  -0.1600 
 11 O        1.6720    -3.6850     2.0930 O.2   1 <1>  -0.5700 
 12 N        0.8010    -4.0210     0.0540 N.am  1 <1>  -0.5470 
 13 C        5.1900    -1.1510     1.4200 C.2   1 <1>  -0.2880 
 14 C       -0.4760    -4.4790     0.3970 C.ar  1 <1>   0.1170 
 15 C       -0.9640    -5.7320     0.0010 C.ar  1 <1>  -0.1440 
 16 C       -1.2900    -3.6410     1.1490 C.ar  1 <1>  -0.1500 
 17 C       -2.2530    -6.0950     0.3720 C.ar  1 <1>  -0.1500 
 18 C       -0.1490    -6.7500    -0.8120 C.3   1 <1>   0.0630 
 19 C       -2.5690    -4.0160     1.5120 C.ar  1 <1>  -0.1500 
 20 C       -3.0530    -5.2490     1.1200 C.ar  1 <1>  -0.1500 
 21 C        1.0440    -7.2850     0.0040 C.3   1 <1>  -0.1600 
 22 C        0.2640    -6.2010    -2.1850 C.3   1 <1>  -0.2400 
 23 C        1.7520    -8.4760    -0.6560 C.3   1 <1>  -0.2400 
 24 H        3.7940    -3.0740    -1.8730 H     1 <1>   0.0800 
 25 H        3.6730    -4.1880     0.2040 H     1 <1>   0.0800 
 26 H        3.6890    -0.2530    -1.1660 H     1 <1>   0.0800 
 27 H        3.4090    -2.0130     2.1510 H     1 <1>   0.0800 
 28 H        5.9160     0.3360    -0.0720 H     1 <1>   0.1500 
 29 H        3.2480    -1.0880     0.5000 H     1 <1>   0.0800 
 30 H        5.0630    -2.5090    -0.1080 H     1 <1>   0.0800 
 31 H        0.9370    -3.8280    -0.9590 H     1 <1>   0.3700 
 32 H        5.7190    -0.9520     2.3360 H     1 <1>   0.1500 
 33 H       -0.9050    -2.6820     1.4460 H     1 <1>   0.1500 
 34 H       -2.6520    -7.0500     0.0810 H     1 <1>   0.1500 
 35 H       -0.7910    -7.5910    -1.0090 H     1 <1>   0.0800 
 36 H       -3.1800    -3.3490     2.0930 H     1 <1>   0.1500 
 37 H       -4.0480    -5.5490     1.3960 H     1 <1>   0.1500 
 38 H        0.6840    -7.5880     0.9720 H     1 <1>   0.0800 
 39 H        1.7590    -6.4980     0.1620 H     1 <1>   0.0800 
 40 H        1.1080    -5.5430    -2.1010 H     1 <1>   0.0800 
 41 H       -0.5490    -5.6500    -2.6240 H     1 <1>   0.0800 
 42 H        0.5290    -7.0030    -2.8490 H     1 <1>   0.0800 
 43 H        1.0550    -9.2740    -0.8420 H     1 <1>   0.0800 
 44 H        2.5270    -8.8430    -0.0070 H     1 <1>   0.0800 
 45 H        2.2040    -8.1810    -1.5860 H     1 <1>   0.0800 
@<TRIPOS>BOND
  1   1   2  ar  
  2   2   3  ar  
  3   2   4  1   
  4   4   5  1   
  5   4   6  1   
  6   4  24  1   
  7   5   7  1   
  8   5   8  1   
  9   5  25  1   
 10   6   9  1   
 11   6  10  1   
 12   6  26  1   
 13   7  11  2   
 14   7  12  am  
 15   8  10  1   
 16   8  13  1   
 17   8  27  1   
 18   9  13  2   
 19   9  28  1   
 20  10  29  1   
 21  10  30  1   
 22  12  14  1   
 23  12  31  1   
 24  13  32  1   
 25  14  15  ar  
 26  14  16  ar  
 27  15  17  ar  
 28  15  18  1   
 29  16  19  ar  
 30  16  33  1   
 31  17  20  ar  
 32  17  34  1   
 33  18  21  1   
 34  18  22  1   
 35  18  35  1   
 36  19  20  ar  
 37  19  36  1   
 38  20  37  1   
 39  21  23  1   
 40  21  38  1   
 41  21  39  1   
 42  22  40  1   
 43  22  41  1   
 44  22  42  1   
 45  23  43  1   
 46  23  44  1   
 47  23  45  1   
@<TRIPOS>SUBSTRUCTURE
  1 ****  12 GROUP 4 **** **** 0

# MOE 2024.06 (io_trps.svl 2023.06)
