@<TRIPOS>MOLECULE
NONAME
46 48 1 0 0 
SMALL
USER_CHARGES


@<TRIPOS>ATOM
  1 F        0.7380    -0.9850     1.7790 F     1 <1>  -0.1900 
  2 C       -0.1480    -1.5200     0.9720 C.ar  1 <1>   0.1900 
  3 C        0.2740    -2.3580    -0.0680 C.ar  1 <1>   0.1000 
  4 C       -1.4770    -1.2200     1.1990 C.ar  1 <1>  -0.1500 
  5 N        1.6080    -2.6910    -0.3390 N.pl3 1 <1>  -0.8380 
  6 C       -0.7160    -2.8900    -0.8840 C.ar  1 <1>  -0.1500 
  7 C       -2.4390    -1.7670     0.3660 C.ar  1 <1>  -0.1500 
  8 C        2.2770    -3.5620     0.6780 C.3   1 <1>   0.2090 
  9 C        2.4850    -1.5640    -0.7740 C.3   1 <1>   0.2090 
 10 C       -2.0550    -2.6010    -0.6720 C.ar  1 <1>  -0.1500 
 11 C        3.6270    -4.0910     0.1640 C.3   1 <1>   0.1400 
 12 C        3.8320    -2.0840    -1.3070 C.3   1 <1>   0.1400 
 13 N        4.5050    -2.9730    -0.3070 N.am  1 <1>  -0.6600 
 14 C        5.8220    -2.8980     0.0670 C.2   1 <1>   0.6900 
 15 O        6.3570    -3.8500     0.6030 O.2   1 <1>  -0.5700 
 16 N        6.5000    -1.7320    -0.1440 N.am  1 <1>  -0.5470 
 17 C        7.8560    -1.4040     0.0000 C.ar  1 <1>   0.1170 
 18 C        8.2060    -0.0740     0.1990 C.ar  1 <1>  -0.1500 
 19 C        8.8720    -2.3520    -0.0700 C.ar  1 <1>  -0.1500 
 20 C        9.5300     0.3080     0.3280 C.ar  1 <1>  -0.1430 
 21 C       10.2000    -1.9860     0.0600 C.ar  1 <1>  -0.1430 
 22 C       10.5240    -0.6540     0.2570 C.ar  1 <1>  -0.1500 
 23 C        9.9080     1.7610     0.5470 C.3   1 <1>  -0.0970 
 24 C       11.2970    -3.0330    -0.0150 C.3   1 <1>  -0.0970 
 25 H       -1.7520    -0.5710     2.0110 H     1 <1>   0.1500 
 26 H       -0.4220    -3.5380    -1.6900 H     1 <1>   0.1500 
 27 H       -3.4810    -1.5460     0.5250 H     1 <1>   0.1500 
 28 H        1.6340    -4.3930     0.9110 H     1 <1>   0.0800 
 29 H        2.4400    -3.0030     1.5830 H     1 <1>   0.0800 
 30 H        2.6640    -0.9020     0.0560 H     1 <1>   0.0800 
 31 H        1.9860    -1.0050    -1.5460 H     1 <1>   0.0800 
 32 H       -2.8020    -3.0280    -1.3200 H     1 <1>   0.1500 
 33 H        3.4520    -4.7690    -0.6530 H     1 <1>   0.0800 
 34 H        4.1080    -4.6410     0.9530 H     1 <1>   0.0800 
 35 H        4.4580    -1.2520    -1.5700 H     1 <1>   0.0800 
 36 H        3.6490    -2.6500    -2.2030 H     1 <1>   0.0800 
 37 H        5.8840    -0.9490    -0.3160 H     1 <1>   0.3700 
 38 H        7.4320     0.6680     0.2570 H     1 <1>   0.1500 
 39 H        8.6180    -3.3830    -0.2300 H     1 <1>   0.1500 
 40 H       11.5560    -0.3650     0.3570 H     1 <1>   0.1500 
 41 H        9.0340     2.3870     0.5770 H     1 <1>   0.0800 
 42 H       10.5440     2.0980    -0.2520 H     1 <1>   0.0800 
 43 H       10.4350     1.8640     1.4790 H     1 <1>   0.0800 
 44 H       10.8970    -4.0140     0.1660 H     1 <1>   0.0800 
 45 H       12.0510    -2.8330     0.7250 H     1 <1>   0.0800 
 46 H       11.7490    -3.0170    -0.9900 H     1 <1>   0.0800 
@<TRIPOS>BOND
  1   1   2  1   
  2   2   3  ar  
  3   2   4  ar  
  4   3   5  1   
  5   3   6  ar  
  6   4   7  ar  
  7   4  25  1   
  8   5   8  1   
  9   5   9  1   
 10   6  10  ar  
 11   6  26  1   
 12   7  10  ar  
 13   7  27  1   
 14   8  11  1   
 15   8  28  1   
 16   8  29  1   
 17   9  12  1   
 18   9  30  1   
 19   9  31  1   
 20  10  32  1   
 21  11  13  1   
 22  11  33  1   
 23  11  34  1   
 24  12  13  1   
 25  12  35  1   
 26  12  36  1   
 27  13  14  am  
 28  14  15  2   
 29  14  16  am  
 30  16  17  1   
 31  16  37  1   
 32  17  18  ar  
 33  17  19  ar  
 34  18  20  ar  
 35  18  38  1   
 36  19  21  ar  
 37  19  39  1   
 38  20  22  ar  
 39  20  23  1   
 40  21  22  ar  
 41  21  24  1   
 42  22  40  1   
 43  23  41  1   
 44  23  42  1   
 45  23  43  1   
 46  24  44  1   
 47  24  45  1   
 48  24  46  1   
@<TRIPOS>SUBSTRUCTURE
  1 ****  13 GROUP 4 **** **** 0

# MOE 2024.06 (io_trps.svl 2023.06)
