@<TRIPOS>MOLECULE
NONAME
46 48 1 0 0 
SMALL
USER_CHARGES


@<TRIPOS>ATOM
  1 N        0.7250    -0.1000     0.5460 N.4   1 <1>  -0.9590 
  2 C        0.5300     1.3560     0.2770 C.3   1 <1>   0.3430 
  3 C        1.7720    -0.7260    -0.3160 C.3   1 <1>   0.3430 
  4 C       -0.5770    -0.8310     0.3880 C.3   1 <1>   0.2630 
  5 C        1.8520     2.1070     0.4520 C.3   1 <1>  -0.1600 
  6 C        3.1030     0.0080    -0.1440 C.3   1 <1>  -0.1600 
  7 C        2.9370     1.4990    -0.4470 C.3   1 <1>   0.4230 
  8 N        4.2450     2.2130    -0.3330 N.4   1 <1>  -0.9590 
  9 C        4.8290     2.3320     1.0450 C.3   1 <1>   0.4860 
 10 C        4.2170     3.5560    -1.0090 C.3   1 <1>   0.2630 
 11 C        6.2660     2.7880     0.9110 C.ar  1 <1>  -0.1430 
 12 C        7.2540     1.8970     0.4160 C.ar  1 <1>   0.0000 
 13 C        6.5870     4.0790     1.2460 C.ar  1 <1>  -0.1500 
 14 C        8.5570     2.4000     0.2020 C.ar  1 <1>   0.0000 
 15 C        7.0220     0.5300     0.1260 C.ar  1 <1>  -0.1500 
 16 C        7.8890     4.5540     1.0680 C.ar  1 <1>  -0.1500 
 17 C        8.8460     3.7330     0.5490 C.ar  1 <1>  -0.1500 
 18 C        9.5420     1.5540    -0.3470 C.ar  1 <1>  -0.1500 
 19 C        7.9990    -0.2700    -0.3980 C.ar  1 <1>  -0.1500 
 20 C        9.2720     0.2500    -0.6470 C.ar  1 <1>  -0.1500 
 21 H        1.0040    -0.2150     1.5340 H     1 <1>   0.4500 
 22 H       -0.2070     1.7590     0.9560 H     1 <1>   0.0800 
 23 H        0.1630     1.4930    -0.7280 H     1 <1>   0.0800 
 24 H        1.4640    -0.6850    -1.3490 H     1 <1>   0.0800 
 25 H        1.8950    -1.7650    -0.0480 H     1 <1>   0.0800 
 26 H       -0.9340    -0.7550    -0.6270 H     1 <1>   0.0800 
 27 H       -1.3240    -0.4170     1.0460 H     1 <1>   0.0800 
 28 H       -0.4550    -1.8750     0.6300 H     1 <1>   0.0800 
 29 H        2.1330     2.0660     1.4890 H     1 <1>   0.0800 
 30 H        1.6860     3.1350     0.1870 H     1 <1>   0.0800 
 31 H        3.8120    -0.4230    -0.8290 H     1 <1>   0.0800 
 32 H        3.4570    -0.1520     0.8580 H     1 <1>   0.0800 
 33 H        2.6030     1.5850    -1.4710 H     1 <1>   0.0800 
 34 H        4.9560     1.6750    -0.8550 H     1 <1>   0.4500 
 35 H        4.8080     1.3840     1.5550 H     1 <1>   0.0800 
 36 H        4.2720     3.0470     1.6270 H     1 <1>   0.0800 
 37 H        3.5730     4.2380    -0.4770 H     1 <1>   0.0800 
 38 H        3.8610     3.4620    -2.0220 H     1 <1>   0.0800 
 39 H        5.2090     3.9810    -1.0410 H     1 <1>   0.0800 
 40 H        5.8600     4.7650     1.6460 H     1 <1>   0.1500 
 41 H        6.0700     0.0870     0.3310 H     1 <1>   0.1500 
 42 H        8.1240     5.5700     1.3410 H     1 <1>   0.1500 
 43 H        9.8490     4.0960     0.4010 H     1 <1>   0.1500 
 44 H       10.5240     1.9560    -0.5250 H     1 <1>   0.1500 
 45 H        7.8190    -1.3090    -0.6190 H     1 <1>   0.1500 
 46 H       10.0310    -0.3910    -1.0640 H     1 <1>   0.1500 
@<TRIPOS>BOND
  1   1   2  1   
  2   1   3  1   
  3   1   4  1   
  4   1  21  1   
  5   2   5  1   
  6   2  22  1   
  7   2  23  1   
  8   3   6  1   
  9   3  24  1   
 10   3  25  1   
 11   4  26  1   
 12   4  27  1   
 13   4  28  1   
 14   5   7  1   
 15   5  29  1   
 16   5  30  1   
 17   6   7  1   
 18   6  31  1   
 19   6  32  1   
 20   7   8  1   
 21   7  33  1   
 22   8   9  1   
 23   8  10  1   
 24   8  34  1   
 25   9  11  1   
 26   9  35  1   
 27   9  36  1   
 28  10  37  1   
 29  10  38  1   
 30  10  39  1   
 31  11  12  ar  
 32  11  13  ar  
 33  12  14  ar  
 34  12  15  ar  
 35  13  16  ar  
 36  13  40  1   
 37  14  17  ar  
 38  14  18  ar  
 39  15  19  ar  
 40  15  41  1   
 41  16  17  ar  
 42  16  42  1   
 43  17  43  1   
 44  18  20  ar  
 45  18  44  1   
 46  19  20  ar  
 47  19  45  1   
 48  20  46  1   
@<TRIPOS>SUBSTRUCTURE
  1 ****   9 GROUP 4 **** **** 0

# MOE 2024.06 (io_trps.svl 2023.06)
