@<TRIPOS>MOLECULE
NONAME
38 38 1 0 0 
SMALL
USER_CHARGES


@<TRIPOS>ATOM
  1 S       -0.6750    -0.1090     0.0510 S.3   1 <1>  -0.4600 
  2 C        0.7930     0.8870     0.4030 C.3   1 <1>   0.1500 
  3 C       -2.0430     1.0730     0.1670 C.3   1 <1>   0.0700 
  4 C        1.1340     1.6840    -0.8550 C.3   1 <1>  -0.2400 
  5 C        1.9040    -0.0850     0.7910 C.3   1 <1>  -0.2400 
  6 C       -3.3460     0.2970    -0.0200 C.3   1 <1>  -0.1600 
  7 C       -4.5520     1.2320     0.0650 C.3   1 <1>   0.1200 
  8 O       -5.7190     0.4660    -0.1120 O.3   1 <1>  -0.3630 
  9 C       -6.9490     1.0380    -0.0850 C.ar  1 <1>   0.0820 
 10 C       -7.1730     2.3970     0.1160 C.ar  1 <1>  -0.1500 
 11 C       -8.0310     0.1950    -0.2710 C.ar  1 <1>  -0.1500 
 12 C       -8.4630     2.9070     0.1310 C.ar  1 <1>  -0.1440 
 13 C       -9.3180     0.6980    -0.2580 C.ar  1 <1>  -0.1500 
 14 C       -9.5440     2.0520    -0.0580 C.ar  1 <1>  -0.1440 
 15 C       -8.6660     4.3990     0.3540 C.3   1 <1>  -0.0970 
 16 C      -10.9770     2.5650    -0.0500 C.3   1 <1>  -0.0970 
 17 H        0.5520     1.5380     1.2270 H     1 <1>   0.0800 
 18 H       -1.9040     1.8070    -0.6060 H     1 <1>   0.0800 
 19 H       -1.9890     1.5320     1.1390 H     1 <1>   0.0800 
 20 H        1.2940     1.0170    -1.6850 H     1 <1>   0.0800 
 21 H        2.0290     2.2570    -0.6960 H     1 <1>   0.0800 
 22 H        0.3370     2.3600    -1.1000 H     1 <1>   0.0800 
 23 H        2.1020    -0.7680    -0.0160 H     1 <1>   0.0800 
 24 H        1.6120    -0.6480     1.6580 H     1 <1>   0.0800 
 25 H        2.8060     0.4540     1.0180 H     1 <1>   0.0800 
 26 H       -3.4250    -0.4540     0.7460 H     1 <1>   0.0800 
 27 H       -3.3370    -0.1830    -0.9830 H     1 <1>   0.0800 
 28 H       -4.5140     1.9750    -0.7130 H     1 <1>   0.0800 
 29 H       -4.6010     1.7030     1.0320 H     1 <1>   0.0800 
 30 H       -6.3500     3.0670     0.2620 H     1 <1>   0.1500 
 31 H       -7.8560    -0.8540    -0.4270 H     1 <1>   0.1500 
 32 H      -10.1440     0.0250    -0.4050 H     1 <1>   0.1500 
 33 H       -7.7250     4.9040     0.4810 H     1 <1>   0.0800 
 34 H       -9.2570     4.5620     1.2360 H     1 <1>   0.0800 
 35 H       -9.1690     4.8330    -0.4920 H     1 <1>   0.0800 
 36 H      -11.2000     3.0210     0.8980 H     1 <1>   0.0800 
 37 H      -11.6750     1.7640    -0.2110 H     1 <1>   0.0800 
 38 H      -11.1120     3.2920    -0.8310 H     1 <1>   0.0800 
@<TRIPOS>BOND
  1   1   2  1   
  2   1   3  1   
  3   2   4  1   
  4   2   5  1   
  5   2  17  1   
  6   3   6  1   
  7   3  18  1   
  8   3  19  1   
  9   4  20  1   
 10   4  21  1   
 11   4  22  1   
 12   5  23  1   
 13   5  24  1   
 14   5  25  1   
 15   6   7  1   
 16   6  26  1   
 17   6  27  1   
 18   7   8  1   
 19   7  28  1   
 20   7  29  1   
 21   8   9  1   
 22   9  10  ar  
 23   9  11  ar  
 24  10  12  ar  
 25  10  30  1   
 26  11  13  ar  
 27  11  31  1   
 28  12  14  ar  
 29  12  15  1   
 30  13  14  ar  
 31  13  32  1   
 32  14  16  1   
 33  15  33  1   
 34  15  34  1   
 35  15  35  1   
 36  16  36  1   
 37  16  37  1   
 38  16  38  1   
@<TRIPOS>SUBSTRUCTURE
  1 ****   7 GROUP 4 **** **** 0

# MOE 2024.06 (io_trps.svl 2023.06)
