@<TRIPOS>MOLECULE
NONAME
44 46 1 0 0 
SMALL
USER_CHARGES


@<TRIPOS>ATOM
  1 CL       0.8590    -0.1840     0.8960 Cl    1 <1>  -0.1770 
  2 C        2.2800    -1.0340     0.3380 C.ar  1 <1>   0.1770 
  3 C        3.5120    -0.4160     0.4080 C.ar  1 <1>  -0.1500 
  4 C        2.1410    -2.3130    -0.1660 C.ar  1 <1>  -0.1500 
  5 C        4.6460    -1.0850    -0.0340 C.ar  1 <1>   0.1170 
  6 C        3.2640    -2.9910    -0.6110 C.ar  1 <1>  -0.1500 
  7 N        5.9260    -0.5100     0.0090 N.am  1 <1>  -0.5470 
  8 C        4.5160    -2.3830    -0.5470 C.ar  1 <1>   0.0830 
  9 C        6.4720     0.5540     0.6630 C.2   1 <1>   0.5690 
 10 O        5.6600    -3.0020    -0.9680 O.3   1 <1>  -0.3630 
 11 O        5.8440     1.3230     1.3520 O.2   1 <1>  -0.5700 
 12 C        7.9810     0.7530     0.4970 C.3   1 <1>   0.1710 
 13 C        5.6480    -4.3200    -1.4680 C.3   1 <1>   0.0400 
 14 N        8.6930    -0.4550    -0.0230 N.3   1 <1>  -0.8100 
 15 C       10.0080    -0.1000    -0.5750 C.3   1 <1>   0.1100 
 16 C        8.8270    -1.4860     1.0250 C.3   1 <1>   0.1100 
 17 C       10.6200    -1.3240    -1.2580 C.3   1 <1>  -0.1600 
 18 C        9.3820    -2.7670     0.4070 C.3   1 <1>  -0.1600 
 19 C       10.7150    -2.4910    -0.2740 C.3   1 <1>   0.5600 
 20 O       11.1470    -3.6420    -0.9180 O.3   1 <1>  -0.5600 
 21 O       11.6780    -2.2280     0.6960 O.3   1 <1>  -0.5600 
 22 C       12.5240    -3.7070    -0.8440 C.3   1 <1>   0.1200 
 23 C       12.8820    -2.7860     0.3070 C.3   1 <1>   0.1200 
 24 H        3.5790     0.5800     0.8040 H     1 <1>   0.1500 
 25 H        1.1680    -2.7670    -0.2070 H     1 <1>   0.1500 
 26 H        3.1410    -3.9840    -1.0000 H     1 <1>   0.1500 
 27 H        6.6490    -1.0740    -0.4580 H     1 <1>   0.3700 
 28 H        8.4010     1.0500     1.4420 H     1 <1>   0.0800 
 29 H        8.1120     1.5670    -0.1930 H     1 <1>   0.0800 
 30 H        6.6590    -4.5910    -1.7190 H     1 <1>   0.0800 
 31 H        5.0330    -4.3550    -2.3490 H     1 <1>   0.0800 
 32 H        5.2730    -4.9800    -0.7060 H     1 <1>   0.0800 
 33 H       10.6580     0.2480     0.2120 H     1 <1>   0.0800 
 34 H        9.8970     0.6870    -1.3020 H     1 <1>   0.0800 
 35 H        7.8680    -1.7000     1.4670 H     1 <1>   0.0800 
 36 H        9.4870    -1.1390     1.8030 H     1 <1>   0.0800 
 37 H       11.5910    -1.0780    -1.6430 H     1 <1>   0.0800 
 38 H        9.9880    -1.6080    -2.0780 H     1 <1>   0.0800 
 39 H        8.6790    -3.1330    -0.3190 H     1 <1>   0.0800 
 40 H        9.5150    -3.5160     1.1640 H     1 <1>   0.0800 
 41 H       12.9410    -3.3580    -1.7730 H     1 <1>   0.0800 
 42 H       12.8210    -4.7240    -0.6600 H     1 <1>   0.0800 
 43 H       13.2980    -3.3270     1.1380 H     1 <1>   0.0800 
 44 H       13.5510    -2.0030    -0.0020 H     1 <1>   0.0800 
@<TRIPOS>BOND
  1   1   2  1   
  2   2   3  ar  
  3   2   4  ar  
  4   3   5  ar  
  5   3  24  1   
  6   4   6  ar  
  7   4  25  1   
  8   5   7  1   
  9   5   8  ar  
 10   6   8  ar  
 11   6  26  1   
 12   7   9  am  
 13   7  27  1   
 14   8  10  1   
 15   9  11  2   
 16   9  12  1   
 17  10  13  1   
 18  12  14  1   
 19  12  28  1   
 20  12  29  1   
 21  13  30  1   
 22  13  31  1   
 23  13  32  1   
 24  14  15  1   
 25  14  16  1   
 26  15  17  1   
 27  15  33  1   
 28  15  34  1   
 29  16  18  1   
 30  16  35  1   
 31  16  36  1   
 32  17  19  1   
 33  17  37  1   
 34  17  38  1   
 35  18  19  1   
 36  18  39  1   
 37  18  40  1   
 38  19  20  1   
 39  19  21  1   
 40  20  22  1   
 41  21  23  1   
 42  22  23  1   
 43  22  41  1   
 44  22  42  1   
 45  23  43  1   
 46  23  44  1   
@<TRIPOS>SUBSTRUCTURE
  1 ****   7 GROUP 4 **** **** 0

# MOE 2024.06 (io_trps.svl 2023.06)
