@<TRIPOS>MOLECULE
NONAME
49 50 1 0 0 
SMALL
USER_CHARGES


@<TRIPOS>ATOM
  1 O        0.7980    -1.5570    -2.9260 O.2   1 <1>  -0.5700 
  2 C        0.7840    -1.8910    -1.7640 C.2   1 <1>   0.5690 
  3 N       -0.3500    -2.3290    -1.1670 N.am  1 <1>  -0.7300 
  4 C        2.0680    -1.8240    -0.9290 C.3   1 <1>  -0.0190 
  5 C       -1.6810    -2.3080    -1.7820 C.3   1 <1>   0.3640 
  6 C        2.0490    -0.6240     0.0360 C.3   1 <1>  -0.0160 
  7 C        3.3440    -1.7860    -1.7950 C.3   1 <1>  -0.2400 
  8 C       -2.7240    -2.1020    -0.6840 C.ar  1 <1>  -0.1440 
  9 C       -1.9030    -3.6290    -2.5120 C.3   1 <1>  -0.2400 
 10 C        0.9560    -0.7650     1.0870 C.ar  1 <1>  -0.1440 
 11 C       -3.6550    -1.0670    -0.7620 C.ar  1 <1>   0.0820 
 12 C       -2.7530    -2.9520     0.4150 C.ar  1 <1>  -0.1500 
 13 C        1.1210    -1.6410     2.1480 C.ar  1 <1>  -0.1500 
 14 C       -0.2210    -0.0410     0.9790 C.ar  1 <1>  -0.1500 
 15 O       -3.6090    -0.2490    -1.8490 O.3   1 <1>  -0.3630 
 16 C       -4.5930    -0.9010     0.2560 C.ar  1 <1>  -0.1500 
 17 C       -3.6820    -2.7880     1.4280 C.ar  1 <1>   0.0820 
 18 C        0.1140    -1.8010     3.0850 C.ar  1 <1>  -0.1500 
 19 C       -1.2270    -0.2000     1.9150 C.ar  1 <1>  -0.1500 
 20 C       -4.4710     0.8580    -1.9870 C.3   1 <1>   0.0400 
 21 C       -4.6080    -1.7540     1.3440 C.ar  1 <1>  -0.1500 
 22 O       -3.6220    -3.6680     2.4610 O.3   1 <1>  -0.3620 
 23 C       -1.0610    -1.0830     2.9670 C.ar  1 <1>  -0.1500 
 24 C       -4.5480    -3.6090     3.5230 C.3   1 <1>   0.0400 
 25 H       -0.3840    -2.3360    -0.1430 H     1 <1>   0.3700 
 26 H        2.1100    -2.7260    -0.3450 H     1 <1>   0.0800 
 27 H       -1.7150    -1.5060    -2.5000 H     1 <1>   0.0800 
 28 H        1.9060     0.2840    -0.5250 H     1 <1>   0.0800 
 29 H        2.9970    -0.5470     0.5390 H     1 <1>   0.0800 
 30 H        3.3660    -0.8900    -2.3900 H     1 <1>   0.0800 
 31 H        3.3600    -2.6320    -2.4600 H     1 <1>   0.0800 
 32 H        4.2240    -1.8180    -1.1790 H     1 <1>   0.0800 
 33 H       -1.1810    -3.7320    -3.3020 H     1 <1>   0.0800 
 34 H       -2.8860    -3.6360    -2.9450 H     1 <1>   0.0800 
 35 H       -1.8150    -4.4600    -1.8370 H     1 <1>   0.0800 
 36 H       -2.0480    -3.7580     0.5010 H     1 <1>   0.1500 
 37 H        2.0300    -2.2070     2.2490 H     1 <1>   0.1500 
 38 H       -0.3690     0.6390     0.1580 H     1 <1>   0.1500 
 39 H       -5.3210    -0.1150     0.2180 H     1 <1>   0.1500 
 40 H        0.2430    -2.4870     3.9040 H     1 <1>   0.1500 
 41 H       -2.1440     0.3540     1.8170 H     1 <1>   0.1500 
 42 H       -4.2260     1.3580    -2.9070 H     1 <1>   0.0800 
 43 H       -5.4870     0.5080    -2.0220 H     1 <1>   0.0800 
 44 H       -4.3180     1.5250    -1.1570 H     1 <1>   0.0800 
 45 H       -5.3420    -1.5990     2.1110 H     1 <1>   0.1500 
 46 H       -1.8490    -1.2130     3.6880 H     1 <1>   0.1500 
 47 H       -4.3180    -4.4040     4.2100 H     1 <1>   0.0800 
 48 H       -5.5400    -3.7420     3.1300 H     1 <1>   0.0800 
 49 H       -4.4520    -2.6590     4.0180 H     1 <1>   0.0800 
@<TRIPOS>BOND
  1   1   2  2   
  2   2   3  am  
  3   2   4  1   
  4   3   5  1   
  5   3  25  1   
  6   4   6  1   
  7   4   7  1   
  8   4  26  1   
  9   5   8  1   
 10   5   9  1   
 11   5  27  1   
 12   6  10  1   
 13   6  28  1   
 14   6  29  1   
 15   7  30  1   
 16   7  31  1   
 17   7  32  1   
 18   8  11  ar  
 19   8  12  ar  
 20   9  33  1   
 21   9  34  1   
 22   9  35  1   
 23  10  13  ar  
 24  10  14  ar  
 25  11  15  1   
 26  11  16  ar  
 27  12  17  ar  
 28  12  36  1   
 29  13  18  ar  
 30  13  37  1   
 31  14  19  ar  
 32  14  38  1   
 33  15  20  1   
 34  16  21  ar  
 35  16  39  1   
 36  17  21  ar  
 37  17  22  1   
 38  18  23  ar  
 39  18  40  1   
 40  19  23  ar  
 41  19  41  1   
 42  20  42  1   
 43  20  43  1   
 44  20  44  1   
 45  21  45  1   
 46  22  24  1   
 47  23  46  1   
 48  24  47  1   
 49  24  48  1   
 50  24  49  1   
@<TRIPOS>SUBSTRUCTURE
  1 ****   8 GROUP 4 **** **** 0

# MOE 2024.06 (io_trps.svl 2023.06)
