@<TRIPOS>MOLECULE
NONAME
38 39 1 0 0 
SMALL
USER_CHARGES


@<TRIPOS>ATOM
  1 O        0.5270     1.2640    -1.1850 O.2   1 <1>  -0.5700 
  2 C        0.3690     1.9250    -0.1870 C.2   1 <1>   0.5690 
  3 N        1.3510     2.0570     0.7420 N.am  1 <1>  -0.7300 
  4 C       -0.9580     2.6490     0.0440 C.3   1 <1>  -0.0190 
  5 C        2.6780     1.4020     0.6560 C.3   1 <1>   0.1400 
  6 C       -2.1420     1.6630     0.0720 C.3   1 <1>  -0.1600 
  7 C       -1.1890     3.7420    -1.0170 C.3   1 <1>  -0.1600 
  8 C        3.6840     2.3450    -0.0010 C.3   1 <1>  -0.0170 
  9 C       -3.4770     2.3890     0.2930 C.3   1 <1>  -0.1600 
 10 C       -2.5240     4.4690    -0.7970 C.3   1 <1>  -0.1600 
 11 C        5.0560     1.6930    -0.0570 C.ar  1 <1>  -0.1440 
 12 C       -3.6950     3.4790    -0.7650 C.3   1 <1>  -0.1600 
 13 C        6.0120     1.9750     0.9060 C.ar  1 <1>  -0.1500 
 14 C        5.3580     0.8020    -1.0750 C.ar  1 <1>  -0.1500 
 15 C        7.2580     1.3730     0.8520 C.ar  1 <1>  -0.1500 
 16 C        6.6030     0.1990    -1.1310 C.ar  1 <1>  -0.1500 
 17 C        7.5540     0.4840    -0.1670 C.ar  1 <1>  -0.1500 
 18 H        1.1950     2.6450     1.5610 H     1 <1>   0.3700 
 19 H       -0.9100     3.1290     1.0050 H     1 <1>   0.0800 
 20 H        2.5990     0.4990     0.0730 H     1 <1>   0.0800 
 21 H        3.0120     1.1340     1.6440 H     1 <1>   0.0800 
 22 H       -1.9910     0.9400     0.8550 H     1 <1>   0.0800 
 23 H       -2.1800     1.1290    -0.8630 H     1 <1>   0.0800 
 24 H       -1.1880     3.2900    -1.9950 H     1 <1>   0.0800 
 25 H       -0.3820     4.4530    -0.9850 H     1 <1>   0.0800 
 26 H        3.7410     3.2640     0.5550 H     1 <1>   0.0800 
 27 H        3.3570     2.5730    -1.0010 H     1 <1>   0.0800 
 28 H       -3.4850     2.8360     1.2720 H     1 <1>   0.0800 
 29 H       -4.2840     1.6790     0.2480 H     1 <1>   0.0800 
 30 H       -2.6790     5.1830    -1.5880 H     1 <1>   0.0800 
 31 H       -2.4890     5.0110     0.1330 H     1 <1>   0.0800 
 32 H       -4.6090     4.0070    -0.5560 H     1 <1>   0.0800 
 33 H       -3.7950     3.0180    -1.7330 H     1 <1>   0.0800 
 34 H        5.7950     2.6640     1.7030 H     1 <1>   0.1500 
 35 H        4.6240     0.5740    -1.8290 H     1 <1>   0.1500 
 36 H        7.9970     1.5960     1.6020 H     1 <1>   0.1500 
 37 H        6.8300    -0.4910    -1.9240 H     1 <1>   0.1500 
 38 H        8.5210     0.0160    -0.2100 H     1 <1>   0.1500 
@<TRIPOS>BOND
  1   1   2  2   
  2   2   3  am  
  3   2   4  1   
  4   3   5  1   
  5   3  18  1   
  6   4   6  1   
  7   4   7  1   
  8   4  19  1   
  9   5   8  1   
 10   5  20  1   
 11   5  21  1   
 12   6   9  1   
 13   6  22  1   
 14   6  23  1   
 15   7  10  1   
 16   7  24  1   
 17   7  25  1   
 18   8  11  1   
 19   8  26  1   
 20   8  27  1   
 21   9  12  1   
 22   9  28  1   
 23   9  29  1   
 24  10  12  1   
 25  10  30  1   
 26  10  31  1   
 27  11  13  ar  
 28  11  14  ar  
 29  12  32  1   
 30  12  33  1   
 31  13  15  ar  
 32  13  34  1   
 33  14  16  ar  
 34  14  35  1   
 35  15  17  ar  
 36  15  36  1   
 37  16  17  ar  
 38  16  37  1   
 39  17  38  1   
@<TRIPOS>SUBSTRUCTURE
  1 ****   3 GROUP 4 **** **** 0

# MOE 2024.06 (io_trps.svl 2023.06)
