@<TRIPOS>MOLECULE
NONAME
56 58 1 0 0 
SMALL
USER_CHARGES


@<TRIPOS>ATOM
  1 O        2.3100    -8.9160    -1.7950 O.3   1 <1>  -0.3630 
  2 C        3.1110    -9.8920    -1.2990 C.ar  1 <1>   0.0830 
  3 C        1.5270    -8.1010    -0.9440 C.3   1 <1>   0.1200 
  4 C        2.8520   -10.5640    -0.1090 C.ar  1 <1>  -0.1500 
  5 C        4.2490   -10.2030    -2.0240 C.ar  1 <1>  -0.1500 
  6 C        2.4480    -7.2930    -0.0150 C.3   1 <1>   0.2000 
  7 C        3.7450   -11.5140     0.3550 C.ar  1 <1>  -0.1500 
  8 C        5.1370   -11.1540    -1.5550 C.ar  1 <1>  -0.1500 
  9 O        1.7220    -6.2600     0.5900 O.3   1 <1>  -0.6800 
 10 C        3.6360    -6.6860    -0.7940 C.3   1 <1>   0.3430 
 11 C        4.8960   -11.8160    -0.3580 C.ar  1 <1>  -0.1440 
 12 N        4.2320    -5.5350    -0.0530 N.4   1 <1>  -0.9590 
 13 C        5.8660   -12.8720     0.1710 C.3   1 <1>   0.0630 
 14 C        4.9570    -4.5910    -0.9740 C.3   1 <1>   0.3430 
 15 C        5.1390    -5.9920     1.0600 C.3   1 <1>   0.3430 
 16 C        7.2420   -12.2610     0.4520 C.3   1 <1>  -0.2400 
 17 C        5.9820   -14.0460    -0.8070 C.3   1 <1>  -0.2400 
 18 C        5.5890    -3.3970    -0.2240 C.3   1 <1>   0.2090 
 19 C        5.7730    -4.8120     1.8310 C.3   1 <1>   0.2090 
 20 N        6.4500    -3.8500     0.9100 N.pl3 1 <1>  -0.8380 
 21 C        7.7490    -4.1670     0.5750 C.ar  1 <1>   0.4100 
 22 N        7.9150    -5.2490    -0.1790 N.ar  1 <1>  -0.6200 
 23 C        8.7930    -3.3680     1.0250 C.ar  1 <1>  -0.1500 
 24 C        9.1710    -5.5360    -0.4890 C.ar  1 <1>   0.1600 
 25 C       10.0900    -3.6800     0.6940 C.ar  1 <1>  -0.1500 
 26 C       10.2740    -4.8020    -0.0890 C.ar  1 <1>  -0.1500 
 27 H        0.8410    -8.7230    -0.3980 H     1 <1>   0.0800 
 28 H        0.9690    -7.4380    -1.5810 H     1 <1>   0.0800 
 29 H        1.9620   -10.3750     0.4590 H     1 <1>   0.1500 
 30 H        4.4380    -9.7040    -2.9570 H     1 <1>   0.1500 
 31 H        2.8180    -7.9310     0.7700 H     1 <1>   0.0800 
 32 H        3.5340   -12.0280     1.2770 H     1 <1>   0.1500 
 33 H        6.0160   -11.3820    -2.1310 H     1 <1>   0.1500 
 34 H        0.9400    -6.6110     1.0700 H     1 <1>   0.4000 
 35 H        3.2640    -6.3460    -1.7460 H     1 <1>   0.0800 
 36 H        4.3770    -7.4450    -0.9870 H     1 <1>   0.0800 
 37 H        3.4220    -5.0520     0.3720 H     1 <1>   0.4500 
 38 H        5.4830   -13.2600     1.1000 H     1 <1>   0.0800 
 39 H        4.2810    -4.2170    -1.7240 H     1 <1>   0.0800 
 40 H        5.7500    -5.1210    -1.4760 H     1 <1>   0.0800 
 41 H        5.9400    -6.5850     0.6480 H     1 <1>   0.0800 
 42 H        4.5910    -6.6090     1.7510 H     1 <1>   0.0800 
 43 H        7.6940   -11.8990    -0.4540 H     1 <1>   0.0800 
 44 H        7.8920   -12.9970     0.8900 H     1 <1>   0.0800 
 45 H        7.1450   -11.4400     1.1400 H     1 <1>   0.0800 
 46 H        6.4100   -13.7290    -1.7400 H     1 <1>   0.0800 
 47 H        5.0070   -14.4580    -1.0000 H     1 <1>   0.0800 
 48 H        6.6030   -14.8190    -0.3900 H     1 <1>   0.0800 
 49 H        4.8160    -2.7510     0.1530 H     1 <1>   0.0800 
 50 H        6.1850    -2.8240    -0.9150 H     1 <1>   0.0800 
 51 H        6.4940    -5.1980     2.5320 H     1 <1>   0.0800 
 52 H        5.0160    -4.2940     2.3930 H     1 <1>   0.0800 
 53 H        8.5670    -2.5110     1.6310 H     1 <1>   0.1500 
 54 H        9.3360    -6.4080    -1.0990 H     1 <1>   0.1500 
 55 H       10.9210    -3.0820     1.0270 H     1 <1>   0.1500 
 56 H       11.2640    -5.1030    -0.3840 H     1 <1>   0.1500 
@<TRIPOS>BOND
  1   1   2  1   
  2   1   3  1   
  3   2   4  ar  
  4   2   5  ar  
  5   3   6  1   
  6   3  27  1   
  7   3  28  1   
  8   4   7  ar  
  9   4  29  1   
 10   5   8  ar  
 11   5  30  1   
 12   6   9  1   
 13   6  10  1   
 14   6  31  1   
 15   7  11  ar  
 16   7  32  1   
 17   8  11  ar  
 18   8  33  1   
 19   9  34  1   
 20  10  12  1   
 21  10  35  1   
 22  10  36  1   
 23  11  13  1   
 24  12  14  1   
 25  12  15  1   
 26  12  37  1   
 27  13  16  1   
 28  13  17  1   
 29  13  38  1   
 30  14  18  1   
 31  14  39  1   
 32  14  40  1   
 33  15  19  1   
 34  15  41  1   
 35  15  42  1   
 36  16  43  1   
 37  16  44  1   
 38  16  45  1   
 39  17  46  1   
 40  17  47  1   
 41  17  48  1   
 42  18  20  1   
 43  18  49  1   
 44  18  50  1   
 45  19  20  1   
 46  19  51  1   
 47  19  52  1   
 48  20  21  1   
 49  21  22  ar  
 50  21  23  ar  
 51  22  24  ar  
 52  23  25  ar  
 53  23  53  1   
 54  24  26  ar  
 55  24  54  1   
 56  25  26  ar  
 57  25  55  1   
 58  26  56  1   
@<TRIPOS>SUBSTRUCTURE
  1 ****  15 GROUP 4 **** **** 0

# MOE 2024.06 (io_trps.svl 2023.06)
