@<TRIPOS>MOLECULE
NONAME
50 51 1 0 0 
SMALL
USER_CHARGES


@<TRIPOS>ATOM
  1 O       -3.4360     2.2200    -0.8880 O.2   1 <1>  -0.5700 
  2 C       -2.3420     1.9930    -0.4030 C.2   1 <1>   0.5440 
  3 N       -2.1040     0.7510     0.1370 N.am  1 <1>  -0.5470 
  4 C       -1.3240     3.0350    -0.3810 C.ar  1 <1>   0.0860 
  5 C       -2.8360    -0.4580     0.1980 C.ar  1 <1>   0.1170 
  6 C        0.0500     2.8080    -0.1560 C.ar  1 <1>   0.0830 
  7 C       -1.7170     4.3620    -0.5980 C.ar  1 <1>  -0.1500 
  8 C       -4.2100    -0.5610     0.4930 C.ar  1 <1>   0.1170 
  9 C       -2.1100    -1.6250    -0.0080 C.ar  1 <1>  -0.1500 
 10 O        0.4860     1.5350     0.0440 O.3   1 <1>  -0.3620 
 11 C        0.9460     3.8740    -0.1440 C.ar  1 <1>  -0.1500 
 12 C       -0.8240     5.4130    -0.5890 C.ar  1 <1>  -0.1500 
 13 N       -4.9780     0.5970     0.6890 N.am  1 <1>  -0.5470 
 14 C       -4.7930    -1.8200     0.5670 C.ar  1 <1>  -0.1500 
 15 C       -2.7050    -2.8710     0.0700 C.ar  1 <1>  -0.1500 
 16 C        1.8530     1.2050     0.1880 C.3   1 <1>   0.0400 
 17 C        0.5240     5.1710    -0.3570 C.ar  1 <1>   0.0830 
 18 C       -6.1340     0.8470     1.3650 C.2   1 <1>   0.5690 
 19 C       -4.0520    -2.9690     0.3600 C.ar  1 <1>  -0.1500 
 20 O        1.4680     6.1380    -0.3270 O.3   1 <1>  -0.3630 
 21 O       -6.7390     0.0180     2.0020 O.2   1 <1>  -0.5700 
 22 C       -6.6700     2.2660     1.3210 C.3   1 <1>  -0.0990 
 23 C        1.1520     7.4960    -0.5420 C.3   1 <1>   0.0400 
 24 C       -7.0910     2.6960    -0.0940 C.3   1 <1>  -0.1600 
 25 C       -7.6400     4.1280    -0.1020 C.3   1 <1>  -0.1600 
 26 C       -8.0420     4.5530    -1.5160 C.3   1 <1>  -0.2400 
 27 H       -1.1210     0.6470     0.4050 H     1 <1>   0.3700 
 28 H       -2.7570     4.5750    -0.7810 H     1 <1>   0.1500 
 29 H       -1.0610    -1.5620    -0.2360 H     1 <1>   0.1500 
 30 H        1.9950     3.7330     0.0300 H     1 <1>   0.1500 
 31 H       -1.1900     6.4080    -0.7620 H     1 <1>   0.1500 
 32 H       -4.5790     1.4040     0.1940 H     1 <1>   0.3700 
 33 H       -5.8420    -1.9100     0.7860 H     1 <1>   0.1500 
 34 H       -2.1240    -3.7620    -0.0950 H     1 <1>   0.1500 
 35 H        1.9330     0.1370     0.2930 H     1 <1>   0.0800 
 36 H        2.2400     1.6860     1.0690 H     1 <1>   0.0800 
 37 H        2.3860     1.5240    -0.6900 H     1 <1>   0.0800 
 38 H       -4.5260    -3.9330     0.4240 H     1 <1>   0.1500 
 39 H       -5.9090     2.9270     1.6930 H     1 <1>   0.0800 
 40 H       -7.5150     2.3310     1.9830 H     1 <1>   0.0800 
 41 H        2.0600     8.0660    -0.4700 H     1 <1>   0.0800 
 42 H        0.4580     7.8170     0.2150 H     1 <1>   0.0800 
 43 H        0.7290     7.6050    -1.5250 H     1 <1>   0.0800 
 44 H       -7.8460     2.0180    -0.4580 H     1 <1>   0.0800 
 45 H       -6.2450     2.6360    -0.7580 H     1 <1>   0.0800 
 46 H       -6.8890     4.8050     0.2700 H     1 <1>   0.0800 
 47 H       -8.4990     4.1910     0.5450 H     1 <1>   0.0800 
 48 H       -7.1920     4.5150    -2.1760 H     1 <1>   0.0800 
 49 H       -8.4230     5.5590    -1.5050 H     1 <1>   0.0800 
 50 H       -8.8070     3.9010    -1.9010 H     1 <1>   0.0800 
@<TRIPOS>BOND
  1   1   2  2   
  2   2   3  am  
  3   2   4  1   
  4   3   5  1   
  5   3  27  1   
  6   4   6  ar  
  7   4   7  ar  
  8   5   8  ar  
  9   5   9  ar  
 10   6  10  1   
 11   6  11  ar  
 12   7  12  ar  
 13   7  28  1   
 14   8  13  1   
 15   8  14  ar  
 16   9  15  ar  
 17   9  29  1   
 18  10  16  1   
 19  11  17  ar  
 20  11  30  1   
 21  12  17  ar  
 22  12  31  1   
 23  13  18  am  
 24  13  32  1   
 25  14  19  ar  
 26  14  33  1   
 27  15  19  ar  
 28  15  34  1   
 29  16  35  1   
 30  16  36  1   
 31  16  37  1   
 32  17  20  1   
 33  18  21  2   
 34  18  22  1   
 35  19  38  1   
 36  20  23  1   
 37  22  24  1   
 38  22  39  1   
 39  22  40  1   
 40  23  41  1   
 41  23  42  1   
 42  23  43  1   
 43  24  25  1   
 44  24  44  1   
 45  24  45  1   
 46  25  26  1   
 47  25  46  1   
 48  25  47  1   
 49  26  48  1   
 50  26  49  1   
 51  26  50  1   
@<TRIPOS>SUBSTRUCTURE
  1 ****   2 GROUP 4 **** **** 0

# MOE 2024.06 (io_trps.svl 2023.06)
