@<TRIPOS>MOLECULE
NONAME
45 46 1 0 0 
SMALL
USER_CHARGES


@<TRIPOS>ATOM
  1 CL      -0.2100    -1.3230    -0.8030 Cl    1 <1>  -0.1770 
  2 C        1.3280    -2.1370    -0.6720 C.ar  1 <1>   0.1770 
  3 C        2.4560    -1.4060    -0.3550 C.ar  1 <1>  -0.1500 
  4 C        1.3890    -3.5000    -0.8880 C.ar  1 <1>  -0.1500 
  5 C        3.6890    -2.0410    -0.2450 C.ar  1 <1>   0.1170 
  6 C        2.6100    -4.1430    -0.7810 C.ar  1 <1>  -0.1500 
  7 N        4.8570    -1.3130     0.0790 N.am  1 <1>  -0.2370 
  8 C        3.7450    -3.4170    -0.4620 C.ar  1 <1>  -0.1500 
  9 C        5.8010    -1.7010     0.9940 C.2   1 <1>   0.5690 
 10 C        5.2180    -0.1080    -0.4640 C.2   1 <1>   0.5690 
 11 O        5.7030    -2.6390     1.7470 O.2   1 <1>  -0.5700 
 12 C        6.9980    -0.7390     0.9880 C.3   1 <1>   0.2510 
 13 O        4.6220     0.5020    -1.3120 O.2   1 <1>  -0.5700 
 14 C        6.4970     0.4260     0.1300 C.3   1 <1>  -0.0990 
 15 N        8.2280    -1.3140     0.3970 N.3   1 <1>  -0.9000 
 16 C        9.4350    -0.5390     0.6660 C.3   1 <1>   0.1100 
 17 C       10.6220    -1.2580     0.0310 C.3   1 <1>  -0.1600 
 18 C       11.9310    -0.5000     0.2880 C.3   1 <1>  -0.1600 
 19 C       13.1230    -1.2240    -0.3510 C.3   1 <1>  -0.1600 
 20 C       14.4320    -0.4680    -0.0960 C.3   1 <1>  -0.1600 
 21 C       15.6230    -1.1920    -0.7350 C.3   1 <1>  -0.1600 
 22 C       16.9300    -0.4370    -0.4800 C.3   1 <1>  -0.2400 
 23 H        2.3670    -0.3460    -0.2000 H     1 <1>   0.1500 
 24 H        0.4950    -4.0450    -1.1340 H     1 <1>   0.1500 
 25 H        2.6770    -5.2060    -0.9430 H     1 <1>   0.1500 
 26 H        4.6880    -3.9300    -0.3760 H     1 <1>   0.1500 
 27 H        7.1900    -0.4250     2.0000 H     1 <1>   0.0800 
 28 H        6.2650     1.2770     0.7430 H     1 <1>   0.0800 
 29 H        7.1810     0.7080    -0.6480 H     1 <1>   0.0800 
 30 H        8.1200    -1.4560    -0.6150 H     1 <1>   0.3600 
 31 H        9.5860    -0.4650     1.7310 H     1 <1>   0.0800 
 32 H        9.3470     0.4530     0.2560 H     1 <1>   0.0800 
 33 H       10.4630    -1.3430    -1.0300 H     1 <1>   0.0800 
 34 H       10.6950    -2.2480     0.4480 H     1 <1>   0.0800 
 35 H       12.0940    -0.4170     1.3490 H     1 <1>   0.0800 
 36 H       11.8580     0.4940    -0.1200 H     1 <1>   0.0800 
 37 H       12.9620    -1.3120    -1.4130 H     1 <1>   0.0800 
 38 H       13.1990    -2.2170     0.0580 H     1 <1>   0.0800 
 39 H       14.5950    -0.3810     0.9650 H     1 <1>   0.0800 
 40 H       14.3580     0.5260    -0.5060 H     1 <1>   0.0800 
 41 H       15.4660    -1.2800    -1.7960 H     1 <1>   0.0800 
 42 H       15.7030    -2.1860    -0.3260 H     1 <1>   0.0800 
 43 H       16.8800     0.5530    -0.9000 H     1 <1>   0.0800 
 44 H       17.7520    -0.9600    -0.9350 H     1 <1>   0.0800 
 45 H       17.1180    -0.3560     0.5760 H     1 <1>   0.0800 
@<TRIPOS>BOND
  1   1   2  1   
  2   2   3  ar  
  3   2   4  ar  
  4   3   5  ar  
  5   3  23  1   
  6   4   6  ar  
  7   4  24  1   
  8   5   7  1   
  9   5   8  ar  
 10   6   8  ar  
 11   6  25  1   
 12   7   9  am  
 13   7  10  am  
 14   8  26  1   
 15   9  11  2   
 16   9  12  1   
 17  10  13  2   
 18  10  14  1   
 19  12  14  1   
 20  12  15  1   
 21  12  27  1   
 22  14  28  1   
 23  14  29  1   
 24  15  16  1   
 25  15  30  1   
 26  16  17  1   
 27  16  31  1   
 28  16  32  1   
 29  17  18  1   
 30  17  33  1   
 31  17  34  1   
 32  18  19  1   
 33  18  35  1   
 34  18  36  1   
 35  19  20  1   
 36  19  37  1   
 37  19  38  1   
 38  20  21  1   
 39  20  39  1   
 40  20  40  1   
 41  21  22  1   
 42  21  41  1   
 43  21  42  1   
 44  22  43  1   
 45  22  44  1   
 46  22  45  1   
@<TRIPOS>SUBSTRUCTURE
  1 ****  12 GROUP 4 **** **** 0

# MOE 2024.06 (io_trps.svl 2023.06)
