@<TRIPOS>MOLECULE
NONAME
48 51 1 0 0 
SMALL
USER_CHARGES


@<TRIPOS>ATOM
  1 S       -0.6790    -0.0440     0.7940 S.o2  1 <1>   1.3330 
  2 O       -1.5420     0.8940     1.4640 O.2   1 <1>  -0.6500 
  3 O       -0.7870    -1.4630     1.0170 O.2   1 <1>  -0.6500 
  4 N        0.8980     0.4570     1.2480 N.am  1 <1>  -0.7570 
  5 C       -0.6990     0.3080    -0.9500 C.3   1 <1>  -0.1350 
  6 C        2.1280    -0.1450     1.0380 C.ar  1 <1>   0.1990 
  7 C        2.2880    -1.3510     0.3620 C.ar  1 <1>  -0.1500 
  8 C        3.2710     0.4830     1.5180 C.ar  1 <1>  -0.1500 
  9 C        3.5430    -1.8930     0.1640 C.ar  1 <1>  -0.1500 
 10 C        4.5250    -0.0620     1.3200 C.ar  1 <1>  -0.1500 
 11 C        4.7000    -1.2630     0.6270 C.ar  1 <1>   0.0860 
 12 C        6.0100    -1.8390     0.3940 C.2   1 <1>   0.5440 
 13 O        6.1330    -3.0400     0.2510 O.2   1 <1>  -0.5700 
 14 N        7.1130    -1.0300     0.3130 N.am  1 <1>  -0.7300 
 15 C        8.5250    -1.4000     0.1030 C.3   1 <1>   0.3000 
 16 C        9.0280    -2.3290     1.2250 C.3   1 <1>  -0.1600 
 17 C        9.3490    -0.0990     0.1330 C.3   1 <1>  -0.1600 
 18 C        8.7190    -2.0780    -1.2670 C.3   1 <1>  -0.1600 
 19 C       10.5200    -2.6550     1.0100 C.3   1 <1>  -0.0800 
 20 C       10.8440    -0.4040    -0.0840 C.3   1 <1>  -0.0800 
 21 C       10.2090    -2.4030    -1.4880 C.3   1 <1>  -0.0800 
 22 C       11.3330    -1.3470     1.0320 C.3   1 <1>  -0.1600 
 23 C       10.6950    -3.3360    -0.3610 C.3   1 <1>  -0.1600 
 24 C       11.0250    -1.0960    -1.4480 C.3   1 <1>  -0.1600 
 25 H        0.8310     1.2310     1.9010 H     1 <1>   0.4200 
 26 H       -1.6620     0.0740    -1.3590 H     1 <1>   0.0800 
 27 H        0.0410    -0.2790    -1.4570 H     1 <1>   0.0800 
 28 H       -0.4960     1.3460    -1.1210 H     1 <1>   0.0800 
 29 H        1.4330    -1.8850    -0.0080 H     1 <1>   0.1500 
 30 H        3.1750     1.4100     2.0540 H     1 <1>   0.1500 
 31 H        3.6410    -2.8310    -0.3570 H     1 <1>   0.1500 
 32 H        5.3850     0.4470     1.7190 H     1 <1>   0.1500 
 33 H        6.9640    -0.0250     0.2980 H     1 <1>   0.3700 
 34 H        8.8920    -1.8570     2.1810 H     1 <1>   0.0800 
 35 H        8.4690    -3.2470     1.2220 H     1 <1>   0.0800 
 36 H        9.2230     0.3910     1.0820 H     1 <1>   0.0800 
 37 H        9.0100     0.5660    -0.6420 H     1 <1>   0.0800 
 38 H        8.3670    -1.4310    -2.0490 H     1 <1>   0.0800 
 39 H        8.1530    -2.9910    -1.3080 H     1 <1>   0.0800 
 40 H       10.8640    -3.3120     1.7910 H     1 <1>   0.0800 
 41 H       11.4120     0.5110    -0.0620 H     1 <1>   0.0800 
 42 H       10.3380    -2.8850    -2.4420 H     1 <1>   0.0800 
 43 H       12.3770    -1.5660     0.8930 H     1 <1>   0.0800 
 44 H       11.2260    -0.8670     1.9900 H     1 <1>   0.0800 
 45 H       10.1330    -4.2550    -0.3840 H     1 <1>   0.0800 
 46 H       11.7310    -3.5840    -0.5150 H     1 <1>   0.0800 
 47 H       10.7010    -0.4410    -2.2370 H     1 <1>   0.0800 
 48 H       12.0660    -1.3130    -1.6110 H     1 <1>   0.0800 
@<TRIPOS>BOND
  1   1   2  2   
  2   1   3  2   
  3   1   4  am  
  4   1   5  1   
  5   4   6  1   
  6   4  25  1   
  7   5  26  1   
  8   5  27  1   
  9   5  28  1   
 10   6   7  ar  
 11   6   8  ar  
 12   7   9  ar  
 13   7  29  1   
 14   8  10  ar  
 15   8  30  1   
 16   9  11  ar  
 17   9  31  1   
 18  10  11  ar  
 19  10  32  1   
 20  11  12  1   
 21  12  13  2   
 22  12  14  am  
 23  14  15  1   
 24  14  33  1   
 25  15  16  1   
 26  15  17  1   
 27  15  18  1   
 28  16  19  1   
 29  16  34  1   
 30  16  35  1   
 31  17  20  1   
 32  17  36  1   
 33  17  37  1   
 34  18  21  1   
 35  18  38  1   
 36  18  39  1   
 37  19  22  1   
 38  19  23  1   
 39  19  40  1   
 40  20  22  1   
 41  20  24  1   
 42  20  41  1   
 43  21  23  1   
 44  21  24  1   
 45  21  42  1   
 46  22  43  1   
 47  22  44  1   
 48  23  45  1   
 49  23  46  1   
 50  24  47  1   
 51  24  48  1   
@<TRIPOS>SUBSTRUCTURE
  1 ****  12 GROUP 4 **** **** 0

# MOE 2024.06 (io_trps.svl 2023.06)
