@<TRIPOS>MOLECULE
NONAME
35 36 1 0 0 
SMALL
USER_CHARGES


@<TRIPOS>ATOM
  1 S       -0.3560    -0.2360     0.0020 S.3   1 <1>  -0.4600 
  2 C       -1.3660    -1.4990    -0.8450 C.3   1 <1>   0.2110 
  3 C        1.3470    -0.7340    -0.3710 C.3   1 <1>   0.0700 
  4 C       -2.8160    -1.0490    -0.9360 C.2   1 <1>   0.5690 
  5 C       -1.4220    -2.7440     0.0410 C.3   1 <1>  -0.0990 
  6 C        2.2920     0.2590     0.3090 C.3   1 <1>  -0.0990 
  7 O       -3.1950    -0.2200    -1.7270 O.2   1 <1>  -0.5700 
  8 N       -3.5980    -1.7540    -0.0600 N.am  1 <1>  -0.2370 
  9 C       -2.8450    -2.7310     0.5410 C.2   1 <1>   0.5690 
 10 C        3.7450    -0.0910     0.0730 C.2   1 <1>   0.6590 
 11 C       -4.9730    -1.5150     0.1750 C.ar  1 <1>   0.1170 
 12 O       -3.2230    -3.5300     1.3590 O.2   1 <1>  -0.5700 
 13 O        4.0780    -1.0680    -0.5480 O.2   1 <1>  -0.5700 
 14 O        4.6270     0.7490     0.5980 O.3   1 <1>  -0.4300 
 15 C       -5.4490    -0.2180     0.3460 C.ar  1 <1>  -0.1500 
 16 C       -5.8840    -2.5650     0.2410 C.ar  1 <1>  -0.1500 
 17 C        6.0190     0.5460     0.4590 C.3   1 <1>   0.0400 
 18 C       -6.7920     0.0230     0.5750 C.ar  1 <1>  -0.1500 
 19 C       -7.2270    -2.3280     0.4710 C.ar  1 <1>  -0.1500 
 20 C       -7.6840    -1.0330     0.6380 C.ar  1 <1>  -0.1500 
 21 H       -0.9430    -1.6790    -1.8160 H     1 <1>   0.0800 
 22 H        1.4670    -0.7200    -1.4410 H     1 <1>   0.0800 
 23 H        1.4900    -1.7320     0.0050 H     1 <1>   0.0800 
 24 H       -0.7330    -2.7060     0.8660 H     1 <1>   0.0800 
 25 H       -1.2580    -3.6350    -0.5360 H     1 <1>   0.0800 
 26 H        2.1110     0.2620     1.3670 H     1 <1>   0.0800 
 27 H        2.1120     1.2460    -0.0730 H     1 <1>   0.0800 
 28 H       -4.7670     0.6130     0.2960 H     1 <1>   0.1500 
 29 H       -5.5430    -3.5770     0.1170 H     1 <1>   0.1500 
 30 H        6.5320     1.3470     0.9610 H     1 <1>   0.0800 
 31 H        6.2670     0.5450    -0.5880 H     1 <1>   0.0800 
 32 H        6.2790    -0.3990     0.9030 H     1 <1>   0.0800 
 33 H       -7.1430     1.0320     0.7030 H     1 <1>   0.1500 
 34 H       -7.9180    -3.1520     0.5210 H     1 <1>   0.1500 
 35 H       -8.7290    -0.8470     0.8170 H     1 <1>   0.1500 
@<TRIPOS>BOND
  1   1   2  1   
  2   1   3  1   
  3   2   4  1   
  4   2   5  1   
  5   2  21  1   
  6   3   6  1   
  7   3  22  1   
  8   3  23  1   
  9   4   7  2   
 10   4   8  am  
 11   5   9  1   
 12   5  24  1   
 13   5  25  1   
 14   6  10  1   
 15   6  26  1   
 16   6  27  1   
 17   8   9  am  
 18   8  11  1   
 19   9  12  2   
 20  10  13  2   
 21  10  14  1   
 22  11  15  ar  
 23  11  16  ar  
 24  14  17  1   
 25  15  18  ar  
 26  15  28  1   
 27  16  19  ar  
 28  16  29  1   
 29  17  30  1   
 30  17  31  1   
 31  17  32  1   
 32  18  20  ar  
 33  18  33  1   
 34  19  20  ar  
 35  19  34  1   
 36  20  35  1   
@<TRIPOS>SUBSTRUCTURE
  1 ****   2 GROUP 4 **** **** 0

# MOE 2024.06 (io_trps.svl 2023.06)
