@<TRIPOS>MOLECULE
NONAME
41 42 1 0 0 
SMALL
USER_CHARGES


@<TRIPOS>ATOM
  1 S       -0.0330     0.1030     1.3910 S.3   1 <1>  -0.0800 
  2 C        0.3580    -1.4500     0.6660 C.2   1 <1>   0.1040 
  3 C        1.6130     0.6760     1.1960 C.2   1 <1>  -0.1100 
  4 N       -0.6010    -2.4400     0.5150 N.am  1 <1>  -0.4940 
  5 C        1.6770    -1.4930     0.3040 C.2   1 <1>  -0.0860 
  6 C        2.3720    -0.2710     0.6180 C.2   1 <1>  -0.1500 
  7 C       -1.9310    -2.5000     0.8560 C.2   1 <1>   0.5690 
  8 C        2.3010    -2.6260    -0.3190 C.2   1 <1>   0.8060 
  9 O       -2.5300    -1.6160     1.4190 O.2   1 <1>  -0.5700 
 10 C       -2.7370    -3.7580     0.4950 C.3   1 <1>   0.4040 
 11 O        1.6850    -3.6460    -0.5860 O.2   1 <1>  -0.5700 
 12 O        3.6030    -2.5550    -0.6170 O.3   1 <1>  -0.4300 
 13 N       -4.2280    -3.5090     0.4340 N.4   1 <1>  -0.9590 
 14 C        4.2890    -3.6280    -1.2320 C.3   1 <1>   0.0400 
 15 C       -5.0020    -4.7710     0.5710 C.3   1 <1>   0.3430 
 16 C       -4.5840    -2.6660    -0.7450 C.3   1 <1>   0.3430 
 17 C       -6.4950    -4.5170     0.7910 C.3   1 <1>  -0.1600 
 18 C       -5.8100    -1.8140    -0.4200 C.3   1 <1>  -0.1600 
 19 C       -7.2160    -4.0170    -0.4690 C.3   1 <1>  -0.1600 
 20 C       -7.1670    -2.4950    -0.6640 C.3   1 <1>  -0.1600 
 21 H        1.8330     1.6710     1.5410 H     1 <1>   0.1500 
 22 H       -0.2020    -3.2770     0.0690 H     1 <1>   0.3700 
 23 H        3.4190    -0.1590     0.3920 H     1 <1>   0.1500 
 24 H       -2.5320    -4.4970     1.2500 H     1 <1>   0.0800 
 25 H       -2.3940    -4.1400    -0.4510 H     1 <1>   0.0800 
 26 H       -4.4230    -2.9100     1.2560 H     1 <1>   0.4500 
 27 H        5.3170    -3.3410    -1.3700 H     1 <1>   0.0800 
 28 H        3.8340    -3.8360    -2.1850 H     1 <1>   0.0800 
 29 H        4.2310    -4.4930    -0.5940 H     1 <1>   0.0800 
 30 H       -4.6270    -5.3240     1.4170 H     1 <1>   0.0800 
 31 H       -4.8700    -5.3810    -0.3090 H     1 <1>   0.0800 
 32 H       -4.7620    -3.2730    -1.6180 H     1 <1>   0.0800 
 33 H       -3.7680    -1.9940    -0.9600 H     1 <1>   0.0800 
 34 H       -6.6550    -3.8520     1.6220 H     1 <1>   0.0800 
 35 H       -6.9350    -5.4620     1.0600 H     1 <1>   0.0800 
 36 H       -5.7760    -0.9340    -1.0380 H     1 <1>   0.0800 
 37 H       -5.7480    -1.4690     0.5980 H     1 <1>   0.0800 
 38 H       -8.2540    -4.3010    -0.4050 H     1 <1>   0.0800 
 39 H       -6.8170    -4.5110    -1.3390 H     1 <1>   0.0800 
 40 H       -7.4850    -2.2840    -1.6720 H     1 <1>   0.0800 
 41 H       -7.8940    -2.0360    -0.0140 H     1 <1>   0.0800 
@<TRIPOS>BOND
  1   1   2  1   
  2   1   3  1   
  3   2   4  1   
  4   2   5  2   
  5   3   6  2   
  6   3  21  1   
  7   4   7  am  
  8   4  22  1   
  9   5   6  1   
 10   5   8  1   
 11   6  23  1   
 12   7   9  2   
 13   7  10  1   
 14   8  11  2   
 15   8  12  1   
 16  10  13  1   
 17  10  24  1   
 18  10  25  1   
 19  12  14  1   
 20  13  15  1   
 21  13  16  1   
 22  13  26  1   
 23  14  27  1   
 24  14  28  1   
 25  14  29  1   
 26  15  17  1   
 27  15  30  1   
 28  15  31  1   
 29  16  18  1   
 30  16  32  1   
 31  16  33  1   
 32  17  19  1   
 33  17  34  1   
 34  17  35  1   
 35  18  20  1   
 36  18  36  1   
 37  18  37  1   
 38  19  20  1   
 39  19  38  1   
 40  19  39  1   
 41  20  40  1   
 42  20  41  1   
@<TRIPOS>SUBSTRUCTURE
  1 ****   7 GROUP 4 **** **** 0

# MOE 2024.06 (io_trps.svl 2023.06)
