@<TRIPOS>MOLECULE
NONAME
53 54 1 0 0 
SMALL
USER_CHARGES


@<TRIPOS>ATOM
  1 O        0.1440     0.2540    -0.8710 O.2   1 <1>  -0.5700 
  2 C        0.0540    -0.9170    -0.5580 C.2   1 <1>   0.5440 
  3 N        1.1910    -1.6580    -0.3330 N.am  1 <1>  -0.5470 
  4 C       -1.2450    -1.5520    -0.4570 C.ar  1 <1>   0.0860 
  5 C        2.5330    -1.2540    -0.2410 C.ar  1 <1>   0.1170 
  6 C       -2.2930    -1.1780    -1.2990 C.ar  1 <1>  -0.1500 
  7 C       -1.5060    -2.5580     0.4780 C.ar  1 <1>  -0.1500 
  8 C        3.5330    -2.1350    -0.6310 C.ar  1 <1>  -0.1500 
  9 C        2.9020    -0.0080     0.2490 C.ar  1 <1>  -0.1500 
 10 C       -3.5310    -1.7860    -1.2260 C.ar  1 <1>  -0.1500 
 11 C       -2.7430    -3.1720     0.5570 C.ar  1 <1>  -0.1500 
 12 C        4.8750    -1.7830    -0.5360 C.ar  1 <1>   0.0830 
 13 C        4.2340     0.3500     0.3510 C.ar  1 <1>  -0.1500 
 14 C       -3.7700    -2.7900    -0.3020 C.ar  1 <1>   0.0830 
 15 O        5.8900    -2.6170    -0.9190 O.3   1 <1>  -0.3630 
 16 C        5.2400    -0.5290    -0.0330 C.ar  1 <1>   0.1170 
 17 O       -5.0100    -3.3320    -0.3020 O.3   1 <1>  -0.3630 
 18 C        5.6270    -3.8660    -1.5210 C.3   1 <1>   0.0400 
 19 N        6.6130    -0.2210     0.0490 N.am  1 <1>  -0.5470 
 20 C       -5.4470    -4.3010     0.6250 C.3   1 <1>   0.2000 
 21 C        7.3100     0.8210     0.5930 C.2   1 <1>   0.5690 
 22 C       -6.6670    -4.9870     0.0150 C.3   1 <1>  -0.2400 
 23 C       -5.8070    -3.6020     1.9380 C.3   1 <1>  -0.2400 
 24 O        6.7900     1.7480     1.1660 O.2   1 <1>  -0.5700 
 25 C        8.8380     0.7890     0.4660 C.3   1 <1>  -0.0190 
 26 C        9.5150     0.6930     1.8430 C.3   1 <1>  -0.2400 
 27 C        9.3670     2.0150    -0.2960 C.3   1 <1>  -0.2400 
 28 H        1.0400    -2.6630    -0.3040 H     1 <1>   0.3700 
 29 H       -2.1250    -0.3950    -2.0210 H     1 <1>   0.1500 
 30 H       -0.7330    -2.8580     1.1630 H     1 <1>   0.1500 
 31 H        3.2400    -3.0920    -1.0120 H     1 <1>   0.1500 
 32 H        2.1450     0.6920     0.5550 H     1 <1>   0.1500 
 33 H       -4.3250    -1.4860    -1.8860 H     1 <1>   0.1500 
 34 H       -2.8940    -3.9390     1.2920 H     1 <1>   0.1500 
 35 H        4.4780     1.3240     0.7320 H     1 <1>   0.1500 
 36 H        6.5690    -4.3230    -1.7700 H     1 <1>   0.0800 
 37 H        5.0510    -3.7090    -2.4160 H     1 <1>   0.0800 
 38 H        5.0960    -4.4870    -0.8220 H     1 <1>   0.0800 
 39 H        7.1800    -0.9650    -0.3580 H     1 <1>   0.3700 
 40 H       -4.6670    -5.0290     0.7650 H     1 <1>   0.0800 
 41 H       -7.4480    -4.2700    -0.1650 H     1 <1>   0.0800 
 42 H       -7.0390    -5.7420     0.6830 H     1 <1>   0.0800 
 43 H       -6.3950    -5.4570    -0.9130 H     1 <1>   0.0800 
 44 H       -6.5790    -2.8720     1.7700 H     1 <1>   0.0800 
 45 H       -4.9480    -3.1140     2.3590 H     1 <1>   0.0800 
 46 H       -6.1680    -4.3230     2.6500 H     1 <1>   0.0800 
 47 H        9.1120    -0.0860    -0.0950 H     1 <1>   0.0800 
 48 H        9.2780     1.5600     2.4350 H     1 <1>   0.0800 
 49 H       10.5830     0.6270     1.7370 H     1 <1>   0.0800 
 50 H        9.1660    -0.1800     2.3670 H     1 <1>   0.0800 
 51 H        9.1310     2.9180     0.2410 H     1 <1>   0.0800 
 52 H        8.9100     2.0710    -1.2680 H     1 <1>   0.0800 
 53 H       10.4330     1.9540    -0.4190 H     1 <1>   0.0800 
@<TRIPOS>BOND
  1   1   2  2   
  2   2   3  am  
  3   2   4  1   
  4   3   5  1   
  5   3  28  1   
  6   4   6  ar  
  7   4   7  ar  
  8   5   8  ar  
  9   5   9  ar  
 10   6  10  ar  
 11   6  29  1   
 12   7  11  ar  
 13   7  30  1   
 14   8  12  ar  
 15   8  31  1   
 16   9  13  ar  
 17   9  32  1   
 18  10  14  ar  
 19  10  33  1   
 20  11  14  ar  
 21  11  34  1   
 22  12  15  1   
 23  12  16  ar  
 24  13  16  ar  
 25  13  35  1   
 26  14  17  1   
 27  15  18  1   
 28  16  19  1   
 29  17  20  1   
 30  18  36  1   
 31  18  37  1   
 32  18  38  1   
 33  19  21  am  
 34  19  39  1   
 35  20  22  1   
 36  20  23  1   
 37  20  40  1   
 38  21  24  2   
 39  21  25  1   
 40  22  41  1   
 41  22  42  1   
 42  22  43  1   
 43  23  44  1   
 44  23  45  1   
 45  23  46  1   
 46  25  26  1   
 47  25  27  1   
 48  25  47  1   
 49  26  48  1   
 50  26  49  1   
 51  26  50  1   
 52  27  51  1   
 53  27  52  1   
 54  27  53  1   
@<TRIPOS>SUBSTRUCTURE
  1 ****   3 GROUP 4 **** **** 0

# MOE 2024.06 (io_trps.svl 2023.06)
