@<TRIPOS>MOLECULE
NONAME
51 53 1 0 0 
SMALL
USER_CHARGES


@<TRIPOS>ATOM
  1 CL      -0.9450     0.3440    -0.2450 Cl    1 <1>  -0.1770 
  2 C       -1.1750     2.0210    -0.6710 C.ar  1 <1>   0.1770 
  3 C       -1.7190     2.3380    -1.9030 C.ar  1 <1>  -0.1500 
  4 C       -0.8080     3.0050     0.2290 C.ar  1 <1>  -0.1500 
  5 C       -1.9030     3.6690    -2.2390 C.ar  1 <1>  -0.1500 
  6 C       -0.9930     4.3360    -0.1080 C.ar  1 <1>  -0.1500 
  7 C       -1.5500     4.6670    -1.3410 C.ar  1 <1>   0.0830 
  8 O       -1.7470     5.9580    -1.7080 O.3   1 <1>  -0.1650 
  9 C       -2.1890     6.8840    -0.8220 C.ar  1 <1>   0.0830 
 10 C       -3.1830     6.5920     0.1040 C.ar  1 <1>  -0.1500 
 11 C       -1.6390     8.1540    -0.8690 C.ar  1 <1>  -0.1500 
 12 C       -3.6240     7.5680     0.9860 C.ar  1 <1>  -0.1430 
 13 C       -2.0670     9.1260     0.0170 C.ar  1 <1>  -0.1500 
 14 C       -3.0550     8.8340     0.9430 C.ar  1 <1>  -0.1500 
 15 C       -4.7260     7.2580     1.9810 C.3   1 <1>   0.4860 
 16 N       -6.0160     7.1460     1.2450 N.4   1 <1>  -0.9590 
 17 C       -6.3940     8.4360     0.5930 C.3   1 <1>   0.3430 
 18 C       -7.0960     6.6130     2.1190 C.3   1 <1>   0.3430 
 19 C       -7.6400     8.2300    -0.2660 C.3   1 <1>  -0.1600 
 20 C       -8.3510     6.3670     1.2840 C.3   1 <1>  -0.1600 
 21 C       -8.8100     7.6400     0.5420 C.3   1 <1>  -0.0190 
 22 C      -10.0120     7.3800    -0.3630 C.2   1 <1>   0.6590 
 23 O      -10.1870     6.3140    -0.8930 O.2   1 <1>  -0.5700 
 24 O      -10.8300     8.4070    -0.5350 O.3   1 <1>  -0.4300 
 25 C      -11.9730     8.3060    -1.3540 C.3   1 <1>   0.1200 
 26 C      -12.6840     9.6550    -1.3400 C.3   1 <1>  -0.2400 
 27 H       -1.9890     1.5530    -2.5860 H     1 <1>   0.1500 
 28 H       -0.3780     2.7280     1.1750 H     1 <1>   0.1500 
 29 H       -2.3190     3.9370    -3.1950 H     1 <1>   0.1500 
 30 H       -0.6960     5.1100     0.5780 H     1 <1>   0.1500 
 31 H       -3.6000     5.6000     0.1190 H     1 <1>   0.1500 
 32 H       -0.8750     8.3750    -1.5940 H     1 <1>   0.1500 
 33 H       -1.6280    10.1100    -0.0170 H     1 <1>   0.1500 
 34 H       -3.3670     9.6080     1.6240 H     1 <1>   0.1500 
 35 H       -4.7830     8.0370     2.7230 H     1 <1>   0.0800 
 36 H       -4.5000     6.3280     2.4780 H     1 <1>   0.0800 
 37 H       -5.8560     6.4720     0.4850 H     1 <1>   0.4500 
 38 H       -5.5870     8.7870    -0.0310 H     1 <1>   0.0800 
 39 H       -6.5910     9.1830     1.3450 H     1 <1>   0.0800 
 40 H       -7.3170     7.3190     2.9040 H     1 <1>   0.0800 
 41 H       -6.7840     5.6860     2.5740 H     1 <1>   0.0800 
 42 H       -7.3990     7.5800    -1.0910 H     1 <1>   0.0800 
 43 H       -7.9370     9.1770    -0.6830 H     1 <1>   0.0800 
 44 H       -9.1430     6.0270     1.9290 H     1 <1>   0.0800 
 45 H       -8.1550     5.5770     0.5800 H     1 <1>   0.0800 
 46 H       -9.1180     8.3640     1.2770 H     1 <1>   0.0800 
 47 H      -12.6080     7.5300    -0.9610 H     1 <1>   0.0800 
 48 H      -11.6590     8.0450    -2.3510 H     1 <1>   0.0800 
 49 H      -12.9850     9.9080    -0.3390 H     1 <1>   0.0800 
 50 H      -13.5630     9.6060    -1.9570 H     1 <1>   0.0800 
 51 H      -12.0380    10.4220    -1.7280 H     1 <1>   0.0800 
@<TRIPOS>BOND
  1   1   2  1   
  2   2   3  ar  
  3   2   4  ar  
  4   3   5  ar  
  5   3  27  1   
  6   4   6  ar  
  7   4  28  1   
  8   5   7  ar  
  9   5  29  1   
 10   6   7  ar  
 11   6  30  1   
 12   7   8  1   
 13   8   9  1   
 14   9  10  ar  
 15   9  11  ar  
 16  10  12  ar  
 17  10  31  1   
 18  11  13  ar  
 19  11  32  1   
 20  12  14  ar  
 21  12  15  1   
 22  13  14  ar  
 23  13  33  1   
 24  14  34  1   
 25  15  16  1   
 26  15  35  1   
 27  15  36  1   
 28  16  17  1   
 29  16  18  1   
 30  16  37  1   
 31  17  19  1   
 32  17  38  1   
 33  17  39  1   
 34  18  20  1   
 35  18  40  1   
 36  18  41  1   
 37  19  21  1   
 38  19  42  1   
 39  19  43  1   
 40  20  21  1   
 41  20  44  1   
 42  20  45  1   
 43  21  22  1   
 44  21  46  1   
 45  22  23  2   
 46  22  24  1   
 47  24  25  1   
 48  25  26  1   
 49  25  47  1   
 50  25  48  1   
 51  26  49  1   
 52  26  50  1   
 53  26  51  1   
@<TRIPOS>SUBSTRUCTURE
  1 ****  16 GROUP 4 **** **** 0

# MOE 2024.06 (io_trps.svl 2023.06)
