@<TRIPOS>MOLECULE
NONAME
53 54 1 0 0 
SMALL
USER_CHARGES


@<TRIPOS>ATOM
  1 O        0.1960    -1.1010     0.4730 O.2   1 <1>  -0.5700 
  2 C        0.4120    -1.3400    -0.6920 C.2   1 <1>   0.5690 
  3 N       -0.5700    -1.7930    -1.5310 N.am  1 <1>  -0.7300 
  4 C        1.8510    -1.1170    -1.2080 C.3   1 <1>   0.4040 
  5 C       -1.9840    -2.1000    -1.1890 C.3   1 <1>   0.2200 
  6 N        2.7040    -0.2680    -0.2930 N.4   1 <1>  -0.9590 
  7 C       -2.7100    -0.8480    -0.6910 C.3   1 <1>  -0.1600 
  8 C       -2.0570    -3.2100    -0.1380 C.3   1 <1>  -0.1600 
  9 C        2.2590     1.1570    -0.2820 C.3   1 <1>   0.3430 
 10 C        4.1620    -0.4090    -0.5740 C.3   1 <1>   0.3430 
 11 C       -4.1670    -1.1280    -0.2960 C.3   1 <1>   0.5030 
 12 C       -3.4980    -3.5450     0.2700 C.3   1 <1>   0.5030 
 13 C        3.0330     1.9290     0.7870 C.3   1 <1>  -0.1600 
 14 C        4.9660     0.3390     0.4910 C.3   1 <1>  -0.1600 
 15 N       -4.2640    -2.3220     0.5580 N.4   1 <1>  -0.9060 
 16 C       -5.0780    -1.2720    -1.5170 C.3   1 <1>  -0.2400 
 17 C       -4.6970     0.0250     0.5550 C.3   1 <1>  -0.2400 
 18 C       -4.2170    -4.3860    -0.7880 C.3   1 <1>  -0.2400 
 19 C       -3.4890    -4.3370     1.5770 C.3   1 <1>  -0.2400 
 20 C        4.5500     1.8130     0.5900 C.3   1 <1>  -0.1600 
 21 H       -0.3470    -1.9900    -2.5120 H     1 <1>   0.3700 
 22 H        1.8060    -0.6640    -2.1830 H     1 <1>   0.0800 
 23 H        2.3070    -2.0870    -1.3140 H     1 <1>   0.0800 
 24 H       -2.4630    -2.4440    -2.0910 H     1 <1>   0.0800 
 25 H        2.5240    -0.6160     0.6630 H     1 <1>   0.4500 
 26 H       -2.6890    -0.0920    -1.4550 H     1 <1>   0.0800 
 27 H       -2.1960    -0.4530     0.1660 H     1 <1>   0.0800 
 28 H       -1.5170    -2.9080     0.7410 H     1 <1>   0.0800 
 29 H       -1.5810    -4.0970    -0.5170 H     1 <1>   0.0800 
 30 H        1.2040     1.2140    -0.0660 H     1 <1>   0.0800 
 31 H        2.4360     1.6050    -1.2470 H     1 <1>   0.0800 
 32 H        4.3890     0.0010    -1.5450 H     1 <1>   0.0800 
 33 H        4.4440    -1.4500    -0.5670 H     1 <1>   0.0800 
 34 H        2.7590     1.5590     1.7600 H     1 <1>   0.0800 
 35 H        2.7470     2.9660     0.7480 H     1 <1>   0.0800 
 36 H        6.0130     0.2810     0.2470 H     1 <1>   0.0800 
 37 H        4.8320    -0.1440     1.4440 H     1 <1>   0.0800 
 38 H       -5.2500    -2.5760     0.6400 H     1 <1>   0.4500 
 39 H       -3.9730    -2.0240     1.4920 H     1 <1>   0.4500 
 40 H       -4.6900    -1.9570    -2.2440 H     1 <1>   0.0800 
 41 H       -5.1680    -0.3220    -2.0150 H     1 <1>   0.0800 
 42 H       -6.0680    -1.5810    -1.2310 H     1 <1>   0.0800 
 43 H       -4.1110     0.1580     1.4480 H     1 <1>   0.0800 
 44 H       -5.7250    -0.1330     0.8300 H     1 <1>   0.0800 
 45 H       -4.6480     0.9460    -0.0020 H     1 <1>   0.0800 
 46 H       -4.1350    -3.9710    -1.7720 H     1 <1>   0.0800 
 47 H       -5.2560    -4.5160    -0.5430 H     1 <1>   0.0800 
 48 H       -3.7710    -5.3640    -0.8350 H     1 <1>   0.0800 
 49 H       -3.0190    -3.7830     2.3700 H     1 <1>   0.0800 
 50 H       -2.9340    -5.2510     1.4490 H     1 <1>   0.0800 
 51 H       -4.4870    -4.6040     1.8780 H     1 <1>   0.0800 
 52 H        5.0620     2.2830     1.4130 H     1 <1>   0.0800 
 53 H        4.8360     2.3290    -0.3110 H     1 <1>   0.0800 
@<TRIPOS>BOND
  1   1   2  2   
  2   2   3  am  
  3   2   4  1   
  4   3   5  1   
  5   3  21  1   
  6   4   6  1   
  7   4  22  1   
  8   4  23  1   
  9   5   7  1   
 10   5   8  1   
 11   5  24  1   
 12   6   9  1   
 13   6  10  1   
 14   6  25  1   
 15   7  11  1   
 16   7  26  1   
 17   7  27  1   
 18   8  12  1   
 19   8  28  1   
 20   8  29  1   
 21   9  13  1   
 22   9  30  1   
 23   9  31  1   
 24  10  14  1   
 25  10  32  1   
 26  10  33  1   
 27  11  15  1   
 28  11  16  1   
 29  11  17  1   
 30  12  15  1   
 31  12  18  1   
 32  12  19  1   
 33  13  20  1   
 34  13  34  1   
 35  13  35  1   
 36  14  20  1   
 37  14  36  1   
 38  14  37  1   
 39  15  38  1   
 40  15  39  1   
 41  16  40  1   
 42  16  41  1   
 43  16  42  1   
 44  17  43  1   
 45  17  44  1   
 46  17  45  1   
 47  18  46  1   
 48  18  47  1   
 49  18  48  1   
 50  19  49  1   
 51  19  50  1   
 52  19  51  1   
 53  20  52  1   
 54  20  53  1   
@<TRIPOS>SUBSTRUCTURE
  1 ****   1 GROUP 4 **** **** 0

# MOE 2024.06 (io_trps.svl 2023.06)
