@<TRIPOS>MOLECULE
NONAME
43 44 1 0 0 
SMALL
USER_CHARGES


@<TRIPOS>ATOM
  1 CL      -0.0520     0.4560     1.3660 Cl    1 <1>  -0.1770 
  2 C        1.4290     1.1390     0.7480 C.ar  1 <1>   0.1770 
  3 C        1.4250     2.1210    -0.2330 C.ar  1 <1>  -0.0090 
  4 C        2.6080     0.6560     1.2820 C.ar  1 <1>  -0.1500 
  5 S       -0.1200     2.7520    -0.9300 S.o2  1 <1>   1.4470 
  6 C        2.6570     2.6070    -0.6550 C.ar  1 <1>  -0.1500 
  7 C        3.8120     1.1620     0.8390 C.ar  1 <1>   0.1770 
  8 O        0.1750     3.8280    -1.8510 O.2   1 <1>  -0.6500 
  9 O       -0.9270     1.6450    -1.3930 O.2   1 <1>  -0.6500 
 10 N       -0.8940     3.4620     0.4090 N.am  1 <1>  -0.8490 
 11 C        3.8770     2.1590    -0.1380 C.ar  1 <1>   0.0860 
 12 CL       5.2540     0.4830     1.5560 Cl    1 <1>  -0.1770 
 13 C       -0.4230     4.8170     0.7100 C.3   1 <1>   0.1160 
 14 C       -2.3540     3.4450     0.2870 C.3   1 <1>   0.1160 
 15 C        5.1130     2.7360    -0.6300 C.2   1 <1>   0.5440 
 16 O        5.2030     3.0510    -1.8000 O.2   1 <1>  -0.5700 
 17 N        6.1720     2.9770     0.1950 N.am  1 <1>  -0.7300 
 18 C        7.4640     3.5560    -0.2080 C.3   1 <1>   0.2200 
 19 C        8.5430     2.4750    -0.1020 C.3   1 <1>  -0.1600 
 20 C        7.7760     4.7470     0.7040 C.3   1 <1>  -0.1600 
 21 C        9.9350     3.0480    -0.4040 C.3   1 <1>  -0.1600 
 22 C        9.1670     5.3250     0.4020 C.3   1 <1>  -0.1600 
 23 C       10.2520     4.2440     0.5050 C.3   1 <1>  -0.1600 
 24 H        2.5830    -0.1100     2.0360 H     1 <1>   0.1500 
 25 H        2.6810     3.3670    -1.4220 H     1 <1>   0.1500 
 26 H        0.6470     4.8190     0.8320 H     1 <1>   0.0800 
 27 H       -0.8700     5.1690     1.6240 H     1 <1>   0.0800 
 28 H       -0.6810     5.4930    -0.0900 H     1 <1>   0.0800 
 29 H       -2.7040     2.4290     0.2010 H     1 <1>   0.0800 
 30 H       -2.6640     3.9930    -0.5880 H     1 <1>   0.0800 
 31 H       -2.8070     3.8820     1.1600 H     1 <1>   0.0800 
 32 H        6.1580     2.6070     1.1460 H     1 <1>   0.3700 
 33 H        7.4100     3.9010    -1.2290 H     1 <1>   0.0800 
 34 H        8.3250     1.6870    -0.8020 H     1 <1>   0.0800 
 35 H        8.5440     2.0600     0.8910 H     1 <1>   0.0800 
 36 H        7.7450     4.4320     1.7320 H     1 <1>   0.0800 
 37 H        7.0340     5.5110     0.5560 H     1 <1>   0.0800 
 38 H        9.9740     3.3630    -1.4330 H     1 <1>   0.0800 
 39 H       10.6790     2.2830    -0.2660 H     1 <1>   0.0800 
 40 H        9.3840     6.1220     1.0930 H     1 <1>   0.0800 
 41 H        9.1710     5.7400    -0.5910 H     1 <1>   0.0800 
 42 H       11.2040     4.6630     0.2300 H     1 <1>   0.0800 
 43 H       10.3230     3.9070     1.5250 H     1 <1>   0.0800 
@<TRIPOS>BOND
  1   1   2  1   
  2   2   3  ar  
  3   2   4  ar  
  4   3   5  1   
  5   3   6  ar  
  6   4   7  ar  
  7   4  24  1   
  8   5   8  2   
  9   5   9  2   
 10   5  10  am  
 11   6  11  ar  
 12   6  25  1   
 13   7  11  ar  
 14   7  12  1   
 15  10  13  1   
 16  10  14  1   
 17  11  15  1   
 18  13  26  1   
 19  13  27  1   
 20  13  28  1   
 21  14  29  1   
 22  14  30  1   
 23  14  31  1   
 24  15  16  2   
 25  15  17  am  
 26  17  18  1   
 27  17  32  1   
 28  18  19  1   
 29  18  20  1   
 30  18  33  1   
 31  19  21  1   
 32  19  34  1   
 33  19  35  1   
 34  20  22  1   
 35  20  36  1   
 36  20  37  1   
 37  21  23  1   
 38  21  38  1   
 39  21  39  1   
 40  22  23  1   
 41  22  40  1   
 42  22  41  1   
 43  23  42  1   
 44  23  43  1   
@<TRIPOS>SUBSTRUCTURE
  1 ****  11 GROUP 4 **** **** 0

# MOE 2024.06 (io_trps.svl 2023.06)
