@<TRIPOS>MOLECULE
NONAME
46 47 1 0 0 
SMALL
USER_CHARGES


@<TRIPOS>ATOM
  1 CL      -3.6670     0.6330    -3.9830 Cl    1 <1>  -0.1770 
  2 C       -3.3720    -0.4650    -2.6590 C.ar  1 <1>   0.1770 
  3 C       -3.1610    -1.8050    -2.9260 C.ar  1 <1>  -0.1500 
  4 C       -3.3530     0.0230    -1.3670 C.ar  1 <1>  -0.1500 
  5 C       -2.9220    -2.7040    -1.8910 C.ar  1 <1>  -0.0090 
  6 C       -3.1190    -0.8550    -0.3270 C.ar  1 <1>  -0.1500 
  7 S       -2.6650    -4.4630    -2.2490 S.o2  1 <1>   1.4470 
  8 C       -2.9120    -2.2030    -0.5900 C.ar  1 <1>   0.0830 
  9 O       -3.7810    -5.2250    -1.7280 O.2   1 <1>  -0.6500 
 10 O       -2.3220    -4.6150    -3.6480 O.2   1 <1>  -0.6500 
 11 N       -1.2860    -4.9240    -1.3820 N.am  1 <1>  -0.8490 
 12 O       -2.6710    -3.0160     0.4550 O.3   1 <1>  -0.3620 
 13 C       -1.1840    -6.3820    -1.2530 C.3   1 <1>   0.1960 
 14 C       -0.0510    -4.3390    -1.8940 C.3   1 <1>   0.1960 
 15 C       -3.7900    -3.5410     1.1300 C.3   1 <1>   0.1200 
 16 C        0.1480    -6.8150    -0.6170 C.3   1 <1>  -0.1600 
 17 C        1.0600    -4.4780    -0.8410 C.3   1 <1>  -0.1600 
 18 C       -3.2960    -4.6430     2.0600 C.3   1 <1>  -0.2400 
 19 C        0.8380    -5.6570     0.1310 C.3   1 <1>  -0.0190 
 20 C        2.1360    -6.0620     0.8220 C.2   1 <1>   0.6590 
 21 O        2.7610    -7.0430     0.5040 O.2   1 <1>  -0.5700 
 22 O        2.5420    -5.2550     1.7930 O.3   1 <1>  -0.4300 
 23 C        3.7280    -5.5040     2.5090 C.3   1 <1>   0.1200 
 24 C        3.9000    -4.3910     3.5370 C.3   1 <1>  -0.2400 
 25 H       -3.1860    -2.1460    -3.9470 H     1 <1>   0.1500 
 26 H       -3.5160     1.0710    -1.1850 H     1 <1>   0.1500 
 27 H       -3.0900    -0.5030     0.6900 H     1 <1>   0.1500 
 28 H       -1.2880    -6.8460    -2.2200 H     1 <1>   0.0800 
 29 H       -1.9970    -6.7250    -0.6340 H     1 <1>   0.0800 
 30 H       -0.1940    -3.2950    -2.1190 H     1 <1>   0.0800 
 31 H        0.2320    -4.8420    -2.8050 H     1 <1>   0.0800 
 32 H       -4.4800    -3.9370     0.4050 H     1 <1>   0.0800 
 33 H       -4.2580    -2.7450     1.6830 H     1 <1>   0.0800 
 34 H        0.8020    -7.1750    -1.3920 H     1 <1>   0.0800 
 35 H       -0.0300    -7.6370     0.0540 H     1 <1>   0.0800 
 36 H        1.1210    -3.5670    -0.2720 H     1 <1>   0.0800 
 37 H        1.9970    -4.5960    -1.3570 H     1 <1>   0.0800 
 38 H       -2.8220    -5.4190     1.4850 H     1 <1>   0.0800 
 39 H       -4.1260    -5.0700     2.5920 H     1 <1>   0.0800 
 40 H       -2.5970    -4.2430     2.7720 H     1 <1>   0.0800 
 41 H        0.1620    -5.3290     0.9020 H     1 <1>   0.0800 
 42 H        4.5510    -5.5200     1.8140 H     1 <1>   0.0800 
 43 H        3.6420    -6.4650     2.9890 H     1 <1>   0.0800 
 44 H        3.9750    -3.4380     3.0450 H     1 <1>   0.0800 
 45 H        4.8000    -4.5550     4.1020 H     1 <1>   0.0800 
 46 H        3.0670    -4.3810     4.2170 H     1 <1>   0.0800 
@<TRIPOS>BOND
  1   1   2  1   
  2   2   3  ar  
  3   2   4  ar  
  4   3   5  ar  
  5   3  25  1   
  6   4   6  ar  
  7   4  26  1   
  8   5   7  1   
  9   5   8  ar  
 10   6   8  ar  
 11   6  27  1   
 12   7   9  2   
 13   7  10  2   
 14   7  11  am  
 15   8  12  1   
 16  11  13  1   
 17  11  14  1   
 18  12  15  1   
 19  13  16  1   
 20  13  28  1   
 21  13  29  1   
 22  14  17  1   
 23  14  30  1   
 24  14  31  1   
 25  15  18  1   
 26  15  32  1   
 27  15  33  1   
 28  16  19  1   
 29  16  34  1   
 30  16  35  1   
 31  17  19  1   
 32  17  36  1   
 33  17  37  1   
 34  18  38  1   
 35  18  39  1   
 36  18  40  1   
 37  19  20  1   
 38  19  41  1   
 39  20  21  2   
 40  20  22  1   
 41  22  23  1   
 42  23  24  1   
 43  23  42  1   
 44  23  43  1   
 45  24  44  1   
 46  24  45  1   
 47  24  46  1   
@<TRIPOS>SUBSTRUCTURE
  1 ****  11 GROUP 4 **** **** 0

# MOE 2024.06 (io_trps.svl 2023.06)
