@<TRIPOS>MOLECULE
NONAME
30 30 1 0 0 
SMALL
USER_CHARGES


@<TRIPOS>ATOM
  1 CL      -0.6670    -0.0730    -1.2580 Cl    1 <1>  -0.1770 
  2 C       -0.4080    -1.5250    -0.3110 C.ar  1 <1>   0.1770 
  3 C       -1.4980    -2.3390     0.0020 C.ar  1 <1>   0.1170 
  4 C        0.8810    -1.8200     0.0960 C.ar  1 <1>  -0.1500 
  5 N       -2.7830    -1.9810    -0.4480 N.am  1 <1>  -0.5470 
  6 C       -1.2460    -3.4920     0.7420 C.ar  1 <1>  -0.1500 
  7 C        1.1110    -2.9670     0.8370 C.ar  1 <1>  -0.1500 
  8 C       -4.0230    -2.3350    -0.0080 C.2   1 <1>   0.6900 
  9 C        0.0410    -3.7880     1.1490 C.ar  1 <1>   0.1770 
 10 O       -4.1720    -3.0150     0.9860 O.2   1 <1>  -0.5700 
 11 N       -5.0820    -1.8800    -0.7270 N.am  1 <1>  -0.7300 
 12 CL       0.3340    -5.2370     2.0760 Cl    1 <1>  -0.1770 
 13 C       -6.5200    -2.0890    -0.4580 C.3   1 <1>   0.2200 
 14 C       -6.8990    -1.5150     0.9170 C.3   1 <1>  -0.1600 
 15 C       -6.8570    -3.5730    -0.6150 C.3   1 <1>  -0.2400 
 16 C       -8.4160    -1.4230     1.1350 C.3   1 <1>  -0.2400 
 17 H        1.6910    -1.1620    -0.1650 H     1 <1>   0.1500 
 18 H       -2.7920    -1.2080    -1.1090 H     1 <1>   0.3700 
 19 H       -2.0420    -4.1650     1.0050 H     1 <1>   0.1500 
 20 H        2.1000    -3.2250     1.1700 H     1 <1>   0.1500 
 21 H       -4.8930    -1.4620    -1.6330 H     1 <1>   0.3700 
 22 H       -7.0680    -1.5420    -1.2060 H     1 <1>   0.0800 
 23 H       -6.4840    -0.5260     1.0040 H     1 <1>   0.0800 
 24 H       -6.4730    -2.1230     1.6960 H     1 <1>   0.0800 
 25 H       -6.3950    -4.1500     0.1660 H     1 <1>   0.0800 
 26 H       -6.5150    -3.9330    -1.5680 H     1 <1>   0.0800 
 27 H       -7.9190    -3.7220    -0.5610 H     1 <1>   0.0800 
 28 H       -8.8750    -0.8350     0.3600 H     1 <1>   0.0800 
 29 H       -8.6180    -0.9560     2.0830 H     1 <1>   0.0800 
 30 H       -8.8620    -2.4020     1.1430 H     1 <1>   0.0800 
@<TRIPOS>BOND
  1   1   2  1   
  2   2   3  ar  
  3   2   4  ar  
  4   3   5  1   
  5   3   6  ar  
  6   4   7  ar  
  7   4  17  1   
  8   5   8  am  
  9   5  18  1   
 10   6   9  ar  
 11   6  19  1   
 12   7   9  ar  
 13   7  20  1   
 14   8  10  2   
 15   8  11  am  
 16   9  12  1   
 17  11  13  1   
 18  11  21  1   
 19  13  14  1   
 20  13  15  1   
 21  13  22  1   
 22  14  16  1   
 23  14  23  1   
 24  14  24  1   
 25  15  25  1   
 26  15  26  1   
 27  15  27  1   
 28  16  28  1   
 29  16  29  1   
 30  16  30  1   
@<TRIPOS>SUBSTRUCTURE
  1 ****   5 GROUP 4 **** **** 0

# MOE 2024.06 (io_trps.svl 2023.06)
