@<TRIPOS>MOLECULE
NONAME
49 50 1 0 0 
SMALL
USER_CHARGES


@<TRIPOS>ATOM
  1 O        0.3360    -2.2070    -3.3470 O.2   1 <1>  -0.5700 
  2 C        0.8520    -1.3900    -2.6230 C.2   1 <1>   0.5690 
  3 N        0.2670    -0.9880    -1.4660 N.am  1 <1>  -0.7300 
  4 C        2.2310    -0.8070    -2.9670 C.3   1 <1>   0.2700 
  5 C       -0.9220    -1.5760    -0.8550 C.3   1 <1>   0.2200 
  6 N        2.8380     0.0030    -1.8410 N.pl3 1 <1>  -0.8690 
  7 C       -1.8000    -0.4590    -0.3060 C.3   1 <1>  -0.1600 
  8 C       -0.4730    -2.4880     0.2810 C.3   1 <1>  -0.1600 
  9 C        3.2550    -0.5620    -0.6360 C.ar  1 <1>   0.1000 
 10 C       -3.0280    -1.0040     0.4330 C.3   1 <1>   0.5030 
 11 C       -1.6600    -3.0930     1.0380 C.3   1 <1>   0.5030 
 12 C        3.7170     0.2860     0.3620 C.ar  1 <1>  -0.1500 
 13 C        3.2180    -1.9310    -0.3740 C.ar  1 <1>  -0.1500 
 14 N       -2.6530    -2.0620     1.3860 N.4   1 <1>  -0.9060 
 15 C       -4.1000    -1.5190    -0.5320 C.3   1 <1>  -0.2400 
 16 C       -3.6470     0.1070     1.2790 C.3   1 <1>  -0.2400 
 17 C       -2.3270    -4.2250     0.2510 C.3   1 <1>  -0.2400 
 18 C       -1.1760    -3.6630     2.3700 C.3   1 <1>  -0.2400 
 19 C        4.1220    -0.2090     1.5890 C.ar  1 <1>  -0.1500 
 20 C        3.6230    -2.4300     0.8500 C.ar  1 <1>  -0.1500 
 21 C        4.0750    -1.5700     1.8360 C.ar  1 <1>  -0.1500 
 22 H        0.8620    -0.3730    -0.8920 H     1 <1>   0.3700 
 23 H        2.1170    -0.1770    -3.8310 H     1 <1>   0.0800 
 24 H        2.8930    -1.6110    -3.2310 H     1 <1>   0.0800 
 25 H       -1.4550    -2.1400    -1.6040 H     1 <1>   0.0800 
 26 H        3.4480     0.7580    -2.1800 H     1 <1>   0.4000 
 27 H       -2.1210     0.1700    -1.1190 H     1 <1>   0.0800 
 28 H       -1.2160     0.1490     0.3630 H     1 <1>   0.0800 
 29 H        0.1430    -1.9250     0.9610 H     1 <1>   0.0800 
 30 H        0.1340    -3.2800    -0.1220 H     1 <1>   0.0800 
 31 H        3.7560     1.3440     0.1770 H     1 <1>   0.1500 
 32 H        2.8810    -2.6210    -1.1230 H     1 <1>   0.1500 
 33 H       -3.5070    -2.5350     1.6880 H     1 <1>   0.4500 
 34 H       -2.2840    -1.5840     2.2100 H     1 <1>   0.4500 
 35 H       -3.7040    -2.1990    -1.2600 H     1 <1>   0.0800 
 36 H       -4.5130    -0.6930    -1.0850 H     1 <1>   0.0800 
 37 H       -4.9080    -1.9930    -0.0040 H     1 <1>   0.0800 
 38 H       -2.9450     0.4920     1.9970 H     1 <1>   0.0800 
 39 H       -4.5260    -0.2390     1.7960 H     1 <1>   0.0800 
 40 H       -3.9440     0.9270     0.6470 H     1 <1>   0.0800 
 41 H       -2.5600    -3.9430    -0.7560 H     1 <1>   0.0800 
 42 H       -3.2200    -4.5690     0.7410 H     1 <1>   0.0800 
 43 H       -1.6530    -5.0610     0.1810 H     1 <1>   0.0800 
 44 H       -0.7170    -2.9030     2.9790 H     1 <1>   0.0800 
 45 H       -0.4350    -4.4250     2.1940 H     1 <1>   0.0800 
 46 H       -1.9840    -4.1150     2.9180 H     1 <1>   0.0800 
 47 H        4.4780     0.4640     2.3500 H     1 <1>   0.1500 
 48 H        3.5960    -3.4900     1.0370 H     1 <1>   0.1500 
 49 H        4.3950    -1.9560     2.7880 H     1 <1>   0.1500 
@<TRIPOS>BOND
  1   1   2  2   
  2   2   3  am  
  3   2   4  1   
  4   3   5  1   
  5   3  22  1   
  6   4   6  1   
  7   4  23  1   
  8   4  24  1   
  9   5   7  1   
 10   5   8  1   
 11   5  25  1   
 12   6   9  1   
 13   6  26  1   
 14   7  10  1   
 15   7  27  1   
 16   7  28  1   
 17   8  11  1   
 18   8  29  1   
 19   8  30  1   
 20   9  12  ar  
 21   9  13  ar  
 22  10  14  1   
 23  10  15  1   
 24  10  16  1   
 25  11  14  1   
 26  11  17  1   
 27  11  18  1   
 28  12  19  ar  
 29  12  31  1   
 30  13  20  ar  
 31  13  32  1   
 32  14  33  1   
 33  14  34  1   
 34  15  35  1   
 35  15  36  1   
 36  15  37  1   
 37  16  38  1   
 38  16  39  1   
 39  16  40  1   
 40  17  41  1   
 41  17  42  1   
 42  17  43  1   
 43  18  44  1   
 44  18  45  1   
 45  18  46  1   
 46  19  21  ar  
 47  19  47  1   
 48  20  21  ar  
 49  20  48  1   
 50  21  49  1   
@<TRIPOS>SUBSTRUCTURE
  1 ****   8 GROUP 4 **** **** 0

# MOE 2024.06 (io_trps.svl 2023.06)
