@<TRIPOS>MOLECULE
NONAME
38 39 1 0 0 
SMALL
USER_CHARGES


@<TRIPOS>ATOM
  1 O       -0.2150    -0.0900     1.3530 O.2   1 <1>  -0.5700 
  2 C       -0.0050     0.0870     0.1680 C.2   1 <1>   0.5440 
  3 N       -0.9800     0.6410    -0.6150 N.am  1 <1>  -0.7300 
  4 C        1.2670    -0.2990    -0.4180 C.ar  1 <1>   0.0860 
  5 C       -2.2900     1.1690    -0.1940 C.3   1 <1>   0.3000 
  6 C        1.8190     0.3890    -1.5020 C.ar  1 <1>  -0.1500 
  7 C        1.9890    -1.3810     0.0860 C.ar  1 <1>  -0.1500 
  8 C       -3.1290     1.4610    -1.4430 C.3   1 <1>  -0.1600 
  9 C       -3.1210     0.0860     0.5030 C.3   1 <1>  -0.1600 
 10 C       -2.1140     2.4160     0.7060 C.3   1 <1>  -0.1600 
 11 C        3.0240     0.0050    -2.0630 C.ar  1 <1>  -0.1500 
 12 C        3.1940    -1.7700    -0.4690 C.ar  1 <1>  -0.1500 
 13 C       -4.5910     1.3400    -1.0050 C.3   1 <1>  -0.1600 
 14 C       -4.5900     0.4130     0.2140 C.3   1 <1>  -0.1600 
 15 C       -1.2230     3.5340     0.1300 C.3   1 <1>  -0.1600 
 16 C        3.7130    -1.0780    -1.5480 C.ar  1 <1>  -0.1500 
 17 C       -1.1210     4.7080     1.1070 C.3   1 <1>  -0.2400 
 18 H       -0.8150     0.7110    -1.6160 H     1 <1>   0.3700 
 19 H        1.3040     1.2420    -1.9060 H     1 <1>   0.1500 
 20 H        1.5910    -1.9210     0.9290 H     1 <1>   0.1500 
 21 H       -2.9420     0.7030    -2.1830 H     1 <1>   0.0800 
 22 H       -2.9290     2.4250    -1.8730 H     1 <1>   0.0800 
 23 H       -2.9250     0.0440     1.5600 H     1 <1>   0.0800 
 24 H       -2.8890    -0.8720     0.0720 H     1 <1>   0.0800 
 25 H       -1.6930     2.0960     1.6430 H     1 <1>   0.0800 
 26 H       -3.0840     2.8240     0.9280 H     1 <1>   0.0800 
 27 H        3.4290     0.5490    -2.8990 H     1 <1>   0.1500 
 28 H        3.7290    -2.6110    -0.0610 H     1 <1>   0.1500 
 29 H       -5.2030     0.9480    -1.7990 H     1 <1>   0.0800 
 30 H       -4.9690     2.3070    -0.7210 H     1 <1>   0.0800 
 31 H       -5.0280     0.9200     1.0570 H     1 <1>   0.0800 
 32 H       -5.1470    -0.4880     0.0230 H     1 <1>   0.0800 
 33 H       -1.6220     3.8920    -0.8020 H     1 <1>   0.0800 
 34 H       -0.2340     3.1510    -0.0540 H     1 <1>   0.0800 
 35 H        4.6510    -1.3790    -1.9830 H     1 <1>   0.1500 
 36 H       -2.0940     5.1270     1.2960 H     1 <1>   0.0800 
 37 H       -0.4910     5.4760     0.6960 H     1 <1>   0.0800 
 38 H       -0.6960     4.3810     2.0410 H     1 <1>   0.0800 
@<TRIPOS>BOND
  1   1   2  2   
  2   2   3  am  
  3   2   4  1   
  4   3   5  1   
  5   3  18  1   
  6   4   6  ar  
  7   4   7  ar  
  8   5   8  1   
  9   5   9  1   
 10   5  10  1   
 11   6  11  ar  
 12   6  19  1   
 13   7  12  ar  
 14   7  20  1   
 15   8  13  1   
 16   8  21  1   
 17   8  22  1   
 18   9  14  1   
 19   9  23  1   
 20   9  24  1   
 21  10  15  1   
 22  10  25  1   
 23  10  26  1   
 24  11  16  ar  
 25  11  27  1   
 26  12  16  ar  
 27  12  28  1   
 28  13  14  1   
 29  13  29  1   
 30  13  30  1   
 31  14  31  1   
 32  14  32  1   
 33  15  17  1   
 34  15  33  1   
 35  15  34  1   
 36  16  35  1   
 37  17  36  1   
 38  17  37  1   
 39  17  38  1   
@<TRIPOS>SUBSTRUCTURE
  1 ****   3 GROUP 4 **** **** 0

# MOE 2024.06 (io_trps.svl 2023.06)
