@<TRIPOS>MOLECULE
NONAME
29 29 1 0 0 
SMALL
USER_CHARGES


@<TRIPOS>ATOM
  1 S        0.2920    -0.1790    -0.6070 S.o2  1 <1>   1.3330 
  2 O        1.2970    -0.4420    -1.6080 O.2   1 <1>  -0.6500 
  3 O        0.4700    -0.6070     0.7580 O.2   1 <1>  -0.6500 
  4 N        0.0690     1.5360    -0.5930 N.am  1 <1>  -0.6930 
  5 C       -1.2720    -0.7630    -1.2240 C.3   1 <1>  -0.1350 
  6 C       -1.0080     2.1080     0.0730 C.ar  1 <1>   0.1990 
  7 C        1.3370     2.3280    -0.6270 C.3   1 <1>   0.2570 
  8 C       -1.1380     2.0270     1.4540 C.ar  1 <1>  -0.1500 
  9 C       -1.9850     2.7770    -0.6530 C.ar  1 <1>  -0.1500 
 10 C        2.2430     2.1250     0.5900 C.2   1 <1>   0.6590 
 11 C       -2.2230     2.5960     2.0950 C.ar  1 <1>  -0.1500 
 12 C       -3.0730     3.3480    -0.0170 C.ar  1 <1>  -0.1500 
 13 O        2.1580     2.8230     1.5700 O.2   1 <1>  -0.5700 
 14 O        3.1330     1.1430     0.5030 O.3   1 <1>  -0.4300 
 15 C       -3.1930     3.2570     1.3600 C.ar  1 <1>  -0.1500 
 16 C        3.9540     0.7820     1.5920 C.3   1 <1>   0.0400 
 17 H       -1.2540    -1.8310    -1.3140 H     1 <1>   0.0800 
 18 H       -1.4710    -0.3380    -2.1870 H     1 <1>   0.0800 
 19 H       -2.0610    -0.4880    -0.5520 H     1 <1>   0.0800 
 20 H        1.0930     3.3730    -0.6850 H     1 <1>   0.0800 
 21 H        1.8910     2.0710    -1.5120 H     1 <1>   0.0800 
 22 H       -0.3830     1.5200     2.0300 H     1 <1>   0.1500 
 23 H       -1.8870     2.8490    -1.7210 H     1 <1>   0.1500 
 24 H       -2.3110     2.5270     3.1660 H     1 <1>   0.1500 
 25 H       -3.8250     3.8640    -0.5880 H     1 <1>   0.1500 
 26 H       -4.0380     3.7000     1.8590 H     1 <1>   0.1500 
 27 H        4.5870    -0.0320     1.2850 H     1 <1>   0.0800 
 28 H        3.3250     0.4720     2.4090 H     1 <1>   0.0800 
 29 H        4.5500     1.6310     1.8790 H     1 <1>   0.0800 
@<TRIPOS>BOND
  1   1   2  2   
  2   1   3  2   
  3   1   4  am  
  4   1   5  1   
  5   4   6  1   
  6   4   7  1   
  7   5  17  1   
  8   5  18  1   
  9   5  19  1   
 10   6   8  ar  
 11   6   9  ar  
 12   7  10  1   
 13   7  20  1   
 14   7  21  1   
 15   8  11  ar  
 16   8  22  1   
 17   9  12  ar  
 18   9  23  1   
 19  10  13  2   
 20  10  14  1   
 21  11  15  ar  
 22  11  24  1   
 23  12  15  ar  
 24  12  25  1   
 25  14  16  1   
 26  15  26  1   
 27  16  27  1   
 28  16  28  1   
 29  16  29  1   
@<TRIPOS>SUBSTRUCTURE
  1 ****   4 GROUP 4 **** **** 0

# MOE 2024.06 (io_trps.svl 2023.06)
