@<TRIPOS>MOLECULE
NONAME
39 42 1 0 0 
SMALL
USER_CHARGES


@<TRIPOS>ATOM
  1 CL      -0.5790    -0.1730    -0.3920 Cl    1 <1>  -0.1770 
  2 C        0.3340     1.3140    -0.2800 C.ar  1 <1>   0.1770 
  3 C       -0.3100     2.5280    -0.0910 C.ar  1 <1>  -0.1440 
  4 C        1.7120     1.2350    -0.3840 C.ar  1 <1>  -0.1500 
  5 C        0.4650     3.6770     0.0010 C.ar  1 <1>  -0.1500 
  6 C       -1.8250     2.5950     0.0210 C.3   1 <1>   0.6240 
  7 C        2.4710     2.3890    -0.2950 C.ar  1 <1>  -0.1500 
  8 C        1.8450     3.6090    -0.1020 C.ar  1 <1>  -0.1500 
  9 O       -2.3120     3.6490    -0.7700 O.3   1 <1>  -0.5600 
 10 O       -2.1750     2.8710     1.3440 O.3   1 <1>  -0.5600 
 11 C       -3.5750     4.1890    -0.4540 C.3   1 <1>   0.1200 
 12 C       -3.5440     2.7580     1.6250 C.3   1 <1>   0.1200 
 13 C       -4.4060     3.2750     0.4590 C.3   1 <1>   0.2910 
 14 S       -5.0010     1.8270    -0.5290 S.3   1 <1>  -0.3710 
 15 C       -5.7100     3.9270     0.9130 C.2   1 <1>   0.5690 
 16 C       -6.7140     2.2300    -0.3510 C.2   1 <1>   0.6510 
 17 O       -5.7230     4.8840     1.6500 O.2   1 <1>  -0.5700 
 18 N       -6.8400     3.3400     0.4360 N.am  1 <1>  -0.4200 
 19 N       -7.6310     1.5480    -0.8760 N.2   1 <1>  -0.6960 
 20 C       -8.1870     3.7980     0.7340 C.3   1 <1>   0.4100 
 21 C       -9.0000     2.0110    -0.7080 C.3   1 <1>   0.3560 
 22 N       -9.0170     3.4520    -0.4180 N.3   1 <1>  -0.8100 
 23 C      -10.3900     3.9350    -0.2500 C.3   1 <1>   0.0300 
 24 H        2.1820     0.2790    -0.5320 H     1 <1>   0.1500 
 25 H       -0.0160     4.6290     0.1520 H     1 <1>   0.1500 
 26 H       -2.2890     1.6760    -0.2930 H     1 <1>   0.0800 
 27 H        3.5430     2.3390    -0.3740 H     1 <1>   0.1500 
 28 H        2.4310     4.5090    -0.0300 H     1 <1>   0.1500 
 29 H       -4.0930     4.3900    -1.3750 H     1 <1>   0.0800 
 30 H       -3.3960     5.1230     0.0500 H     1 <1>   0.0800 
 31 H       -3.7230     3.3450     2.5100 H     1 <1>   0.0800 
 32 H       -3.7640     1.7280     1.8440 H     1 <1>   0.0800 
 33 H       -8.1850     4.8650     0.8820 H     1 <1>   0.0800 
 34 H       -8.5510     3.3110     1.6240 H     1 <1>   0.0800 
 35 H       -9.4770     1.4510     0.0790 H     1 <1>   0.0800 
 36 H       -9.5330     1.8360    -1.6280 H     1 <1>   0.0800 
 37 H      -10.3880     5.0020    -0.1010 H     1 <1>   0.0800 
 38 H      -10.8610     3.4610     0.5940 H     1 <1>   0.0800 
 39 H      -10.9620     3.7220    -1.1370 H     1 <1>   0.0800 
@<TRIPOS>BOND
  1   1   2  1   
  2   2   3  ar  
  3   2   4  ar  
  4   3   5  ar  
  5   3   6  1   
  6   4   7  ar  
  7   4  24  1   
  8   5   8  ar  
  9   5  25  1   
 10   6   9  1   
 11   6  10  1   
 12   6  26  1   
 13   7   8  ar  
 14   7  27  1   
 15   8  28  1   
 16   9  11  1   
 17  10  12  1   
 18  11  13  1   
 19  11  29  1   
 20  11  30  1   
 21  12  13  1   
 22  12  31  1   
 23  12  32  1   
 24  13  14  1   
 25  13  15  1   
 26  14  16  1   
 27  15  17  2   
 28  15  18  am  
 29  16  18  1   
 30  16  19  2   
 31  18  20  1   
 32  19  21  1   
 33  20  22  1   
 34  20  33  1   
 35  20  34  1   
 36  21  22  1   
 37  21  35  1   
 38  21  36  1   
 39  22  23  1   
 40  23  37  1   
 41  23  38  1   
 42  23  39  1   
@<TRIPOS>SUBSTRUCTURE
  1 ****  13 GROUP 4 **** **** 0

# MOE 2024.06 (io_trps.svl 2023.06)
