@<TRIPOS>MOLECULE
NONAME
46 47 1 0 0 
SMALL
USER_CHARGES


@<TRIPOS>ATOM
  1 O       -0.0630    -3.6330    -1.3930 O.2   1 <1>  -0.5700 
  2 C        0.0940    -2.9280    -0.4310 C.2   1 <1>   0.6590 
  3 O       -0.7890    -2.0110    -0.0640 O.3   1 <1>  -0.4300 
  4 C        1.3450    -3.0270     0.4380 C.3   1 <1>  -0.0190 
  5 C       -1.9820    -1.8100    -0.7870 C.3   1 <1>   0.1200 
  6 C        2.4720    -2.1480    -0.1340 C.3   1 <1>  -0.1600 
  7 C        1.8310    -4.4830     0.5880 C.3   1 <1>  -0.1600 
  8 C       -2.7620    -0.6880    -0.1090 C.3   1 <1>  -0.2400 
  9 C        3.7680    -2.2830     0.6640 C.3   1 <1>   0.3430 
 10 C        3.1340    -4.5730     1.3790 C.3   1 <1>   0.3430 
 11 N        4.1660    -3.7200     0.7300 N.4   1 <1>  -0.9590 
 12 C        5.5010    -3.8940     1.3630 C.3   1 <1>   0.4860 
 13 C        6.5360    -3.2090     0.4910 C.ar  1 <1>  -0.1440 
 14 C        6.9600    -3.7560    -0.7170 C.ar  1 <1>  -0.1440 
 15 C        7.0570    -1.9950     0.9200 C.ar  1 <1>  -0.1500 
 16 C        7.8850    -3.0620    -1.4820 C.ar  1 <1>  -0.1500 
 17 C        6.4610    -5.0970    -1.2430 C.3   1 <1>  -0.0970 
 18 C        7.9810    -1.3090     0.1520 C.ar  1 <1>  -0.1440 
 19 C        8.3900    -1.8490    -1.0530 C.ar  1 <1>  -0.1500 
 20 C        8.5530     0.0170     0.6200 C.3   1 <1>  -0.0970 
 21 H        1.0850    -2.6570     1.4150 H     1 <1>   0.0800 
 22 H       -2.5450    -2.7290    -0.7820 H     1 <1>   0.0800 
 23 H       -1.7300    -1.5480    -1.8010 H     1 <1>   0.0800 
 24 H        2.1620    -1.1170    -0.1230 H     1 <1>   0.0800 
 25 H        2.6600    -2.4130    -1.1610 H     1 <1>   0.0800 
 26 H        1.9790    -4.9270    -0.3820 H     1 <1>   0.0800 
 27 H        1.0740    -5.0610     1.0890 H     1 <1>   0.0800 
 28 H       -3.0000    -0.9590     0.9030 H     1 <1>   0.0800 
 29 H       -3.6800    -0.5140    -0.6410 H     1 <1>   0.0800 
 30 H       -2.1880     0.2210    -0.1150 H     1 <1>   0.0800 
 31 H        3.6250    -1.8950     1.6590 H     1 <1>   0.0800 
 32 H        4.5420    -1.7060     0.1820 H     1 <1>   0.0800 
 33 H        3.4650    -5.5990     1.4070 H     1 <1>   0.0800 
 34 H        2.9670    -4.2400     2.3910 H     1 <1>   0.0800 
 35 H        4.2850    -4.0280    -0.2430 H     1 <1>   0.4500 
 36 H        5.7440    -4.9400     1.4450 H     1 <1>   0.0800 
 37 H        5.5080    -3.4640     2.3510 H     1 <1>   0.0800 
 38 H        6.7510    -1.5700     1.8600 H     1 <1>   0.1500 
 39 H        8.2270    -3.4610    -2.4220 H     1 <1>   0.1500 
 40 H        5.5030    -4.9830    -1.7150 H     1 <1>   0.0800 
 41 H        6.3920    -5.8240    -0.4540 H     1 <1>   0.0800 
 42 H        7.1450    -5.4880    -1.9770 H     1 <1>   0.0800 
 43 H        9.1100    -1.3290    -1.6620 H     1 <1>   0.1500 
 44 H        7.9090     0.4830     1.3430 H     1 <1>   0.0800 
 45 H        8.6670     0.6890    -0.2130 H     1 <1>   0.0800 
 46 H        9.5180    -0.1420     1.0680 H     1 <1>   0.0800 
@<TRIPOS>BOND
  1   1   2  2   
  2   2   3  1   
  3   2   4  1   
  4   3   5  1   
  5   4   6  1   
  6   4   7  1   
  7   4  21  1   
  8   5   8  1   
  9   5  22  1   
 10   5  23  1   
 11   6   9  1   
 12   6  24  1   
 13   6  25  1   
 14   7  10  1   
 15   7  26  1   
 16   7  27  1   
 17   8  28  1   
 18   8  29  1   
 19   8  30  1   
 20   9  11  1   
 21   9  31  1   
 22   9  32  1   
 23  10  11  1   
 24  10  33  1   
 25  10  34  1   
 26  11  12  1   
 27  11  35  1   
 28  12  13  1   
 29  12  36  1   
 30  12  37  1   
 31  13  14  ar  
 32  13  15  ar  
 33  14  16  ar  
 34  14  17  1   
 35  15  18  ar  
 36  15  38  1   
 37  16  19  ar  
 38  16  39  1   
 39  17  40  1   
 40  17  41  1   
 41  17  42  1   
 42  18  19  ar  
 43  18  20  1   
 44  19  43  1   
 45  20  44  1   
 46  20  45  1   
 47  20  46  1   
@<TRIPOS>SUBSTRUCTURE
  1 ****   9 GROUP 4 **** **** 0

# MOE 2024.06 (io_trps.svl 2023.06)
