@<TRIPOS>MOLECULE
NONAME
43 46 1 0 0 
SMALL
USER_CHARGES


@<TRIPOS>ATOM
  1 BR      -1.6310     0.1930     1.9180 Br    1 <1>  -0.1110 
  2 C       -2.2770    -1.1700     0.7140 C.ar  1 <1>   0.1110 
  3 C       -1.7510    -2.4520     0.7810 C.ar  1 <1>   0.0830 
  4 C       -3.2600    -0.8110    -0.1890 C.ar  1 <1>  -0.1500 
  5 O       -0.7860    -2.7150     1.7020 O.3   1 <1>  -0.3630 
  6 C       -2.2480    -3.4000    -0.1080 C.ar  1 <1>  -0.1500 
  7 C       -3.7590    -1.7630    -1.0750 C.ar  1 <1>  -0.1430 
  8 C       -0.2100    -3.9970     1.8190 C.3   1 <1>   0.0400 
  9 C       -3.2350    -3.0520    -1.0190 C.ar  1 <1>  -0.1500 
 10 C       -4.8470    -1.4440    -2.1080 C.3   1 <1>   0.6100 
 11 N       -5.4840    -0.1370    -1.8660 N.am  1 <1>  -0.7300 
 12 N       -5.8860    -2.4680    -2.0780 N.2   1 <1>  -0.6960 
 13 C       -6.5730     0.0560    -1.0920 C.2   1 <1>   0.5690 
 14 C       -6.8910    -2.3020    -1.3430 C.2   1 <1>   0.5300 
 15 O       -7.0430     1.1560    -0.9470 O.2   1 <1>  -0.5700 
 16 C       -7.1710    -1.1460    -0.3920 C.3   1 <1>   0.1800 
 17 S       -8.3050    -3.3940    -1.3610 S.3   1 <1>  -0.2420 
 18 C       -8.6840    -1.1640    -0.0980 C.2   1 <1>  -0.2760 
 19 C       -9.3500    -2.2310    -0.5260 C.2   1 <1>  -0.0370 
 20 C       -9.3840    -0.0440     0.6570 C.3   1 <1>  -0.0220 
 21 C      -10.8330    -2.5120    -0.3900 C.3   1 <1>   0.4810 
 22 C      -10.8080    -0.4730     1.0730 C.3   1 <1>   0.3430 
 23 N      -11.5170    -1.2170    -0.0320 N.4   1 <1>  -0.9590 
 24 C      -12.9600    -1.4350     0.2840 C.3   1 <1>   0.2630 
 25 H       -3.6120     0.2050    -0.1800 H     1 <1>   0.1500 
 26 H       -1.8830    -4.4090    -0.1080 H     1 <1>   0.1500 
 27 H        0.5210    -3.9620     2.6080 H     1 <1>   0.0800 
 28 H        0.2680    -4.2520     0.8900 H     1 <1>   0.0800 
 29 H       -0.9800    -4.7050     2.0660 H     1 <1>   0.0800 
 30 H       -3.6020    -3.8070    -1.6960 H     1 <1>   0.1500 
 31 H       -4.4140    -1.4340    -3.0940 H     1 <1>   0.0800 
 32 H       -5.0550     0.6680    -2.3210 H     1 <1>   0.3700 
 33 H       -6.6280    -1.3080     0.5190 H     1 <1>   0.0800 
 34 H       -9.4400     0.8360     0.0390 H     1 <1>   0.0800 
 35 H       -8.8250     0.2150     1.5400 H     1 <1>   0.0800 
 36 H      -10.9890    -3.2530     0.3770 H     1 <1>   0.0800 
 37 H      -11.2180    -2.8890    -1.3240 H     1 <1>   0.0800 
 38 H      -11.3710     0.4040     1.3510 H     1 <1>   0.0800 
 39 H      -10.7390    -1.1120     1.9390 H     1 <1>   0.0800 
 40 H      -11.4440    -0.6230    -0.8710 H     1 <1>   0.4500 
 41 H      -13.0640    -2.0570     1.1590 H     1 <1>   0.0800 
 42 H      -13.4580    -1.9160    -0.5430 H     1 <1>   0.0800 
 43 H      -13.4480    -0.4920     0.4730 H     1 <1>   0.0800 
@<TRIPOS>BOND
  1   1   2  1   
  2   2   3  ar  
  3   2   4  ar  
  4   3   5  1   
  5   3   6  ar  
  6   4   7  ar  
  7   4  25  1   
  8   5   8  1   
  9   6   9  ar  
 10   6  26  1   
 11   7   9  ar  
 12   7  10  1   
 13   8  27  1   
 14   8  28  1   
 15   8  29  1   
 16   9  30  1   
 17  10  11  1   
 18  10  12  1   
 19  10  31  1   
 20  11  13  am  
 21  11  32  1   
 22  12  14  2   
 23  13  15  2   
 24  13  16  1   
 25  14  16  1   
 26  14  17  1   
 27  16  18  1   
 28  16  33  1   
 29  17  19  1   
 30  18  19  2   
 31  18  20  1   
 32  19  21  1   
 33  20  22  1   
 34  20  34  1   
 35  20  35  1   
 36  21  23  1   
 37  21  36  1   
 38  21  37  1   
 39  22  23  1   
 40  22  38  1   
 41  22  39  1   
 42  23  24  1   
 43  23  40  1   
 44  24  41  1   
 45  24  42  1   
 46  24  43  1   
@<TRIPOS>SUBSTRUCTURE
  1 ****  16 GROUP 4 **** **** 0

# MOE 2024.06 (io_trps.svl 2023.06)
