@<TRIPOS>MOLECULE
NONAME
30 30 1 0 0 
SMALL
USER_CHARGES


@<TRIPOS>ATOM
  1 O        0.1940     0.3960    -0.9300 O.2   1 <1>  -0.5700 
  2 C        0.1410    -0.7500    -0.5600 C.2   1 <1>   0.5690 
  3 N       -1.0000    -1.3790    -0.1430 N.am  1 <1>  -0.5470 
  4 C        1.4210    -1.5420    -0.5410 C.3   1 <1>  -0.0380 
  5 C       -2.3310    -0.9440    -0.0580 C.ar  1 <1>   0.1170 
  6 C        1.6060    -2.1210     0.8370 C.2   1 <1>   0.4480 
  7 C       -2.8210     0.1530    -0.7590 C.ar  1 <1>  -0.1500 
  8 C       -3.2060    -1.6530     0.7550 C.ar  1 <1>  -0.1500 
  9 O        1.0490    -3.1290     1.1500 O.2   1 <1>  -0.5700 
 10 C        2.4890    -1.3690     1.8080 C.3   1 <1>  -0.1790 
 11 C       -4.1460     0.5380    -0.6470 C.ar  1 <1>  -0.1430 
 12 C       -4.5340    -1.2820     0.8750 C.ar  1 <1>  -0.1430 
 13 C       -4.9990    -0.1840     0.1710 C.ar  1 <1>  -0.1500 
 14 C       -4.6660     1.7390    -1.4150 C.3   1 <1>  -0.0970 
 15 C       -5.4830    -2.0610     1.7680 C.3   1 <1>  -0.0970 
 16 H       -0.8360    -2.3070     0.2600 H     1 <1>   0.3700 
 17 H        2.2510    -0.9130    -0.8010 H     1 <1>   0.0800 
 18 H        1.3520    -2.3360    -1.2600 H     1 <1>   0.0800 
 19 H       -2.1640     0.7090    -1.4010 H     1 <1>   0.1500 
 20 H       -2.8400    -2.5020     1.3030 H     1 <1>   0.1500 
 21 H        3.4960    -1.3290     1.4360 H     1 <1>   0.0800 
 22 H        2.4890    -1.8680     2.7600 H     1 <1>   0.0800 
 23 H        2.1170    -0.3690     1.9410 H     1 <1>   0.0800 
 24 H       -6.0290     0.1110     0.2600 H     1 <1>   0.1500 
 25 H       -3.8530     2.3660    -1.7360 H     1 <1>   0.0800 
 26 H       -5.3190     2.3230    -0.7920 H     1 <1>   0.0800 
 27 H       -5.2110     1.4090    -2.2810 H     1 <1>   0.0800 
 28 H       -5.0310    -2.9770     2.1030 H     1 <1>   0.0800 
 29 H       -6.3810    -2.3020     1.2280 H     1 <1>   0.0800 
 30 H       -5.7420    -1.4690     2.6270 H     1 <1>   0.0800 
@<TRIPOS>BOND
  1   1   2  2   
  2   2   3  am  
  3   2   4  1   
  4   3   5  1   
  5   3  16  1   
  6   4   6  1   
  7   4  17  1   
  8   4  18  1   
  9   5   7  ar  
 10   5   8  ar  
 11   6   9  2   
 12   6  10  1   
 13   7  11  ar  
 14   7  19  1   
 15   8  12  ar  
 16   8  20  1   
 17  10  21  1   
 18  10  22  1   
 19  10  23  1   
 20  11  13  ar  
 21  11  14  1   
 22  12  13  ar  
 23  12  15  1   
 24  13  24  1   
 25  14  25  1   
 26  14  26  1   
 27  14  27  1   
 28  15  28  1   
 29  15  29  1   
 30  15  30  1   
@<TRIPOS>SUBSTRUCTURE
  1 ****   5 GROUP 4 **** **** 0

# MOE 2024.06 (io_trps.svl 2023.06)
