@<TRIPOS>MOLECULE
NONAME
52 53 1 0 0 
SMALL
USER_CHARGES


@<TRIPOS>ATOM
  1 S       -0.3790    -1.1960     0.8660 S.o2  1 <1>   1.4470 
  2 O        1.0140    -1.0870     1.2410 O.2   1 <1>  -0.6500 
  3 O       -1.3100    -1.6330     1.8830 O.2   1 <1>  -0.6500 
  4 N       -0.4670    -2.2610    -0.4560 N.am  1 <1>  -0.8490 
  5 C       -0.9210     0.3940     0.1740 C.ar  1 <1>  -0.0090 
  6 C       -1.7090    -2.9560    -0.8030 C.3   1 <1>   0.2760 
  7 C        0.7780    -3.0030    -0.7720 C.3   1 <1>   0.2570 
  8 C       -0.4600     0.8400    -1.0600 C.ar  1 <1>  -0.1500 
  9 C       -1.8080     1.2100     0.8680 C.ar  1 <1>  -0.1500 
 10 C       -2.9110    -2.0040    -0.9030 C.3   1 <1>  -0.1600 
 11 C       -2.0050    -4.1470     0.1230 C.3   1 <1>  -0.1600 
 12 C        1.8140    -2.1980    -1.5810 C.2   1 <1>   0.5690 
 13 C       -0.8720     2.0520    -1.5870 C.ar  1 <1>  -0.1500 
 14 C       -2.2250     2.4240     0.3490 C.ar  1 <1>  -0.1500 
 15 C       -4.1650    -2.7580    -1.3690 C.3   1 <1>  -0.1600 
 16 C       -3.2650    -4.8960    -0.3390 C.3   1 <1>  -0.1600 
 17 O        1.5170    -1.8410    -2.6960 O.2   1 <1>  -0.5700 
 18 N        3.0550    -1.8940    -1.1220 N.am  1 <1>  -0.7300 
 19 C       -1.7570     2.8460    -0.8810 C.ar  1 <1>  -0.1500 
 20 C       -4.4670    -3.9480    -0.4470 C.3   1 <1>  -0.1600 
 21 C        3.6650    -2.0880     0.2150 C.3   1 <1>   0.1400 
 22 C        5.0580    -2.7240     0.0850 C.3   1 <1>  -0.0800 
 23 C        5.6430    -2.9880     1.4780 C.3   1 <1>  -0.2400 
 24 C        6.0280    -1.8430    -0.7190 C.3   1 <1>  -0.2400 
 25 H       -1.5730    -3.3570    -1.7950 H     1 <1>   0.0800 
 26 H        0.5370    -3.8580    -1.3770 H     1 <1>   0.0800 
 27 H        1.2100    -3.3790     0.1350 H     1 <1>   0.0800 
 28 H        0.2290     0.2300    -1.6200 H     1 <1>   0.1500 
 29 H       -2.1780     0.8900     1.8280 H     1 <1>   0.1500 
 30 H       -2.6900    -1.2180    -1.6030 H     1 <1>   0.0800 
 31 H       -3.1250    -1.5660     0.0550 H     1 <1>   0.0800 
 32 H       -2.1660    -3.8080     1.1290 H     1 <1>   0.0800 
 33 H       -1.1760    -4.8310     0.1260 H     1 <1>   0.0800 
 34 H       -0.5020     2.3730    -2.5450 H     1 <1>   0.1500 
 35 H       -2.9130     3.0390     0.9030 H     1 <1>   0.1500 
 36 H       -4.0180    -3.1120    -2.3750 H     1 <1>   0.0800 
 37 H       -5.0060    -2.0850    -1.3770 H     1 <1>   0.0800 
 38 H       -3.4910    -5.6830     0.3600 H     1 <1>   0.0800 
 39 H       -3.0820    -5.3500    -1.2980 H     1 <1>   0.0800 
 40 H        3.6260    -1.3480    -1.7690 H     1 <1>   0.3700 
 41 H       -2.0790     3.7890    -1.2890 H     1 <1>   0.1500 
 42 H       -5.3190    -4.4870    -0.8240 H     1 <1>   0.0800 
 43 H       -4.7180    -3.5810     0.5340 H     1 <1>   0.0800 
 44 H        3.0420    -2.7140     0.8280 H     1 <1>   0.0800 
 45 H        3.7430    -1.1300     0.7030 H     1 <1>   0.0800 
 46 H        4.9510    -3.6720    -0.4160 H     1 <1>   0.0800 
 47 H        5.7680    -2.0660     2.0190 H     1 <1>   0.0800 
 48 H        6.6010    -3.4710     1.3960 H     1 <1>   0.0800 
 49 H        4.9910    -3.6310     2.0430 H     1 <1>   0.0800 
 50 H        6.1170    -0.8700    -0.2690 H     1 <1>   0.0800 
 51 H        5.6870    -1.7250    -1.7320 H     1 <1>   0.0800 
 52 H        7.0030    -2.2960    -0.7510 H     1 <1>   0.0800 
@<TRIPOS>BOND
  1   1   2  2   
  2   1   3  2   
  3   1   4  am  
  4   1   5  1   
  5   4   6  1   
  6   4   7  1   
  7   5   8  ar  
  8   5   9  ar  
  9   6  10  1   
 10   6  11  1   
 11   6  25  1   
 12   7  12  1   
 13   7  26  1   
 14   7  27  1   
 15   8  13  ar  
 16   8  28  1   
 17   9  14  ar  
 18   9  29  1   
 19  10  15  1   
 20  10  30  1   
 21  10  31  1   
 22  11  16  1   
 23  11  32  1   
 24  11  33  1   
 25  12  17  2   
 26  12  18  am  
 27  13  19  ar  
 28  13  34  1   
 29  14  19  ar  
 30  14  35  1   
 31  15  20  1   
 32  15  36  1   
 33  15  37  1   
 34  16  20  1   
 35  16  38  1   
 36  16  39  1   
 37  18  21  1   
 38  18  40  1   
 39  19  41  1   
 40  20  42  1   
 41  20  43  1   
 42  21  22  1   
 43  21  44  1   
 44  21  45  1   
 45  22  23  1   
 46  22  24  1   
 47  22  46  1   
 48  23  47  1   
 49  23  48  1   
 50  23  49  1   
 51  24  50  1   
 52  24  51  1   
 53  24  52  1   
@<TRIPOS>SUBSTRUCTURE
  1 ****   4 GROUP 4 **** **** 0

# MOE 2024.06 (io_trps.svl 2023.06)
