@<TRIPOS>MOLECULE
NONAME
40 41 1 0 0 
SMALL
USER_CHARGES


@<TRIPOS>ATOM
  1 S       -0.2330    -1.7570     0.0900 S.3   1 <1>  -0.2860 
  2 C       -1.9140    -1.1480     0.1330 C.2   1 <1>   0.2420 
  3 C        0.6050    -0.5750    -1.0670 C.3   1 <1>   0.1310 
  4 N       -2.2800    -0.0870    -0.4940 N.2   1 <1>  -0.5650 
  5 N       -2.8770    -1.7870     0.8460 N.pl3 1 <1>   0.0480 
  6 C        2.1160    -0.7000    -0.9500 C.2   1 <1>   0.4480 
  7 C       -3.6030     0.0090    -0.1810 C.ar  1 <1>   0.2270 
  8 C       -3.9930    -1.0310     0.6500 C.ar  1 <1>  -0.1520 
  9 C       -2.7650    -3.0120     1.6600 C.3   1 <1>   0.0160 
 10 O        2.7020    -1.4670    -1.6590 O.2   1 <1>  -0.5700 
 11 C        2.8540     0.2220     0.0550 C.3   1 <1>   0.0610 
 12 C       -4.5240     0.9740    -0.5790 C.ar  1 <1>  -0.1500 
 13 C       -5.3100    -1.1320     1.1040 C.ar  1 <1>  -0.1500 
 14 C        2.8330     1.6760    -0.4490 C.3   1 <1>  -0.2400 
 15 C        2.2160     0.1750     1.4560 C.3   1 <1>  -0.2400 
 16 C        4.3300    -0.2020     0.2050 C.3   1 <1>  -0.2400 
 17 C       -5.8310     0.8800    -0.1340 C.ar  1 <1>   0.0830 
 18 C       -6.2140    -0.1730     0.7060 C.ar  1 <1>  -0.1500 
 19 O       -6.8100     1.7670    -0.4610 O.3   1 <1>  -0.3630 
 20 C       -6.5300     2.8620    -1.3050 C.3   1 <1>   0.0400 
 21 H        0.2700     0.4140    -0.8210 H     1 <1>   0.0800 
 22 H        0.2800    -0.8330    -2.0570 H     1 <1>   0.0800 
 23 H       -1.9910    -3.6430     1.2630 H     1 <1>   0.0800 
 24 H       -3.6980    -3.5440     1.6380 H     1 <1>   0.0800 
 25 H       -2.5260    -2.7420     2.6720 H     1 <1>   0.0800 
 26 H       -4.1750     1.7570    -1.2220 H     1 <1>   0.1500 
 27 H       -5.6070    -1.9390     1.7500 H     1 <1>   0.1500 
 28 H        3.3930     2.3140     0.2120 H     1 <1>   0.0800 
 29 H        1.8280     2.0550    -0.5050 H     1 <1>   0.0800 
 30 H        3.2740     1.7360    -1.4290 H     1 <1>   0.0800 
 31 H        1.2070     0.5480     1.4380 H     1 <1>   0.0800 
 32 H        2.7780     0.7770     2.1490 H     1 <1>   0.0800 
 33 H        2.1990    -0.8360     1.8240 H     1 <1>   0.0800 
 34 H        4.8350    -0.1470    -0.7430 H     1 <1>   0.0800 
 35 H        4.3910    -1.2180     0.5550 H     1 <1>   0.0800 
 36 H        4.8480     0.4320     0.9030 H     1 <1>   0.0800 
 37 H       -7.2380    -0.2150     1.0330 H     1 <1>   0.1500 
 38 H       -7.4370     3.4270    -1.4300 H     1 <1>   0.0800 
 39 H       -6.1950     2.4930    -2.2580 H     1 <1>   0.0800 
 40 H       -5.7780     3.4770    -0.8420 H     1 <1>   0.0800 
@<TRIPOS>BOND
  1   1   2  1   
  2   1   3  1   
  3   2   4  2   
  4   2   5  1   
  5   3   6  1   
  6   3  21  1   
  7   3  22  1   
  8   4   7  1   
  9   5   8  1   
 10   5   9  1   
 11   6  10  2   
 12   6  11  1   
 13   7   8  ar  
 14   7  12  ar  
 15   8  13  ar  
 16   9  23  1   
 17   9  24  1   
 18   9  25  1   
 19  11  14  1   
 20  11  15  1   
 21  11  16  1   
 22  12  17  ar  
 23  12  26  1   
 24  13  18  ar  
 25  13  27  1   
 26  14  28  1   
 27  14  29  1   
 28  14  30  1   
 29  15  31  1   
 30  15  32  1   
 31  15  33  1   
 32  16  34  1   
 33  16  35  1   
 34  16  36  1   
 35  17  18  ar  
 36  17  19  1   
 37  18  37  1   
 38  19  20  1   
 39  20  38  1   
 40  20  39  1   
 41  20  40  1   
@<TRIPOS>SUBSTRUCTURE
  1 ****   4 GROUP 4 **** **** 0

# MOE 2024.06 (io_trps.svl 2023.06)
