@<TRIPOS>MOLECULE
NONAME
44 45 1 0 0 
SMALL
USER_CHARGES


@<TRIPOS>ATOM
  1 O       -0.9260    -3.3990     0.9870 O.2   1 <1>  -0.5700 
  2 C       -0.8860    -4.0310    -0.0430 C.2   1 <1>   0.5690 
  3 N       -1.9820    -4.2580    -0.8230 N.am  1 <1>  -0.7300 
  4 C        0.4930    -4.5680    -0.4660 C.3   1 <1>   0.4040 
  5 C       -3.3740    -3.8090    -0.5710 C.3   1 <1>   0.2200 
  6 N        1.6390    -3.7770     0.1230 N.4   1 <1>  -0.9590 
  7 C       -3.4680    -2.2770    -0.5610 C.3   1 <1>  -0.1600 
  8 C       -3.9270    -4.4210     0.7230 C.3   1 <1>  -0.1600 
  9 C        1.7060    -2.3990    -0.4450 C.3   1 <1>   0.3430 
 10 C        2.9390    -4.4990     0.0550 C.3   1 <1>   0.3430 
 11 C       -4.9140    -1.8210    -0.3150 C.3   1 <1>  -0.1600 
 12 C       -5.3730    -3.9640     0.9680 C.3   1 <1>  -0.1600 
 13 C        2.7570    -1.5850     0.3090 C.3   1 <1>  -0.1600 
 14 C        4.0050    -3.7100     0.8150 C.3   1 <1>  -0.1600 
 15 C       -5.4750    -2.4320     0.9770 C.3   1 <1>  -0.1600 
 16 C        4.1310    -2.2720     0.2910 C.3   1 <1>  -0.0800 
 17 C        5.1400    -1.4790     1.1280 C.3   1 <1>  -0.2400 
 18 H       -1.9100    -4.8200    -1.6740 H     1 <1>   0.3700 
 19 H        0.5590    -4.5600    -1.5390 H     1 <1>   0.0800 
 20 H        0.5560    -5.5890    -0.1310 H     1 <1>   0.0800 
 21 H       -3.9840    -4.1650    -1.3840 H     1 <1>   0.0800 
 22 H        1.3850    -3.6450     1.1180 H     1 <1>   0.4500 
 23 H       -3.1280    -1.8860    -1.5020 H     1 <1>   0.0800 
 24 H       -2.8490    -1.8770     0.2220 H     1 <1>   0.0800 
 25 H       -3.3280    -4.1140     1.5610 H     1 <1>   0.0800 
 26 H       -3.9010    -5.4940     0.6580 H     1 <1>   0.0800 
 27 H        0.7470    -1.9130    -0.3500 H     1 <1>   0.0800 
 28 H        1.9670    -2.4440    -1.4900 H     1 <1>   0.0800 
 29 H        3.2420    -4.6100    -0.9740 H     1 <1>   0.0800 
 30 H        2.8430    -5.4810     0.4910 H     1 <1>   0.0800 
 31 H       -5.5310    -2.1170    -1.1470 H     1 <1>   0.0800 
 32 H       -4.9470    -0.7470    -0.2480 H     1 <1>   0.0800 
 33 H       -5.7180    -4.3520     1.9110 H     1 <1>   0.0800 
 34 H       -6.0120    -4.3590     0.1970 H     1 <1>   0.0800 
 35 H        2.4260    -1.4360     1.3220 H     1 <1>   0.0800 
 36 H        2.8360    -0.6140    -0.1490 H     1 <1>   0.0800 
 37 H        4.9510    -4.2130     0.7090 H     1 <1>   0.0800 
 38 H        3.7610    -3.7040     1.8630 H     1 <1>   0.0800 
 39 H       -6.5050    -2.1410     1.0950 H     1 <1>   0.0800 
 40 H       -4.9270    -2.0450     1.8190 H     1 <1>   0.0800 
 41 H        4.4890    -2.3030    -0.7260 H     1 <1>   0.0800 
 42 H        4.8270    -1.4170     2.1560 H     1 <1>   0.0800 
 43 H        5.2430    -0.4790     0.7430 H     1 <1>   0.0800 
 44 H        6.1070    -1.9500     1.0940 H     1 <1>   0.0800 
@<TRIPOS>BOND
  1   1   2  2   
  2   2   3  am  
  3   2   4  1   
  4   3   5  1   
  5   3  18  1   
  6   4   6  1   
  7   4  19  1   
  8   4  20  1   
  9   5   7  1   
 10   5   8  1   
 11   5  21  1   
 12   6   9  1   
 13   6  10  1   
 14   6  22  1   
 15   7  11  1   
 16   7  23  1   
 17   7  24  1   
 18   8  12  1   
 19   8  25  1   
 20   8  26  1   
 21   9  13  1   
 22   9  27  1   
 23   9  28  1   
 24  10  14  1   
 25  10  29  1   
 26  10  30  1   
 27  11  15  1   
 28  11  31  1   
 29  11  32  1   
 30  12  15  1   
 31  12  33  1   
 32  12  34  1   
 33  13  16  1   
 34  13  35  1   
 35  13  36  1   
 36  14  16  1   
 37  14  37  1   
 38  14  38  1   
 39  15  39  1   
 40  15  40  1   
 41  16  17  1   
 42  16  41  1   
 43  17  42  1   
 44  17  43  1   
 45  17  44  1   
@<TRIPOS>SUBSTRUCTURE
  1 ****   1 GROUP 4 **** **** 0

# MOE 2024.06 (io_trps.svl 2023.06)
