@<TRIPOS>MOLECULE
NONAME
41 41 1 0 0 
SMALL
USER_CHARGES


@<TRIPOS>ATOM
  1 O       -0.6010     1.1480     1.5330 O.2   1 <1>  -0.5700 
  2 C       -0.4780     1.7030     0.4680 C.2   1 <1>   0.5690 
  3 N       -1.4890     1.8100    -0.4480 N.am  1 <1>  -0.5470 
  4 C        0.8710     2.3390     0.1120 C.3   1 <1>  -0.0190 
  5 C       -2.8090     1.3270    -0.4250 C.ar  1 <1>   0.1170 
  6 C        2.0090     1.3050     0.1330 C.3   1 <1>  -0.2400 
  7 C        1.2060     3.5070     1.0540 C.3   1 <1>  -0.2400 
  8 C       -3.7570     1.9370    -1.2360 C.ar  1 <1>  -0.1500 
  9 C       -3.2130     0.2510     0.3580 C.ar  1 <1>  -0.1500 
 10 C       -5.0670     1.4930    -1.2610 C.ar  1 <1>  -0.1500 
 11 C       -4.5220    -0.1940     0.3330 C.ar  1 <1>  -0.1500 
 12 C       -5.4710     0.4170    -0.4780 C.ar  1 <1>   0.1170 
 13 N       -6.7890    -0.0690    -0.4560 N.am  1 <1>  -0.5470 
 14 C       -7.8140     0.0670    -1.3500 C.2   1 <1>   0.5690 
 15 O       -7.7260     0.6600    -2.3960 O.2   1 <1>  -0.5700 
 16 C       -9.1380    -0.5860    -0.9990 C.3   1 <1>  -0.0990 
 17 C       -9.8770     0.1610     0.1230 C.3   1 <1>  -0.1600 
 18 C      -11.2160    -0.5100     0.4520 C.3   1 <1>  -0.1600 
 19 C      -11.9460     0.2390     1.5700 C.3   1 <1>  -0.2400 
 20 H       -1.2640     2.3650    -1.2690 H     1 <1>   0.3700 
 21 H        0.8080     2.7320    -0.8870 H     1 <1>   0.0800 
 22 H        2.1230     0.8960     1.1230 H     1 <1>   0.0800 
 23 H        2.9380     1.7570    -0.1640 H     1 <1>   0.0800 
 24 H        1.7870     0.4970    -0.5430 H     1 <1>   0.0800 
 25 H        1.2940     3.1540     2.0670 H     1 <1>   0.0800 
 26 H        0.4260     4.2470     1.0210 H     1 <1>   0.0800 
 27 H        2.1330     3.9710     0.7680 H     1 <1>   0.0800 
 28 H       -3.4780     2.7710    -1.8520 H     1 <1>   0.1500 
 29 H       -2.5020    -0.2480     0.9910 H     1 <1>   0.1500 
 30 H       -5.7760     1.9930    -1.8940 H     1 <1>   0.1500 
 31 H       -4.8020    -1.0270     0.9500 H     1 <1>   0.1500 
 32 H       -7.0110    -0.6370     0.3580 H     1 <1>   0.3700 
 33 H       -8.9570    -1.6050    -0.7110 H     1 <1>   0.0800 
 34 H       -9.7520    -0.6000    -1.8820 H     1 <1>   0.0800 
 35 H      -10.0520     1.1770    -0.1900 H     1 <1>   0.0800 
 36 H       -9.2640     0.1890     1.0080 H     1 <1>   0.0800 
 37 H      -11.0480    -1.5280     0.7610 H     1 <1>   0.0800 
 38 H      -11.8380    -0.5260    -0.4270 H     1 <1>   0.0800 
 39 H      -11.3540     0.2500     2.4680 H     1 <1>   0.0800 
 40 H      -12.8830    -0.2430     1.7840 H     1 <1>   0.0800 
 41 H      -12.1450     1.2550     1.2740 H     1 <1>   0.0800 
@<TRIPOS>BOND
  1   1   2  2   
  2   2   3  am  
  3   2   4  1   
  4   3   5  1   
  5   3  20  1   
  6   4   6  1   
  7   4   7  1   
  8   4  21  1   
  9   5   8  ar  
 10   5   9  ar  
 11   6  22  1   
 12   6  23  1   
 13   6  24  1   
 14   7  25  1   
 15   7  26  1   
 16   7  27  1   
 17   8  10  ar  
 18   8  28  1   
 19   9  11  ar  
 20   9  29  1   
 21  10  12  ar  
 22  10  30  1   
 23  11  12  ar  
 24  11  31  1   
 25  12  13  1   
 26  13  14  am  
 27  13  32  1   
 28  14  15  2   
 29  14  16  1   
 30  16  17  1   
 31  16  33  1   
 32  16  34  1   
 33  17  18  1   
 34  17  35  1   
 35  17  36  1   
 36  18  19  1   
 37  18  37  1   
 38  18  38  1   
 39  19  39  1   
 40  19  40  1   
 41  19  41  1   
@<TRIPOS>SUBSTRUCTURE
  1 ****  12 GROUP 4 **** **** 0

# MOE 2024.06 (io_trps.svl 2023.06)
