@<TRIPOS>MOLECULE
NONAME
52 53 1 0 0 
SMALL
USER_CHARGES


@<TRIPOS>ATOM
  1 S       -0.3130    -0.3100    -0.7230 S.o2  1 <1>   1.3330 
  2 O        0.8690    -0.9600    -1.2330 O.2   1 <1>  -0.6500 
  3 O       -0.2120     1.0080    -0.1480 O.2   1 <1>  -0.6500 
  4 N       -1.0290    -1.3780     0.4520 N.am  1 <1>  -0.6930 
  5 C       -1.4920    -0.2700    -2.0590 C.3   1 <1>  -0.1350 
  6 C       -0.5170    -2.6540     0.6770 C.ar  1 <1>   0.1990 
  7 C       -2.3910    -1.1030     1.0180 C.3   1 <1>   0.3370 
  8 C       -0.1910    -3.0560     1.9660 C.ar  1 <1>  -0.1500 
  9 C       -0.3720    -3.5720    -0.3580 C.ar  1 <1>  -0.1500 
 10 C       -3.5100    -1.5980     0.0770 C.2   1 <1>   0.5690 
 11 C       -2.5560     0.3450     1.5020 C.3   1 <1>  -0.2400 
 12 C        0.2400    -4.3450     2.2200 C.ar  1 <1>  -0.1500 
 13 C        0.0580    -4.8610    -0.1080 C.ar  1 <1>  -0.1500 
 14 O       -4.2590    -0.8060    -0.4460 O.2   1 <1>  -0.5700 
 15 N       -3.5920    -2.9460    -0.1540 N.am  1 <1>  -0.5470 
 16 C        0.3640    -5.2570     1.1850 C.ar  1 <1>  -0.1430 
 17 C       -4.4540    -3.6290    -1.0220 C.ar  1 <1>   0.1170 
 18 C        0.8380    -6.6720     1.4650 C.3   1 <1>  -0.0970 
 19 C       -5.8420    -3.7040    -0.8440 C.ar  1 <1>  -0.1430 
 20 C       -3.8730    -4.2790    -2.1050 C.ar  1 <1>  -0.1500 
 21 C       -6.5990    -4.4120    -1.7690 C.ar  1 <1>  -0.1500 
 22 C       -6.5600    -3.0450     0.3430 C.3   1 <1>   0.0630 
 23 C       -4.6380    -4.9820    -3.0140 C.ar  1 <1>  -0.1500 
 24 C       -6.0070    -5.0470    -2.8460 C.ar  1 <1>  -0.1500 
 25 C       -7.2970    -4.0870     1.1920 C.3   1 <1>  -0.2400 
 26 C       -7.5260    -1.9570    -0.1380 C.3   1 <1>  -0.2400 
 27 H       -1.0710     0.2490    -2.8970 H     1 <1>   0.0800 
 28 H       -2.3820     0.2480    -1.7620 H     1 <1>   0.0800 
 29 H       -1.7500    -1.2640    -2.3670 H     1 <1>   0.0800 
 30 H       -2.4880    -1.7040     1.9040 H     1 <1>   0.0800 
 31 H       -0.2720    -2.3510     2.7730 H     1 <1>   0.1500 
 32 H       -0.5920    -3.2760    -1.3670 H     1 <1>   0.1500 
 33 H       -2.6340     1.0270     0.6740 H     1 <1>   0.0800 
 34 H       -1.7280     0.6290     2.1260 H     1 <1>   0.0800 
 35 H       -3.4620     0.4300     2.0750 H     1 <1>   0.0800 
 36 H        0.4850    -4.6370     3.2270 H     1 <1>   0.1500 
 37 H        0.1620    -5.5560    -0.9230 H     1 <1>   0.1500 
 38 H       -2.8180    -3.5060     0.2100 H     1 <1>   0.3700 
 39 H        0.0080    -7.2800     1.7790 H     1 <1>   0.0800 
 40 H        1.5800    -6.6690     2.2430 H     1 <1>   0.0800 
 41 H        1.2740    -7.1070     0.5840 H     1 <1>   0.0800 
 42 H       -2.8090    -4.2310    -2.2430 H     1 <1>   0.1500 
 43 H       -7.6660    -4.4780    -1.6590 H     1 <1>   0.1500 
 44 H       -5.8450    -2.5720     0.9890 H     1 <1>   0.0800 
 45 H       -4.1740    -5.4770    -3.8490 H     1 <1>   0.1500 
 46 H       -6.6140    -5.5900    -3.5510 H     1 <1>   0.1500 
 47 H       -8.0920    -4.5490     0.6350 H     1 <1>   0.0800 
 48 H       -7.7190    -3.6220     2.0650 H     1 <1>   0.0800 
 49 H       -6.6100    -4.8510     1.5090 H     1 <1>   0.0800 
 50 H       -8.3150    -2.3750    -0.7350 H     1 <1>   0.0800 
 51 H       -6.9910    -1.2360    -0.7320 H     1 <1>   0.0800 
 52 H       -7.9620    -1.4480     0.7030 H     1 <1>   0.0800 
@<TRIPOS>BOND
  1   1   2  2   
  2   1   3  2   
  3   1   4  am  
  4   1   5  1   
  5   4   6  1   
  6   4   7  1   
  7   5  27  1   
  8   5  28  1   
  9   5  29  1   
 10   6   8  ar  
 11   6   9  ar  
 12   7  10  1   
 13   7  11  1   
 14   7  30  1   
 15   8  12  ar  
 16   8  31  1   
 17   9  13  ar  
 18   9  32  1   
 19  10  14  2   
 20  10  15  am  
 21  11  33  1   
 22  11  34  1   
 23  11  35  1   
 24  12  16  ar  
 25  12  36  1   
 26  13  16  ar  
 27  13  37  1   
 28  15  17  1   
 29  15  38  1   
 30  16  18  1   
 31  17  19  ar  
 32  17  20  ar  
 33  18  39  1   
 34  18  40  1   
 35  18  41  1   
 36  19  21  ar  
 37  19  22  1   
 38  20  23  ar  
 39  20  42  1   
 40  21  24  ar  
 41  21  43  1   
 42  22  25  1   
 43  22  26  1   
 44  22  44  1   
 45  23  24  ar  
 46  23  45  1   
 47  24  46  1   
 48  25  47  1   
 49  25  48  1   
 50  25  49  1   
 51  26  50  1   
 52  26  51  1   
 53  26  52  1   
@<TRIPOS>SUBSTRUCTURE
  1 ****  15 GROUP 4 **** **** 0

# MOE 2024.06 (io_trps.svl 2023.06)
