@<TRIPOS>MOLECULE
NONAME
32 33 1 0 0 
SMALL
USER_CHARGES


@<TRIPOS>ATOM
  1 BR       1.1720    -0.3350    -1.0710 Br    1 <1>  -0.1110 
  2 C        0.2580    -1.8340    -0.2770 C.ar  1 <1>   0.1110 
  3 C        0.7510    -2.4320     0.8680 C.ar  1 <1>   0.1900 
  4 C       -0.9010    -2.2960    -0.8760 C.ar  1 <1>  -0.1500 
  5 F        1.8440    -1.9850     1.4260 F     1 <1>  -0.1900 
  6 C        0.0970    -3.5070     1.4390 C.ar  1 <1>  -0.1500 
  7 C       -1.5740    -3.3720    -0.3060 C.ar  1 <1>  -0.1440 
  8 C       -1.0680    -3.9750     0.8450 C.ar  1 <1>  -0.1500 
  9 C       -2.8540    -3.8890    -0.9400 C.3   1 <1>   0.4870 
 10 N       -4.0150    -3.4140    -0.1370 N.4   1 <1>  -0.9590 
 11 C       -5.2940    -4.0900    -0.5630 C.3   1 <1>   0.3430 
 12 C       -4.1410    -1.9090    -0.1800 C.3   1 <1>   0.3430 
 13 C       -6.5180    -3.6030     0.2430 C.3   1 <1>   0.1400 
 14 C       -5.3400    -1.4060     0.6430 C.3   1 <1>   0.1400 
 15 N       -6.5900    -2.1170     0.2390 N.am  1 <1>  -0.6600 
 16 C       -7.6980    -1.4330    -0.1810 C.2   1 <1>   0.5700 
 17 O       -7.7060    -0.2350    -0.3210 O.2   1 <1>  -0.5700 
 18 H       -1.2500    -1.8110    -1.7720 H     1 <1>   0.1500 
 19 H        0.4980    -3.9650     2.3270 H     1 <1>   0.1500 
 20 H       -1.5650    -4.8190     1.2930 H     1 <1>   0.1500 
 21 H       -2.8290    -4.9670    -0.9560 H     1 <1>   0.0800 
 22 H       -2.9330    -3.5360    -1.9560 H     1 <1>   0.0800 
 23 H       -3.8230    -3.6670     0.8410 H     1 <1>   0.4500 
 24 H       -5.2020    -5.1580    -0.4480 H     1 <1>   0.0800 
 25 H       -5.4770    -3.8870    -1.6060 H     1 <1>   0.0800 
 26 H       -4.2700    -1.5820    -1.1980 H     1 <1>   0.0800 
 27 H       -3.2420    -1.4520     0.2020 H     1 <1>   0.0800 
 28 H       -6.4490    -3.9530     1.2590 H     1 <1>   0.0800 
 29 H       -7.4160    -4.0150    -0.1860 H     1 <1>   0.0800 
 30 H       -5.4450    -0.3440     0.4950 H     1 <1>   0.0800 
 31 H       -5.1600    -1.5680     1.6920 H     1 <1>   0.0800 
 32 H       -8.5920    -1.9850    -0.4140 H     1 <1>   0.0600 
@<TRIPOS>BOND
  1   1   2  1   
  2   2   3  ar  
  3   2   4  ar  
  4   3   5  1   
  5   3   6  ar  
  6   4   7  ar  
  7   4  18  1   
  8   6   8  ar  
  9   6  19  1   
 10   7   8  ar  
 11   7   9  1   
 12   8  20  1   
 13   9  10  1   
 14   9  21  1   
 15   9  22  1   
 16  10  11  1   
 17  10  12  1   
 18  10  23  1   
 19  11  13  1   
 20  11  24  1   
 21  11  25  1   
 22  12  14  1   
 23  12  26  1   
 24  12  27  1   
 25  13  15  1   
 26  13  28  1   
 27  13  29  1   
 28  14  15  1   
 29  14  30  1   
 30  14  31  1   
 31  15  16  am  
 32  16  17  2   
 33  16  32  1   
@<TRIPOS>SUBSTRUCTURE
  1 ****  12 GROUP 4 **** **** 0

# MOE 2024.06 (io_trps.svl 2023.06)
