@<TRIPOS>MOLECULE
NONAME
44 45 1 0 0 
SMALL
USER_CHARGES


@<TRIPOS>ATOM
  1 O        0.3560     0.4940    -1.1400 O.2   1 <1>  -0.5700 
  2 C        0.4470     0.7440     0.0450 C.2   1 <1>   0.6900 
  3 N       -0.6160     1.2070     0.7350 N.am  1 <1>  -0.7300 
  4 N        1.5970     0.5940     0.7400 N.am  1 <1>  -0.7300 
  5 C       -1.9500     1.4610     0.1690 C.3   1 <1>   0.2200 
  6 C        2.9410     0.1940     0.2720 C.3   1 <1>   0.3640 
  7 C       -2.3680     2.8940     0.5140 C.3   1 <1>  -0.1600 
  8 C       -2.9370     0.4390     0.7430 C.3   1 <1>  -0.1600 
  9 C        3.7370     1.4390    -0.1060 C.ar  1 <1>  -0.1440 
 10 C        2.9290    -0.8500    -0.8450 C.3   1 <1>  -0.2400 
 11 C       -3.8000     3.1840     0.0400 C.3   1 <1>  -0.1600 
 12 C       -4.3700     0.7250     0.2690 C.3   1 <1>  -0.1600 
 13 C        4.9080     1.7460     0.5720 C.ar  1 <1>  -0.1500 
 14 C        3.3110     2.2830    -1.1220 C.ar  1 <1>  -0.1500 
 15 C       -4.7910     2.1610     0.6100 C.3   1 <1>  -0.1600 
 16 C        5.6460     2.8730     0.2500 C.ar  1 <1>   0.0820 
 17 C        4.0400     3.4110    -1.4530 C.ar  1 <1>  -0.1500 
 18 O        6.7740     3.0890     0.9710 O.3   1 <1>  -0.3630 
 19 C        5.2060     3.7110    -0.7710 C.ar  1 <1>  -0.1500 
 20 C        7.6020     4.2030     0.7180 C.3   1 <1>   0.0400 
 21 H       -0.5530     1.2670     1.7460 H     1 <1>   0.3700 
 22 H        1.6480     1.1350     1.5960 H     1 <1>   0.3700 
 23 H       -1.9180     1.3550    -0.9040 H     1 <1>   0.0800 
 24 H        3.4290    -0.2680     1.1120 H     1 <1>   0.0800 
 25 H       -1.6900     3.5830     0.0420 H     1 <1>   0.0800 
 26 H       -2.3170     3.0380     1.5790 H     1 <1>   0.0800 
 27 H       -2.9100     0.4750     1.8170 H     1 <1>   0.0800 
 28 H       -2.6470    -0.5470     0.4250 H     1 <1>   0.0800 
 29 H        2.5860    -0.4240    -1.7700 H     1 <1>   0.0800 
 30 H        2.2970    -1.6750    -0.5750 H     1 <1>   0.0800 
 31 H        3.9270    -1.2150    -1.0030 H     1 <1>   0.0800 
 32 H       -3.8310     3.1480    -1.0360 H     1 <1>   0.0800 
 33 H       -4.0870     4.1760     0.3450 H     1 <1>   0.0800 
 34 H       -5.0480     0.0290     0.7310 H     1 <1>   0.0800 
 35 H       -4.4260     0.5810    -0.7970 H     1 <1>   0.0800 
 36 H        5.2680     1.1140     1.3630 H     1 <1>   0.1500 
 37 H        2.4030     2.0610    -1.6600 H     1 <1>   0.1500 
 38 H       -5.7740     2.3510     0.2130 H     1 <1>   0.0800 
 39 H       -4.8430     2.2720     1.6800 H     1 <1>   0.0800 
 40 H        3.6960     4.0550    -2.2430 H     1 <1>   0.1500 
 41 H        5.7530     4.5910    -1.0480 H     1 <1>   0.1500 
 42 H        8.4300     4.1660     1.4020 H     1 <1>   0.0800 
 43 H        7.0340     5.1020     0.8790 H     1 <1>   0.0800 
 44 H        7.9610     4.1480    -0.2940 H     1 <1>   0.0800 
@<TRIPOS>BOND
  1   1   2  2   
  2   2   3  am  
  3   2   4  am  
  4   3   5  1   
  5   3  21  1   
  6   4   6  1   
  7   4  22  1   
  8   5   7  1   
  9   5   8  1   
 10   5  23  1   
 11   6   9  1   
 12   6  10  1   
 13   6  24  1   
 14   7  11  1   
 15   7  25  1   
 16   7  26  1   
 17   8  12  1   
 18   8  27  1   
 19   8  28  1   
 20   9  13  ar  
 21   9  14  ar  
 22  10  29  1   
 23  10  30  1   
 24  10  31  1   
 25  11  15  1   
 26  11  32  1   
 27  11  33  1   
 28  12  15  1   
 29  12  34  1   
 30  12  35  1   
 31  13  16  ar  
 32  13  36  1   
 33  14  17  ar  
 34  14  37  1   
 35  15  38  1   
 36  15  39  1   
 37  16  18  1   
 38  16  19  ar  
 39  17  19  ar  
 40  17  40  1   
 41  18  20  1   
 42  19  41  1   
 43  20  42  1   
 44  20  43  1   
 45  20  44  1   
@<TRIPOS>SUBSTRUCTURE
  1 ****   4 GROUP 4 **** **** 0

# MOE 2024.06 (io_trps.svl 2023.06)
