@<TRIPOS>MOLECULE
NONAME
36 37 1 0 0 
SMALL
USER_CHARGES


@<TRIPOS>ATOM
  1 N       -0.1330     0.5380     1.9050 N.1   1 <1>  -0.5570 
  2 C        0.9220     0.9080     1.7010 C.1   1 <1>   0.3570 
  3 C        2.3030     1.3950     1.4230 C.3   1 <1>   0.0400 
  4 C        2.2920     2.8420     0.8990 C.3   1 <1>  -0.1600 
  5 C        3.7060     3.4210     0.6590 C.3   1 <1>  -0.0190 
  6 C        3.7090     4.9590     0.5720 C.2   1 <1>   0.3030 
  7 C        4.4760     2.7340    -0.4940 C.3   1 <1>  -0.1600 
  8 N        4.5570     5.5380     1.3220 N.2   1 <1>  -0.6960 
  9 C        2.7920     5.6840    -0.3070 C.ar  1 <1>   0.0860 
 10 C        5.8660     3.3570    -0.7330 C.3   1 <1>   0.0400 
 11 C        4.6300     7.0010     1.3860 C.3   1 <1>   0.0860 
 12 C        2.5540     7.0340    -0.0310 C.ar  1 <1>  -0.1440 
 13 C        2.1440     5.1490    -1.4250 C.ar  1 <1>  -0.1500 
 14 C        6.6310     2.5940    -1.7590 C.1   1 <1>   0.3570 
 15 C        3.2600     7.6540     1.1630 C.3   1 <1>  -0.0160 
 16 C        1.7010     7.7970    -0.8090 C.ar  1 <1>  -0.1500 
 17 C        1.2910     5.9070    -2.2060 C.ar  1 <1>  -0.1500 
 18 N        7.1980     1.9970    -2.5420 N.1   1 <1>  -0.5570 
 19 C        1.0650     7.2340    -1.8980 C.ar  1 <1>  -0.1500 
 20 H        2.7450     0.7340     0.7000 H     1 <1>   0.0800 
 21 H        2.8710     1.3350     2.3330 H     1 <1>   0.0800 
 22 H        1.7950     3.4600     1.6300 H     1 <1>   0.0800 
 23 H        1.7050     2.8770     0.0000 H     1 <1>   0.0800 
 24 H        4.2630     3.1890     1.5520 H     1 <1>   0.0800 
 25 H        3.9170     2.7730    -1.4100 H     1 <1>   0.0800 
 26 H        4.6160     1.6950    -0.2520 H     1 <1>   0.0800 
 27 H        6.4320     3.3620     0.1810 H     1 <1>   0.0800 
 28 H        5.7720     4.3720    -1.0750 H     1 <1>   0.0800 
 29 H        5.3340     7.3450     0.6470 H     1 <1>   0.0800 
 30 H        4.9970     7.2850     2.3570 H     1 <1>   0.0800 
 31 H        2.2970     4.1310    -1.7130 H     1 <1>   0.1500 
 32 H        3.3930     8.7110     1.0190 H     1 <1>   0.0800 
 33 H        2.6570     7.5110     2.0420 H     1 <1>   0.0800 
 34 H        1.5260     8.8330    -0.5720 H     1 <1>   0.1500 
 35 H        0.8020     5.4660    -3.0580 H     1 <1>   0.1500 
 36 H        0.3990     7.8260    -2.5030 H     1 <1>   0.1500 
@<TRIPOS>BOND
  1   1   2  3   
  2   2   3  1   
  3   3   4  1   
  4   3  20  1   
  5   3  21  1   
  6   4   5  1   
  7   4  22  1   
  8   4  23  1   
  9   5   6  1   
 10   5   7  1   
 11   5  24  1   
 12   6   8  2   
 13   6   9  1   
 14   7  10  1   
 15   7  25  1   
 16   7  26  1   
 17   8  11  1   
 18   9  12  ar  
 19   9  13  ar  
 20  10  14  1   
 21  10  27  1   
 22  10  28  1   
 23  11  15  1   
 24  11  29  1   
 25  11  30  1   
 26  12  15  1   
 27  12  16  ar  
 28  13  17  ar  
 29  13  31  1   
 30  14  18  3   
 31  15  32  1   
 32  15  33  1   
 33  16  19  ar  
 34  16  34  1   
 35  17  19  ar  
 36  17  35  1   
 37  19  36  1   
@<TRIPOS>SUBSTRUCTURE
  1 ****   6 GROUP 4 **** **** 0

# MOE 2024.06 (io_trps.svl 2023.06)
