@<TRIPOS>MOLECULE
NONAME
37 38 1 0 0 
SMALL
USER_CHARGES


@<TRIPOS>ATOM
  1 F       -3.1710     0.6150     2.9920 F     1 <1>  -0.1900 
  2 C       -3.1980     0.9710     1.7340 C.ar  1 <1>   0.1900 
  3 C       -2.2570     1.8540     1.2320 C.ar  1 <1>   0.1900 
  4 C       -4.1870     0.4500     0.9210 C.ar  1 <1>  -0.1500 
  5 F       -1.3260     2.3460     2.0080 F     1 <1>  -0.1900 
  6 C       -2.2870     2.2310    -0.0970 C.ar  1 <1>  -0.1500 
  7 C       -4.2330     0.8300    -0.4170 C.ar  1 <1>  -0.1440 
  8 C       -3.2790     1.7140    -0.9190 C.ar  1 <1>  -0.1500 
  9 C       -5.3230     0.2830    -1.3230 C.3   1 <1>   0.4870 
 10 N       -6.6120     0.9150    -0.9390 N.4   1 <1>  -0.9590 
 11 C       -7.7920     0.2180    -1.4920 C.3   1 <1>   0.3430 
 12 C       -6.6600     2.3720    -1.1910 C.3   1 <1>   0.3430 
 13 C       -8.4060    -0.6230    -0.3760 C.3   1 <1>  -0.1600 
 14 C       -7.0770     3.0710     0.1030 C.3   1 <1>  -0.1600 
 15 C       -9.2240     0.1780     0.6550 C.3   1 <1>  -0.1600 
 16 C       -8.4520     2.6600     0.6680 C.3   1 <1>  -0.1600 
 17 C       -8.4980     1.3070     1.4140 C.3   1 <1>  -0.1600 
 18 H       -4.8940    -0.2410     1.3470 H     1 <1>   0.1500 
 19 H       -1.5450     2.9140    -0.4750 H     1 <1>   0.1500 
 20 H       -3.2920     2.0100    -1.9560 H     1 <1>   0.1500 
 21 H       -5.3830    -0.7860    -1.1980 H     1 <1>   0.0800 
 22 H       -5.0950     0.4950    -2.3550 H     1 <1>   0.0800 
 23 H       -6.6970     0.8310     0.0820 H     1 <1>   0.4500 
 24 H       -7.5010    -0.4130    -2.3180 H     1 <1>   0.0800 
 25 H       -8.5250     0.9260    -1.8450 H     1 <1>   0.0800 
 26 H       -7.3630     2.5980    -1.9770 H     1 <1>   0.0800 
 27 H       -5.6900     2.7350    -1.4880 H     1 <1>   0.0800 
 28 H       -7.6450    -1.2010     0.1190 H     1 <1>   0.0800 
 29 H       -9.0770    -1.3290    -0.8360 H     1 <1>   0.0800 
 30 H       -7.1140     4.1250    -0.1100 H     1 <1>   0.0800 
 31 H       -6.3140     2.9410     0.8520 H     1 <1>   0.0800 
 32 H       -9.5780    -0.5270     1.3890 H     1 <1>   0.0800 
 33 H      -10.1060     0.5780     0.1810 H     1 <1>   0.0800 
 34 H       -9.2010     2.7000    -0.1060 H     1 <1>   0.0800 
 35 H       -8.7270     3.4190     1.3830 H     1 <1>   0.0800 
 36 H       -7.5250     0.9960     1.7510 H     1 <1>   0.0800 
 37 H       -9.0720     1.4770     2.3120 H     1 <1>   0.0800 
@<TRIPOS>BOND
  1   1   2  1   
  2   2   3  ar  
  3   2   4  ar  
  4   3   5  1   
  5   3   6  ar  
  6   4   7  ar  
  7   4  18  1   
  8   6   8  ar  
  9   6  19  1   
 10   7   8  ar  
 11   7   9  1   
 12   8  20  1   
 13   9  10  1   
 14   9  21  1   
 15   9  22  1   
 16  10  11  1   
 17  10  12  1   
 18  10  23  1   
 19  11  13  1   
 20  11  24  1   
 21  11  25  1   
 22  12  14  1   
 23  12  26  1   
 24  12  27  1   
 25  13  15  1   
 26  13  28  1   
 27  13  29  1   
 28  14  16  1   
 29  14  30  1   
 30  14  31  1   
 31  15  17  1   
 32  15  32  1   
 33  15  33  1   
 34  16  17  1   
 35  16  34  1   
 36  16  35  1   
 37  17  36  1   
 38  17  37  1   
@<TRIPOS>SUBSTRUCTURE
  1 ****   7 GROUP 4 **** **** 0

# MOE 2024.06 (io_trps.svl 2023.06)
