@<TRIPOS>MOLECULE
NONAME
57 59 1 0 0 
SMALL
USER_CHARGES


@<TRIPOS>ATOM
  1 S        0.3660    -0.3310    -1.5440 S.o2  1 <1>   1.4470 
  2 O        0.9330    -0.7850    -2.7970 O.2   1 <1>  -0.6500 
  3 O       -0.2180     0.9890    -1.4630 O.2   1 <1>  -0.6500 
  4 N        1.6230    -0.3790    -0.4080 N.am  1 <1>  -0.8490 
  5 C       -0.8030    -1.5590    -0.8990 C.ar  1 <1>  -0.0090 
  6 C        2.5350     0.7670    -0.5750 C.3   1 <1>   0.1960 
  7 C        2.3830    -1.6380    -0.4680 C.3   1 <1>   0.1960 
  8 C       -1.3070    -1.4520     0.3900 C.ar  1 <1>  -0.1500 
  9 C       -1.2120    -2.6410    -1.6660 C.ar  1 <1>  -0.1500 
 10 C        3.6320     0.7810     0.5030 C.3   1 <1>   0.1400 
 11 C        3.4680    -1.7000     0.6230 C.3   1 <1>   0.1400 
 12 C       -2.1840    -2.3900     0.9140 C.ar  1 <1>  -0.1440 
 13 C       -2.0860    -3.5850    -1.1590 C.ar  1 <1>  -0.1500 
 14 N        4.3800    -0.5170     0.5360 N.am  1 <1>  -0.6600 
 15 C       -2.5770    -3.4690     0.1310 C.ar  1 <1>  -0.1430 
 16 C       -2.6980    -2.2080     2.3350 C.3   1 <1>  -0.0970 
 17 C        5.7520    -0.5440     0.4340 C.2   1 <1>   0.5690 
 18 C       -3.5380    -4.5260     0.6560 C.3   1 <1>  -0.0970 
 19 O        6.3790     0.4750     0.2620 O.2   1 <1>  -0.5700 
 20 C        6.5330    -1.8620     0.5340 C.3   1 <1>  -0.0190 
 21 C        7.9640    -1.6680     1.0800 C.3   1 <1>  -0.1600 
 22 C        6.5990    -2.5720    -0.8330 C.3   1 <1>  -0.1600 
 23 C        8.7260    -2.9930     1.1530 C.3   1 <1>   0.1400 
 24 C        7.3730    -3.8910    -0.7480 C.3   1 <1>   0.1400 
 25 N        8.7300    -3.6400    -0.1890 N.am  1 <1>  -0.6600 
 26 C        9.8540    -3.9670    -0.9040 C.2   1 <1>   0.5690 
 27 O        9.7980    -4.5170    -1.9770 O.2   1 <1>  -0.5700 
 28 C       11.2300    -3.6470    -0.3680 C.3   1 <1>  -0.1790 
 29 H        1.9780     1.6860    -0.5010 H     1 <1>   0.0800 
 30 H        2.9930     0.7360    -1.5490 H     1 <1>   0.0800 
 31 H        2.8520    -1.7430    -1.4330 H     1 <1>   0.0800 
 32 H        1.7140    -2.4710    -0.3330 H     1 <1>   0.0800 
 33 H       -1.0000    -0.6120     0.9890 H     1 <1>   0.1500 
 34 H       -0.8440    -2.7490    -2.6730 H     1 <1>   0.1500 
 35 H        3.1780     0.9490     1.4640 H     1 <1>   0.0800 
 36 H        4.2980     1.6030     0.3090 H     1 <1>   0.0800 
 37 H        4.0070    -2.6210     0.5140 H     1 <1>   0.0800 
 38 H        2.9920    -1.7060     1.5880 H     1 <1>   0.0800 
 39 H       -2.3830    -4.4120    -1.7790 H     1 <1>   0.1500 
 40 H       -2.2860    -1.3240     2.7870 H     1 <1>   0.0800 
 41 H       -2.4240    -3.0550     2.9380 H     1 <1>   0.0800 
 42 H       -3.7690    -2.1140     2.3290 H     1 <1>   0.0800 
 43 H       -4.4760    -4.0720     0.9200 H     1 <1>   0.0800 
 44 H       -3.1230    -5.0040     1.5250 H     1 <1>   0.0800 
 45 H       -3.7270    -5.2800    -0.0860 H     1 <1>   0.0800 
 46 H        6.0250    -2.4990     1.2330 H     1 <1>   0.0800 
 47 H        7.9190    -1.2270     2.0600 H     1 <1>   0.0800 
 48 H        8.5110    -0.9920     0.4450 H     1 <1>   0.0800 
 49 H        7.0870    -1.9310    -1.5480 H     1 <1>   0.0800 
 50 H        5.6090    -2.7690    -1.2000 H     1 <1>   0.0800 
 51 H        8.2460    -3.6530     1.8560 H     1 <1>   0.0800 
 52 H        9.7250    -2.8090     1.5040 H     1 <1>   0.0800 
 53 H        7.4410    -4.3290    -1.7300 H     1 <1>   0.0800 
 54 H        6.8560    -4.5870    -0.1110 H     1 <1>   0.0800 
 55 H       11.3230    -2.5900    -0.2100 H     1 <1>   0.0800 
 56 H       11.9750    -3.9550    -1.0790 H     1 <1>   0.0800 
 57 H       11.3950    -4.1740     0.5520 H     1 <1>   0.0800 
@<TRIPOS>BOND
  1   1   2  2   
  2   1   3  2   
  3   1   4  am  
  4   1   5  1   
  5   4   6  1   
  6   4   7  1   
  7   5   8  ar  
  8   5   9  ar  
  9   6  10  1   
 10   6  29  1   
 11   6  30  1   
 12   7  11  1   
 13   7  31  1   
 14   7  32  1   
 15   8  12  ar  
 16   8  33  1   
 17   9  13  ar  
 18   9  34  1   
 19  10  14  1   
 20  10  35  1   
 21  10  36  1   
 22  11  14  1   
 23  11  37  1   
 24  11  38  1   
 25  12  15  ar  
 26  12  16  1   
 27  13  15  ar  
 28  13  39  1   
 29  14  17  am  
 30  15  18  1   
 31  16  40  1   
 32  16  41  1   
 33  16  42  1   
 34  17  19  2   
 35  17  20  1   
 36  18  43  1   
 37  18  44  1   
 38  18  45  1   
 39  20  21  1   
 40  20  22  1   
 41  20  46  1   
 42  21  23  1   
 43  21  47  1   
 44  21  48  1   
 45  22  24  1   
 46  22  49  1   
 47  22  50  1   
 48  23  25  1   
 49  23  51  1   
 50  23  52  1   
 51  24  25  1   
 52  24  53  1   
 53  24  54  1   
 54  25  26  am  
 55  26  27  2   
 56  26  28  1   
 57  28  55  1   
 58  28  56  1   
 59  28  57  1   
@<TRIPOS>SUBSTRUCTURE
  1 ****  11 GROUP 4 **** **** 0

# MOE 2024.06 (io_trps.svl 2023.06)
