@<TRIPOS>MOLECULE
NONAME
44 45 1 0 0 
SMALL
USER_CHARGES


@<TRIPOS>ATOM
  1 O       -0.2210     0.3490    -0.9580 O.2   1 <1>  -0.5700 
  2 C       -0.2240     1.4960    -0.5840 C.2   1 <1>   0.5690 
  3 N       -1.1710     2.3690    -1.0050 N.am  1 <1>  -0.5470 
  4 C        0.8780     1.9750     0.3800 C.3   1 <1>   0.4040 
  5 C       -1.2560     3.7150    -0.6370 C.ar  1 <1>   0.1170 
  6 N        2.0930     1.0730     0.4210 N.4   1 <1>  -0.9590 
  7 C       -0.6160     4.6900    -1.4030 C.ar  1 <1>  -0.1430 
  8 C       -1.9450     4.0830     0.5190 C.ar  1 <1>  -0.1430 
  9 C        2.9720     1.3700     1.5860 C.3   1 <1>   0.3430 
 10 C        2.8290     1.0920    -0.8770 C.3   1 <1>   0.3430 
 11 C       -0.6410     6.0100    -0.9880 C.ar  1 <1>  -0.1500 
 12 C        0.1070     4.3390    -2.6980 C.3   1 <1>  -0.0970 
 13 C       -1.9560     5.4090     0.9150 C.ar  1 <1>  -0.1500 
 14 C       -2.7000     3.0580     1.3600 C.3   1 <1>  -0.0970 
 15 C        4.0990     0.3380     1.6560 C.3   1 <1>  -0.1600 
 16 C        3.9540     0.0560    -0.8440 C.3   1 <1>  -0.1600 
 17 C       -1.3050     6.3760     0.1700 C.ar  1 <1>  -0.1430 
 18 C        4.8960     0.2740     0.3470 C.3   1 <1>  -0.1600 
 19 C       -1.3260     7.8280     0.6130 C.3   1 <1>  -0.0970 
 20 H       -1.8860     1.9990    -1.6370 H     1 <1>   0.3700 
 21 H        0.4420     2.0320     1.3610 H     1 <1>   0.0800 
 22 H        1.1730     2.9700     0.0950 H     1 <1>   0.0800 
 23 H        1.7270     0.1120     0.5170 H     1 <1>   0.4500 
 24 H        2.4020     1.3400     2.5000 H     1 <1>   0.0800 
 25 H        3.3960     2.3560     1.4810 H     1 <1>   0.0800 
 26 H        3.2460     2.0710    -1.0480 H     1 <1>   0.0800 
 27 H        2.1560     0.8590    -1.6880 H     1 <1>   0.0800 
 28 H       -0.1470     6.7690    -1.5690 H     1 <1>   0.1500 
 29 H       -0.5540     3.8030    -3.3550 H     1 <1>   0.0800 
 30 H        0.9680     3.7310    -2.4960 H     1 <1>   0.0800 
 31 H        0.4310     5.2280    -3.2110 H     1 <1>   0.0800 
 32 H       -2.4810     5.7010     1.8080 H     1 <1>   0.1500 
 33 H       -2.0150     2.3920     1.8490 H     1 <1>   0.0800 
 34 H       -3.3620     2.4840     0.7360 H     1 <1>   0.0800 
 35 H       -3.2960     3.5430     2.1120 H     1 <1>   0.0800 
 36 H        3.6830    -0.6300     1.8790 H     1 <1>   0.0800 
 37 H        4.7620     0.5950     2.4640 H     1 <1>   0.0800 
 38 H        4.5160     0.1190    -1.7600 H     1 <1>   0.0800 
 39 H        3.5250    -0.9310    -0.8000 H     1 <1>   0.0800 
 40 H        5.6150    -0.5280     0.3950 H     1 <1>   0.0800 
 41 H        5.4410     1.1930     0.2110 H     1 <1>   0.0800 
 42 H       -0.4700     8.0360     1.2290 H     1 <1>   0.0800 
 43 H       -2.2180     8.0390     1.1760 H     1 <1>   0.0800 
 44 H       -1.3050     8.4820    -0.2410 H     1 <1>   0.0800 
@<TRIPOS>BOND
  1   1   2  2   
  2   2   3  am  
  3   2   4  1   
  4   3   5  1   
  5   3  20  1   
  6   4   6  1   
  7   4  21  1   
  8   4  22  1   
  9   5   7  ar  
 10   5   8  ar  
 11   6   9  1   
 12   6  10  1   
 13   6  23  1   
 14   7  11  ar  
 15   7  12  1   
 16   8  13  ar  
 17   8  14  1   
 18   9  15  1   
 19   9  24  1   
 20   9  25  1   
 21  10  16  1   
 22  10  26  1   
 23  10  27  1   
 24  11  17  ar  
 25  11  28  1   
 26  12  29  1   
 27  12  30  1   
 28  12  31  1   
 29  13  17  ar  
 30  13  32  1   
 31  14  33  1   
 32  14  34  1   
 33  14  35  1   
 34  15  18  1   
 35  15  36  1   
 36  15  37  1   
 37  16  18  1   
 38  16  38  1   
 39  16  39  1   
 40  17  19  1   
 41  18  40  1   
 42  18  41  1   
 43  19  42  1   
 44  19  43  1   
 45  19  44  1   
@<TRIPOS>SUBSTRUCTURE
  1 ****   4 GROUP 4 **** **** 0

# MOE 2024.06 (io_trps.svl 2023.06)
