@<TRIPOS>MOLECULE
NONAME
41 43 1 0 0 
SMALL
USER_CHARGES


@<TRIPOS>ATOM
  1 S       -0.1720     0.1640     0.6480 S.o2  1 <1>   1.4970 
  2 O       -0.3790    -0.1250     2.0520 O.2   1 <1>  -0.6500 
  3 O        0.4460    -0.7980    -0.2380 O.2   1 <1>  -0.6500 
  4 N        0.5890     1.6530     0.4840 N.2   1 <1>  -0.6380 
  5 C       -1.6990     0.7410    -0.0660 C.ar  1 <1>  -0.0090 
  6 C       -0.2030     2.5090    -0.0240 C.2   1 <1>   0.4140 
  7 C       -1.5350     2.0640    -0.3990 C.ar  1 <1>   0.0860 
  8 C       -2.8900     0.0750    -0.3060 C.ar  1 <1>  -0.1500 
  9 N        0.2080     3.8170    -0.1970 N.pl3 1 <1>  -0.7880 
 10 C       -2.5820     2.7390    -1.0220 C.ar  1 <1>  -0.1500 
 11 C       -3.9360     0.7570    -0.9080 C.ar  1 <1>  -0.1500 
 12 C        1.6800     4.0930    -0.2980 C.3   1 <1>   0.2090 
 13 C       -0.6150     4.9300     0.3840 C.3   1 <1>   0.2090 
 14 C       -3.7780     2.0860    -1.2690 C.ar  1 <1>  -0.1500 
 15 C        1.9820     5.5780    -0.5670 C.3   1 <1>   0.1400 
 16 C        0.2210     5.9030     1.2310 C.3   1 <1>   0.1400 
 17 N        1.3640     6.4860     0.4550 N.am  1 <1>  -0.6600 
 18 C        1.8040     7.7560     0.7380 C.2   1 <1>   0.5690 
 19 O        1.3170     8.3880     1.6480 O.2   1 <1>  -0.5700 
 20 C        2.9320     8.4120    -0.0800 C.3   1 <1>  -0.0190 
 21 C        4.2990     8.1830     0.5860 C.3   1 <1>  -0.2400 
 22 C        2.7070     9.9210    -0.2890 C.3   1 <1>  -0.2400 
 23 H       -2.9980    -0.9600    -0.0300 H     1 <1>   0.1500 
 24 H       -2.4590     3.7640    -1.3200 H     1 <1>   0.1500 
 25 H       -4.8680     0.2530    -1.1000 H     1 <1>   0.1500 
 26 H        2.0950     3.4950    -1.0900 H     1 <1>   0.0800 
 27 H        2.1610     3.8010     0.6200 H     1 <1>   0.0800 
 28 H       -1.3970     4.5220     1.0010 H     1 <1>   0.0800 
 29 H       -1.0750     5.4820    -0.4170 H     1 <1>   0.0800 
 30 H       -4.5900     2.6090    -1.7460 H     1 <1>   0.1500 
 31 H        1.6040     5.8360    -1.5400 H     1 <1>   0.0800 
 32 H        3.0480     5.7090    -0.5730 H     1 <1>   0.0800 
 33 H        0.6080     5.3850     2.0910 H     1 <1>   0.0800 
 34 H       -0.4210     6.6920     1.5850 H     1 <1>   0.0800 
 35 H        2.9510     7.9700    -1.0580 H     1 <1>   0.0800 
 36 H        4.3160     8.6460     1.5580 H     1 <1>   0.0800 
 37 H        5.0860     8.6060    -0.0120 H     1 <1>   0.0800 
 38 H        4.4870     7.1320     0.7090 H     1 <1>   0.0800 
 39 H        2.7150    10.4360     0.6560 H     1 <1>   0.0800 
 40 H        1.7540    10.0890    -0.7570 H     1 <1>   0.0800 
 41 H        3.4760    10.3360    -0.9150 H     1 <1>   0.0800 
@<TRIPOS>BOND
  1   1   2  2   
  2   1   3  2   
  3   1   4  1   
  4   1   5  1   
  5   4   6  2   
  6   5   7  ar  
  7   5   8  ar  
  8   6   7  1   
  9   6   9  1   
 10   7  10  ar  
 11   8  11  ar  
 12   8  23  1   
 13   9  12  1   
 14   9  13  1   
 15  10  14  ar  
 16  10  24  1   
 17  11  14  ar  
 18  11  25  1   
 19  12  15  1   
 20  12  26  1   
 21  12  27  1   
 22  13  16  1   
 23  13  28  1   
 24  13  29  1   
 25  14  30  1   
 26  15  17  1   
 27  15  31  1   
 28  15  32  1   
 29  16  17  1   
 30  16  33  1   
 31  16  34  1   
 32  17  18  am  
 33  18  19  2   
 34  18  20  1   
 35  20  21  1   
 36  20  22  1   
 37  20  35  1   
 38  21  36  1   
 39  21  37  1   
 40  21  38  1   
 41  22  39  1   
 42  22  40  1   
 43  22  41  1   
@<TRIPOS>SUBSTRUCTURE
  1 ****   9 GROUP 4 **** **** 0

# MOE 2024.06 (io_trps.svl 2023.06)
