@<TRIPOS>MOLECULE
NONAME
37 38 1 0 0 
SMALL
USER_CHARGES


@<TRIPOS>ATOM
  1 O        1.1860    -1.4840    -1.7020 O.3   1 <1>  -0.5600 
  2 C        1.8520    -0.2530    -1.5800 C.3   1 <1>   0.1200 
  3 C        0.4820    -1.8760    -0.5560 C.3   1 <1>   0.1200 
  4 C        2.7630    -0.2160    -0.3310 C.3   1 <1>   0.3430 
  5 C        1.4420    -2.0740     0.6410 C.3   1 <1>   0.3430 
  6 N        2.8190    -1.5600     0.3380 N.4   1 <1>  -0.9590 
  7 C        3.7470    -1.6160     1.5000 C.3   1 <1>   0.4860 
  8 C        5.1250    -1.1780     1.0440 C.ar  1 <1>  -0.1440 
  9 C        5.8380    -1.9490     0.1410 C.ar  1 <1>  -0.1500 
 10 C        5.6850    -0.0010     1.5130 C.ar  1 <1>  -0.1500 
 11 C        7.0860    -1.5610    -0.3170 C.ar  1 <1>   0.0820 
 12 C        6.9310     0.4030     1.0690 C.ar  1 <1>  -0.1500 
 13 O        7.6380    -2.4330    -1.2080 O.3   1 <1>  -0.3630 
 14 C        7.6480    -0.3580     0.1480 C.ar  1 <1>   0.0820 
 15 C        9.0090    -2.4300    -1.5390 C.3   1 <1>   0.0400 
 16 O        8.8650     0.0560    -0.3100 O.3   1 <1>  -0.3630 
 17 C        9.5080     1.2170     0.1710 C.3   1 <1>   0.0400 
 18 H        1.1180     0.5340    -1.5390 H     1 <1>   0.0800 
 19 H        2.4420    -0.1150    -2.4700 H     1 <1>   0.0800 
 20 H       -0.0290    -2.7960    -0.7790 H     1 <1>   0.0800 
 21 H       -0.2580    -1.1260    -0.3340 H     1 <1>   0.0800 
 22 H        2.3860     0.5220     0.3570 H     1 <1>   0.0800 
 23 H        3.7520     0.0940    -0.6300 H     1 <1>   0.0800 
 24 H        1.4890    -3.1240     0.8780 H     1 <1>   0.0800 
 25 H        1.0340    -1.5660     1.4990 H     1 <1>   0.0800 
 26 H        3.1960    -2.1820    -0.3920 H     1 <1>   0.4500 
 27 H        3.8020    -2.6210     1.8850 H     1 <1>   0.0800 
 28 H        3.3990    -0.9660     2.2860 H     1 <1>   0.0800 
 29 H        5.4420    -2.8780    -0.2320 H     1 <1>   0.1500 
 30 H        5.1630     0.6150     2.2260 H     1 <1>   0.1500 
 31 H        7.3270     1.3230     1.4570 H     1 <1>   0.1500 
 32 H        9.2230    -3.3250    -2.0930 H     1 <1>   0.0800 
 33 H        9.5890    -2.4110    -0.6330 H     1 <1>   0.0800 
 34 H        9.2190    -1.5680    -2.1470 H     1 <1>   0.0800 
 35 H       10.4590     1.3000    -0.3240 H     1 <1>   0.0800 
 36 H        9.6570     1.1210     1.2320 H     1 <1>   0.0800 
 37 H        8.9020     2.0750    -0.0610 H     1 <1>   0.0800 
@<TRIPOS>BOND
  1   1   2  1   
  2   1   3  1   
  3   2   4  1   
  4   2  18  1   
  5   2  19  1   
  6   3   5  1   
  7   3  20  1   
  8   3  21  1   
  9   4   6  1   
 10   4  22  1   
 11   4  23  1   
 12   5   6  1   
 13   5  24  1   
 14   5  25  1   
 15   6   7  1   
 16   6  26  1   
 17   7   8  1   
 18   7  27  1   
 19   7  28  1   
 20   8   9  ar  
 21   8  10  ar  
 22   9  11  ar  
 23   9  29  1   
 24  10  12  ar  
 25  10  30  1   
 26  11  13  1   
 27  11  14  ar  
 28  12  14  ar  
 29  12  31  1   
 30  13  15  1   
 31  14  16  1   
 32  15  32  1   
 33  15  33  1   
 34  15  34  1   
 35  16  17  1   
 36  17  35  1   
 37  17  36  1   
 38  17  37  1   
@<TRIPOS>SUBSTRUCTURE
  1 ****   8 GROUP 4 **** **** 0

# MOE 2024.06 (io_trps.svl 2023.06)
