@<TRIPOS>MOLECULE
NONAME
34 36 1 0 0 
SMALL
USER_CHARGES


@<TRIPOS>ATOM
  1 S       -0.0910     0.1040     0.9690 S.3   1 <1>  -0.3710 
  2 C       -1.4880    -0.8250     0.3350 C.2   1 <1>   0.6510 
  3 C       -0.7750     1.7680     1.4010 C.3   1 <1>  -0.0100 
  4 N       -2.6030    -0.1960     0.3120 N.2   1 <1>  -0.6290 
  5 N       -1.2810    -2.1350    -0.0640 N.am  1 <1>  -0.4200 
  6 C       -3.7230    -0.8570    -0.1270 C.ar  1 <1>   0.1790 
  7 C       -2.4010    -2.8670    -0.4240 C.2   1 <1>   0.5440 
  8 C        0.0980    -2.7430    -0.0950 C.3   1 <1>   0.2200 
  9 C       -3.6720    -2.2020    -0.5020 C.ar  1 <1>   0.0860 
 10 C       -4.9310    -0.1700    -0.1910 C.ar  1 <1>  -0.1500 
 11 O       -2.3250    -4.0610    -0.6660 O.2   1 <1>  -0.5700 
 12 C        0.4630    -3.4280    -1.4240 C.3   1 <1>  -0.1600 
 13 C        0.2960    -3.7890     1.0090 C.3   1 <1>  -0.1600 
 14 C       -4.8490    -2.8240    -0.9310 C.ar  1 <1>  -0.1500 
 15 C       -6.0830    -0.7970    -0.6180 C.ar  1 <1>  -0.1500 
 16 C        0.7980    -4.8810    -1.0790 C.3   1 <1>  -0.1600 
 17 C        1.1980    -4.8560     0.3930 C.3   1 <1>  -0.1600 
 18 C       -6.0410    -2.1330    -0.9890 C.ar  1 <1>  -0.1500 
 19 H        0.0300     2.3660     1.7880 H     1 <1>   0.0800 
 20 H       -1.5430     1.6280     2.1410 H     1 <1>   0.0800 
 21 H       -1.1820     2.2010     0.5050 H     1 <1>   0.0800 
 22 H        0.8520    -1.9940     0.0440 H     1 <1>   0.0800 
 23 H       -4.9510     0.8650     0.1010 H     1 <1>   0.1500 
 24 H        1.3420    -2.9550    -1.8250 H     1 <1>   0.0800 
 25 H       -0.3190    -3.3720    -2.1600 H     1 <1>   0.0800 
 26 H       -0.6420    -4.2430     1.2770 H     1 <1>   0.0800 
 27 H        0.7420    -3.3560     1.8860 H     1 <1>   0.0800 
 28 H       -4.8150    -3.8620    -1.2180 H     1 <1>   0.1500 
 29 H       -7.0130    -0.2550    -0.6630 H     1 <1>   0.1500 
 30 H        1.5760    -5.2800    -1.7060 H     1 <1>   0.0800 
 31 H       -0.0880    -5.4850    -1.1930 H     1 <1>   0.0800 
 32 H        1.0670    -5.8160     0.8620 H     1 <1>   0.0800 
 33 H        2.2290    -4.5540     0.4800 H     1 <1>   0.0800 
 34 H       -6.9400    -2.6250    -1.3220 H     1 <1>   0.1500 
@<TRIPOS>BOND
  1   1   2  1   
  2   1   3  1   
  3   2   4  2   
  4   2   5  1   
  5   3  19  1   
  6   3  20  1   
  7   3  21  1   
  8   4   6  1   
  9   5   7  am  
 10   5   8  1   
 11   6   9  ar  
 12   6  10  ar  
 13   7   9  1   
 14   7  11  2   
 15   8  12  1   
 16   8  13  1   
 17   8  22  1   
 18   9  14  ar  
 19  10  15  ar  
 20  10  23  1   
 21  12  16  1   
 22  12  24  1   
 23  12  25  1   
 24  13  17  1   
 25  13  26  1   
 26  13  27  1   
 27  14  18  ar  
 28  14  28  1   
 29  15  18  ar  
 30  15  29  1   
 31  16  17  1   
 32  16  30  1   
 33  16  31  1   
 34  17  32  1   
 35  17  33  1   
 36  18  34  1   
@<TRIPOS>SUBSTRUCTURE
  1 ****   5 GROUP 4 **** **** 0

# MOE 2024.06 (io_trps.svl 2023.06)
