@<TRIPOS>MOLECULE
NONAME
33 34 1 0 0 
SMALL
USER_CHARGES


@<TRIPOS>ATOM
  1 S       -4.6590    -2.6490    -1.2540 S.3   1 <1>  -0.4600 
  2 C       -4.0230    -1.0220    -0.7700 C.3   1 <1>   0.4500 
  3 C       -3.2370    -3.6360    -0.7110 C.3   1 <1>   0.1310 
  4 N       -2.7390    -1.3310    -0.0970 N.am  1 <1>  -0.6600 
  5 C       -5.0050    -0.2000     0.1630 C.3   1 <1>   0.5030 
  6 C       -2.3410    -2.6310    -0.0200 C.2   1 <1>   0.5690 
  7 C       -2.0020    -0.2140     0.5610 C.3   1 <1>   0.1400 
  8 N       -4.2780     0.7910     1.0260 N.4   1 <1>  -0.9060 
  9 C       -6.0620     0.5780    -0.6880 C.3   1 <1>  -0.0800 
 10 C       -5.6890    -1.1250     1.1880 C.3   1 <1>  -0.2400 
 11 O       -1.3510    -2.9710     0.5770 O.2   1 <1>  -0.5700 
 12 C       -2.8500     1.0750     0.6450 C.3   1 <1>   0.3430 
 13 C       -5.4560     1.6450    -1.6290 C.3   1 <1>  -0.2400 
 14 C       -7.1760     1.2640     0.1340 C.3   1 <1>  -0.2400 
 15 H       -3.8250    -0.5030    -1.6890 H     1 <1>   0.0800 
 16 H       -2.7630    -4.0620    -1.5760 H     1 <1>   0.0800 
 17 H       -3.5830    -4.3960    -0.0350 H     1 <1>   0.0800 
 18 H       -1.0960    -0.0160     0.0120 H     1 <1>   0.0800 
 19 H       -1.7140    -0.5220     1.5520 H     1 <1>   0.0800 
 20 H       -4.2900     0.4030     1.9760 H     1 <1>   0.4500 
 21 H       -4.8360     1.6510     1.0430 H     1 <1>   0.4500 
 22 H       -6.5520    -0.1500    -1.3160 H     1 <1>   0.0800 
 23 H       -4.9680    -1.7680     1.6620 H     1 <1>   0.0800 
 24 H       -6.4120    -1.7540     0.7000 H     1 <1>   0.0800 
 25 H       -6.2090    -0.5750     1.9520 H     1 <1>   0.0800 
 26 H       -2.8270     1.5610    -0.3170 H     1 <1>   0.0800 
 27 H       -2.4010     1.7480     1.3580 H     1 <1>   0.0800 
 28 H       -4.9780     2.4380    -1.0820 H     1 <1>   0.0800 
 29 H       -6.2390     2.0890    -2.2220 H     1 <1>   0.0800 
 30 H       -4.7510     1.2250    -2.3230 H     1 <1>   0.0800 
 31 H       -6.7870     1.9940     0.8210 H     1 <1>   0.0800 
 32 H       -7.7600     0.5460     0.6820 H     1 <1>   0.0800 
 33 H       -7.8600     1.7710    -0.5260 H     1 <1>   0.0800 
@<TRIPOS>BOND
  1   1   2  1   
  2   1   3  1   
  3   2   4  1   
  4   2   5  1   
  5   2  15  1   
  6   3   6  1   
  7   3  16  1   
  8   3  17  1   
  9   4   6  am  
 10   4   7  1   
 11   5   8  1   
 12   5   9  1   
 13   5  10  1   
 14   6  11  2   
 15   7  12  1   
 16   7  18  1   
 17   7  19  1   
 18   8  12  1   
 19   8  20  1   
 20   8  21  1   
 21   9  13  1   
 22   9  14  1   
 23   9  22  1   
 24  10  23  1   
 25  10  24  1   
 26  10  25  1   
 27  12  26  1   
 28  12  27  1   
 29  13  28  1   
 30  13  29  1   
 31  13  30  1   
 32  14  31  1   
 33  14  32  1   
 34  14  33  1   
@<TRIPOS>SUBSTRUCTURE
  1 ****   2 GROUP 4 **** **** 0

# MOE 2024.06 (io_trps.svl 2023.06)
