@<TRIPOS>MOLECULE
NONAME
33 34 1 0 0 
SMALL
USER_CHARGES


@<TRIPOS>ATOM
  1 O       -0.3840     0.3000     0.1580 O.3   1 <1>  -0.5600 
  2 C       -1.5430    -0.3620    -0.2660 C.3   1 <1>   0.1200 
  3 C       -0.3720     1.6590    -0.1790 C.3   1 <1>   0.1200 
  4 C       -2.8020     0.2470     0.3760 C.3   1 <1>   0.2090 
  5 C       -1.5500     2.4070     0.4710 C.3   1 <1>   0.2090 
  6 N       -2.8510     1.7290     0.1770 N.pl3 1 <1>  -0.8380 
  7 C       -4.0430     2.4220     0.0800 C.ar  1 <1>   0.7200 
  8 N       -3.9670     3.7470     0.0430 N.ar  1 <1>  -0.6200 
  9 N       -5.1600     1.6960     0.0330 N.ar  1 <1>  -0.6200 
 10 C       -5.1150     4.3800    -0.0500 C.ar  1 <1>   0.3930 
 11 C       -6.2890     2.3540    -0.0590 C.ar  1 <1>   0.1670 
 12 O       -5.1350     5.7260    -0.0950 O.3   1 <1>  -0.3630 
 13 C       -6.3190     3.7220    -0.1050 C.ar  1 <1>  -0.1500 
 14 C       -7.5600     1.5340    -0.1130 C.3   1 <1>  -0.0970 
 15 C       -3.9380     6.4700    -0.0480 C.3   1 <1>   0.1200 
 16 C       -4.2950     7.9520    -0.1210 C.3   1 <1>  -0.2400 
 17 H       -1.4510    -1.3970     0.0120 H     1 <1>   0.0800 
 18 H       -1.6050    -0.2970    -1.3380 H     1 <1>   0.0800 
 19 H       -0.4210     1.7490    -1.2500 H     1 <1>   0.0800 
 20 H        0.5600     2.0740     0.1600 H     1 <1>   0.0800 
 21 H       -2.8020     0.0330     1.4300 H     1 <1>   0.0800 
 22 H       -3.6640    -0.2280    -0.0590 H     1 <1>   0.0800 
 23 H       -1.5510     3.4180     0.1050 H     1 <1>   0.0800 
 24 H       -1.4040     2.4400     1.5360 H     1 <1>   0.0800 
 25 H       -7.2320     4.2770    -0.1810 H     1 <1>   0.1500 
 26 H       -7.6400     0.9380     0.7780 H     1 <1>   0.0800 
 27 H       -7.5290     0.8810    -0.9660 H     1 <1>   0.0800 
 28 H       -8.4240     2.1670    -0.1880 H     1 <1>   0.0800 
 29 H       -3.3250     6.1800    -0.8850 H     1 <1>   0.0800 
 30 H       -3.4310     6.2400     0.8730 H     1 <1>   0.0800 
 31 H       -4.8110     8.1640    -1.0400 H     1 <1>   0.0800 
 32 H       -3.3980     8.5430    -0.0870 H     1 <1>   0.0800 
 33 H       -4.9170     8.2240     0.7130 H     1 <1>   0.0800 
@<TRIPOS>BOND
  1   1   2  1   
  2   1   3  1   
  3   2   4  1   
  4   2  17  1   
  5   2  18  1   
  6   3   5  1   
  7   3  19  1   
  8   3  20  1   
  9   4   6  1   
 10   4  21  1   
 11   4  22  1   
 12   5   6  1   
 13   5  23  1   
 14   5  24  1   
 15   6   7  1   
 16   7   8  ar  
 17   7   9  ar  
 18   8  10  ar  
 19   9  11  ar  
 20  10  12  1   
 21  10  13  ar  
 22  11  13  ar  
 23  11  14  1   
 24  12  15  1   
 25  13  25  1   
 26  14  26  1   
 27  14  27  1   
 28  14  28  1   
 29  15  16  1   
 30  15  29  1   
 31  15  30  1   
 32  16  31  1   
 33  16  32  1   
 34  16  33  1   
@<TRIPOS>SUBSTRUCTURE
  1 ****   7 GROUP 4 **** **** 0

# MOE 2024.06 (io_trps.svl 2023.06)
