@<TRIPOS>MOLECULE
NONAME
32 33 1 0 0 
SMALL
USER_CHARGES


@<TRIPOS>ATOM
  1 CL       0.1840    -0.6120    -0.9910 Cl    1 <1>  -0.1770 
  2 C       -0.9590     0.6170    -0.4610 C.ar  1 <1>   0.1770 
  3 C       -2.3070     0.3030    -0.5610 C.ar  1 <1>   0.1770 
  4 C       -0.5730     1.8670     0.0490 C.ar  1 <1>   0.0820 
  5 CL      -2.8180    -1.2450    -1.1940 Cl    1 <1>  -0.1770 
  6 C       -3.2850     1.1960    -0.1650 C.ar  1 <1>  -0.1500 
  7 O        0.6930     2.3470     0.2160 O.3   1 <1>  -0.3630 
  8 C       -1.5680     2.7520     0.4440 C.ar  1 <1>  -0.1500 
  9 C       -2.9110     2.4280     0.3410 C.ar  1 <1>  -0.1500 
 10 C        1.8590     1.6770    -0.1960 C.3   1 <1>   0.1200 
 11 C        3.0540     2.5870     0.1010 C.3   1 <1>   0.3430 
 12 N        4.3530     1.9840    -0.3460 N.4   1 <1>  -0.9590 
 13 C        4.7280     0.7360     0.3670 C.3   1 <1>   0.3430 
 14 C        5.4980     2.9100    -0.1620 C.3   1 <1>   0.3430 
 15 C        6.2270     0.6030     0.1370 C.3   1 <1>  -0.1600 
 16 C        6.7240     2.0090    -0.2140 C.3   1 <1>  -0.1600 
 17 H       -4.3240     0.9280    -0.2530 H     1 <1>   0.1500 
 18 H       -1.2880     3.7130     0.8400 H     1 <1>   0.1500 
 19 H       -3.6630     3.1340     0.6540 H     1 <1>   0.1500 
 20 H        1.7810     1.4890    -1.2520 H     1 <1>   0.0800 
 21 H        1.9310     0.7630     0.3660 H     1 <1>   0.0800 
 22 H        3.0910     2.7780     1.1610 H     1 <1>   0.0800 
 23 H        2.9020     3.5240    -0.4090 H     1 <1>   0.0800 
 24 H        4.3030     1.7650    -1.3510 H     1 <1>   0.4500 
 25 H        4.1900    -0.1210    -0.0090 H     1 <1>   0.0800 
 26 H        4.5350     0.8450     1.4230 H     1 <1>   0.0800 
 27 H        5.4380     3.3780     0.8080 H     1 <1>   0.0800 
 28 H        5.5280     3.6710    -0.9260 H     1 <1>   0.0800 
 29 H        6.4140    -0.0760    -0.6760 H     1 <1>   0.0800 
 30 H        6.7080     0.2180     1.0200 H     1 <1>   0.0800 
 31 H        7.4730     2.3530     0.4780 H     1 <1>   0.0800 
 32 H        7.1440     2.0220    -1.2050 H     1 <1>   0.0800 
@<TRIPOS>BOND
  1   1   2  1   
  2   2   3  ar  
  3   2   4  ar  
  4   3   5  1   
  5   3   6  ar  
  6   4   7  1   
  7   4   8  ar  
  8   6   9  ar  
  9   6  17  1   
 10   7  10  1   
 11   8   9  ar  
 12   8  18  1   
 13   9  19  1   
 14  10  11  1   
 15  10  20  1   
 16  10  21  1   
 17  11  12  1   
 18  11  22  1   
 19  11  23  1   
 20  12  13  1   
 21  12  14  1   
 22  12  24  1   
 23  13  15  1   
 24  13  25  1   
 25  13  26  1   
 26  14  16  1   
 27  14  27  1   
 28  14  28  1   
 29  15  16  1   
 30  15  29  1   
 31  15  30  1   
 32  16  31  1   
 33  16  32  1   
@<TRIPOS>SUBSTRUCTURE
  1 ****  10 GROUP 4 **** **** 0

# MOE 2024.06 (io_trps.svl 2023.06)
