@<TRIPOS>MOLECULE
NONAME
33 34 1 0 0 
SMALL
USER_CHARGES


@<TRIPOS>ATOM
  1 O        0.1790     0.6710     0.1190 O.2   1 <1>  -0.5700 
  2 C        1.1420    -0.0350    -0.0470 C.2   1 <1>   0.4230 
  3 C        2.4960     0.4430     0.1510 C.ar  1 <1>   0.0860 
  4 C        0.9040    -1.4840    -0.4830 C.3   1 <1>  -0.0990 
  5 C        3.6310    -0.2630    -0.2670 C.ar  1 <1>  -0.1500 
  6 C        2.7190     1.6690     0.7830 C.ar  1 <1>  -0.1500 
  7 C       -0.5450    -1.9740    -0.3190 C.3   1 <1>  -0.2400 
  8 C        4.9100     0.2220    -0.0620 C.ar  1 <1>  -0.1500 
  9 C        3.9920     2.1620     0.9910 C.ar  1 <1>  -0.1500 
 10 C        5.1000     1.4460     0.5720 C.ar  1 <1>   0.0830 
 11 O        6.3110     1.9950     0.8050 O.3   1 <1>  -0.3630 
 12 C        7.5000     1.4300     0.2970 C.3   1 <1>   0.1200 
 13 C        8.6570     2.3880     0.5710 C.3   1 <1>   0.0960 
 14 N        8.4750     3.6470    -0.1710 N.pl3 1 <1>   0.3140 
 15 N        9.1460     3.9170    -1.2820 N.2   1 <1>  -0.7070 
 16 C        7.6740     4.6800     0.1050 C.2   1 <1>   0.0360 
 17 C        8.7040     5.0920    -1.5930 C.2   1 <1>   0.3660 
 18 N        7.7890     5.6150    -0.7670 N.2   1 <1>  -0.5650 
 19 H        1.5390    -2.1270     0.0980 H     1 <1>   0.0800 
 20 H        1.1840    -1.5760    -1.5170 H     1 <1>   0.0800 
 21 H        3.5250    -1.2070    -0.7680 H     1 <1>   0.1500 
 22 H        1.8720     2.2460     1.1150 H     1 <1>   0.1500 
 23 H       -0.8520    -1.8900     0.7090 H     1 <1>   0.0800 
 24 H       -0.6300    -3.0010    -0.6240 H     1 <1>   0.0800 
 25 H       -1.2090    -1.3790    -0.9220 H     1 <1>   0.0800 
 26 H        5.7450    -0.3620    -0.4010 H     1 <1>   0.1500 
 27 H        4.1340     3.1100     1.4790 H     1 <1>   0.1500 
 28 H        7.3890     1.2750    -0.7620 H     1 <1>   0.0800 
 29 H        7.6630     0.4900     0.7930 H     1 <1>   0.0800 
 30 H        9.5800     1.9410     0.2500 H     1 <1>   0.0800 
 31 H        8.7250     2.6010     1.6210 H     1 <1>   0.0800 
 32 H        7.0190     4.6990     0.9580 H     1 <1>   0.1500 
 33 H        9.0360     5.6380    -2.4620 H     1 <1>   0.1500 
@<TRIPOS>BOND
  1   1   2  2   
  2   2   3  1   
  3   2   4  1   
  4   3   5  ar  
  5   3   6  ar  
  6   4   7  1   
  7   4  19  1   
  8   4  20  1   
  9   5   8  ar  
 10   5  21  1   
 11   6   9  ar  
 12   6  22  1   
 13   7  23  1   
 14   7  24  1   
 15   7  25  1   
 16   8  10  ar  
 17   8  26  1   
 18   9  10  ar  
 19   9  27  1   
 20  10  11  1   
 21  11  12  1   
 22  12  13  1   
 23  12  28  1   
 24  12  29  1   
 25  13  14  1   
 26  13  30  1   
 27  13  31  1   
 28  14  15  1   
 29  14  16  1   
 30  15  17  2   
 31  16  18  2   
 32  16  32  1   
 33  17  18  1   
 34  17  33  1   
@<TRIPOS>SUBSTRUCTURE
  1 ****  10 GROUP 4 **** **** 0

# MOE 2024.06 (io_trps.svl 2023.06)
