@<TRIPOS>MOLECULE
NONAME
46 47 1 0 0 
SMALL
USER_CHARGES


@<TRIPOS>ATOM
  1 F       -1.5420    -0.2940    -1.2690 F     1 <1>  -0.3400 
  2 C       -2.6330    -0.8940    -0.8050 C.3   1 <1>   1.1640 
  3 F       -2.6860    -2.0810    -1.3930 F     1 <1>  -0.3400 
  4 F       -2.4070    -1.1250     0.4830 F     1 <1>  -0.3400 
  5 C       -3.9160    -0.0790    -1.0390 C.ar  1 <1>  -0.1440 
  6 C       -5.0320    -0.2760    -0.2310 C.ar  1 <1>  -0.1500 
  7 C       -3.9910     0.8590    -2.0650 C.ar  1 <1>  -0.1500 
  8 C       -6.2010     0.4550    -0.4340 C.ar  1 <1>   0.0830 
  9 C       -5.1490     1.5870    -2.2730 C.ar  1 <1>  -0.1500 
 10 O       -7.3270     0.3220     0.3120 O.3   1 <1>  -0.3630 
 11 C       -6.2470     1.3850    -1.4600 C.ar  1 <1>  -0.1500 
 12 C       -7.4010    -0.4840     1.4870 C.3   1 <1>   0.2610 
 13 C       -8.8660    -0.8550     1.7870 C.2   1 <1>   0.5690 
 14 C       -6.7170     0.2450     2.6550 C.3   1 <1>  -0.2400 
 15 O       -9.1090    -2.0320     1.9220 O.2   1 <1>  -0.5700 
 16 N       -9.8920     0.0690     1.8670 N.am  1 <1>  -0.6600 
 17 C       -9.8050     1.4980     1.4500 C.3   1 <1>   0.1400 
 18 C      -11.3080    -0.3940     1.9710 C.3   1 <1>   0.1400 
 19 C      -10.4500     1.6540     0.0580 C.3   1 <1>   0.3430 
 20 C      -11.9790    -0.2700     0.5910 C.3   1 <1>   0.3430 
 21 N      -11.8650     1.1270     0.0200 N.4   1 <1>  -0.9590 
 22 C      -12.4190     1.2040    -1.3480 C.3   1 <1>   0.4810 
 23 C      -13.9220     1.1260    -1.2220 C.2   1 <1>  -0.2880 
 24 C      -14.7590     2.1630    -1.3390 C.2   1 <1>  -0.3000 
 25 H       -4.9710    -1.0060     0.5540 H     1 <1>   0.1500 
 26 H       -3.1470     1.0310    -2.7130 H     1 <1>   0.1500 
 27 H       -5.1910     2.3110    -3.0690 H     1 <1>   0.1500 
 28 H       -7.1430     1.9530    -1.6240 H     1 <1>   0.1500 
 29 H       -6.8920    -1.4080     1.2860 H     1 <1>   0.0800 
 30 H       -7.2180     1.1660     2.8860 H     1 <1>   0.0800 
 31 H       -5.6870     0.4510     2.4280 H     1 <1>   0.0800 
 32 H       -6.7460    -0.3800     3.5290 H     1 <1>   0.0800 
 33 H       -8.7890     1.8420     1.4200 H     1 <1>   0.0800 
 34 H      -10.3250     2.1120     2.1650 H     1 <1>   0.0800 
 35 H      -11.8330     0.2030     2.6960 H     1 <1>   0.0800 
 36 H      -11.3570    -1.4180     2.3030 H     1 <1>   0.0800 
 37 H       -9.8420     1.1150    -0.6510 H     1 <1>   0.0800 
 38 H      -10.4390     2.6950    -0.2210 H     1 <1>   0.0800 
 39 H      -13.0160    -0.5480     0.6800 H     1 <1>   0.0800 
 40 H      -11.5050    -0.9740    -0.0730 H     1 <1>   0.0800 
 41 H      -12.4570     1.7420     0.5930 H     1 <1>   0.4500 
 42 H      -12.0400     0.4090    -1.9700 H     1 <1>   0.0800 
 43 H      -12.1540     2.1490    -1.7950 H     1 <1>   0.0800 
 44 H      -14.2790     0.1280    -1.0320 H     1 <1>   0.1500 
 45 H      -15.8320     2.0780    -1.2510 H     1 <1>   0.1500 
 46 H      -14.4660     3.1810    -1.5360 H     1 <1>   0.1500 
@<TRIPOS>BOND
  1   1   2  1   
  2   2   3  1   
  3   2   4  1   
  4   2   5  1   
  5   5   6  ar  
  6   5   7  ar  
  7   6   8  ar  
  8   6  25  1   
  9   7   9  ar  
 10   7  26  1   
 11   8  10  1   
 12   8  11  ar  
 13   9  11  ar  
 14   9  27  1   
 15  10  12  1   
 16  11  28  1   
 17  12  13  1   
 18  12  14  1   
 19  12  29  1   
 20  13  15  2   
 21  13  16  am  
 22  14  30  1   
 23  14  31  1   
 24  14  32  1   
 25  16  17  1   
 26  16  18  1   
 27  17  19  1   
 28  17  33  1   
 29  17  34  1   
 30  18  20  1   
 31  18  35  1   
 32  18  36  1   
 33  19  21  1   
 34  19  37  1   
 35  19  38  1   
 36  20  21  1   
 37  20  39  1   
 38  20  40  1   
 39  21  22  1   
 40  21  41  1   
 41  22  23  1   
 42  22  42  1   
 43  22  43  1   
 44  23  24  2   
 45  23  44  1   
 46  24  45  1   
 47  24  46  1   
@<TRIPOS>SUBSTRUCTURE
  1 ****  10 GROUP 4 **** **** 0

# MOE 2024.06 (io_trps.svl 2023.06)
