@<TRIPOS>MOLECULE
NONAME
50 52 1 0 0 
SMALL
USER_CHARGES


@<TRIPOS>ATOM
  1 CL      -0.8620     1.1010     0.4370 Cl    1 <1>  -0.1770 
  2 C       -2.5730     1.3740     0.2220 C.ar  1 <1>   0.1770 
  3 C       -3.1220     2.5780     0.6220 C.ar  1 <1>  -0.1500 
  4 C       -3.3510     0.3820    -0.3440 C.ar  1 <1>  -0.1500 
  5 C       -4.4790     2.7900     0.4500 C.ar  1 <1>  -0.1500 
  6 C       -4.7090     0.5970    -0.5160 C.ar  1 <1>  -0.1500 
  7 C       -5.2780     1.8060    -0.1160 C.ar  1 <1>   0.0830 
  8 O       -6.5970     2.0960    -0.2440 O.3   1 <1>  -0.3630 
  9 C       -7.5160     1.1350    -0.7500 C.3   1 <1>   0.1810 
 10 C       -8.9380     1.6800    -0.7430 C.2   1 <1>   0.5690 
 11 O       -9.7880     1.0990    -1.3760 O.2   1 <1>  -0.5700 
 12 N       -9.1980     2.8120    -0.0230 N.am  1 <1>  -0.5470 
 13 C      -10.4170     3.4490     0.2250 C.ar  1 <1>   0.1170 
 14 C      -11.4960     2.8080     0.8560 C.ar  1 <1>   0.0860 
 15 C      -10.5420     4.7800    -0.1590 C.ar  1 <1>  -0.1500 
 16 C      -11.4310     1.4290     1.2830 C.2   1 <1>   0.5440 
 17 C      -12.6620     3.5420     1.0840 C.ar  1 <1>  -0.1500 
 18 C      -11.7080     5.4830     0.0670 C.ar  1 <1>  -0.1500 
 19 O      -10.7410     1.1180     2.2360 O.2   1 <1>  -0.5700 
 20 N      -12.1560     0.4360     0.6560 N.am  1 <1>  -0.6600 
 21 C      -12.7740     4.8620     0.6930 C.ar  1 <1>  -0.1500 
 22 C      -12.7690     0.6120    -0.7020 C.3   1 <1>   0.1400 
 23 C      -12.0030    -0.9870     1.0990 C.3   1 <1>   0.1400 
 24 C      -14.1360    -0.0990    -0.8200 C.3   1 <1>   0.3430 
 25 C      -13.0820    -1.9150     0.5030 C.3   1 <1>   0.3430 
 26 N      -14.3510    -1.1540     0.2370 N.4   1 <1>  -0.9590 
 27 C      -15.5050    -2.0460    -0.0790 C.3   1 <1>   0.2630 
 28 H       -2.4950     3.3340     1.0600 H     1 <1>   0.1500 
 29 H       -2.8950    -0.5440    -0.6460 H     1 <1>   0.1500 
 30 H       -4.9240     3.7200     0.7550 H     1 <1>   0.1500 
 31 H       -5.2970    -0.1850    -0.9590 H     1 <1>   0.1500 
 32 H       -7.4710     0.2600    -0.1280 H     1 <1>   0.0800 
 33 H       -7.2330     0.8900    -1.7570 H     1 <1>   0.0800 
 34 H       -8.3650     3.2430     0.3880 H     1 <1>   0.3700 
 35 H       -9.7150     5.2680    -0.6440 H     1 <1>   0.1500 
 36 H      -13.4870     3.0680     1.5850 H     1 <1>   0.1500 
 37 H      -11.7880     6.5130    -0.2380 H     1 <1>   0.1500 
 38 H      -13.6810     5.4120     0.8790 H     1 <1>   0.1500 
 39 H      -12.1020     0.1880    -1.4330 H     1 <1>   0.0800 
 40 H      -12.8820     1.6520    -0.9510 H     1 <1>   0.0800 
 41 H      -12.0650    -1.0250     2.1740 H     1 <1>   0.0800 
 42 H      -11.0250    -1.3430     0.8230 H     1 <1>   0.0800 
 43 H      -14.2030    -0.5400    -1.8010 H     1 <1>   0.0800 
 44 H      -14.9160     0.6410    -0.7480 H     1 <1>   0.0800 
 45 H      -13.2630    -2.7270     1.1870 H     1 <1>   0.0800 
 46 H      -12.7130    -2.3340    -0.4190 H     1 <1>   0.0800 
 47 H      -14.5380    -0.6350     1.1100 H     1 <1>   0.4500 
 48 H      -15.3160    -2.5970    -0.9860 H     1 <1>   0.0800 
 49 H      -16.4030    -1.4640    -0.2090 H     1 <1>   0.0800 
 50 H      -15.6650    -2.7480     0.7240 H     1 <1>   0.0800 
@<TRIPOS>BOND
  1   1   2  1   
  2   2   3  ar  
  3   2   4  ar  
  4   3   5  ar  
  5   3  28  1   
  6   4   6  ar  
  7   4  29  1   
  8   5   7  ar  
  9   5  30  1   
 10   6   7  ar  
 11   6  31  1   
 12   7   8  1   
 13   8   9  1   
 14   9  10  1   
 15   9  32  1   
 16   9  33  1   
 17  10  11  2   
 18  10  12  am  
 19  12  13  1   
 20  12  34  1   
 21  13  14  ar  
 22  13  15  ar  
 23  14  16  1   
 24  14  17  ar  
 25  15  18  ar  
 26  15  35  1   
 27  16  19  2   
 28  16  20  am  
 29  17  21  ar  
 30  17  36  1   
 31  18  21  ar  
 32  18  37  1   
 33  20  22  1   
 34  20  23  1   
 35  21  38  1   
 36  22  24  1   
 37  22  39  1   
 38  22  40  1   
 39  23  25  1   
 40  23  41  1   
 41  23  42  1   
 42  24  26  1   
 43  24  43  1   
 44  24  44  1   
 45  25  26  1   
 46  25  45  1   
 47  25  46  1   
 48  26  27  1   
 49  26  47  1   
 50  27  48  1   
 51  27  49  1   
 52  27  50  1   
@<TRIPOS>SUBSTRUCTURE
  1 ****  10 GROUP 4 **** **** 0

# MOE 2024.06 (io_trps.svl 2023.06)
