@<TRIPOS>MOLECULE
NONAME
48 49 1 0 0 
SMALL
USER_CHARGES


@<TRIPOS>ATOM
  1 BR       0.0170    -0.5340    -1.1150 Br    1 <1>  -0.1110 
  2 C        1.8210    -0.9750    -0.6040 C.ar  1 <1>   0.1110 
  3 C        2.6000    -1.7080    -1.4780 C.ar  1 <1>  -0.1500 
  4 C        2.2890    -0.5460     0.6230 C.ar  1 <1>  -0.1500 
  5 C        3.8950    -2.0210    -1.1030 C.ar  1 <1>  -0.1500 
  6 C        3.5860    -0.8630     0.9900 C.ar  1 <1>  -0.1500 
  7 C        4.3940    -1.6040     0.1250 C.ar  1 <1>   0.0830 
  8 O        5.6740    -1.9560     0.4080 O.3   1 <1>  -0.3630 
  9 C        6.2840    -1.5750     1.6370 C.3   1 <1>   0.1810 
 10 C        7.7180    -2.0840     1.7210 C.2   1 <1>   0.5690 
 11 O        8.3920    -1.7840     2.6760 O.2   1 <1>  -0.5700 
 12 N        8.2210    -2.8600     0.7230 N.am  1 <1>  -0.7300 
 13 C        9.5770    -3.4200     0.7160 C.3   1 <1>   0.2200 
 14 C       10.4970    -2.4730    -0.0460 C.3   1 <1>  -0.1600 
 15 C        9.5630    -4.7830     0.0360 C.3   1 <1>  -0.1600 
 16 C       11.9310    -3.0100    -0.1250 C.3   1 <1>   0.5030 
 17 C       10.9700    -5.3940    -0.0460 C.3   1 <1>   0.5030 
 18 N       11.9510    -4.4190    -0.5550 N.4   1 <1>  -0.9060 
 19 C       12.6800    -2.8530     1.2010 C.3   1 <1>  -0.2400 
 20 C       12.7030    -2.2440    -1.1980 C.3   1 <1>  -0.2400 
 21 C       11.4350    -5.9500     1.3020 C.3   1 <1>  -0.2400 
 22 C       10.9690    -6.5400    -1.0560 C.3   1 <1>  -0.2400 
 23 H        2.2020    -2.0250    -2.4250 H     1 <1>   0.1500 
 24 H        1.6500     0.0240     1.2750 H     1 <1>   0.1500 
 25 H        4.5240    -2.5900    -1.7630 H     1 <1>   0.1500 
 26 H        3.9410    -0.5260     1.9450 H     1 <1>   0.1500 
 27 H        5.7120    -1.9910     2.4460 H     1 <1>   0.0800 
 28 H        6.2850    -0.5020     1.6990 H     1 <1>   0.0800 
 29 H        7.6060    -3.0500    -0.0740 H     1 <1>   0.3700 
 30 H        9.9100    -3.5190     1.7360 H     1 <1>   0.0800 
 31 H       10.5040    -1.5160     0.4470 H     1 <1>   0.0800 
 32 H       10.1080    -2.3240    -1.0370 H     1 <1>   0.0800 
 33 H        9.1570    -4.6790    -0.9550 H     1 <1>   0.0800 
 34 H        8.9180    -5.4480     0.5850 H     1 <1>   0.0800 
 35 H       12.8860    -4.7890    -0.3720 H     1 <1>   0.4500 
 36 H       11.8430    -4.4080    -1.5700 H     1 <1>   0.4500 
 37 H       12.1290    -3.2430     2.0340 H     1 <1>   0.0800 
 38 H       12.8320    -1.8080     1.4060 H     1 <1>   0.0800 
 39 H       13.6470    -3.3210     1.1630 H     1 <1>   0.0800 
 40 H       12.2350    -2.3380    -2.1620 H     1 <1>   0.0800 
 41 H       13.7220    -2.5840    -1.2650 H     1 <1>   0.0800 
 42 H       12.7260    -1.1960    -0.9530 H     1 <1>   0.0800 
 43 H       11.3350    -5.2400     2.0980 H     1 <1>   0.0800 
 44 H       12.4550    -6.2890     1.2550 H     1 <1>   0.0800 
 45 H       10.8260    -6.7950     1.5740 H     1 <1>   0.0800 
 46 H       10.6750    -6.2020    -2.0340 H     1 <1>   0.0800 
 47 H       10.2670    -7.2970    -0.7510 H     1 <1>   0.0800 
 48 H       11.9380    -7.0040    -1.1200 H     1 <1>   0.0800 
@<TRIPOS>BOND
  1   1   2  1   
  2   2   3  ar  
  3   2   4  ar  
  4   3   5  ar  
  5   3  23  1   
  6   4   6  ar  
  7   4  24  1   
  8   5   7  ar  
  9   5  25  1   
 10   6   7  ar  
 11   6  26  1   
 12   7   8  1   
 13   8   9  1   
 14   9  10  1   
 15   9  27  1   
 16   9  28  1   
 17  10  11  2   
 18  10  12  am  
 19  12  13  1   
 20  12  29  1   
 21  13  14  1   
 22  13  15  1   
 23  13  30  1   
 24  14  16  1   
 25  14  31  1   
 26  14  32  1   
 27  15  17  1   
 28  15  33  1   
 29  15  34  1   
 30  16  18  1   
 31  16  19  1   
 32  16  20  1   
 33  17  18  1   
 34  17  21  1   
 35  17  22  1   
 36  18  35  1   
 37  18  36  1   
 38  19  37  1   
 39  19  38  1   
 40  19  39  1   
 41  20  40  1   
 42  20  41  1   
 43  20  42  1   
 44  21  43  1   
 45  21  44  1   
 46  21  45  1   
 47  22  46  1   
 48  22  47  1   
 49  22  48  1   
@<TRIPOS>SUBSTRUCTURE
  1 ****  12 GROUP 4 **** **** 0

# MOE 2024.06 (io_trps.svl 2023.06)
