@<TRIPOS>MOLECULE
NONAME
44 46 1 0 0 
SMALL
USER_CHARGES


@<TRIPOS>ATOM
  1 S        0.5260    -0.3520    -1.2880 S.o2  1 <1>   1.4470 
  2 O        1.3270    -0.5900    -2.4700 O.2   1 <1>  -0.6500 
  3 O       -0.2730     0.8530    -1.2240 O.2   1 <1>  -0.6500 
  4 N        1.6220    -0.2800     0.0030 N.am  1 <1>  -0.8490 
  5 C       -0.4910    -1.8180    -0.9120 C.ar  1 <1>  -0.0090 
  6 C        2.3690     0.9930    -0.0100 C.3   1 <1>   0.1960 
  7 C        2.5530    -1.4250     0.0100 C.3   1 <1>   0.1960 
  8 C       -1.3270    -1.9110     0.2040 C.ar  1 <1>  -0.1440 
  9 C       -0.4240    -2.9190    -1.7620 C.ar  1 <1>  -0.1500 
 10 C        3.3430     1.1080     1.1780 C.3   1 <1>   0.1400 
 11 C        3.4910    -1.3690     1.2260 C.3   1 <1>   0.1400 
 12 C       -2.0530    -3.0700     0.4410 C.ar  1 <1>  -0.1500 
 13 C       -1.4780    -0.7580     1.1910 C.3   1 <1>  -0.0960 
 14 C       -1.1490    -4.0710    -1.5220 C.ar  1 <1>  -0.1500 
 15 N        4.2440    -0.0820     1.2300 N.am  1 <1>  -0.6600 
 16 C       -1.9700    -4.1530    -0.4150 C.ar  1 <1>  -0.1440 
 17 C        5.6180     0.0410     1.1510 C.2   1 <1>   0.7150 
 18 C       -2.7720    -5.4110    -0.1380 C.3   1 <1>  -0.0970 
 19 O        6.1120     1.0960     1.5100 O.2   1 <1>  -0.5700 
 20 C        6.4910    -1.0090     0.6620 C.2   1 <1>   0.0550 
 21 O        6.0700    -1.9620    -0.1700 O.3   1 <1>  -0.2800 
 22 C        7.8190    -1.2070     0.8940 C.2   1 <1>  -0.1500 
 23 C        7.0800    -2.7510    -0.4610 C.2   1 <1>  -0.0100 
 24 C        8.1980    -2.3370     0.1700 C.2   1 <1>  -0.1500 
 25 H        1.6770     1.8170     0.0370 H     1 <1>   0.0800 
 26 H        2.9230     1.0810    -0.9300 H     1 <1>   0.0800 
 27 H        3.1460    -1.4320    -0.8900 H     1 <1>   0.0800 
 28 H        1.9960    -2.3450     0.0500 H     1 <1>   0.0800 
 29 H        0.2080    -2.8780    -2.6330 H     1 <1>   0.1500 
 30 H        2.7840     1.1710     2.0950 H     1 <1>   0.0800 
 31 H        3.9160     2.0140     1.0760 H     1 <1>   0.0800 
 32 H        4.1550    -2.2130     1.2230 H     1 <1>   0.0800 
 33 H        2.9000    -1.4310     2.1230 H     1 <1>   0.0800 
 34 H       -2.6950    -3.1350     1.3030 H     1 <1>   0.1500 
 35 H       -1.8860     0.1040     0.6950 H     1 <1>   0.0800 
 36 H       -0.5260    -0.4980     1.6170 H     1 <1>   0.0800 
 37 H       -2.1400    -1.0210     1.9960 H     1 <1>   0.0800 
 38 H       -1.0700    -4.9020    -2.2020 H     1 <1>   0.1500 
 39 H       -3.7320    -5.1590     0.2770 H     1 <1>   0.0800 
 40 H       -2.2430    -6.0330     0.5620 H     1 <1>   0.0800 
 41 H       -2.9310    -5.9670    -1.0440 H     1 <1>   0.0800 
 42 H        8.4660    -0.6070     1.5110 H     1 <1>   0.1500 
 43 H        6.9210    -3.5830    -1.1250 H     1 <1>   0.1500 
 44 H        9.1850    -2.7630     0.1390 H     1 <1>   0.1500 
@<TRIPOS>BOND
  1   1   2  2   
  2   1   3  2   
  3   1   4  am  
  4   1   5  1   
  5   4   6  1   
  6   4   7  1   
  7   5   8  ar  
  8   5   9  ar  
  9   6  10  1   
 10   6  25  1   
 11   6  26  1   
 12   7  11  1   
 13   7  27  1   
 14   7  28  1   
 15   8  12  ar  
 16   8  13  1   
 17   9  14  ar  
 18   9  29  1   
 19  10  15  1   
 20  10  30  1   
 21  10  31  1   
 22  11  15  1   
 23  11  32  1   
 24  11  33  1   
 25  12  16  ar  
 26  12  34  1   
 27  13  35  1   
 28  13  36  1   
 29  13  37  1   
 30  14  16  ar  
 31  14  38  1   
 32  15  17  am  
 33  16  18  1   
 34  17  19  2   
 35  17  20  1   
 36  18  39  1   
 37  18  40  1   
 38  18  41  1   
 39  20  21  1   
 40  20  22  2   
 41  21  23  1   
 42  22  24  1   
 43  22  42  1   
 44  23  24  2   
 45  23  43  1   
 46  24  44  1   
@<TRIPOS>SUBSTRUCTURE
  1 ****   7 GROUP 4 **** **** 0

# MOE 2024.06 (io_trps.svl 2023.06)
