@<TRIPOS>MOLECULE
NONAME
53 55 1 0 0 
SMALL
USER_CHARGES


@<TRIPOS>ATOM
  1 O        1.2020     0.8460     1.3070 O.2   1 <1>  -0.5700 
  2 C        1.4490    -0.3080     1.0470 C.2   1 <1>   0.5690 
  3 N        2.3100    -0.6650     0.0290 N.am  1 <1>  -0.6600 
  4 C        0.7630    -1.3490     1.9290 C.3   1 <1>   0.0440 
  5 C        3.1400     0.3120    -0.7350 C.3   1 <1>   0.2200 
  6 C        2.5500    -2.0840    -0.3880 C.3   1 <1>   0.3200 
  7 C       -0.3050    -2.1690     1.2080 C.ar  1 <1>  -0.1440 
  8 C        4.0850     1.0710     0.1970 C.3   1 <1>  -0.2400 
  9 C        2.2580     1.2460    -1.5630 C.3   1 <1>  -0.2400 
 10 C        3.8740    -2.6060     0.1500 C.2   1 <1>   0.2980 
 11 C       -0.4060    -3.5340     1.4330 C.ar  1 <1>  -0.1500 
 12 C       -1.1820    -1.5610     0.3220 C.ar  1 <1>  -0.1500 
 13 O        3.9830    -2.8100     1.4350 O.3   1 <1>  -0.0190 
 14 N        4.9100    -2.8680    -0.5350 N.2   1 <1>  -0.5650 
 15 C       -1.3610    -4.2870     0.7730 C.ar  1 <1>  -0.1500 
 16 C       -2.1370    -2.3120    -0.3390 C.ar  1 <1>  -0.1500 
 17 N        5.1960    -3.2380     1.5840 N.2   1 <1>  -0.4100 
 18 C        5.7520    -3.2710     0.4240 C.2   1 <1>   0.4620 
 19 C       -2.2340    -3.6770    -0.1220 C.ar  1 <1>   0.0820 
 20 C        7.1170    -3.6860     0.1490 C.ar  1 <1>   0.0540 
 21 O       -3.1970    -4.3390    -0.8120 O.3   1 <1>  -0.3630 
 22 C        7.6300    -3.7140    -1.1490 C.ar  1 <1>  -0.1500 
 23 C        7.9780    -4.0740     1.1770 C.ar  1 <1>  -0.1500 
 24 C       -3.4180    -5.7180    -0.6210 C.3   1 <1>   0.0400 
 25 C        8.9310    -4.1080    -1.4070 C.ar  1 <1>  -0.1500 
 26 C        9.2790    -4.4690     0.9250 C.ar  1 <1>  -0.1500 
 27 C        9.7660    -4.4870    -0.3710 C.ar  1 <1>  -0.1440 
 28 C       11.1930    -4.9210    -0.6510 C.3   1 <1>  -0.0970 
 29 H        0.2950    -0.8410     2.7520 H     1 <1>   0.0800 
 30 H        1.5150    -1.9920     2.3450 H     1 <1>   0.0800 
 31 H        3.7610    -0.2310    -1.4290 H     1 <1>   0.0800 
 32 H        2.5670    -2.1340    -1.4630 H     1 <1>   0.0800 
 33 H        1.7650    -2.7330    -0.0610 H     1 <1>   0.0800 
 34 H        3.5400     1.7150     0.8630 H     1 <1>   0.0800 
 35 H        4.7530     1.6810    -0.3830 H     1 <1>   0.0800 
 36 H        4.6730     0.3790     0.7730 H     1 <1>   0.0800 
 37 H        1.6830     1.8970    -0.9310 H     1 <1>   0.0800 
 38 H        1.5920     0.6750    -2.1830 H     1 <1>   0.0800 
 39 H        2.8730     1.8580    -2.1970 H     1 <1>   0.0800 
 40 H        0.2590    -4.0210     2.1260 H     1 <1>   0.1500 
 41 H       -1.1290    -0.5000     0.1420 H     1 <1>   0.1500 
 42 H       -1.4130    -5.3410     0.9690 H     1 <1>   0.1500 
 43 H       -2.8160    -1.8430    -1.0270 H     1 <1>   0.1500 
 44 H        7.0020    -3.4240    -1.9720 H     1 <1>   0.1500 
 45 H        7.6230    -4.0680     2.1930 H     1 <1>   0.1500 
 46 H       -4.2360    -6.0150    -1.2520 H     1 <1>   0.0800 
 47 H       -3.6710    -5.8920     0.4100 H     1 <1>   0.0800 
 48 H       -2.5290    -6.2560    -0.8980 H     1 <1>   0.0800 
 49 H        9.2910    -4.1180    -2.4210 H     1 <1>   0.1500 
 50 H        9.9120    -4.7630     1.7430 H     1 <1>   0.1500 
 51 H       11.2220    -5.9820    -0.8240 H     1 <1>   0.0800 
 52 H       11.8280    -4.6870     0.1840 H     1 <1>   0.0800 
 53 H       11.5750    -4.4170    -1.5200 H     1 <1>   0.0800 
@<TRIPOS>BOND
  1   1   2  2   
  2   2   3  am  
  3   2   4  1   
  4   3   5  1   
  5   3   6  1   
  6   4   7  1   
  7   4  29  1   
  8   4  30  1   
  9   5   8  1   
 10   5   9  1   
 11   5  31  1   
 12   6  10  1   
 13   6  32  1   
 14   6  33  1   
 15   7  11  ar  
 16   7  12  ar  
 17   8  34  1   
 18   8  35  1   
 19   8  36  1   
 20   9  37  1   
 21   9  38  1   
 22   9  39  1   
 23  10  13  1   
 24  10  14  2   
 25  11  15  ar  
 26  11  40  1   
 27  12  16  ar  
 28  12  41  1   
 29  13  17  1   
 30  14  18  1   
 31  15  19  ar  
 32  15  42  1   
 33  16  19  ar  
 34  16  43  1   
 35  17  18  2   
 36  18  20  1   
 37  19  21  1   
 38  20  22  ar  
 39  20  23  ar  
 40  21  24  1   
 41  22  25  ar  
 42  22  44  1   
 43  23  26  ar  
 44  23  45  1   
 45  24  46  1   
 46  24  47  1   
 47  24  48  1   
 48  25  27  ar  
 49  25  49  1   
 50  26  27  ar  
 51  26  50  1   
 52  27  28  1   
 53  28  51  1   
 54  28  52  1   
 55  28  53  1   
@<TRIPOS>SUBSTRUCTURE
  1 ****  10 GROUP 4 **** **** 0

# MOE 2024.06 (io_trps.svl 2023.06)
