@<TRIPOS>MOLECULE
NONAME
44 44 1 0 0 
SMALL
USER_CHARGES


@<TRIPOS>ATOM
  1 O       -1.1700    -1.3360    -2.2400 O.2   1 <1>  -0.5700 
  2 C       -1.2160    -1.8320    -1.1290 C.2   1 <1>   0.5440 
  3 N       -2.0770    -1.2950    -0.1920 N.am  1 <1>  -0.6600 
  4 C       -0.3420    -2.9480    -0.8320 C.ar  1 <1>   0.0860 
  5 C       -2.3630     0.1680    -0.2620 C.3   1 <1>   0.2200 
  6 C       -2.9830    -2.1280     0.6590 C.3   1 <1>   0.2200 
  7 C       -0.3650    -4.1110    -1.5990 C.ar  1 <1>  -0.1500 
  8 C        0.5730    -2.8930     0.2180 C.ar  1 <1>  -0.1500 
  9 C       -2.2450     0.8090     1.1220 C.3   1 <1>  -0.2400 
 10 C       -3.7270     0.4300    -0.9020 C.3   1 <1>  -0.2400 
 11 C       -2.2520    -2.6980     1.8740 C.3   1 <1>  -0.2400 
 12 C       -3.6520    -3.2300    -0.1630 C.3   1 <1>  -0.2400 
 13 C        0.4710    -5.1750    -1.3170 C.ar  1 <1>  -0.1500 
 14 C        1.4100    -3.9570     0.4990 C.ar  1 <1>  -0.1500 
 15 C        1.3820    -5.1240    -0.2640 C.ar  1 <1>   0.0860 
 16 C        2.2570    -6.2450     0.0220 C.2   1 <1>   0.5440 
 17 O        1.7730    -7.3560     0.1370 O.2   1 <1>  -0.5700 
 18 N        3.6240    -6.0900     0.1620 N.am  1 <1>  -0.6600 
 19 C        4.3740    -4.9050    -0.3350 C.3   1 <1>   0.0600 
 20 C        4.4820    -7.1960     0.6720 C.3   1 <1>   0.0600 
 21 H       -1.6170     0.6290    -0.8890 H     1 <1>   0.0800 
 22 H       -3.7710    -1.5000     1.0350 H     1 <1>   0.0800 
 23 H       -1.0520    -4.1690    -2.4260 H     1 <1>   0.1500 
 24 H        0.6160    -2.0000     0.8170 H     1 <1>   0.1500 
 25 H       -3.0190     0.4690     1.7830 H     1 <1>   0.0800 
 26 H       -2.3300     1.8770     1.0300 H     1 <1>   0.0800 
 27 H       -1.2840     0.5840     1.5470 H     1 <1>   0.0800 
 28 H       -4.5330     0.0790    -0.2850 H     1 <1>   0.0800 
 29 H       -3.7740    -0.0540    -1.8610 H     1 <1>   0.0800 
 30 H       -3.8560     1.4850    -1.0540 H     1 <1>   0.0800 
 31 H       -1.6040    -3.5060     1.5950 H     1 <1>   0.0800 
 32 H       -2.9710    -3.0860     2.5720 H     1 <1>   0.0800 
 33 H       -1.6850    -1.9290     2.3650 H     1 <1>   0.0800 
 34 H       -2.9440    -3.9780    -0.4670 H     1 <1>   0.0800 
 35 H       -4.1200    -2.8060    -1.0340 H     1 <1>   0.0800 
 36 H       -4.4100    -3.7120     0.4270 H     1 <1>   0.0800 
 37 H        0.4260    -6.0690    -1.9160 H     1 <1>   0.1500 
 38 H        2.0970    -3.8930     1.3250 H     1 <1>   0.1500 
 39 H        3.7550    -4.2950    -0.9690 H     1 <1>   0.0800 
 40 H        5.2260    -5.2280    -0.9080 H     1 <1>   0.0800 
 41 H        4.7150    -4.3160     0.4980 H     1 <1>   0.0800 
 42 H        3.8880    -7.9310     1.1870 H     1 <1>   0.0800 
 43 H        5.2130    -6.8070     1.3590 H     1 <1>   0.0800 
 44 H        4.9840    -7.6740    -0.1510 H     1 <1>   0.0800 
@<TRIPOS>BOND
  1   1   2  2   
  2   2   3  am  
  3   2   4  1   
  4   3   5  1   
  5   3   6  1   
  6   4   7  ar  
  7   4   8  ar  
  8   5   9  1   
  9   5  10  1   
 10   5  21  1   
 11   6  11  1   
 12   6  12  1   
 13   6  22  1   
 14   7  13  ar  
 15   7  23  1   
 16   8  14  ar  
 17   8  24  1   
 18   9  25  1   
 19   9  26  1   
 20   9  27  1   
 21  10  28  1   
 22  10  29  1   
 23  10  30  1   
 24  11  31  1   
 25  11  32  1   
 26  11  33  1   
 27  12  34  1   
 28  12  35  1   
 29  12  36  1   
 30  13  15  ar  
 31  13  37  1   
 32  14  15  ar  
 33  14  38  1   
 34  15  16  1   
 35  16  17  2   
 36  16  18  am  
 37  18  19  1   
 38  18  20  1   
 39  19  39  1   
 40  19  40  1   
 41  19  41  1   
 42  20  42  1   
 43  20  43  1   
 44  20  44  1   
@<TRIPOS>SUBSTRUCTURE
  1 ****   4 GROUP 4 **** **** 0

# MOE 2024.06 (io_trps.svl 2023.06)
