@<TRIPOS>MOLECULE
NONAME
53 55 1 0 0 
SMALL
USER_CHARGES


@<TRIPOS>ATOM
  1 O        0.7370    -0.8850    -0.7780 O.2   1 <1>  -0.5700 
  2 C        1.8630    -1.1130    -0.4110 C.2   1 <1>   0.5690 
  3 N        2.2470    -2.3810    -0.0200 N.am  1 <1>  -0.6600 
  4 C        2.8080     0.0820    -0.4680 C.3   1 <1>  -0.0190 
  5 C        3.5350    -2.7710     0.6280 C.3   1 <1>   0.1400 
  6 C        1.2120    -3.4610    -0.0060 C.3   1 <1>   0.1400 
  7 C        3.9960    -0.2400    -1.3800 C.3   1 <1>   0.3430 
  8 C        3.1910     0.6760     0.9050 C.3   1 <1>  -0.1600 
  9 C        4.2800    -3.8070    -0.2130 C.3   1 <1>  -0.2400 
 10 C        1.0320    -4.0410    -1.4090 C.3   1 <1>  -0.2400 
 11 N        5.2510     0.4540    -0.9410 N.4   1 <1>  -0.9590 
 12 C        4.1390     1.8820     0.7460 C.3   1 <1>  -0.1600 
 13 C        5.0010     1.8630    -0.5250 C.3   1 <1>   0.3430 
 14 C        6.3370     0.3510    -1.9510 C.3   1 <1>   0.4860 
 15 C        7.6380     0.6490    -1.2390 C.ar  1 <1>  -0.1440 
 16 C        8.1670    -0.2880    -0.3140 C.ar  1 <1>   0.0000 
 17 C        8.2740     1.8410    -1.4780 C.ar  1 <1>  -0.1500 
 18 C        9.3280     0.0710     0.4080 C.ar  1 <1>   0.0000 
 19 C        7.6090    -1.5670    -0.0670 C.ar  1 <1>  -0.1500 
 20 C        9.4410     2.1710    -0.7850 C.ar  1 <1>  -0.1500 
 21 C        9.9480     1.3070     0.1410 C.ar  1 <1>  -0.1500 
 22 C        9.8410    -0.8170     1.3740 C.ar  1 <1>  -0.1500 
 23 C        8.1340    -2.4120     0.8700 C.ar  1 <1>  -0.1500 
 24 C        9.2590    -2.0300     1.6060 C.ar  1 <1>  -0.1500 
 25 H        2.2610     0.8580    -0.9760 H     1 <1>   0.0800 
 26 H        3.3310    -3.1760     1.6060 H     1 <1>   0.0800 
 27 H        4.1740    -1.9230     0.7590 H     1 <1>   0.0800 
 28 H        0.2720    -3.0560     0.3350 H     1 <1>   0.0800 
 29 H        1.4930    -4.2420     0.6800 H     1 <1>   0.0800 
 30 H        3.7410     0.0550    -2.3850 H     1 <1>   0.0800 
 31 H        4.1620    -1.3040    -1.3890 H     1 <1>   0.0800 
 32 H        3.6680    -0.0610     1.5230 H     1 <1>   0.0800 
 33 H        2.2980     0.9840     1.4250 H     1 <1>   0.0800 
 34 H        3.7460    -4.7400    -0.2210 H     1 <1>   0.0800 
 35 H        5.2480    -3.9920     0.2150 H     1 <1>   0.0800 
 36 H        4.4080    -3.4650    -1.2240 H     1 <1>   0.0800 
 37 H        0.6870    -3.2790    -2.0850 H     1 <1>   0.0800 
 38 H        0.2930    -4.8200    -1.3810 H     1 <1>   0.0800 
 39 H        1.9500    -4.4580    -1.7770 H     1 <1>   0.0800 
 40 H        5.6150    -0.0140    -0.1000 H     1 <1>   0.4500 
 41 H        4.7820     1.9430     1.6080 H     1 <1>   0.0800 
 42 H        3.5590     2.7900     0.7330 H     1 <1>   0.0800 
 43 H        4.4860     2.3840    -1.3160 H     1 <1>   0.0800 
 44 H        5.9310     2.3740    -0.3310 H     1 <1>   0.0800 
 45 H        6.1740     1.0520    -2.7530 H     1 <1>   0.0800 
 46 H        6.3780    -0.6430    -2.3660 H     1 <1>   0.0800 
 47 H        7.8990     2.5550    -2.1910 H     1 <1>   0.1500 
 48 H        6.7630    -1.9060    -0.6320 H     1 <1>   0.1500 
 49 H        9.9310     3.1090    -0.9880 H     1 <1>   0.1500 
 50 H       10.8430     1.5590     0.6840 H     1 <1>   0.1500 
 51 H       10.7140    -0.5220     1.9290 H     1 <1>   0.1500 
 52 H        7.7070    -3.3830     1.0550 H     1 <1>   0.1500 
 53 H        9.6610    -2.7040     2.3440 H     1 <1>   0.1500 
@<TRIPOS>BOND
  1   1   2  2   
  2   2   3  am  
  3   2   4  1   
  4   3   5  1   
  5   3   6  1   
  6   4   7  1   
  7   4   8  1   
  8   4  25  1   
  9   5   9  1   
 10   5  26  1   
 11   5  27  1   
 12   6  10  1   
 13   6  28  1   
 14   6  29  1   
 15   7  11  1   
 16   7  30  1   
 17   7  31  1   
 18   8  12  1   
 19   8  32  1   
 20   8  33  1   
 21   9  34  1   
 22   9  35  1   
 23   9  36  1   
 24  10  37  1   
 25  10  38  1   
 26  10  39  1   
 27  11  13  1   
 28  11  14  1   
 29  11  40  1   
 30  12  13  1   
 31  12  41  1   
 32  12  42  1   
 33  13  43  1   
 34  13  44  1   
 35  14  15  1   
 36  14  45  1   
 37  14  46  1   
 38  15  16  ar  
 39  15  17  ar  
 40  16  18  ar  
 41  16  19  ar  
 42  17  20  ar  
 43  17  47  1   
 44  18  21  ar  
 45  18  22  ar  
 46  19  23  ar  
 47  19  48  1   
 48  20  21  ar  
 49  20  49  1   
 50  21  50  1   
 51  22  24  ar  
 52  22  51  1   
 53  23  24  ar  
 54  23  52  1   
 55  24  53  1   
@<TRIPOS>SUBSTRUCTURE
  1 ****  11 GROUP 4 **** **** 0

# MOE 2024.06 (io_trps.svl 2023.06)
