@<TRIPOS>MOLECULE
NONAME
40 41 1 0 0 
SMALL
USER_CHARGES


@<TRIPOS>ATOM
  1 CL      -1.8430     1.9910    -2.5240 Cl    1 <1>  -0.1770 
  2 C       -1.0320     2.9050    -1.2740 C.ar  1 <1>   0.1770 
  3 C       -1.3610     2.6930     0.0570 C.ar  1 <1>  -0.1440 
  4 C       -0.0800     3.8350    -1.6440 C.ar  1 <1>  -0.1500 
  5 C       -0.7090     3.4360     1.0310 C.ar  1 <1>  -0.1500 
  6 C       -2.4110     1.6660     0.4350 C.3   1 <1>   0.4870 
  7 C        0.5610     4.5730    -0.6650 C.ar  1 <1>  -0.1500 
  8 C        0.2460     4.3720     0.6690 C.ar  1 <1>  -0.1500 
  9 N       -3.7490     2.1260    -0.0320 N.4   1 <1>  -0.9590 
 10 C       -4.1530     3.4180     0.5950 C.3   1 <1>   0.3430 
 11 C       -4.7760     1.0610     0.1320 C.3   1 <1>   0.3430 
 12 C       -5.4520     3.9110    -0.0410 C.3   1 <1>  -0.1600 
 13 C       -6.0820     1.5130    -0.5160 C.3   1 <1>  -0.1600 
 14 C       -6.5740     2.8610     0.0510 C.3   1 <1>  -0.0190 
 15 C       -7.8360     3.3590    -0.6500 C.2   1 <1>   0.6590 
 16 O       -8.0680     3.0980    -1.8010 O.2   1 <1>  -0.5700 
 17 O       -8.6410     4.1060     0.0900 O.3   1 <1>  -0.4300 
 18 C       -9.8350     4.6400    -0.4360 C.3   1 <1>   0.1200 
 19 C      -10.5150     5.4500     0.6630 C.3   1 <1>  -0.2400 
 20 H        0.1580     3.9800    -2.6840 H     1 <1>   0.1500 
 21 H       -0.9270     3.2970     2.0780 H     1 <1>   0.1500 
 22 H       -2.4180     1.5250     1.5040 H     1 <1>   0.0800 
 23 H       -2.1620     0.7250    -0.0300 H     1 <1>   0.0800 
 24 H        1.3070     5.3020    -0.9390 H     1 <1>   0.1500 
 25 H        0.7540     4.9470     1.4260 H     1 <1>   0.1500 
 26 H       -3.6440     2.3000    -1.0440 H     1 <1>   0.4500 
 27 H       -3.3830     4.1600     0.4480 H     1 <1>   0.0800 
 28 H       -4.2960     3.2840     1.6550 H     1 <1>   0.0800 
 29 H       -4.9400     0.8670     1.1800 H     1 <1>   0.0800 
 30 H       -4.4430     0.1480    -0.3360 H     1 <1>   0.0800 
 31 H       -5.2690     4.1640    -1.0720 H     1 <1>   0.0800 
 32 H       -5.7650     4.8120     0.4580 H     1 <1>   0.0800 
 33 H       -6.8350     0.7620    -0.3520 H     1 <1>   0.0800 
 34 H       -5.9370     1.5880    -1.5810 H     1 <1>   0.0800 
 35 H       -6.8250     2.7170     1.0870 H     1 <1>   0.0800 
 36 H      -10.4610     3.8250    -0.7590 H     1 <1>   0.0800 
 37 H       -9.5900     5.2630    -1.2800 H     1 <1>   0.0800 
 38 H      -10.7470     4.8180     1.5020 H     1 <1>   0.0800 
 39 H      -11.4320     5.8680     0.2890 H     1 <1>   0.0800 
 40 H       -9.8780     6.2550     0.9820 H     1 <1>   0.0800 
@<TRIPOS>BOND
  1   1   2  1   
  2   2   3  ar  
  3   2   4  ar  
  4   3   5  ar  
  5   3   6  1   
  6   4   7  ar  
  7   4  20  1   
  8   5   8  ar  
  9   5  21  1   
 10   6   9  1   
 11   6  22  1   
 12   6  23  1   
 13   7   8  ar  
 14   7  24  1   
 15   8  25  1   
 16   9  10  1   
 17   9  11  1   
 18   9  26  1   
 19  10  12  1   
 20  10  27  1   
 21  10  28  1   
 22  11  13  1   
 23  11  29  1   
 24  11  30  1   
 25  12  14  1   
 26  12  31  1   
 27  12  32  1   
 28  13  14  1   
 29  13  33  1   
 30  13  34  1   
 31  14  15  1   
 32  14  35  1   
 33  15  16  2   
 34  15  17  1   
 35  17  18  1   
 36  18  19  1   
 37  18  36  1   
 38  18  37  1   
 39  19  38  1   
 40  19  39  1   
 41  19  40  1   
@<TRIPOS>SUBSTRUCTURE
  1 ****  10 GROUP 4 **** **** 0

# MOE 2024.06 (io_trps.svl 2023.06)
