@<TRIPOS>MOLECULE
NONAME
37 37 1 0 0 
SMALL
USER_CHARGES


@<TRIPOS>ATOM
  1 O        0.0920     1.5460     1.6660 O.2   1 <1>  -0.5700 
  2 C       -0.0410     1.9260     0.5190 C.2   1 <1>   0.5440 
  3 N        1.0150     1.8180    -0.3420 N.am  1 <1>  -0.7300 
  4 C       -1.3070     2.4700     0.0590 C.ar  1 <1>   0.0860 
  5 C        2.3530     1.2660    -0.0130 C.3   1 <1>   0.2200 
  6 C       -2.5120     2.0570     0.6290 C.ar  1 <1>  -0.1500 
  7 C       -1.3760     3.4200    -0.9630 C.ar  1 <1>  -0.1500 
  8 C        3.4180     2.3680    -0.2740 C.3   1 <1>  -0.0800 
  9 C        2.6130    -0.0610    -0.7950 C.3   1 <1>  -0.0800 
 10 C       -3.7280     2.5530     0.1940 C.ar  1 <1>  -0.1500 
 11 C       -2.5890     3.9200    -1.4040 C.ar  1 <1>  -0.1500 
 12 C        4.8480     1.9230     0.0800 C.3   1 <1>  -0.2400 
 13 C        3.1160     3.6560     0.5170 C.3   1 <1>  -0.2400 
 14 C        1.3620    -0.7210    -1.4110 C.3   1 <1>  -0.2400 
 15 C        3.2770    -1.1050     0.1210 C.3   1 <1>  -0.2400 
 16 C       -3.7680     3.4850    -0.8270 C.ar  1 <1>  -0.1500 
 17 H        0.8700     2.0110    -1.3300 H     1 <1>   0.3700 
 18 H        2.3670     1.0410     1.0410 H     1 <1>   0.0800 
 19 H       -2.4860     1.3340     1.4270 H     1 <1>   0.1500 
 20 H       -0.4700     3.7800    -1.4150 H     1 <1>   0.1500 
 21 H        3.4030     2.6080    -1.3230 H     1 <1>   0.0800 
 22 H        3.2910     0.1460    -1.6050 H     1 <1>   0.0800 
 23 H       -4.6420     2.2150     0.6510 H     1 <1>   0.1500 
 24 H       -2.6170     4.6500    -2.1940 H     1 <1>   0.1500 
 25 H        4.9030     1.6170     1.1100 H     1 <1>   0.0800 
 26 H        5.5400     2.7330    -0.0710 H     1 <1>   0.0800 
 27 H        5.1660     1.1080    -0.5440 H     1 <1>   0.0800 
 28 H        3.0630     3.4430     1.5710 H     1 <1>   0.0800 
 29 H        2.1800     4.0870     0.2130 H     1 <1>   0.0800 
 30 H        3.8830     4.3920     0.3530 H     1 <1>   0.0800 
 31 H        0.6270    -0.9180    -0.6490 H     1 <1>   0.0800 
 32 H        1.6210    -1.6520    -1.8820 H     1 <1>   0.0800 
 33 H        0.9230    -0.0870    -2.1600 H     1 <1>   0.0800 
 34 H        2.6070    -1.3790     0.9180 H     1 <1>   0.0800 
 35 H        4.1810    -0.7250     0.5590 H     1 <1>   0.0800 
 36 H        3.5250    -1.9910    -0.4360 H     1 <1>   0.0800 
 37 H       -4.7130     3.8730    -1.1670 H     1 <1>   0.1500 
@<TRIPOS>BOND
  1   1   2  2   
  2   2   3  am  
  3   2   4  1   
  4   3   5  1   
  5   3  17  1   
  6   4   6  ar  
  7   4   7  ar  
  8   5   8  1   
  9   5   9  1   
 10   5  18  1   
 11   6  10  ar  
 12   6  19  1   
 13   7  11  ar  
 14   7  20  1   
 15   8  12  1   
 16   8  13  1   
 17   8  21  1   
 18   9  14  1   
 19   9  15  1   
 20   9  22  1   
 21  10  16  ar  
 22  10  23  1   
 23  11  16  ar  
 24  11  24  1   
 25  12  25  1   
 26  12  26  1   
 27  12  27  1   
 28  13  28  1   
 29  13  29  1   
 30  13  30  1   
 31  14  31  1   
 32  14  32  1   
 33  14  33  1   
 34  15  34  1   
 35  15  35  1   
 36  15  36  1   
 37  16  37  1   
@<TRIPOS>SUBSTRUCTURE
  1 ****   3 GROUP 4 **** **** 0

# MOE 2024.06 (io_trps.svl 2023.06)
