@<TRIPOS>MOLECULE
NONAME
42 43 1 0 0 
SMALL
USER_CHARGES


@<TRIPOS>ATOM
  1 O       -2.6100    -3.9370     0.3010 O.3   1 <1>  -0.3630 
  2 C       -3.9030    -3.8920    -0.1070 C.ar  1 <1>   0.0830 
  3 C       -1.8660    -5.1350     0.2510 C.3   1 <1>   0.1200 
  4 C       -4.5590    -2.6790     0.0320 C.ar  1 <1>  -0.1500 
  5 C       -4.5850    -4.9820    -0.6450 C.ar  1 <1>  -0.1500 
  6 C       -0.4590    -4.8520     0.7930 C.3   1 <1>   0.2000 
  7 C       -5.8790    -2.5460    -0.3590 C.ar  1 <1>  -0.1500 
  8 C       -5.9060    -4.8460    -1.0350 C.ar  1 <1>  -0.1500 
  9 O        0.0730    -3.7460     0.1270 O.3   1 <1>  -0.6800 
 10 C        0.5050    -6.0420     0.6120 C.3   1 <1>   0.3430 
 11 C       -6.5540    -3.6310    -0.8930 C.ar  1 <1>  -0.1500 
 12 N        1.9140    -5.5510     0.6220 N.4   1 <1>  -0.9060 
 13 C        2.8960    -6.4170    -0.0480 C.3   1 <1>   0.4230 
 14 C        3.1090    -7.6990     0.7680 C.3   1 <1>  -0.1600 
 15 C        4.2040    -5.6340    -0.1980 C.3   1 <1>  -0.1600 
 16 C        4.2070    -8.5750     0.1460 C.3   1 <1>  -0.1600 
 17 C        5.3020    -6.5040    -0.8260 C.3   1 <1>  -0.1600 
 18 C        5.5160    -7.7920    -0.0200 C.3   1 <1>  -0.1600 
 19 H       -1.8230    -5.4650    -0.7720 H     1 <1>   0.0800 
 20 H       -2.3680    -5.8710     0.8550 H     1 <1>   0.0800 
 21 H       -4.0340    -1.8380     0.4470 H     1 <1>   0.1500 
 22 H       -4.1160    -5.9370    -0.7710 H     1 <1>   0.1500 
 23 H       -0.5310    -4.6010     1.8380 H     1 <1>   0.0800 
 24 H       -6.3820    -1.6010    -0.2480 H     1 <1>   0.1500 
 25 H       -6.4350    -5.6860    -1.4510 H     1 <1>   0.1500 
 26 H       -0.6380    -3.0640     0.0440 H     1 <1>   0.4000 
 27 H        0.2970    -6.5030    -0.3400 H     1 <1>   0.0800 
 28 H        0.3470    -6.7770     1.3830 H     1 <1>   0.0800 
 29 H       -7.5810    -3.5280    -1.1970 H     1 <1>   0.1500 
 30 H        2.2240    -5.3310     1.5730 H     1 <1>   0.4500 
 31 H        1.8610    -4.6370     0.1340 H     1 <1>   0.4500 
 32 H        2.5400    -6.6810    -1.0320 H     1 <1>   0.0800 
 33 H        2.2010    -8.2740     0.8080 H     1 <1>   0.0800 
 34 H        3.4020    -7.4490     1.7740 H     1 <1>   0.0800 
 35 H        4.5450    -5.2970     0.7660 H     1 <1>   0.0800 
 36 H        4.0460    -4.7740    -0.8260 H     1 <1>   0.0800 
 37 H        3.8840    -8.9350    -0.8170 H     1 <1>   0.0800 
 38 H        4.3830    -9.4350     0.7710 H     1 <1>   0.0800 
 39 H        6.2260    -5.9510    -0.8660 H     1 <1>   0.0800 
 40 H        5.0320    -6.7580    -1.8380 H     1 <1>   0.0800 
 41 H        6.2430    -8.4110    -0.5190 H     1 <1>   0.0800 
 42 H        5.9140    -7.5470     0.9500 H     1 <1>   0.0800 
@<TRIPOS>BOND
  1   1   2  1   
  2   1   3  1   
  3   2   4  ar  
  4   2   5  ar  
  5   3   6  1   
  6   3  19  1   
  7   3  20  1   
  8   4   7  ar  
  9   4  21  1   
 10   5   8  ar  
 11   5  22  1   
 12   6   9  1   
 13   6  10  1   
 14   6  23  1   
 15   7  11  ar  
 16   7  24  1   
 17   8  11  ar  
 18   8  25  1   
 19   9  26  1   
 20  10  12  1   
 21  10  27  1   
 22  10  28  1   
 23  11  29  1   
 24  12  13  1   
 25  12  30  1   
 26  12  31  1   
 27  13  14  1   
 28  13  15  1   
 29  13  32  1   
 30  14  16  1   
 31  14  33  1   
 32  14  34  1   
 33  15  17  1   
 34  15  35  1   
 35  15  36  1   
 36  16  18  1   
 37  16  37  1   
 38  16  38  1   
 39  17  18  1   
 40  17  39  1   
 41  17  40  1   
 42  18  41  1   
 43  18  42  1   
@<TRIPOS>SUBSTRUCTURE
  1 ****   6 GROUP 4 **** **** 0

# MOE 2024.06 (io_trps.svl 2023.06)
