@<TRIPOS>MOLECULE
NONAME
38 40 1 0 0 
SMALL
USER_CHARGES


@<TRIPOS>ATOM
  1 O       -2.4710     0.6750    -3.2220 O.co2 1 <1>  -0.9000 
  2 C       -3.1230     1.2050    -2.3180 C.2   1 <1>   0.9060 
  3 O       -3.7550     2.2530    -2.5100 O.co2 1 <1>  -0.9000 
  4 C       -3.2110     0.5520    -0.9380 C.3   1 <1>  -0.1860 
  5 C       -3.0390     1.5950     0.2140 C.3   1 <1>  -0.0190 
  6 C       -2.2350    -0.6360    -0.7200 C.3   1 <1>  -0.0800 
  7 C       -4.3800     2.1690     0.6900 C.2   1 <1>   0.5690 
  8 C       -2.1580     0.9900     1.3420 C.3   1 <1>  -0.0800 
  9 C       -2.6680    -1.3730     0.5640 C.3   1 <1>  -0.1600 
 10 C       -0.8050    -0.0990    -0.5020 C.3   1 <1>  -0.1600 
 11 O       -4.7110     2.1170     1.8530 O.2   1 <1>  -0.5700 
 12 N       -5.1690     2.7610    -0.2310 N.am  1 <1>  -0.7300 
 13 C       -2.7070    -0.3940     1.7580 C.3   1 <1>  -0.1600 
 14 C       -0.7410     0.7780     0.7680 C.3   1 <1>  -0.1600 
 15 C       -6.5280     3.2830    -0.0110 C.3   1 <1>   0.3200 
 16 C       -7.4360     2.9590    -1.1870 C.2   1 <1>  -0.0400 
 17 O       -8.7130     3.2910    -1.1060 O.3   1 <1>  -0.2800 
 18 C       -7.1820     2.3650    -2.3750 C.2   1 <1>  -0.1500 
 19 C       -9.2950     2.9180    -2.2290 C.2   1 <1>  -0.0100 
 20 C       -8.4030     2.3380    -3.0590 C.2   1 <1>  -0.1500 
 21 H       -4.2060     0.1530    -0.8880 H     1 <1>   0.0800 
 22 H       -2.4960     2.4360    -0.1800 H     1 <1>   0.0800 
 23 H       -2.2630    -1.3050    -1.5640 H     1 <1>   0.0800 
 24 H       -2.1210     1.6530     2.1890 H     1 <1>   0.0800 
 25 H       -1.9760    -2.1710     0.7680 H     1 <1>   0.0800 
 26 H       -3.6410    -1.8100     0.4220 H     1 <1>   0.0800 
 27 H       -0.5130     0.4810    -1.3620 H     1 <1>   0.0800 
 28 H       -0.1160    -0.9200    -0.4160 H     1 <1>   0.0800 
 29 H       -4.8240     2.7610    -1.2160 H     1 <1>   0.3700 
 30 H       -3.7190    -0.2910     2.1080 H     1 <1>   0.0800 
 31 H       -2.1210    -0.7880     2.5700 H     1 <1>   0.0800 
 32 H       -0.1200     0.3030     1.5070 H     1 <1>   0.0800 
 33 H       -0.2970     1.7280     0.5270 H     1 <1>   0.0800 
 34 H       -6.4770     4.3490     0.1140 H     1 <1>   0.0800 
 35 H       -6.9390     2.8510     0.8850 H     1 <1>   0.0800 
 36 H       -6.2460     1.9850    -2.7530 H     1 <1>   0.1500 
 37 H      -10.3470     3.1040    -2.3540 H     1 <1>   0.1500 
 38 H       -8.5510     1.9290    -4.0420 H     1 <1>   0.1500 
@<TRIPOS>BOND
  1   1   2  ar  
  2   2   3  ar  
  3   2   4  1   
  4   4   5  1   
  5   4   6  1   
  6   4  21  1   
  7   5   7  1   
  8   5   8  1   
  9   5  22  1   
 10   6   9  1   
 11   6  10  1   
 12   6  23  1   
 13   7  11  2   
 14   7  12  am  
 15   8  13  1   
 16   8  14  1   
 17   8  24  1   
 18   9  13  1   
 19   9  25  1   
 20   9  26  1   
 21  10  14  1   
 22  10  27  1   
 23  10  28  1   
 24  12  15  1   
 25  12  29  1   
 26  13  30  1   
 27  13  31  1   
 28  14  32  1   
 29  14  33  1   
 30  15  16  1   
 31  15  34  1   
 32  15  35  1   
 33  16  17  1   
 34  16  18  2   
 35  17  19  1   
 36  18  20  1   
 37  18  36  1   
 38  19  20  2   
 39  19  37  1   
 40  20  38  1   
@<TRIPOS>SUBSTRUCTURE
  1 ****   7 GROUP 4 **** **** 0

# MOE 2024.06 (io_trps.svl 2023.06)
