@<TRIPOS>MOLECULE
NONAME
52 55 1 0 0 
SMALL
USER_CHARGES


@<TRIPOS>ATOM
  1 O       -2.4780     1.9150     2.4880 O.2   1 <1>  -0.5740 
  2 C       -3.1460     2.3030     1.5540 C.2   1 <1>   0.5900 
  3 C       -2.6890     3.2140     0.5400 C.2   1 <1>   0.0470 
  4 C       -4.5550     1.7180     1.4510 C.3   1 <1>   0.4100 
  5 O       -1.4580     3.7090     0.6030 O.3   1 <1>  -0.2860 
  6 C       -3.2900     3.7190    -0.5790 C.2   1 <1>  -0.1570 
  7 N       -4.6050     0.2980     0.9430 N.pl3 1 <1>  -0.7670 
  8 C       -1.2580     4.5030    -0.4200 C.2   1 <1>  -0.0180 
  9 C       -2.3600     4.5530    -1.1960 C.2   1 <1>  -0.1570 
 10 C       -3.9500    -0.7730     1.4010 C.cat 1 <1>   1.0690 
 11 C       -5.4750    -0.1410    -0.0470 C.ar  1 <1>   0.3030 
 12 N       -3.0580    -0.7490     2.3640 N.pl3 1 <1>  -0.8390 
 13 N       -4.3170    -1.8830     0.7500 N.pl3 1 <1>  -0.7670 
 14 C       -5.3020    -1.5100    -0.1630 C.ar  1 <1>   0.3030 
 15 C       -6.4000     0.5250    -0.8470 C.ar  1 <1>  -0.1160 
 16 C       -3.8600    -3.2910     0.9380 C.3   1 <1>   0.3480 
 17 C       -6.0560    -2.2480    -1.0710 C.ar  1 <1>  -0.1160 
 18 C       -7.1410    -0.2060    -1.7540 C.ar  1 <1>  -0.1570 
 19 C       -2.9660    -3.7620    -0.2390 C.3   1 <1>   0.3370 
 20 C       -6.9720    -1.5860    -1.8650 C.ar  1 <1>  -0.1570 
 21 N       -2.6480    -5.2360    -0.2480 N.4   1 <1>  -0.9610 
 22 C       -1.8120    -5.6820     0.9110 C.3   1 <1>   0.3370 
 23 C       -1.9760    -5.6040    -1.5340 C.3   1 <1>   0.3370 
 24 C       -1.6760    -7.2040     0.8880 C.3   1 <1>  -0.1670 
 25 C       -1.8420    -7.1240    -1.6250 C.3   1 <1>  -0.1670 
 26 C       -1.0700    -7.6970    -0.4310 C.3   1 <1>  -0.1670 
 27 H       -5.1510     2.3520     0.8210 H     1 <1>   0.0720 
 28 H       -4.9990     1.7470     2.4310 H     1 <1>   0.0720 
 29 H       -4.2790     3.5470    -0.9640 H     1 <1>   0.1430 
 30 H       -0.3050     4.9950    -0.5260 H     1 <1>   0.1430 
 31 H       -2.5100     5.1130    -2.1040 H     1 <1>   0.1430 
 32 H       -2.5990    -1.5520     2.7750 H     1 <1>   0.4450 
 33 H       -2.7210     0.1510     2.7420 H     1 <1>   0.4450 
 34 H       -6.5440     1.5870    -0.7690 H     1 <1>   0.1430 
 35 H       -4.7290    -3.9240     1.0020 H     1 <1>   0.0720 
 36 H       -3.3150    -3.3760     1.8620 H     1 <1>   0.0720 
 37 H       -5.9410    -3.3120    -1.1580 H     1 <1>   0.1430 
 38 H       -7.8640     0.2870    -2.3860 H     1 <1>   0.1430 
 39 H       -2.0440    -3.2050    -0.2210 H     1 <1>   0.0720 
 40 H       -3.4760    -3.5220    -1.1570 H     1 <1>   0.0720 
 41 H       -7.5700    -2.1320    -2.5780 H     1 <1>   0.1430 
 42 H       -3.5110    -5.7990    -0.2270 H     1 <1>   0.4450 
 43 H       -2.2680    -5.3870     1.8410 H     1 <1>   0.0720 
 44 H       -0.8330    -5.2350     0.8500 H     1 <1>   0.0720 
 45 H       -0.9970    -5.1540    -1.5800 H     1 <1>   0.0720 
 46 H       -2.5550    -5.2500    -2.3720 H     1 <1>   0.0720 
 47 H       -2.6410    -7.6560     1.0400 H     1 <1>   0.0720 
 48 H       -1.0440    -7.5140     1.7030 H     1 <1>   0.0720 
 49 H       -1.3250    -7.3780    -2.5340 H     1 <1>   0.0720 
 50 H       -2.8200    -7.5700    -1.6790 H     1 <1>   0.0720 
 51 H       -1.0890    -8.7740    -0.4640 H     1 <1>   0.0720 
 52 H       -0.0390    -7.3880    -0.4900 H     1 <1>   0.0720 
@<TRIPOS>BOND
  1   1   2  2   
  2   2   3  1   
  3   2   4  1   
  4   3   5  1   
  5   3   6  2   
  6   4   7  1   
  7   4  27  1   
  8   4  28  1   
  9   5   8  1   
 10   6   9  1   
 11   6  29  1   
 12   7  10  ar  
 13   7  11  1   
 14   8   9  2   
 15   8  30  1   
 16   9  31  1   
 17  10  12  ar  
 18  10  13  ar  
 19  11  14  ar  
 20  11  15  ar  
 21  12  32  1   
 22  12  33  1   
 23  13  14  1   
 24  13  16  1   
 25  14  17  ar  
 26  15  18  ar  
 27  15  34  1   
 28  16  19  1   
 29  16  35  1   
 30  16  36  1   
 31  17  20  ar  
 32  17  37  1   
 33  18  20  ar  
 34  18  38  1   
 35  19  21  1   
 36  19  39  1   
 37  19  40  1   
 38  20  41  1   
 39  21  22  1   
 40  21  23  1   
 41  21  42  1   
 42  22  24  1   
 43  22  43  1   
 44  22  44  1   
 45  23  25  1   
 46  23  45  1   
 47  23  46  1   
 48  24  26  1   
 49  24  47  1   
 50  24  48  1   
 51  25  26  1   
 52  25  49  1   
 53  25  50  1   
 54  26  51  1   
 55  26  52  1   
@<TRIPOS>SUBSTRUCTURE
  1 ****  13 GROUP 4 **** **** 0

# MOE 2024.06 (io_trps.svl 2023.06)
