@<TRIPOS>MOLECULE
NONAME
38 39 1 0 0 
SMALL
USER_CHARGES


@<TRIPOS>ATOM
  1 O       -0.7980    -0.4530     2.7890 O.2   1 <1>  -0.5700 
  2 C       -0.7200    -1.2610     1.8950 C.2   1 <1>   0.5690 
  3 N       -1.5580    -1.1750     0.8030 N.am  1 <1>  -0.6600 
  4 C        0.3330    -2.3580     2.0430 C.3   1 <1>   0.0440 
  5 C       -1.5810    -2.1590    -0.3270 C.3   1 <1>   0.1400 
  6 C       -2.3930     0.0520     0.5980 C.3   1 <1>   0.1400 
  7 C        1.2390    -2.5240     0.8170 C.ar  1 <1>  -0.1440 
  8 C       -3.0120    -2.4380    -0.8270 C.3   1 <1>   0.3430 
  9 C       -3.8100    -0.2930     0.1090 C.3   1 <1>   0.3430 
 10 C        1.5520    -3.7690     0.2740 C.ar  1 <1>  -0.1440 
 11 C        1.7600    -1.3780     0.2300 C.ar  1 <1>  -0.1500 
 12 N       -3.7810    -1.1770    -1.1090 N.4   1 <1>  -0.9590 
 13 C        2.3490    -3.8370    -0.8600 C.ar  1 <1>  -0.1500 
 14 C        1.0670    -5.0770     0.8880 C.3   1 <1>  -0.0970 
 15 C        2.5550    -1.4560    -0.8970 C.ar  1 <1>  -0.1500 
 16 C       -5.1640    -1.4800    -1.5870 C.3   1 <1>   0.2630 
 17 C        2.8460    -2.6890    -1.4470 C.ar  1 <1>  -0.1500 
 18 H       -0.1850    -3.2640     2.2830 H     1 <1>   0.0800 
 19 H        0.9560    -2.1190     2.8860 H     1 <1>   0.0800 
 20 H       -1.1550    -3.0960    -0.0170 H     1 <1>   0.0800 
 21 H       -0.9780    -1.7820    -1.1360 H     1 <1>   0.0800 
 22 H       -1.9070     0.6900    -0.1200 H     1 <1>   0.0800 
 23 H       -2.4780     0.6100     1.5150 H     1 <1>   0.0800 
 24 H       -3.5270    -3.0110    -0.0730 H     1 <1>   0.0800 
 25 H       -2.9590    -3.0430    -1.7180 H     1 <1>   0.0800 
 26 H       -4.3360     0.6210    -0.1110 H     1 <1>   0.0800 
 27 H       -4.3330    -0.7910     0.9090 H     1 <1>   0.0800 
 28 H        1.5510    -0.4080     0.6500 H     1 <1>   0.1500 
 29 H       -3.2770    -0.6660    -1.8490 H     1 <1>   0.4500 
 30 H        2.5990    -4.7900    -1.2930 H     1 <1>   0.1500 
 31 H        1.3390    -5.1180     1.9270 H     1 <1>   0.0800 
 32 H        1.5160    -5.9220     0.3980 H     1 <1>   0.0800 
 33 H        0.0000    -5.1640     0.7970 H     1 <1>   0.0800 
 34 H        2.9520    -0.5600    -1.3430 H     1 <1>   0.1500 
 35 H       -5.7150    -2.0140    -0.8290 H     1 <1>   0.0800 
 36 H       -5.1290    -2.0860    -2.4780 H     1 <1>   0.0800 
 37 H       -5.6910    -0.5670    -1.8160 H     1 <1>   0.0800 
 38 H        3.4670    -2.7560    -2.3240 H     1 <1>   0.1500 
@<TRIPOS>BOND
  1   1   2  2   
  2   2   3  am  
  3   2   4  1   
  4   3   5  1   
  5   3   6  1   
  6   4   7  1   
  7   4  18  1   
  8   4  19  1   
  9   5   8  1   
 10   5  20  1   
 11   5  21  1   
 12   6   9  1   
 13   6  22  1   
 14   6  23  1   
 15   7  10  ar  
 16   7  11  ar  
 17   8  12  1   
 18   8  24  1   
 19   8  25  1   
 20   9  12  1   
 21   9  26  1   
 22   9  27  1   
 23  10  13  ar  
 24  10  14  1   
 25  11  15  ar  
 26  11  28  1   
 27  12  16  1   
 28  12  29  1   
 29  13  17  ar  
 30  13  30  1   
 31  14  31  1   
 32  14  32  1   
 33  14  33  1   
 34  15  17  ar  
 35  15  34  1   
 36  16  35  1   
 37  16  36  1   
 38  16  37  1   
 39  17  38  1   
@<TRIPOS>SUBSTRUCTURE
  1 ****   5 GROUP 4 **** **** 0

# MOE 2024.06 (io_trps.svl 2023.06)
