@<TRIPOS>MOLECULE
NONAME
32 34 1 0 0 
SMALL
USER_CHARGES


@<TRIPOS>ATOM
  1 S        0.4450    -0.1440    -1.5300 S.3   1 <1>  -0.4600 
  2 C        0.2380    -1.3290    -0.1910 C.3   1 <1>   0.2300 
  3 C        1.9900     0.6990    -1.1130 C.3   1 <1>   0.2140 
  4 C        1.4610    -2.2480    -0.2410 C.3   1 <1>  -0.0170 
  5 C        0.0940    -0.5590     1.1290 C.3   1 <1>  -0.2400 
  6 C       -1.0500    -2.0930    -0.5060 C.3   1 <1>  -0.2400 
  7 C        3.0390    -0.2320    -0.5140 C.ar  1 <1>  -0.1440 
  8 C        2.8090    -1.5550    -0.0970 C.ar  1 <1>   0.1660 
  9 C        4.3020     0.3110    -0.3650 C.ar  1 <1>  -0.1500 
 10 N        3.7350    -2.3340     0.4430 N.ar  1 <1>  -0.5670 
 11 C        5.2880    -0.4820     0.1910 C.ar  1 <1>   0.0000 
 12 C        4.9210    -1.7630     0.5650 C.ar  1 <1>   0.2970 
 13 C        6.6680    -0.1810     0.4620 C.2   1 <1>   0.0830 
 14 S        6.3070    -2.5950     1.2720 S.3   1 <1>  -0.0800 
 15 N        7.2390     1.0370     0.1480 N.pl3 1 <1>  -0.8830 
 16 C        7.3800    -1.1830     1.0380 C.2   1 <1>  -0.1920 
 17 C        8.7600    -1.2450     1.4230 C.2   1 <1>   1.0320 
 18 O        9.5090    -0.2700     1.1850 O.co2 1 <1>  -0.9000 
 19 O        9.2500    -2.2450     1.9780 O.co2 1 <1>  -0.9000 
 20 H        1.7370     1.4770    -0.4140 H     1 <1>   0.0800 
 21 H        2.3490     1.1430    -2.0240 H     1 <1>   0.0800 
 22 H        1.4670    -2.7830    -1.1730 H     1 <1>   0.0800 
 23 H        1.3620    -2.9780     0.5430 H     1 <1>   0.0800 
 24 H        0.9950    -0.0320     1.3830 H     1 <1>   0.0800 
 25 H       -0.1220    -1.2440     1.9290 H     1 <1>   0.0800 
 26 H       -0.7120     0.1490     1.0600 H     1 <1>   0.0800 
 27 H       -0.9750    -2.5790    -1.4620 H     1 <1>   0.0800 
 28 H       -1.8870    -1.4180    -0.5320 H     1 <1>   0.0800 
 29 H       -1.2350    -2.8400     0.2450 H     1 <1>   0.0800 
 30 H        4.5400     1.3180    -0.6560 H     1 <1>   0.1500 
 31 H        8.2340     1.0210     0.4710 H     1 <1>   0.4000 
 32 H        7.2310     1.2680    -0.8440 H     1 <1>   0.4000 
@<TRIPOS>BOND
  1   1   2  1   
  2   1   3  1   
  3   2   4  1   
  4   2   5  1   
  5   2   6  1   
  6   3   7  1   
  7   3  20  1   
  8   3  21  1   
  9   4   8  1   
 10   4  22  1   
 11   4  23  1   
 12   5  24  1   
 13   5  25  1   
 14   5  26  1   
 15   6  27  1   
 16   6  28  1   
 17   6  29  1   
 18   7   8  ar  
 19   7   9  ar  
 20   8  10  ar  
 21   9  11  ar  
 22   9  30  1   
 23  10  12  ar  
 24  11  12  ar  
 25  11  13  1   
 26  12  14  1   
 27  13  15  1   
 28  13  16  2   
 29  14  16  1   
 30  15  31  1   
 31  15  32  1   
 32  16  17  1   
 33  17  18  ar  
 34  17  19  ar  
@<TRIPOS>SUBSTRUCTURE
  1 ****  12 GROUP 4 **** **** 0

# MOE 2024.06 (io_trps.svl 2023.06)
