@<TRIPOS>MOLECULE
NONAME
39 40 1 0 0 
SMALL
USER_CHARGES


@<TRIPOS>ATOM
  1 S       -1.7460     0.7800     1.2040 S.3   1 <1>  -0.2860 
  2 C       -2.8760     1.8080     0.2500 C.2   1 <1>   0.2420 
  3 C       -0.7310     1.9550     2.2200 C.3   1 <1>   0.0700 
  4 N       -2.8270     3.0810     0.2700 N.2   1 <1>  -0.3380 
  5 N       -3.8090     1.3470    -0.5810 N.pl3 1 <1>   0.5930 
  6 C        0.4730     2.4400     1.4000 C.3   1 <1>   0.3430 
  7 N       -3.7580     3.4590    -0.5980 N.2   1 <1>   0.0000 
  8 N       -4.3430     2.4390    -1.1210 N.2   1 <1>  -0.4180 
  9 C       -4.1570     0.0130    -0.9370 C.ar  1 <1>  -0.0230 
 10 N        0.0980     3.4930     0.4010 N.4   1 <1>  -0.9590 
 11 C       -4.2630    -0.3510    -2.2770 C.ar  1 <1>  -0.1500 
 12 C       -4.3970    -0.9540     0.0370 C.ar  1 <1>  -0.1500 
 13 C        0.8870     3.3710    -0.8550 C.3   1 <1>   0.3430 
 14 C        0.1920     4.8520     1.0020 C.3   1 <1>   0.3430 
 15 C       -4.5870    -1.6470    -2.6340 C.ar  1 <1>  -0.1500 
 16 C       -4.7210    -2.2500    -0.3210 C.ar  1 <1>  -0.1500 
 17 C        0.3330     2.2190    -1.6840 C.3   1 <1>  -0.2400 
 18 C       -0.5700     5.8620     0.1510 C.3   1 <1>  -0.2400 
 19 C       -4.8140    -2.5980    -1.6560 C.ar  1 <1>  -0.1500 
 20 H       -0.3950     1.3900     3.0720 H     1 <1>   0.0800 
 21 H       -1.3620     2.7600     2.5530 H     1 <1>   0.0800 
 22 H        0.9000     1.5870     0.8970 H     1 <1>   0.0800 
 23 H        1.2240     2.8320     2.0660 H     1 <1>   0.0800 
 24 H       -0.8960     3.3540     0.1470 H     1 <1>   0.4500 
 25 H       -4.0960     0.3810    -3.0500 H     1 <1>   0.1500 
 26 H       -4.3370    -0.7030     1.0830 H     1 <1>   0.1500 
 27 H        1.9290     3.2060    -0.6290 H     1 <1>   0.0800 
 28 H        0.8080     4.2770    -1.4330 H     1 <1>   0.0800 
 29 H        1.2250     5.1490     1.0930 H     1 <1>   0.0800 
 30 H       -0.2440     4.8410     1.9880 H     1 <1>   0.0800 
 31 H       -4.6660    -1.9180    -3.6730 H     1 <1>   0.1500 
 32 H       -4.9030    -2.9910     0.4390 H     1 <1>   0.1500 
 33 H        0.4290     1.2780    -1.1740 H     1 <1>   0.0800 
 34 H        0.8860     2.1510    -2.6050 H     1 <1>   0.0800 
 35 H       -0.6990     2.3940    -1.9330 H     1 <1>   0.0800 
 36 H       -0.1250     5.9870    -0.8190 H     1 <1>   0.0800 
 37 H       -0.5490     6.8190     0.6420 H     1 <1>   0.0800 
 38 H       -1.6000     5.5740     0.0410 H     1 <1>   0.0800 
 39 H       -5.0660    -3.6080    -1.9340 H     1 <1>   0.1500 
@<TRIPOS>BOND
  1   1   2  1   
  2   1   3  1   
  3   2   4  2   
  4   2   5  1   
  5   3   6  1   
  6   3  20  1   
  7   3  21  1   
  8   4   7  1   
  9   5   8  1   
 10   5   9  1   
 11   6  10  1   
 12   6  22  1   
 13   6  23  1   
 14   7   8  2   
 15   9  11  ar  
 16   9  12  ar  
 17  10  13  1   
 18  10  14  1   
 19  10  24  1   
 20  11  15  ar  
 21  11  25  1   
 22  12  16  ar  
 23  12  26  1   
 24  13  17  1   
 25  13  27  1   
 26  13  28  1   
 27  14  18  1   
 28  14  29  1   
 29  14  30  1   
 30  15  19  ar  
 31  15  31  1   
 32  16  19  ar  
 33  16  32  1   
 34  17  33  1   
 35  17  34  1   
 36  17  35  1   
 37  18  36  1   
 38  18  37  1   
 39  18  38  1   
 40  19  39  1   
@<TRIPOS>SUBSTRUCTURE
  1 ****   2 GROUP 4 **** **** 0

# MOE 2024.06 (io_trps.svl 2023.06)
