@<TRIPOS>MOLECULE
NONAME
43 44 1 0 0 
SMALL
USER_CHARGES


@<TRIPOS>ATOM
  1 O        0.4370    -0.8220    -1.8380 O.2   1 <1>  -0.5700 
  2 C        0.8390    -1.6070    -0.9980 C.2   1 <1>   0.5440 
  3 N        2.0270    -1.3260    -0.3510 N.am  1 <1>  -0.6600 
  4 C        0.0640    -2.8050    -0.7500 C.ar  1 <1>   0.0860 
  5 C        3.1130    -0.6500    -1.1190 C.3   1 <1>   0.2200 
  6 C        2.4470    -1.7630     1.0120 C.3   1 <1>   0.2200 
  7 C        0.6370    -4.0710    -0.8330 C.ar  1 <1>  -0.1500 
  8 C       -1.2890    -2.7340    -0.4300 C.ar  1 <1>  -0.1500 
  9 C        4.5040    -1.2170    -0.7510 C.3   1 <1>  -0.1600 
 10 C        3.0470     0.8590    -0.8810 C.3   1 <1>  -0.2400 
 11 C        3.5040    -2.8760     0.8920 C.3   1 <1>  -0.1600 
 12 C        1.3020    -2.1260     1.9600 C.3   1 <1>  -0.2400 
 13 C       -0.0840    -5.2230    -0.5810 C.ar  1 <1>   0.0830 
 14 C       -2.0300    -3.8720    -0.1690 C.ar  1 <1>  -0.1500 
 15 C        4.4320    -2.6930    -0.3270 C.3   1 <1>  -0.1600 
 16 O        0.6220    -6.3810    -0.6990 O.3   1 <1>  -0.3630 
 17 C       -1.4410    -5.1330    -0.2270 C.ar  1 <1>   0.0830 
 18 C        0.0180    -7.5400    -1.2310 C.3   1 <1>   0.0400 
 19 O       -2.1440    -6.2610     0.0680 O.3   1 <1>  -0.3630 
 20 C       -3.4800    -6.2270     0.5210 C.3   1 <1>   0.0400 
 21 H        2.9450    -0.8370    -2.1680 H     1 <1>   0.0800 
 22 H        2.9330    -0.9120     1.4610 H     1 <1>   0.0800 
 23 H        1.6720    -4.1560    -1.1060 H     1 <1>   0.1500 
 24 H       -1.7560    -1.7650    -0.3870 H     1 <1>   0.1500 
 25 H        4.9300    -0.6440     0.0540 H     1 <1>   0.0800 
 26 H        5.1590    -1.1090    -1.5970 H     1 <1>   0.0800 
 27 H        3.1920     1.0900     0.1590 H     1 <1>   0.0800 
 28 H        2.0900     1.2340    -1.1950 H     1 <1>   0.0800 
 29 H        3.8080     1.3540    -1.4560 H     1 <1>   0.0800 
 30 H        3.0270    -3.8380     0.8360 H     1 <1>   0.0800 
 31 H        4.0930    -2.8700     1.7920 H     1 <1>   0.0800 
 32 H        0.8780    -3.0840     1.7270 H     1 <1>   0.0800 
 33 H        0.5380    -1.3700     1.9270 H     1 <1>   0.0800 
 34 H        1.6780    -2.1780     2.9650 H     1 <1>   0.0800 
 35 H       -3.0670    -3.7500     0.0790 H     1 <1>   0.1500 
 36 H        5.4160    -3.0680    -0.1000 H     1 <1>   0.0800 
 37 H        4.0440    -3.2660    -1.1520 H     1 <1>   0.0800 
 38 H        0.7950    -8.1830    -1.6020 H     1 <1>   0.0800 
 39 H       -0.6430    -7.2580    -2.0310 H     1 <1>   0.0800 
 40 H       -0.5220    -8.0400    -0.4480 H     1 <1>   0.0800 
 41 H       -3.7900    -7.2360     0.7200 H     1 <1>   0.0800 
 42 H       -4.0990    -5.8000    -0.2480 H     1 <1>   0.0800 
 43 H       -3.5270    -5.6460     1.4250 H     1 <1>   0.0800 
@<TRIPOS>BOND
  1   1   2  2   
  2   2   3  am  
  3   2   4  1   
  4   3   5  1   
  5   3   6  1   
  6   4   7  ar  
  7   4   8  ar  
  8   5   9  1   
  9   5  10  1   
 10   5  21  1   
 11   6  11  1   
 12   6  12  1   
 13   6  22  1   
 14   7  13  ar  
 15   7  23  1   
 16   8  14  ar  
 17   8  24  1   
 18   9  15  1   
 19   9  25  1   
 20   9  26  1   
 21  10  27  1   
 22  10  28  1   
 23  10  29  1   
 24  11  15  1   
 25  11  30  1   
 26  11  31  1   
 27  12  32  1   
 28  12  33  1   
 29  12  34  1   
 30  13  16  1   
 31  13  17  ar  
 32  14  17  ar  
 33  14  35  1   
 34  15  36  1   
 35  15  37  1   
 36  16  18  1   
 37  17  19  1   
 38  18  38  1   
 39  18  39  1   
 40  18  40  1   
 41  19  20  1   
 42  20  41  1   
 43  20  42  1   
 44  20  43  1   
@<TRIPOS>SUBSTRUCTURE
  1 ****   4 GROUP 4 **** **** 0

# MOE 2024.06 (io_trps.svl 2023.06)
