@<TRIPOS>MOLECULE
NONAME
35 36 1 0 0 
SMALL
USER_CHARGES


@<TRIPOS>ATOM
  1 F       -0.7920     0.0900     0.3670 F     1 <1>  -0.3400 
  2 C       -1.3220    -0.6050    -0.6300 C.3   1 <1>   1.1640 
  3 F       -0.3590    -1.3970    -1.0880 F     1 <1>  -0.3400 
  4 F       -1.5740     0.2670    -1.6000 F     1 <1>  -0.3400 
  5 C       -2.5710    -1.3830    -0.1880 C.ar  1 <1>  -0.1440 
  6 C       -3.8460    -0.8490    -0.3530 C.ar  1 <1>  -0.1500 
  7 C       -2.4490    -2.6390     0.3970 C.ar  1 <1>  -0.1500 
  8 C       -4.9850    -1.5370     0.0460 C.ar  1 <1>   0.1170 
  9 C       -3.5730    -3.3380     0.7990 C.ar  1 <1>  -0.1500 
 10 N       -6.2390    -0.9430    -0.1660 N.am  1 <1>  -0.5470 
 11 C       -4.8290    -2.7930     0.6220 C.ar  1 <1>  -0.1500 
 12 C       -7.4480    -1.1550     0.4420 C.2   1 <1>   0.5690 
 13 O       -7.6060    -1.9320     1.3510 O.2   1 <1>  -0.5700 
 14 C       -8.6440    -0.3470    -0.0640 C.3   1 <1>  -0.0190 
 15 C       -9.2070     0.5740     1.0360 C.3   1 <1>  -0.1600 
 16 C       -9.7500    -1.2670    -0.6170 C.3   1 <1>  -0.1600 
 17 C      -10.4130     1.3810     0.5340 C.3   1 <1>  -0.1600 
 18 C      -10.9560    -0.4600    -1.1200 C.3   1 <1>  -0.1600 
 19 C      -11.5050     0.4580    -0.0210 C.3   1 <1>  -0.1600 
 20 H       -3.9630     0.1250    -0.7960 H     1 <1>   0.1500 
 21 H       -1.4780    -3.0820     0.5470 H     1 <1>   0.1500 
 22 H       -3.4710    -4.3110     1.2510 H     1 <1>   0.1500 
 23 H       -6.2430    -0.2070    -0.8680 H     1 <1>   0.3700 
 24 H       -5.6910    -3.3540     0.9350 H     1 <1>   0.1500 
 25 H       -8.3100     0.2790    -0.8720 H     1 <1>   0.0800 
 26 H       -8.4390     1.2460     1.3750 H     1 <1>   0.0800 
 27 H       -9.5100    -0.0270     1.8790 H     1 <1>   0.0800 
 28 H      -10.0740    -1.9380     0.1620 H     1 <1>   0.0800 
 29 H       -9.3570    -1.8660    -1.4200 H     1 <1>   0.0800 
 30 H      -10.0940     2.0610    -0.2370 H     1 <1>   0.0800 
 31 H      -10.8150     1.9670     1.3430 H     1 <1>   0.0800 
 32 H      -11.7300    -1.1350    -1.4430 H     1 <1>   0.0800 
 33 H      -10.6620     0.1340    -1.9680 H     1 <1>   0.0800 
 34 H      -12.3130     1.0510    -0.4150 H     1 <1>   0.0800 
 35 H      -11.9000    -0.1440     0.7800 H     1 <1>   0.0800 
@<TRIPOS>BOND
  1   1   2  1   
  2   2   3  1   
  3   2   4  1   
  4   2   5  1   
  5   5   6  ar  
  6   5   7  ar  
  7   6   8  ar  
  8   6  20  1   
  9   7   9  ar  
 10   7  21  1   
 11   8  10  1   
 12   8  11  ar  
 13   9  11  ar  
 14   9  22  1   
 15  10  12  am  
 16  10  23  1   
 17  11  24  1   
 18  12  13  2   
 19  12  14  1   
 20  14  15  1   
 21  14  16  1   
 22  14  25  1   
 23  15  17  1   
 24  15  26  1   
 25  15  27  1   
 26  16  18  1   
 27  16  28  1   
 28  16  29  1   
 29  17  19  1   
 30  17  30  1   
 31  17  31  1   
 32  18  19  1   
 33  18  32  1   
 34  18  33  1   
 35  19  34  1   
 36  19  35  1   
@<TRIPOS>SUBSTRUCTURE
  1 ****  10 GROUP 4 **** **** 0

# MOE 2024.06 (io_trps.svl 2023.06)
