@<TRIPOS>MOLECULE
NONAME
41 44 1 0 0 
SMALL
USER_CHARGES


@<TRIPOS>ATOM
  1 CL      -0.4270     0.0620     0.1760 Cl    1 <1>  -0.1770 
  2 C       -2.0320    -0.5480    -0.1530 C.ar  1 <1>   0.1770 
  3 C       -2.1990    -1.8210    -0.6810 C.ar  1 <1>  -0.1440 
  4 C       -3.1100     0.2690     0.1240 C.ar  1 <1>  -0.1500 
  5 C       -3.4880    -2.2630    -0.9290 C.ar  1 <1>  -0.1500 
  6 C       -1.0050    -2.7140    -0.9840 C.3   1 <1>  -0.0960 
  7 C       -4.4050    -0.1720    -0.1230 C.ar  1 <1>   0.1170 
  8 C       -4.5740    -1.4490    -0.6540 C.ar  1 <1>  -0.1500 
  9 N       -5.5200     0.6540     0.1540 N.am  1 <1>  -0.2370 
 10 C       -5.6350     1.5280     1.2250 C.2   1 <1>   0.5690 
 11 C       -6.6810     0.7340    -0.6030 C.2   1 <1>   0.5690 
 12 O       -4.9410     1.6040     2.2060 O.2   1 <1>  -0.5700 
 13 C       -6.7880     2.4380     0.9270 C.3   1 <1>  -0.0190 
 14 O       -6.8820     0.3010    -1.7090 O.2   1 <1>  -0.5700 
 15 C       -7.7120     1.4370     0.2300 C.3   1 <1>  -0.0190 
 16 C       -7.7690     3.4060     1.6020 C.3   1 <1>   0.1960 
 17 C       -9.0060     2.2630     0.0490 C.3   1 <1>   0.1960 
 18 C       -8.5270     3.6840     0.3070 C.2   1 <1>  -0.2760 
 19 C       -8.9230     2.7160     2.3180 C.2   1 <1>  -0.2880 
 20 C       -9.6770     2.0980     1.4050 C.2   1 <1>  -0.2880 
 21 C       -8.7080     4.8150    -0.3920 C.2   1 <1>  -0.2760 
 22 C       -8.1510     6.1740     0.0090 C.3   1 <1>  -0.1020 
 23 C       -9.5030     4.8970    -1.6880 C.3   1 <1>  -0.1020 
 24 H       -2.9290     1.2440     0.5370 H     1 <1>   0.1500 
 25 H       -3.6560    -3.2440    -1.3400 H     1 <1>   0.1500 
 26 H       -1.3210    -3.6600    -1.3850 H     1 <1>   0.0800 
 27 H       -0.4440    -2.8950    -0.0840 H     1 <1>   0.0800 
 28 H       -0.3620    -2.2360    -1.7020 H     1 <1>   0.0800 
 29 H       -5.5640    -1.8160    -0.8600 H     1 <1>   0.1500 
 30 H       -6.3250     3.0690     0.1800 H     1 <1>   0.0800 
 31 H       -7.9740     0.6500     0.9210 H     1 <1>   0.0800 
 32 H       -7.3480     4.2660     2.0890 H     1 <1>   0.0800 
 33 H       -9.6190     2.0620    -0.8110 H     1 <1>   0.0800 
 34 H       -9.0250     2.7960     3.3870 H     1 <1>   0.1500 
 35 H      -10.5840     1.5260     1.5030 H     1 <1>   0.1500 
 36 H       -7.5050     6.5500    -0.7640 H     1 <1>   0.0800 
 37 H       -7.5890     6.1260     0.9210 H     1 <1>   0.0800 
 38 H       -8.9570     6.8710     0.1520 H     1 <1>   0.0800 
 39 H       -8.8750     5.2540    -2.4850 H     1 <1>   0.0800 
 40 H      -10.3290     5.5770    -1.5700 H     1 <1>   0.0800 
 41 H       -9.8990     3.9430    -1.9790 H     1 <1>   0.0800 
@<TRIPOS>BOND
  1   1   2  1   
  2   2   3  ar  
  3   2   4  ar  
  4   3   5  ar  
  5   3   6  1   
  6   4   7  ar  
  7   4  24  1   
  8   5   8  ar  
  9   5  25  1   
 10   6  26  1   
 11   6  27  1   
 12   6  28  1   
 13   7   8  ar  
 14   7   9  1   
 15   8  29  1   
 16   9  10  am  
 17   9  11  am  
 18  10  12  2   
 19  10  13  1   
 20  11  14  2   
 21  11  15  1   
 22  13  15  1   
 23  13  16  1   
 24  13  30  1   
 25  15  17  1   
 26  15  31  1   
 27  16  18  1   
 28  16  19  1   
 29  16  32  1   
 30  17  18  1   
 31  17  20  1   
 32  17  33  1   
 33  18  21  2   
 34  19  20  2   
 35  19  34  1   
 36  20  35  1   
 37  21  22  1   
 38  21  23  1   
 39  22  36  1   
 40  22  37  1   
 41  22  38  1   
 42  23  39  1   
 43  23  40  1   
 44  23  41  1   
@<TRIPOS>SUBSTRUCTURE
  1 ****   9 GROUP 4 **** **** 0

# MOE 2024.06 (io_trps.svl 2023.06)
