@<TRIPOS>MOLECULE
NONAME
35 36 1 0 0 
SMALL
USER_CHARGES


@<TRIPOS>ATOM
  1 BR       1.7490     0.0850     0.6120 Br    1 <1>  -0.1110 
  2 C        1.0300     1.8240     0.1830 C.ar  1 <1>   0.1110 
  3 C        1.8850     2.8410    -0.2170 C.ar  1 <1>   0.0820 
  4 C       -0.3340     2.0130     0.2870 C.ar  1 <1>  -0.1500 
  5 O        3.2170     2.6470    -0.3130 O.3   1 <1>  -0.3630 
  6 C        1.3460     4.0760    -0.5360 C.ar  1 <1>  -0.1500 
  7 C       -0.8720     3.2560    -0.0230 C.ar  1 <1>  -0.1430 
  8 C        3.9550     2.8300     0.8860 C.3   1 <1>   0.1810 
  9 C       -0.0220     4.2780    -0.4350 C.ar  1 <1>  -0.1500 
 10 C       -2.3790     3.4770     0.0910 C.3   1 <1>   0.0640 
 11 C        5.3580     2.2560     0.7530 C.2   1 <1>   0.5690 
 12 C       -2.9830     3.8350    -1.2710 C.3   1 <1>  -0.2400 
 13 C       -2.6950     4.5590     1.1280 C.3   1 <1>  -0.2400 
 14 O        6.1880     2.5340     1.5890 O.2   1 <1>  -0.5700 
 15 N        5.6410     1.4360    -0.3000 N.am  1 <1>  -0.4940 
 16 C        6.8400     0.8000    -0.6070 C.2   1 <1>   0.2510 
 17 N        7.0210     0.0430    -1.6380 N.2   1 <1>  -0.3380 
 18 N        7.9500     0.8930     0.1240 N.pl3 1 <1>   0.0330 
 19 N        8.2920    -0.3810    -1.5920 N.2   1 <1>  -0.3380 
 20 C        8.8240     0.1350    -0.5400 C.2   1 <1>   0.0360 
 21 H       -0.9590     1.1980     0.6030 H     1 <1>   0.1500 
 22 H        1.9910     4.8720    -0.8620 H     1 <1>   0.1500 
 23 H        3.4430     2.3330     1.6900 H     1 <1>   0.0800 
 24 H        4.0080     3.8830     1.0920 H     1 <1>   0.0800 
 25 H       -0.4250     5.2440    -0.6830 H     1 <1>   0.1500 
 26 H       -2.8400     2.5610     0.4220 H     1 <1>   0.0800 
 27 H       -2.5980     4.7720    -1.6290 H     1 <1>   0.0800 
 28 H       -4.0530     3.9110    -1.1940 H     1 <1>   0.0800 
 29 H       -2.7460     3.0700    -1.9890 H     1 <1>   0.0800 
 30 H       -2.3040     5.5120     0.8220 H     1 <1>   0.0800 
 31 H       -2.2570     4.2960     2.0750 H     1 <1>   0.0800 
 32 H       -3.7580     4.6500     1.2580 H     1 <1>   0.0800 
 33 H        4.8810     1.2730    -0.9660 H     1 <1>   0.3700 
 34 H        8.0420     1.4400     0.9850 H     1 <1>   0.2700 
 35 H        9.8400    -0.0140    -0.2200 H     1 <1>   0.1500 
@<TRIPOS>BOND
  1   1   2  1   
  2   2   3  ar  
  3   2   4  ar  
  4   3   5  1   
  5   3   6  ar  
  6   4   7  ar  
  7   4  21  1   
  8   5   8  1   
  9   6   9  ar  
 10   6  22  1   
 11   7   9  ar  
 12   7  10  1   
 13   8  11  1   
 14   8  23  1   
 15   8  24  1   
 16   9  25  1   
 17  10  12  1   
 18  10  13  1   
 19  10  26  1   
 20  11  14  2   
 21  11  15  am  
 22  12  27  1   
 23  12  28  1   
 24  12  29  1   
 25  13  30  1   
 26  13  31  1   
 27  13  32  1   
 28  15  16  1   
 29  15  33  1   
 30  16  17  2   
 31  16  18  1   
 32  17  19  1   
 33  18  20  1   
 34  18  34  1   
 35  19  20  2   
 36  20  35  1   
@<TRIPOS>SUBSTRUCTURE
  1 ****   5 GROUP 4 **** **** 0

# MOE 2024.06 (io_trps.svl 2023.06)
