@<TRIPOS>MOLECULE
NONAME
38 39 1 0 0 
SMALL
USER_CHARGES


@<TRIPOS>ATOM
  1 BR       0.9160     0.8800    -1.9490 Br    1 <1>  -0.1110 
  2 C        2.6300     0.3480    -1.2510 C.ar  1 <1>   0.1110 
  3 C        2.6750    -0.6260    -0.2700 C.ar  1 <1>  -0.1500 
  4 C        3.7690     0.9520    -1.7470 C.ar  1 <1>  -0.1500 
  5 C        3.9080    -1.0090     0.2320 C.ar  1 <1>  -0.1500 
  6 C        4.9960     0.5630    -1.2390 C.ar  1 <1>  -0.1500 
  7 C        5.0740    -0.4130    -0.2540 C.ar  1 <1>   0.0830 
  8 O        6.3190    -0.7310     0.1820 O.3   1 <1>  -0.3630 
  9 C        6.5210    -1.7360     1.1630 C.3   1 <1>   0.1810 
 10 C        8.0020    -1.9010     1.4620 C.2   1 <1>   0.6590 
 11 O        8.4480    -1.7510     2.5720 O.2   1 <1>  -0.5700 
 12 O        8.7870    -2.2240     0.4380 O.3   1 <1>  -0.4300 
 13 C       10.1810    -2.3510     0.5730 C.3   1 <1>   0.2000 
 14 C       10.8060    -0.9530     0.5550 C.3   1 <1>  -0.1600 
 15 C       10.6850    -3.1940    -0.5980 C.3   1 <1>  -0.1600 
 16 C       12.3280    -1.0420     0.5200 C.3   1 <1>   0.3430 
 17 C       12.2100    -3.2400    -0.6150 C.3   1 <1>   0.3430 
 18 N       12.7580    -1.8520    -0.6580 N.4   1 <1>  -0.9590 
 19 C       14.2490    -1.8700    -0.7720 C.3   1 <1>   0.2630 
 20 H        1.7640    -1.0710     0.0890 H     1 <1>   0.1500 
 21 H        3.6950     1.7070    -2.5100 H     1 <1>   0.1500 
 22 H        3.9340    -1.7640     0.9940 H     1 <1>   0.1500 
 23 H        5.9010     1.0150    -1.6040 H     1 <1>   0.1500 
 24 H        6.1250    -2.6610     0.7890 H     1 <1>   0.0800 
 25 H        6.0050    -1.4440     2.0590 H     1 <1>   0.0800 
 26 H       10.3930    -2.8530     1.5040 H     1 <1>   0.0800 
 27 H       10.5150    -0.4180     1.4420 H     1 <1>   0.0800 
 28 H       10.4580    -0.4010    -0.3000 H     1 <1>   0.0800 
 29 H       10.3290    -2.7870    -1.5280 H     1 <1>   0.0800 
 30 H       10.3060    -4.1960    -0.5030 H     1 <1>   0.0800 
 31 H       12.6820    -1.5000     1.4300 H     1 <1>   0.0800 
 32 H       12.7420    -0.0480     0.4590 H     1 <1>   0.0800 
 33 H       12.5420    -3.7950    -1.4790 H     1 <1>   0.0800 
 34 H       12.5660    -3.7460     0.2680 H     1 <1>   0.0800 
 35 H       12.3740    -1.3950    -1.4990 H     1 <1>   0.4500 
 36 H       14.6860    -2.3410     0.0940 H     1 <1>   0.0800 
 37 H       14.6310    -0.8650    -0.8480 H     1 <1>   0.0800 
 38 H       14.5500    -2.4180    -1.6510 H     1 <1>   0.0800 
@<TRIPOS>BOND
  1   1   2  1   
  2   2   3  ar  
  3   2   4  ar  
  4   3   5  ar  
  5   3  20  1   
  6   4   6  ar  
  7   4  21  1   
  8   5   7  ar  
  9   5  22  1   
 10   6   7  ar  
 11   6  23  1   
 12   7   8  1   
 13   8   9  1   
 14   9  10  1   
 15   9  24  1   
 16   9  25  1   
 17  10  11  2   
 18  10  12  1   
 19  12  13  1   
 20  13  14  1   
 21  13  15  1   
 22  13  26  1   
 23  14  16  1   
 24  14  27  1   
 25  14  28  1   
 26  15  17  1   
 27  15  29  1   
 28  15  30  1   
 29  16  18  1   
 30  16  31  1   
 31  16  32  1   
 32  17  18  1   
 33  17  33  1   
 34  17  34  1   
 35  18  19  1   
 36  18  35  1   
 37  19  36  1   
 38  19  37  1   
 39  19  38  1   
@<TRIPOS>SUBSTRUCTURE
  1 ****   8 GROUP 4 **** **** 0

# MOE 2024.06 (io_trps.svl 2023.06)
