@<TRIPOS>MOLECULE
NONAME
47 49 1 0 0 
SMALL
USER_CHARGES


@<TRIPOS>ATOM
  1 O       -1.9890     0.1050    -2.0970 O.3   1 <1>  -0.5320 
  2 C       -2.4280     0.9570    -1.1610 C.ar  1 <1>   0.0830 
  3 C       -3.5120     0.5880    -0.3870 C.ar  1 <1>  -0.1500 
  4 C       -1.8110     2.1820    -0.9760 C.ar  1 <1>  -0.1500 
  5 C       -4.0020     1.4550     0.5780 C.ar  1 <1>  -0.1430 
  6 C       -2.2900     3.0440    -0.0050 C.ar  1 <1>  -0.1500 
  7 C       -3.3810     2.6830     0.7690 C.ar  1 <1>  -0.1500 
  8 C       -5.2120     1.0660     1.4020 C.3   1 <1>   0.4860 
  9 N       -6.3940     1.0270     0.5000 N.4   1 <1>  -0.9590 
 10 C       -6.6710     2.3770    -0.1210 C.3   1 <1>   0.3430 
 11 C       -7.6190     0.4840     1.1890 C.3   1 <1>   0.3430 
 12 C       -7.8820     2.3590    -1.0770 C.3   1 <1>   0.2090 
 13 C       -8.8360     0.4000     0.2440 C.3   1 <1>   0.2090 
 14 N       -9.0670     1.6930    -0.4600 N.pl3 1 <1>  -0.8380 
 15 C      -10.1280     2.4810    -0.0120 C.ar  1 <1>   0.1000 
 16 C      -11.4140     2.3480    -0.5480 C.ar  1 <1>  -0.1430 
 17 C       -9.9080     3.4040     1.0060 C.ar  1 <1>  -0.1500 
 18 C      -12.4560     3.1220    -0.0420 C.ar  1 <1>  -0.1430 
 19 C      -11.6720     1.3550    -1.6820 C.3   1 <1>  -0.0970 
 20 C      -10.9390     4.1780     1.4950 C.ar  1 <1>  -0.1500 
 21 C      -12.2100     4.0340     0.9730 C.ar  1 <1>  -0.1500 
 22 C      -13.8820     3.0050    -0.5660 C.3   1 <1>  -0.0970 
 23 H       -1.1960     0.4210    -2.5690 H     1 <1>   0.4500 
 24 H       -3.9480    -0.3800    -0.5580 H     1 <1>   0.1500 
 25 H       -0.9650     2.4660    -1.5760 H     1 <1>   0.1500 
 26 H       -1.8090     3.9960     0.1480 H     1 <1>   0.1500 
 27 H       -3.7320     3.3720     1.5190 H     1 <1>   0.1500 
 28 H       -5.3670     1.7810     2.1930 H     1 <1>   0.0800 
 29 H       -5.0460     0.0960     1.8410 H     1 <1>   0.0800 
 30 H       -6.1550     0.3980    -0.2770 H     1 <1>   0.4500 
 31 H       -5.8050     2.7160    -0.6670 H     1 <1>   0.0800 
 32 H       -6.8680     3.0960     0.6560 H     1 <1>   0.0800 
 33 H       -7.8840     1.1250     2.0130 H     1 <1>   0.0800 
 34 H       -7.4170    -0.4970     1.5840 H     1 <1>   0.0800 
 35 H       -7.6210     1.8390    -1.9820 H     1 <1>   0.0800 
 36 H       -8.1400     3.3690    -1.3480 H     1 <1>   0.0800 
 37 H       -9.7130     0.1420     0.8140 H     1 <1>   0.0800 
 38 H       -8.6820    -0.3750    -0.4850 H     1 <1>   0.0800 
 39 H       -8.9300     3.5180     1.4230 H     1 <1>   0.1500 
 40 H      -10.7790     1.1640    -2.2480 H     1 <1>   0.0800 
 41 H      -12.4010     1.7360    -2.3720 H     1 <1>   0.0800 
 42 H      -12.0280     0.4260    -1.2750 H     1 <1>   0.0800 
 43 H      -10.7620     4.8910     2.2810 H     1 <1>   0.1500 
 44 H      -13.0080     4.6400     1.3640 H     1 <1>   0.1500 
 45 H      -14.1860     1.9750    -0.5930 H     1 <1>   0.0800 
 46 H      -13.9430     3.4180    -1.5560 H     1 <1>   0.0800 
 47 H      -14.5700     3.5370     0.0650 H     1 <1>   0.0800 
@<TRIPOS>BOND
  1   1   2  1   
  2   1  23  1   
  3   2   3  ar  
  4   2   4  ar  
  5   3   5  ar  
  6   3  24  1   
  7   4   6  ar  
  8   4  25  1   
  9   5   7  ar  
 10   5   8  1   
 11   6   7  ar  
 12   6  26  1   
 13   7  27  1   
 14   8   9  1   
 15   8  28  1   
 16   8  29  1   
 17   9  10  1   
 18   9  11  1   
 19   9  30  1   
 20  10  12  1   
 21  10  31  1   
 22  10  32  1   
 23  11  13  1   
 24  11  33  1   
 25  11  34  1   
 26  12  14  1   
 27  12  35  1   
 28  12  36  1   
 29  13  14  1   
 30  13  37  1   
 31  13  38  1   
 32  14  15  1   
 33  15  16  ar  
 34  15  17  ar  
 35  16  18  ar  
 36  16  19  1   
 37  17  20  ar  
 38  17  39  1   
 39  18  21  ar  
 40  18  22  1   
 41  19  40  1   
 42  19  41  1   
 43  19  42  1   
 44  20  21  ar  
 45  20  43  1   
 46  21  44  1   
 47  22  45  1   
 48  22  46  1   
 49  22  47  1   
@<TRIPOS>SUBSTRUCTURE
  1 ****  10 GROUP 4 **** **** 0

# MOE 2024.06 (io_trps.svl 2023.06)
