@<TRIPOS>MOLECULE
NONAME
47 48 1 0 0 
SMALL
USER_CHARGES


@<TRIPOS>ATOM
  1 O       -0.8980    -1.3750    -1.7800 O.2   1 <1>  -0.5700 
  2 C       -1.0970    -1.6480    -0.6190 C.2   1 <1>   0.5690 
  3 N       -1.8820    -0.8530     0.1500 N.am  1 <1>  -0.7300 
  4 C       -0.4700    -2.9300    -0.0160 C.3   1 <1>   0.0610 
  5 C       -2.6580     0.3280    -0.3450 C.3   1 <1>   0.2810 
  6 C       -0.6530    -3.0220     1.5150 C.3   1 <1>  -0.2400 
  7 C       -1.1350    -4.1660    -0.6480 C.3   1 <1>  -0.2400 
  8 C        1.0410    -2.9740    -0.3130 C.3   1 <1>  -0.2400 
  9 C       -2.1530     1.6450     0.2580 C.2   1 <1>   0.6590 
 10 C       -4.1480     0.1440    -0.0180 C.3   1 <1>   0.0210 
 11 O       -2.1140     1.8220     1.4520 O.2   1 <1>  -0.5700 
 12 O       -1.7780     2.5810    -0.6080 O.3   1 <1>  -0.4300 
 13 C       -4.7740    -1.0950    -0.6430 C.2   1 <1>  -0.1810 
 14 C       -1.2440     3.8250    -0.2110 C.3   1 <1>   0.1200 
 15 C       -5.9650    -1.6940    -0.1720 C.ar  1 <1>   0.0000 
 16 C       -4.3490    -1.8200    -1.7070 C.2   1 <1>  -0.3020 
 17 C        0.2570     3.6630     0.0180 C.3   1 <1>  -0.2400 
 18 C       -6.2070    -2.7910    -0.9930 C.ar  1 <1>  -0.1520 
 19 C       -6.8540    -1.4080     0.8710 C.ar  1 <1>  -0.1500 
 20 N       -5.2090    -2.8560    -1.9300 N.pl3 1 <1>   0.0330 
 21 C       -7.3200    -3.6110    -0.7910 C.ar  1 <1>  -0.1500 
 22 C       -7.9500    -2.2150     1.0700 C.ar  1 <1>  -0.1500 
 23 C       -8.1840    -3.3170     0.2390 C.ar  1 <1>  -0.1500 
 24 H       -2.0210    -1.0850     1.1340 H     1 <1>   0.3700 
 25 H       -2.5510     0.3980    -1.4130 H     1 <1>   0.0800 
 26 H       -1.6970    -3.0620     1.7730 H     1 <1>   0.0800 
 27 H       -0.2060    -2.1720     2.0000 H     1 <1>   0.0800 
 28 H       -0.1830    -3.9110     1.8980 H     1 <1>   0.0800 
 29 H       -0.7150    -5.0740    -0.2530 H     1 <1>   0.0800 
 30 H       -0.9920    -4.1570    -1.7150 H     1 <1>   0.0800 
 31 H       -2.1930    -4.1590    -0.4520 H     1 <1>   0.0800 
 32 H        1.4880    -3.8640     0.0930 H     1 <1>   0.0800 
 33 H        1.5290    -2.1160     0.1150 H     1 <1>   0.0800 
 34 H        1.2130    -2.9610    -1.3750 H     1 <1>   0.0800 
 35 H       -4.6920     1.0040    -0.3650 H     1 <1>   0.0800 
 36 H       -4.2640     0.0980     1.0500 H     1 <1>   0.0800 
 37 H       -1.7460     4.1600     0.6820 H     1 <1>   0.0800 
 38 H       -1.4290     4.5280    -1.0040 H     1 <1>   0.0800 
 39 H       -3.4800    -1.6700    -2.3250 H     1 <1>   0.1500 
 40 H        0.4410     2.9720     0.8220 H     1 <1>   0.0800 
 41 H        0.6870     4.6120     0.2840 H     1 <1>   0.0800 
 42 H        0.7350     3.3090    -0.8780 H     1 <1>   0.0800 
 43 H       -6.6680    -0.5600     1.5030 H     1 <1>   0.1500 
 44 H       -5.1320    -3.5620    -2.6680 H     1 <1>   0.2700 
 45 H       -7.4920    -4.4550    -1.4350 H     1 <1>   0.1500 
 46 H       -8.6400    -2.0050     1.8680 H     1 <1>   0.1500 
 47 H       -9.0490    -3.9330     0.4160 H     1 <1>   0.1500 
@<TRIPOS>BOND
  1   1   2  2   
  2   2   3  am  
  3   2   4  1   
  4   3   5  1   
  5   3  24  1   
  6   4   6  1   
  7   4   7  1   
  8   4   8  1   
  9   5   9  1   
 10   5  10  1   
 11   5  25  1   
 12   6  26  1   
 13   6  27  1   
 14   6  28  1   
 15   7  29  1   
 16   7  30  1   
 17   7  31  1   
 18   8  32  1   
 19   8  33  1   
 20   8  34  1   
 21   9  11  2   
 22   9  12  1   
 23  10  13  1   
 24  10  35  1   
 25  10  36  1   
 26  12  14  1   
 27  13  15  1   
 28  13  16  2   
 29  14  17  1   
 30  14  37  1   
 31  14  38  1   
 32  15  18  ar  
 33  15  19  ar  
 34  16  20  1   
 35  16  39  1   
 36  17  40  1   
 37  17  41  1   
 38  17  42  1   
 39  18  20  1   
 40  18  21  ar  
 41  19  22  ar  
 42  19  43  1   
 43  20  44  1   
 44  21  23  ar  
 45  21  45  1   
 46  22  23  ar  
 47  22  46  1   
 48  23  47  1   
@<TRIPOS>SUBSTRUCTURE
  1 ****  10 GROUP 4 **** **** 0

# MOE 2024.06 (io_trps.svl 2023.06)
