@<TRIPOS>MOLECULE
NONAME
41 42 1 0 0 
SMALL
USER_CHARGES


@<TRIPOS>ATOM
  1 S        0.6000     0.4560    -0.1340 S.3   1 <1>  -0.3320 
  2 C       -1.0930     1.0050    -0.1300 C.ar  1 <1>   0.7220 
  3 C        1.5810     2.0080     0.1750 C.3   1 <1>   0.1310 
  4 N       -1.9800     0.0510    -0.3340 N.ar  1 <1>  -0.6200 
  5 N       -1.2840     2.2950     0.0760 N.ar  1 <1>  -0.6200 
  6 C        3.0780     1.7440     0.2040 C.2   1 <1>   0.5690 
  7 C       -3.2510     0.4380    -0.3350 C.ar  1 <1>   0.1660 
  8 C       -2.5390     2.6690     0.0730 C.ar  1 <1>   0.1660 
  9 O        3.8030     2.6860     0.4190 O.2   1 <1>  -0.5700 
 10 N        3.5290     0.4720    -0.0130 N.am  1 <1>  -0.5470 
 11 C       -3.5630     1.7710    -0.1290 C.ar  1 <1>  -0.1500 
 12 C       -4.3750    -0.6100    -0.5680 C.3   1 <1>   1.1640 
 13 C       -2.8150     4.1400     0.3050 C.3   1 <1>  -0.0960 
 14 C        4.8030    -0.1240    -0.0590 C.ar  1 <1>   0.1170 
 15 F       -5.5920    -0.0720    -0.5550 F     1 <1>  -0.3400 
 16 F       -4.3930    -1.5610     0.3610 F     1 <1>  -0.3400 
 17 F       -4.2690    -1.2300    -1.7390 F     1 <1>  -0.3400 
 18 C        4.8740    -1.5000    -0.3040 C.ar  1 <1>   0.0830 
 19 C        5.9860     0.5840     0.1240 C.ar  1 <1>  -0.1500 
 20 O        3.6900    -2.1630    -0.4790 O.3   1 <1>  -0.3630 
 21 C        6.1100    -2.1350    -0.3600 C.ar  1 <1>  -0.1500 
 22 C        7.2170    -0.0480     0.0700 C.ar  1 <1>  -0.1430 
 23 C        3.6540    -3.5520    -0.7260 C.3   1 <1>   0.0400 
 24 C        7.2740    -1.4100    -0.1740 C.ar  1 <1>  -0.1500 
 25 C        8.4930     0.7480     0.2720 C.3   1 <1>  -0.0970 
 26 H        1.2590     2.4080     1.1180 H     1 <1>   0.0800 
 27 H        1.3440     2.6990    -0.6130 H     1 <1>   0.0800 
 28 H        2.7890    -0.2180    -0.1760 H     1 <1>   0.3700 
 29 H       -4.5820     2.1150    -0.1240 H     1 <1>   0.1500 
 30 H       -2.4220     4.4350     1.2610 H     1 <1>   0.0800 
 31 H       -3.8690     4.3470     0.2850 H     1 <1>   0.0800 
 32 H       -2.3330     4.7220    -0.4600 H     1 <1>   0.0800 
 33 H        5.9500     1.6400     0.3100 H     1 <1>   0.1500 
 34 H        6.1920    -3.1880    -0.5460 H     1 <1>   0.1500 
 35 H        2.6250    -3.8460    -0.8260 H     1 <1>   0.0800 
 36 H        4.1010    -4.0660     0.1060 H     1 <1>   0.0800 
 37 H        4.1840    -3.7580    -1.6390 H     1 <1>   0.0800 
 38 H        8.2260    -1.9090    -0.2200 H     1 <1>   0.1500 
 39 H        8.3060     1.6090     0.8890 H     1 <1>   0.0800 
 40 H        8.8700     1.0780    -0.6790 H     1 <1>   0.0800 
 41 H        9.2410     0.1430     0.7530 H     1 <1>   0.0800 
@<TRIPOS>BOND
  1   1   2  1   
  2   1   3  1   
  3   2   4  ar  
  4   2   5  ar  
  5   3   6  1   
  6   3  26  1   
  7   3  27  1   
  8   4   7  ar  
  9   5   8  ar  
 10   6   9  2   
 11   6  10  am  
 12   7  11  ar  
 13   7  12  1   
 14   8  11  ar  
 15   8  13  1   
 16  10  14  1   
 17  10  28  1   
 18  11  29  1   
 19  12  15  1   
 20  12  16  1   
 21  12  17  1   
 22  13  30  1   
 23  13  31  1   
 24  13  32  1   
 25  14  18  ar  
 26  14  19  ar  
 27  18  20  1   
 28  18  21  ar  
 29  19  22  ar  
 30  19  33  1   
 31  20  23  1   
 32  21  24  ar  
 33  21  34  1   
 34  22  24  ar  
 35  22  25  1   
 36  23  35  1   
 37  23  36  1   
 38  23  37  1   
 39  24  38  1   
 40  25  39  1   
 41  25  40  1   
 42  25  41  1   
@<TRIPOS>SUBSTRUCTURE
  1 ****   1 GROUP 4 **** **** 0

# MOE 2024.06 (io_trps.svl 2023.06)
