@<TRIPOS>MOLECULE
Chemistry 72
38 39 1 0 0 
SMALL
USER_CHARGES


@<TRIPOS>ATOM
  1 O        0.9890    -0.4320     1.1340 O.3   1 <1>  -0.3630 
  2 C        0.5740    -1.4960     0.3720 C.ar  1 <1>   0.0830 
  3 C        0.0870     0.2540     1.9770 C.3   1 <1>   0.0400 
  4 C        1.5160    -2.1310    -0.4590 C.ar  1 <1>   0.1000 
  5 C       -0.7390    -1.9580     0.3990 C.ar  1 <1>  -0.1500 
  6 N        2.8600    -1.7430    -0.5570 N.pl3 1 <1>  -0.8380 
  7 C        1.1070    -3.2070    -1.2330 C.ar  1 <1>  -0.1500 
  8 C       -1.1220    -3.0350    -0.3830 C.ar  1 <1>  -0.1500 
  9 C        3.6540    -1.9720     0.6850 C.3   1 <1>   0.2090 
 10 C        3.0650    -0.4060    -1.1860 C.3   1 <1>   0.2090 
 11 C       -0.1990    -3.6590    -1.2000 C.ar  1 <1>  -0.1500 
 12 C        5.1440    -1.6460     0.4620 C.3   1 <1>   0.3430 
 13 C        4.5640    -0.1050    -1.3790 C.3   1 <1>   0.3430 
 14 N        5.3560    -0.2550    -0.0980 N.4   1 <1>  -0.9590 
 15 C        6.7990     0.0730    -0.3390 C.3   1 <1>   0.3430 
 16 C        7.6050     0.2070     0.9550 C.3   1 <1>   0.0400 
 17 C        8.9860     0.5930     0.5840 C.1   1 <1>   0.3570 
 18 N       10.0230     0.8860     0.2310 N.1   1 <1>  -0.5570 
 19 H        0.6200     1.0470     2.4680 H     1 <1>   0.0800 
 20 H       -0.7080     0.6660     1.3790 H     1 <1>   0.0800 
 21 H       -0.3000    -0.4330     2.7090 H     1 <1>   0.0800 
 22 H       -1.4860    -1.5020     1.0190 H     1 <1>   0.1500 
 23 H        1.8230    -3.6940    -1.8690 H     1 <1>   0.1500 
 24 H       -2.1400    -3.3860    -0.3560 H     1 <1>   0.1500 
 25 H        3.5540    -3.0040     0.9770 H     1 <1>   0.0800 
 26 H        3.2670    -1.3680     1.4860 H     1 <1>   0.0800 
 27 H        2.6170     0.3610    -0.5770 H     1 <1>   0.0800 
 28 H        2.5720    -0.3910    -2.1430 H     1 <1>   0.0800 
 29 H       -0.4960    -4.4960    -1.8090 H     1 <1>   0.1500 
 30 H        5.5440    -2.3760    -0.2230 H     1 <1>   0.0800 
 31 H        5.6620    -1.7530     1.4000 H     1 <1>   0.0800 
 32 H        4.6700     0.8960    -1.7630 H     1 <1>   0.0800 
 33 H        4.9460    -0.7860    -2.1220 H     1 <1>   0.0800 
 34 H        4.9450     0.4110     0.5710 H     1 <1>   0.4500 
 35 H        6.8660     1.0070    -0.8760 H     1 <1>   0.0800 
 36 H        7.2450    -0.6900    -0.9580 H     1 <1>   0.0800 
 37 H        7.6460    -0.7240     1.4880 H     1 <1>   0.0800 
 38 H        7.1920     0.9730     1.5850 H     1 <1>   0.0800 
@<TRIPOS>BOND
  1   1   2  1   
  2   1   3  1   
  3   2   4  ar  
  4   2   5  ar  
  5   3  19  1   
  6   3  20  1   
  7   3  21  1   
  8   4   6  1   
  9   4   7  ar  
 10   5   8  ar  
 11   5  22  1   
 12   6   9  1   
 13   6  10  1   
 14   7  11  ar  
 15   7  23  1   
 16   8  11  ar  
 17   8  24  1   
 18   9  12  1   
 19   9  25  1   
 20   9  26  1   
 21  10  13  1   
 22  10  27  1   
 23  10  28  1   
 24  11  29  1   
 25  12  14  1   
 26  12  30  1   
 27  12  31  1   
 28  13  14  1   
 29  13  32  1   
 30  13  33  1   
 31  14  15  1   
 32  14  34  1   
 33  15  16  1   
 34  15  35  1   
 35  15  36  1   
 36  16  17  1   
 37  16  37  1   
 38  16  38  1   
 39  17  18  3   
@<TRIPOS>SUBSTRUCTURE
  1 ****   6 GROUP 4 **** **** 0

# MOE 2024.06 (io_trps.svl 2023.06)
