@<TRIPOS>MOLECULE
NONAME
39 41 1 0 0 
SMALL
USER_CHARGES


@<TRIPOS>ATOM
  1 O        0.1400    -0.2310     0.5430 O.co2 1 <1>  -0.9000 
  2 C        1.1830    -0.4760    -0.0750 C.2   1 <1>   0.9060 
  3 O        1.1730    -0.8070    -1.2610 O.co2 1 <1>  -0.9000 
  4 C        2.4920    -0.2680     0.6710 C.3   1 <1>  -0.1860 
  5 C        3.0740     1.3230     0.7220 C.3   1 <1>  -0.0190 
  6 C        3.6980    -1.2210     0.0920 C.3   1 <1>  -0.0800 
  7 C        2.1880     2.5140     0.2980 C.2   1 <1>   0.5690 
  8 C        4.5440     1.3130    -0.0170 C.3   1 <1>  -0.0800 
  9 C        4.1270     0.0430     0.0620 C.3   1 <1>  -0.1600 
 10 C        5.1800    -1.2120    -0.5980 C.3   1 <1>  -0.1600 
 11 O        2.7460     3.5560     0.0350 O.2   1 <1>  -0.5700 
 12 N        0.8250     2.4100     0.3050 N.am  1 <1>  -0.5470 
 13 C        5.7540     0.3560    -0.5510 C.3   1 <1>  -0.1600 
 14 C       -0.1960     3.3100    -0.0230 C.ar  1 <1>   0.1170 
 15 C       -0.0390     4.6920    -0.0120 C.ar  1 <1>  -0.1500 
 16 C       -1.4350     2.7820    -0.3630 C.ar  1 <1>  -0.1500 
 17 C       -1.0990     5.5310    -0.3430 C.ar  1 <1>   0.0820 
 18 C       -2.4960     3.6080    -0.6890 C.ar  1 <1>  -0.1500 
 19 O       -1.0100     6.8860    -0.3610 O.3   1 <1>  -0.3630 
 20 C       -2.3260     4.9810    -0.6780 C.ar  1 <1>  -0.1500 
 21 C        0.2270     7.5270    -0.1410 C.3   1 <1>   0.0400 
 22 H        2.2740    -0.5670     1.6820 H     1 <1>   0.0800 
 23 H        3.2540     1.5360     1.7650 H     1 <1>   0.0800 
 24 H        3.8720    -1.8650     0.9430 H     1 <1>   0.0800 
 25 H        4.3560     1.9050    -0.9050 H     1 <1>   0.0800 
 26 H        3.6530     0.1580    -1.0100 H     1 <1>   0.0800 
 27 H        4.5860    -0.0810     1.1350 H     1 <1>   0.0800 
 28 H        5.1010    -1.5480    -1.6210 H     1 <1>   0.0800 
 29 H        5.8530    -1.8800    -0.0850 H     1 <1>   0.0800 
 30 H        0.4700     1.4460     0.4550 H     1 <1>   0.3700 
 31 H        6.6010     0.4230     0.1150 H     1 <1>   0.0800 
 32 H        6.0840     0.6640    -1.5300 H     1 <1>   0.0800 
 33 H        0.9140     5.0920     0.2620 H     1 <1>   0.1500 
 34 H       -1.5570     1.7100    -0.3730 H     1 <1>   0.1500 
 35 H       -3.4460     3.1790    -0.9500 H     1 <1>   0.1500 
 36 H       -3.1420     5.6340    -0.9310 H     1 <1>   0.1500 
 37 H        0.0800     8.5860    -0.2490 H     1 <1>   0.0800 
 38 H        0.9350     7.1780    -0.8730 H     1 <1>   0.0800 
 39 H        0.5640     7.3030     0.8550 H     1 <1>   0.0800 
@<TRIPOS>BOND
  1   1   2  ar  
  2   2   3  ar  
  3   2   4  1   
  4   4   5  1   
  5   4   6  1   
  6   4  22  1   
  7   5   7  1   
  8   5   8  1   
  9   5  23  1   
 10   6   9  1   
 11   6  10  1   
 12   6  24  1   
 13   7  11  2   
 14   7  12  am  
 15   8   9  1   
 16   8  13  1   
 17   8  25  1   
 18   9  26  1   
 19   9  27  1   
 20  10  13  1   
 21  10  28  1   
 22  10  29  1   
 23  12  14  1   
 24  12  30  1   
 25  13  31  1   
 26  13  32  1   
 27  14  15  ar  
 28  14  16  ar  
 29  15  17  ar  
 30  15  33  1   
 31  16  18  ar  
 32  16  34  1   
 33  17  19  1   
 34  17  20  ar  
 35  18  20  ar  
 36  18  35  1   
 37  19  21  1   
 38  20  36  1   
 39  21  37  1   
 40  21  38  1   
 41  21  39  1   
@<TRIPOS>SUBSTRUCTURE
  1 ****  12 GROUP 4 **** **** 0

# MOE 2024.06 (io_trps.svl 2023.06)
