@<TRIPOS>MOLECULE
NONAME
39 41 1 0 0 
SMALL
USER_CHARGES


@<TRIPOS>ATOM
  1 S       -0.5670    -0.4730     0.2870 S.3   1 <1>  -0.0800 
  2 C        0.8800     0.5240     0.0830 C.2   1 <1>   0.1040 
  3 C       -1.5780     0.9470     0.2120 C.2   1 <1>  -0.1400 
  4 N        2.1380    -0.0630     0.0610 N.am  1 <1>  -0.4940 
  5 C        0.5550     1.8540    -0.0350 C.2   1 <1>  -0.0860 
  6 C       -0.8710     2.0510     0.0470 C.2   1 <1>  -0.1810 
  7 C       -3.0630     1.0900     0.3030 C.3   1 <1>   0.0200 
  8 C        2.5700    -1.3630     0.1460 C.2   1 <1>   0.5690 
  9 C        1.5090     2.9110    -0.2200 C.2   1 <1>   0.8060 
 10 C       -1.7890     3.2470    -0.0110 C.3   1 <1>   0.0210 
 11 C       -3.2070     2.6260     0.1500 C.3   1 <1>  -0.1600 
 12 O        1.8410    -2.3130     0.2800 O.2   1 <1>  -0.5700 
 13 C        4.0600    -1.6480     0.0440 C.3   1 <1>   0.1310 
 14 O        2.7060     2.7100    -0.3310 O.2   1 <1>  -0.5700 
 15 O        1.0690     4.1750    -0.2740 O.3   1 <1>  -0.4300 
 16 S        5.0830    -0.1410     0.4140 S.3   1 <1>  -0.3310 
 17 C        1.9550     5.2640    -0.4480 C.3   1 <1>   0.0400 
 18 C        6.8060    -0.6210     0.2540 C.ar  1 <1>   0.4120 
 19 N        7.6530     0.3670     0.4830 N.ar  1 <1>  -0.6200 
 20 C        7.1620    -1.9210    -0.0820 C.ar  1 <1>  -0.1500 
 21 C        8.9310     0.0440     0.3720 C.ar  1 <1>   0.1600 
 22 C        8.5000    -2.2350    -0.1940 C.ar  1 <1>  -0.1500 
 23 C        9.4000    -1.2170     0.0420 C.ar  1 <1>  -0.1500 
 24 H        2.9070     0.6180    -0.0220 H     1 <1>   0.3700 
 25 H       -3.4200     0.7460     1.2570 H     1 <1>   0.0800 
 26 H       -3.5460     0.5600    -0.4980 H     1 <1>   0.0800 
 27 H       -1.6910     3.7520    -0.9560 H     1 <1>   0.0800 
 28 H       -1.5700     3.9280     0.7920 H     1 <1>   0.0800 
 29 H       -3.6910     3.0360     1.0190 H     1 <1>   0.0800 
 30 H       -3.8060     2.8520    -0.7150 H     1 <1>   0.0800 
 31 H        4.3020    -1.9670    -0.9520 H     1 <1>   0.0800 
 32 H        4.3340    -2.4030     0.7570 H     1 <1>   0.0800 
 33 H        2.6570     5.2770     0.3680 H     1 <1>   0.0800 
 34 H        1.3810     6.1740    -0.4560 H     1 <1>   0.0800 
 35 H        2.4750     5.1460    -1.3830 H     1 <1>   0.0800 
 36 H        6.4290    -2.6810    -0.2560 H     1 <1>   0.1500 
 37 H        9.6460     0.8290     0.5530 H     1 <1>   0.1500 
 38 H        8.8280    -3.2280    -0.4520 H     1 <1>   0.1500 
 39 H       10.4580    -1.3960    -0.0290 H     1 <1>   0.1500 
@<TRIPOS>BOND
  1   1   2  1   
  2   1   3  1   
  3   2   4  1   
  4   2   5  2   
  5   3   6  2   
  6   3   7  1   
  7   4   8  am  
  8   4  24  1   
  9   5   6  1   
 10   5   9  1   
 11   6  10  1   
 12   7  11  1   
 13   7  25  1   
 14   7  26  1   
 15   8  12  2   
 16   8  13  1   
 17   9  14  2   
 18   9  15  1   
 19  10  11  1   
 20  10  27  1   
 21  10  28  1   
 22  11  29  1   
 23  11  30  1   
 24  13  16  1   
 25  13  31  1   
 26  13  32  1   
 27  15  17  1   
 28  16  18  1   
 29  17  33  1   
 30  17  34  1   
 31  17  35  1   
 32  18  19  ar  
 33  18  20  ar  
 34  19  21  ar  
 35  20  22  ar  
 36  20  36  1   
 37  21  23  ar  
 38  21  37  1   
 39  22  23  ar  
 40  22  38  1   
 41  23  39  1   
@<TRIPOS>SUBSTRUCTURE
  1 ****   4 GROUP 4 **** **** 0

# MOE 2024.06 (io_trps.svl 2023.06)
