@<TRIPOS>MOLECULE
NONAME
46 47 1 0 0 
SMALL
USER_CHARGES


@<TRIPOS>ATOM
  1 O       -1.4860    -5.0480    -0.6650 O.2   1 <1>  -0.5700 
  2 C       -1.1380    -4.0680    -0.0570 C.2   1 <1>   0.5690 
  3 N       -1.9840    -3.0820     0.3650 N.am  1 <1>  -0.5470 
  4 C        0.3370    -3.9180     0.2450 C.3   1 <1>  -0.0990 
  5 C       -3.3800    -2.9630     0.2440 C.ar  1 <1>   0.1170 
  6 C        1.0240    -5.2770     0.0860 C.3   1 <1>   0.3430 
  7 C       -4.2250    -4.0510     0.0460 C.ar  1 <1>  -0.1500 
  8 C       -3.9490    -1.6980     0.3450 C.ar  1 <1>  -0.1500 
  9 N        2.4850    -5.2000     0.3760 N.4   1 <1>  -0.9590 
 10 C       -5.5940    -3.8840    -0.0560 C.ar  1 <1>  -0.1500 
 11 C       -5.3170    -1.5250     0.2450 C.ar  1 <1>  -0.1500 
 12 C        3.2850    -4.4600    -0.6570 C.3   1 <1>   0.3430 
 13 C        3.0840    -6.5700     0.5650 C.3   1 <1>   0.3430 
 14 C       -6.1500    -2.6120     0.0430 C.ar  1 <1>   0.0830 
 15 C        4.7580    -4.2920    -0.1980 C.3   1 <1>   0.2000 
 16 C        4.6360    -6.5440     0.6320 C.3   1 <1>   0.2000 
 17 O       -7.4820    -2.3560    -0.0450 O.3   1 <1>  -0.3630 
 18 O        5.1010    -5.2300     0.7910 O.3   1 <1>  -0.5600 
 19 C        5.0020    -2.9180     0.4240 C.3   1 <1>  -0.2400 
 20 C        5.3110    -7.1850    -0.5870 C.3   1 <1>  -0.2400 
 21 C       -8.4050    -3.3960    -0.2810 C.3   1 <1>   0.0400 
 22 H       -1.5500    -2.2700     0.8000 H     1 <1>   0.3700 
 23 H        0.4540    -3.5650     1.2530 H     1 <1>   0.0800 
 24 H        0.7430    -3.2030    -0.4440 H     1 <1>   0.0800 
 25 H        0.8660    -5.6420    -0.9180 H     1 <1>   0.0800 
 26 H        0.5550    -5.9750     0.7610 H     1 <1>   0.0800 
 27 H       -3.8220    -5.0440    -0.0280 H     1 <1>   0.1500 
 28 H       -3.3260    -0.8370     0.4980 H     1 <1>   0.1500 
 29 H        2.6530    -4.7090     1.2660 H     1 <1>   0.4500 
 30 H       -6.2070    -4.7510    -0.2120 H     1 <1>   0.1500 
 31 H       -5.7520    -0.5440     0.3220 H     1 <1>   0.1500 
 32 H        2.8640    -3.4870    -0.8440 H     1 <1>   0.0800 
 33 H        3.2700    -5.0050    -1.5860 H     1 <1>   0.0800 
 34 H        2.7880    -7.2170    -0.2440 H     1 <1>   0.0800 
 35 H        2.7080    -7.0060     1.4760 H     1 <1>   0.0800 
 36 H        5.4230    -4.4220    -1.0350 H     1 <1>   0.0800 
 37 H        4.9490    -7.0880     1.5080 H     1 <1>   0.0800 
 38 H        4.3770    -2.7690     1.2860 H     1 <1>   0.0800 
 39 H        4.8000    -2.1410    -0.2910 H     1 <1>   0.0800 
 40 H        6.0330    -2.8340     0.7220 H     1 <1>   0.0800 
 41 H        4.9860    -6.7420    -1.5100 H     1 <1>   0.0800 
 42 H        5.0780    -8.2350    -0.6220 H     1 <1>   0.0800 
 43 H        6.3800    -7.0890    -0.5030 H     1 <1>   0.0800 
 44 H       -9.3890    -2.9650    -0.3250 H     1 <1>   0.0800 
 45 H       -8.3500    -4.1010     0.5290 H     1 <1>   0.0800 
 46 H       -8.1690    -3.8650    -1.2200 H     1 <1>   0.0800 
@<TRIPOS>BOND
  1   1   2  2   
  2   2   3  am  
  3   2   4  1   
  4   3   5  1   
  5   3  22  1   
  6   4   6  1   
  7   4  23  1   
  8   4  24  1   
  9   5   7  ar  
 10   5   8  ar  
 11   6   9  1   
 12   6  25  1   
 13   6  26  1   
 14   7  10  ar  
 15   7  27  1   
 16   8  11  ar  
 17   8  28  1   
 18   9  12  1   
 19   9  13  1   
 20   9  29  1   
 21  10  14  ar  
 22  10  30  1   
 23  11  14  ar  
 24  11  31  1   
 25  12  15  1   
 26  12  32  1   
 27  12  33  1   
 28  13  16  1   
 29  13  34  1   
 30  13  35  1   
 31  14  17  1   
 32  15  18  1   
 33  15  19  1   
 34  15  36  1   
 35  16  18  1   
 36  16  20  1   
 37  16  37  1   
 38  17  21  1   
 39  19  38  1   
 40  19  39  1   
 41  19  40  1   
 42  20  41  1   
 43  20  42  1   
 44  20  43  1   
 45  21  44  1   
 46  21  45  1   
 47  21  46  1   
@<TRIPOS>SUBSTRUCTURE
  1 ****   2 GROUP 4 **** **** 0

# MOE 2024.06 (io_trps.svl 2023.06)
