@<TRIPOS>MOLECULE
NONAME
47 49 1 0 0 
SMALL
USER_CHARGES


@<TRIPOS>ATOM
  1 O       -0.8260    -0.2550    -0.1550 O.2   1 <1>  -0.5700 
  2 C       -1.4650    -1.2540     0.0590 C.2   1 <1>   0.5690 
  3 N       -1.0000    -2.5220     0.0570 N.am  1 <1>  -0.6600 
  4 C       -2.9340    -1.2230     0.3730 C.3   1 <1>  -0.0990 
  5 C        0.3920    -2.9080    -0.2740 C.3   1 <1>   0.2200 
  6 C       -2.0620    -3.5030     0.3600 C.3   1 <1>   0.1400 
  7 C       -3.2060    -2.6390     0.9170 C.3   1 <1>  -0.0190 
  8 C        0.4190    -3.8850    -1.4570 C.3   1 <1>  -0.1600 
  9 C        1.0870    -3.5030     0.9570 C.3   1 <1>  -0.1600 
 10 C       -4.5930    -3.1860     0.6030 C.2   1 <1>   0.5690 
 11 C        1.8580    -4.3020    -1.7920 C.3   1 <1>  -0.1600 
 12 C        2.5280    -3.9220     0.6260 C.3   1 <1>  -0.1600 
 13 O       -4.6960    -4.3330     0.2430 O.2   1 <1>  -0.5700 
 14 N       -5.6640    -2.3520     0.7810 N.am  1 <1>  -0.5470 
 15 C        2.5640    -4.8930    -0.5630 C.3   1 <1>  -0.1600 
 16 C       -7.0380    -2.5610     0.5750 C.ar  1 <1>   0.1170 
 17 C       -7.9430    -1.7420     1.2420 C.ar  1 <1>  -0.1500 
 18 C       -7.5400    -3.5380    -0.2800 C.ar  1 <1>  -0.1500 
 19 C       -9.3060    -1.8980     1.0650 C.ar  1 <1>  -0.1500 
 20 C       -8.9030    -3.7000    -0.4600 C.ar  1 <1>  -0.1500 
 21 C       -9.7970    -2.8760     0.2160 C.ar  1 <1>   0.0820 
 22 O      -11.1480    -2.9630     0.1000 O.3   1 <1>  -0.3630 
 23 C      -11.7420    -3.9500    -0.7140 C.3   1 <1>   0.0400 
 24 H       -3.4680    -1.0390    -0.5420 H     1 <1>   0.0800 
 25 H       -3.1510    -0.4580     1.0950 H     1 <1>   0.0800 
 26 H        0.9310    -2.0190    -0.5630 H     1 <1>   0.0800 
 27 H       -1.7370    -4.2320     1.0830 H     1 <1>   0.0800 
 28 H       -2.3530    -3.9990    -0.5510 H     1 <1>   0.0800 
 29 H       -3.0970    -2.6220     1.9860 H     1 <1>   0.0800 
 30 H       -0.0250    -3.4140    -2.3160 H     1 <1>   0.0800 
 31 H       -0.1470    -4.7670    -1.2170 H     1 <1>   0.0800 
 32 H        0.5470    -4.3670     1.3010 H     1 <1>   0.0800 
 33 H        1.1020    -2.7700     1.7440 H     1 <1>   0.0800 
 34 H        2.4070    -3.4420    -2.1380 H     1 <1>   0.0800 
 35 H        1.8480    -5.0280    -2.5870 H     1 <1>   0.0800 
 36 H        2.9750    -4.3880     1.4870 H     1 <1>   0.0800 
 37 H        3.1060    -3.0460     0.3870 H     1 <1>   0.0800 
 38 H       -5.4400    -1.4370     1.1640 H     1 <1>   0.3700 
 39 H        3.5870    -5.1210    -0.8100 H     1 <1>   0.0800 
 40 H        2.0810    -5.8150    -0.2840 H     1 <1>   0.0800 
 41 H       -7.5860    -0.9790     1.9080 H     1 <1>   0.1500 
 42 H       -6.8670    -4.1810    -0.8160 H     1 <1>   0.1500 
 43 H      -10.0020    -1.2640     1.5850 H     1 <1>   0.1500 
 44 H       -9.2440    -4.4680    -1.1260 H     1 <1>   0.1500 
 45 H      -12.8090    -3.8420    -0.6450 H     1 <1>   0.0800 
 46 H      -11.4480    -4.9210    -0.3560 H     1 <1>   0.0800 
 47 H      -11.4250    -3.8000    -1.7310 H     1 <1>   0.0800 
@<TRIPOS>BOND
  1   1   2  2   
  2   2   3  am  
  3   2   4  1   
  4   3   5  1   
  5   3   6  1   
  6   4   7  1   
  7   4  24  1   
  8   4  25  1   
  9   5   8  1   
 10   5   9  1   
 11   5  26  1   
 12   6   7  1   
 13   6  27  1   
 14   6  28  1   
 15   7  10  1   
 16   7  29  1   
 17   8  11  1   
 18   8  30  1   
 19   8  31  1   
 20   9  12  1   
 21   9  32  1   
 22   9  33  1   
 23  10  13  2   
 24  10  14  am  
 25  11  15  1   
 26  11  34  1   
 27  11  35  1   
 28  12  15  1   
 29  12  36  1   
 30  12  37  1   
 31  14  16  1   
 32  14  38  1   
 33  15  39  1   
 34  15  40  1   
 35  16  17  ar  
 36  16  18  ar  
 37  17  19  ar  
 38  17  41  1   
 39  18  20  ar  
 40  18  42  1   
 41  19  21  ar  
 42  19  43  1   
 43  20  21  ar  
 44  20  44  1   
 45  21  22  1   
 46  22  23  1   
 47  23  45  1   
 48  23  46  1   
 49  23  47  1   
@<TRIPOS>SUBSTRUCTURE
  1 ****  10 GROUP 4 **** **** 0

# MOE 2024.06 (io_trps.svl 2023.06)
