@<TRIPOS>MOLECULE
NONAME
35 36 1 0 0 
SMALL
USER_CHARGES


@<TRIPOS>ATOM
  1 CL      -0.2450    -3.1110    -0.1530 Cl    1 <1>  -0.1770 
  2 C       -1.7280    -2.2040    -0.3760 C.ar  1 <1>   0.1770 
  3 C       -1.8500    -0.9070     0.1140 C.ar  1 <1>   0.0820 
  4 C       -2.7710    -2.8150    -1.0450 C.ar  1 <1>  -0.1500 
  5 O       -0.8260    -0.3090     0.7670 O.3   1 <1>  -0.3630 
  6 C       -3.0500    -0.2210    -0.0540 C.ar  1 <1>  -0.1440 
  7 C       -3.9580    -2.1250    -1.2240 C.ar  1 <1>  -0.1500 
  8 C        0.2020     0.2210    -0.0360 C.3   1 <1>   0.1200 
  9 C       -4.0940    -0.8380    -0.7280 C.ar  1 <1>  -0.1500 
 10 C       -3.2280     1.1880     0.4940 C.3   1 <1>  -0.0960 
 11 C        1.2870     0.7690     0.8900 C.3   1 <1>  -0.1600 
 12 C        2.4540     1.3640     0.0900 C.3   1 <1>  -0.1600 
 13 C        3.5480     1.8970     1.0240 C.3   1 <1>   0.0960 
 14 N        4.6600     2.4690     0.2410 N.pl3 1 <1>   0.0480 
 15 C        5.7920     1.8520    -0.1650 C.2   1 <1>   0.0360 
 16 C        4.7680     3.7240    -0.2320 C.2   1 <1>  -0.3020 
 17 N        6.5910     2.6100    -0.8450 N.2   1 <1>  -0.5650 
 18 C        5.9460     3.7910    -0.8880 C.2   1 <1>   0.0770 
 19 H       -2.6540    -3.8160    -1.4180 H     1 <1>   0.1500 
 20 H       -4.7780    -2.5900    -1.7450 H     1 <1>   0.1500 
 21 H       -0.2180     1.0000    -0.6480 H     1 <1>   0.0800 
 22 H        0.5920    -0.5610    -0.6630 H     1 <1>   0.0800 
 23 H       -5.0260    -0.3180    -0.8710 H     1 <1>   0.1500 
 24 H       -2.6180     1.8760    -0.0620 H     1 <1>   0.0800 
 25 H       -2.9310     1.2190     1.5270 H     1 <1>   0.0800 
 26 H       -4.2530     1.5030     0.4260 H     1 <1>   0.0800 
 27 H        1.6470    -0.0340     1.5110 H     1 <1>   0.0800 
 28 H        0.8560     1.5280     1.5210 H     1 <1>   0.0800 
 29 H        2.0920     2.1680    -0.5270 H     1 <1>   0.0800 
 30 H        2.8730     0.6040    -0.5480 H     1 <1>   0.0800 
 31 H        3.9320     1.1020     1.6390 H     1 <1>   0.0800 
 32 H        3.1500     2.6640     1.6650 H     1 <1>   0.0800 
 33 H        5.9940     0.8210     0.0650 H     1 <1>   0.1500 
 34 H        4.0220     4.4830    -0.0810 H     1 <1>   0.1500 
 35 H        6.3720     4.6400    -1.3970 H     1 <1>   0.1500 
@<TRIPOS>BOND
  1   1   2  1   
  2   2   3  ar  
  3   2   4  ar  
  4   3   5  1   
  5   3   6  ar  
  6   4   7  ar  
  7   4  19  1   
  8   5   8  1   
  9   6   9  ar  
 10   6  10  1   
 11   7   9  ar  
 12   7  20  1   
 13   8  11  1   
 14   8  21  1   
 15   8  22  1   
 16   9  23  1   
 17  10  24  1   
 18  10  25  1   
 19  10  26  1   
 20  11  12  1   
 21  11  27  1   
 22  11  28  1   
 23  12  13  1   
 24  12  29  1   
 25  12  30  1   
 26  13  14  1   
 27  13  31  1   
 28  13  32  1   
 29  14  15  1   
 30  14  16  1   
 31  15  17  2   
 32  15  33  1   
 33  16  18  2   
 34  16  34  1   
 35  17  18  1   
 36  18  35  1   
@<TRIPOS>SUBSTRUCTURE
  1 ****   8 GROUP 4 **** **** 0

# MOE 2024.06 (io_trps.svl 2023.06)
