@<TRIPOS>MOLECULE
NONAME
42 43 1 0 0 
SMALL
USER_CHARGES


@<TRIPOS>ATOM
  1 O       -0.8230    -0.2210     0.0310 O.2   1 <1>  -0.5700 
  2 C       -1.7340    -1.0110    -0.1290 C.2   1 <1>   0.7060 
  3 O       -2.9680    -0.5070    -0.1030 O.3   1 <1>  -0.2330 
  4 C       -1.5720    -2.4250    -0.3540 C.2   1 <1>  -0.1240 
  5 C       -4.0740    -1.2510    -0.3020 C.ar  1 <1>   0.0820 
  6 C       -2.6600    -3.2240    -0.5420 C.2   1 <1>  -0.1670 
  7 C       -0.1370    -2.9640    -0.3710 C.3   1 <1>  -0.0220 
  8 C       -3.9720    -2.6300    -0.5330 C.ar  1 <1>   0.0280 
  9 C       -5.3020    -0.6110    -0.2750 C.ar  1 <1>  -0.1500 
 10 C       -2.5740    -4.7400    -0.7530 C.3   1 <1>  -0.1020 
 11 C        0.2320    -3.6060     0.9740 C.3   1 <1>  -0.2660 
 12 C       -5.1680    -3.3280    -0.7400 C.ar  1 <1>  -0.1500 
 13 C       -6.4680    -1.3200    -0.4790 C.ar  1 <1>   0.0820 
 14 C        1.3650    -4.5850     0.8070 C.2   1 <1>   0.9060 
 15 C       -6.3930    -2.6930    -0.7150 C.ar  1 <1>  -0.1500 
 16 O       -7.6270    -0.6240    -0.4380 O.3   1 <1>  -0.3630 
 17 O        1.1160    -5.6630     0.2590 O.co2 1 <1>  -0.9000 
 18 O        2.4890    -4.2750     1.2070 O.co2 1 <1>  -0.9000 
 19 C       -8.8770    -1.2490    -0.6160 C.3   1 <1>   0.2580 
 20 C       -9.9540    -0.1820    -0.5230 C.2   1 <1>  -0.2880 
 21 C      -11.0380    -0.1480     0.2640 C.2   1 <1>  -0.2760 
 22 C      -12.0120     1.0180     0.2230 C.3   1 <1>  -0.1020 
 23 C      -11.4490    -1.2080     1.2760 C.3   1 <1>  -0.1020 
 24 H       -0.0360    -3.6890    -1.1590 H     1 <1>   0.0800 
 25 H        0.5760    -2.1900    -0.5960 H     1 <1>   0.0800 
 26 H       -5.3500     0.4480    -0.0940 H     1 <1>   0.1500 
 27 H       -2.9350    -4.9950    -1.7330 H     1 <1>   0.0800 
 28 H       -3.1690    -5.2460    -0.0160 H     1 <1>   0.0800 
 29 H       -1.5770    -5.1300    -0.6610 H     1 <1>   0.0800 
 30 H       -0.5980    -4.1530     1.3760 H     1 <1>   0.0800 
 31 H        0.5200    -2.8520     1.6810 H     1 <1>   0.0800 
 32 H       -5.1460    -4.3860    -0.9260 H     1 <1>   0.1500 
 33 H       -7.2790    -3.2760    -0.8800 H     1 <1>   0.1500 
 34 H       -8.8910    -1.7020    -1.5920 H     1 <1>   0.0800 
 35 H       -8.9860    -2.0010     0.1410 H     1 <1>   0.0800 
 36 H       -9.7400     0.6160    -1.2130 H     1 <1>   0.1500 
 37 H      -12.9930     0.6740    -0.0520 H     1 <1>   0.0800 
 38 H      -11.6980     1.7550    -0.4950 H     1 <1>   0.0800 
 39 H      -12.0660     1.4900     1.1880 H     1 <1>   0.0800 
 40 H      -11.4790    -0.7800     2.2620 H     1 <1>   0.0800 
 41 H      -10.7700    -2.0380     1.2950 H     1 <1>   0.0800 
 42 H      -12.4280    -1.5840     1.0360 H     1 <1>   0.0800 
@<TRIPOS>BOND
  1   1   2  2   
  2   2   3  1   
  3   2   4  1   
  4   3   5  1   
  5   4   6  2   
  6   4   7  1   
  7   5   8  ar  
  8   5   9  ar  
  9   6   8  1   
 10   6  10  1   
 11   7  11  1   
 12   7  24  1   
 13   7  25  1   
 14   8  12  ar  
 15   9  13  ar  
 16   9  26  1   
 17  10  27  1   
 18  10  28  1   
 19  10  29  1   
 20  11  14  1   
 21  11  30  1   
 22  11  31  1   
 23  12  15  ar  
 24  12  32  1   
 25  13  15  ar  
 26  13  16  1   
 27  14  17  ar  
 28  14  18  ar  
 29  15  33  1   
 30  16  19  1   
 31  19  20  1   
 32  19  34  1   
 33  19  35  1   
 34  20  21  2   
 35  20  36  1   
 36  21  22  1   
 37  21  23  1   
 38  22  37  1   
 39  22  38  1   
 40  22  39  1   
 41  23  40  1   
 42  23  41  1   
 43  23  42  1   
@<TRIPOS>SUBSTRUCTURE
  1 ****   8 GROUP 4 **** **** 0

# MOE 2024.06 (io_trps.svl 2023.06)
