@<TRIPOS>MOLECULE
NONAME
29 30 1 0 0 
SMALL
USER_CHARGES


@<TRIPOS>ATOM
  1 CL      -0.1540    -0.2780     1.4660 Cl    1 <1>  -0.1770 
  2 C       -1.5990    -0.9290     0.7390 C.ar  1 <1>   0.1770 
  3 C       -2.0970    -0.3530    -0.4140 C.ar  1 <1>  -0.1500 
  4 C       -2.2250    -2.0120     1.3260 C.ar  1 <1>  -0.1500 
  5 C       -3.2470    -0.8690    -0.9880 C.ar  1 <1>  -0.1500 
  6 C       -3.3750    -2.5260     0.7500 C.ar  1 <1>  -0.1500 
  7 C       -3.8940    -1.9530    -0.4060 C.ar  1 <1>  -0.1430 
  8 C       -5.1630    -2.5050    -1.0290 C.3   1 <1>   0.4870 
  9 N       -6.3250    -2.0720    -0.2060 N.4   1 <1>  -0.9590 
 10 C       -7.6010    -2.7360    -0.6460 C.3   1 <1>   0.3430 
 11 C       -6.4780    -0.5730    -0.1970 C.3   1 <1>   0.3430 
 12 C       -8.8150    -2.1970     0.1350 C.3   1 <1>   0.1200 
 13 C       -7.7470    -0.1390     0.5600 C.3   1 <1>   0.1200 
 14 O       -8.8660    -0.8030     0.0480 O.3   1 <1>  -0.5600 
 15 H       -1.5820     0.4850    -0.8520 H     1 <1>   0.1500 
 16 H       -1.8080    -2.4430     2.2200 H     1 <1>   0.1500 
 17 H       -3.6210    -0.4160    -1.8920 H     1 <1>   0.1500 
 18 H       -3.8470    -3.3760     1.2130 H     1 <1>   0.1500 
 19 H       -5.1050    -3.5820    -1.0550 H     1 <1>   0.0800 
 20 H       -5.2650    -2.1450    -2.0390 H     1 <1>   0.0800 
 21 H       -6.1270    -2.3540     0.7610 H     1 <1>   0.4500 
 22 H       -7.5330    -3.8020    -0.5050 H     1 <1>   0.0800 
 23 H       -7.7670    -2.5490    -1.6940 H     1 <1>   0.0800 
 24 H       -6.5460    -0.2070    -1.2080 H     1 <1>   0.0800 
 25 H       -5.6160    -0.1160     0.2630 H     1 <1>   0.0800 
 26 H       -8.7720    -2.4790     1.1730 H     1 <1>   0.0800 
 27 H       -9.7280    -2.5830    -0.2860 H     1 <1>   0.0800 
 28 H       -7.9090     0.9180     0.4360 H     1 <1>   0.0800 
 29 H       -7.6670    -0.3510     1.6120 H     1 <1>   0.0800 
@<TRIPOS>BOND
  1   1   2  1   
  2   2   3  ar  
  3   2   4  ar  
  4   3   5  ar  
  5   3  15  1   
  6   4   6  ar  
  7   4  16  1   
  8   5   7  ar  
  9   5  17  1   
 10   6   7  ar  
 11   6  18  1   
 12   7   8  1   
 13   8   9  1   
 14   8  19  1   
 15   8  20  1   
 16   9  10  1   
 17   9  11  1   
 18   9  21  1   
 19  10  12  1   
 20  10  22  1   
 21  10  23  1   
 22  11  13  1   
 23  11  24  1   
 24  11  25  1   
 25  12  14  1   
 26  12  26  1   
 27  12  27  1   
 28  13  14  1   
 29  13  28  1   
 30  13  29  1   
@<TRIPOS>SUBSTRUCTURE
  1 ****   7 GROUP 4 **** **** 0

# MOE 2024.06 (io_trps.svl 2023.06)
