@<TRIPOS>MOLECULE
NONAME
34 35 1 0 0 
SMALL
USER_CHARGES


@<TRIPOS>ATOM
  1 S        0.2980    -2.1330     0.8600 S.3   1 <1>  -0.2860 
  2 C       -1.4660    -1.8790     1.0120 C.2   1 <1>   0.5340 
  3 C        0.7550    -1.1250    -0.6340 C.3   1 <1>   0.1310 
  4 O       -2.0690    -1.1240     0.1570 O.3   1 <1>  -0.2800 
  5 N       -2.2290    -2.3770     1.9040 N.2   1 <1>  -0.3380 
  6 C        2.2390    -1.2140    -0.9550 C.2   1 <1>   0.5690 
  7 C       -3.2970    -1.1710     0.5680 C.2   1 <1>   0.2980 
  8 N       -3.4450    -1.9050     1.6070 N.2   1 <1>  -0.3380 
  9 O        2.6100    -0.6930    -1.9760 O.2   1 <1>  -0.5700 
 10 N        3.0690    -1.8720    -0.0850 N.am  1 <1>  -0.5470 
 11 C       -4.3680    -0.4040    -0.1720 C.3   1 <1>  -0.0600 
 12 C        4.4520    -2.1120    -0.0940 C.ar  1 <1>   0.1170 
 13 C        4.9650    -3.0400     0.8040 C.ar  1 <1>  -0.1500 
 14 C        5.3410    -1.4650    -0.9440 C.ar  1 <1>  -0.1500 
 15 C        6.3190    -3.3270     0.8630 C.ar  1 <1>  -0.1430 
 16 C        6.6940    -1.7440    -0.8960 C.ar  1 <1>  -0.1500 
 17 C        7.1950    -2.6720     0.0030 C.ar  1 <1>  -0.1430 
 18 C        6.8170    -4.3550     1.8690 C.3   1 <1>  -0.0970 
 19 C        8.6910    -2.9490     0.0240 C.3   1 <1>  -0.0970 
 20 H        0.4830    -0.1070    -0.4290 H     1 <1>   0.0800 
 21 H        0.1780    -1.4980    -1.4600 H     1 <1>   0.0800 
 22 H        2.5820    -2.2960     0.7060 H     1 <1>   0.3700 
 23 H       -4.1360     0.6450    -0.1640 H     1 <1>   0.0800 
 24 H       -5.3200    -0.5560     0.3030 H     1 <1>   0.0800 
 25 H       -4.4240    -0.7470    -1.1890 H     1 <1>   0.0800 
 26 H        4.2890    -3.5460     1.4670 H     1 <1>   0.1500 
 27 H        4.9870    -0.7370    -1.6500 H     1 <1>   0.1500 
 28 H        7.3560    -1.2280    -1.5680 H     1 <1>   0.1500 
 29 H        6.0050    -4.7560     2.4480 H     1 <1>   0.0800 
 30 H        7.5190    -3.8990     2.5440 H     1 <1>   0.0800 
 31 H        7.2990    -5.1670     1.3560 H     1 <1>   0.0800 
 32 H        9.0950    -2.7160     0.9920 H     1 <1>   0.0800 
 33 H        9.2040    -2.3530    -0.7090 H     1 <1>   0.0800 
 34 H        8.8760    -3.9850    -0.1950 H     1 <1>   0.0800 
@<TRIPOS>BOND
  1   1   2  1   
  2   1   3  1   
  3   2   4  1   
  4   2   5  2   
  5   3   6  1   
  6   3  20  1   
  7   3  21  1   
  8   4   7  1   
  9   5   8  1   
 10   6   9  2   
 11   6  10  am  
 12   7   8  2   
 13   7  11  1   
 14  10  12  1   
 15  10  22  1   
 16  11  23  1   
 17  11  24  1   
 18  11  25  1   
 19  12  13  ar  
 20  12  14  ar  
 21  13  15  ar  
 22  13  26  1   
 23  14  16  ar  
 24  14  27  1   
 25  15  17  ar  
 26  15  18  1   
 27  16  17  ar  
 28  16  28  1   
 29  17  19  1   
 30  18  29  1   
 31  18  30  1   
 32  18  31  1   
 33  19  32  1   
 34  19  33  1   
 35  19  34  1   
@<TRIPOS>SUBSTRUCTURE
  1 ****  10 GROUP 4 **** **** 0

# MOE 2024.06 (io_trps.svl 2023.06)
