@<TRIPOS>MOLECULE
Structure2291
31 32 1 0 0 
SMALL
USER_CHARGES


@<TRIPOS>ATOM
  1 N        0.1730    -0.0300     0.3870 N.4   1 <1>  -0.9060 
  2 C        1.4680     0.4510    -0.1670 C.3   1 <1>   0.3430 
  3 C        0.0460    -1.4670     0.0610 C.3   1 <1>   0.3430 
  4 C        2.3070    -0.7990    -0.4600 C.3   1 <1>  -0.0800 
  5 C        1.4780    -1.9670     0.0880 C.3   1 <1>  -0.1600 
  6 C        3.7380    -0.7270     0.1200 C.3   1 <1>  -0.0800 
  7 C        4.5080     0.4860    -0.4450 C.3   1 <1>  -0.1600 
  8 C        4.5220    -2.0240    -0.1690 C.3   1 <1>  -0.1600 
  9 C        5.9400     0.5540     0.1020 C.3   1 <1>  -0.1600 
 10 C        5.9550    -1.9550     0.3760 C.3   1 <1>  -0.1600 
 11 C        6.7050    -0.7420    -0.1840 C.3   1 <1>  -0.1600 
 12 H       -0.6220     0.5140     0.0270 H     1 <1>   0.4500 
 13 H        0.1910     0.0770     1.4090 H     1 <1>   0.4500 
 14 H        1.9670     1.0860     0.5480 H     1 <1>   0.0800 
 15 H        1.3120     1.0040    -1.0790 H     1 <1>   0.0800 
 16 H       -0.3580    -1.5840    -0.9330 H     1 <1>   0.0800 
 17 H       -0.5780    -1.9910     0.7680 H     1 <1>   0.0800 
 18 H        2.3760    -0.8980    -1.5310 H     1 <1>   0.0800 
 19 H        1.5940    -2.8590    -0.5030 H     1 <1>   0.0800 
 20 H        1.7510    -2.1890     1.1060 H     1 <1>   0.0800 
 21 H        3.6740    -0.6110     1.1900 H     1 <1>   0.0800 
 22 H        4.0140     1.4080    -0.1940 H     1 <1>   0.0800 
 23 H        4.5540     0.4170    -1.5190 H     1 <1>   0.0800 
 24 H        4.5630    -2.1930    -1.2320 H     1 <1>   0.0800 
 25 H        4.0350    -2.8700     0.2800 H     1 <1>   0.0800 
 26 H        5.9130     0.7230     1.1650 H     1 <1>   0.0800 
 27 H        6.4610     1.3820    -0.3480 H     1 <1>   0.0800 
 28 H        6.4850    -2.8550     0.1120 H     1 <1>   0.0800 
 29 H        5.9290    -1.8940     1.4500 H     1 <1>   0.0800 
 30 H        7.6850    -0.6880     0.2590 H     1 <1>   0.0800 
 31 H        6.8300    -0.8580    -1.2470 H     1 <1>   0.0800 
@<TRIPOS>BOND
  1   1   2  1   
  2   1   3  1   
  3   1  12  1   
  4   1  13  1   
  5   2   4  1   
  6   2  14  1   
  7   2  15  1   
  8   3   5  1   
  9   3  16  1   
 10   3  17  1   
 11   4   5  1   
 12   4   6  1   
 13   4  18  1   
 14   5  19  1   
 15   5  20  1   
 16   6   7  1   
 17   6   8  1   
 18   6  21  1   
 19   7   9  1   
 20   7  22  1   
 21   7  23  1   
 22   8  10  1   
 23   8  24  1   
 24   8  25  1   
 25   9  11  1   
 26   9  26  1   
 27   9  27  1   
 28  10  11  1   
 29  10  28  1   
 30  10  29  1   
 31  11  30  1   
 32  11  31  1   
@<TRIPOS>SUBSTRUCTURE
  1 ****   6 GROUP 4 **** **** 0

# MOE 2024.06 (io_trps.svl 2023.06)
