@<TRIPOS>MOLECULE
NONAME
36 38 1 0 0 
SMALL
USER_CHARGES


@<TRIPOS>ATOM
  1 O       -0.3400    -0.3460     0.4130 O.2   1 <1>  -0.5700 
  2 C       -1.0010    -1.3610     0.3400 C.2   1 <1>   0.7060 
  3 O       -2.3130    -1.3400     0.4440 O.3   1 <1>  -0.3000 
  4 C       -0.5980    -2.7200     0.1430 C.2   1 <1>   0.1850 
  5 C       -2.7000    -2.6070     0.3180 C.2   1 <1>   0.5390 
  6 N       -1.7680    -3.4530     0.1430 N.2   1 <1>  -0.6210 
  7 C        0.6690    -3.1960    -0.0030 C.2   1 <1>  -0.1780 
  8 C       -4.2030    -2.8760     0.4000 C.3   1 <1>  -0.0190 
  9 C        1.1790    -4.5270    -0.2080 C.ar  1 <1>   0.0280 
 10 C       -4.5280    -4.3810     0.5010 C.3   1 <1>  -0.1600 
 11 C       -4.9390    -2.2490    -0.8010 C.3   1 <1>  -0.1600 
 12 C        2.5430    -4.7680    -0.0280 C.ar  1 <1>  -0.1500 
 13 C        0.3910    -5.6140    -0.5920 C.ar  1 <1>  -0.1500 
 14 C       -6.0410    -4.6300     0.5730 C.3   1 <1>  -0.1600 
 15 C       -6.4520    -2.5010    -0.7330 C.3   1 <1>  -0.1600 
 16 C        3.0910    -6.0230    -0.2130 C.ar  1 <1>  -0.1500 
 17 C        0.9320    -6.8730    -0.7770 C.ar  1 <1>  -0.1500 
 18 C       -6.7620    -3.9990    -0.6240 C.3   1 <1>  -0.1600 
 19 C        2.2850    -7.0820    -0.5880 C.ar  1 <1>  -0.1500 
 20 H        1.4490    -2.4570     0.0470 H     1 <1>   0.1500 
 21 H       -4.5590    -2.4020     1.2970 H     1 <1>   0.0800 
 22 H       -4.1280    -4.8930    -0.3580 H     1 <1>   0.0800 
 23 H       -4.0560    -4.7950     1.3760 H     1 <1>   0.0800 
 24 H       -4.7610    -1.1880    -0.8260 H     1 <1>   0.0800 
 25 H       -4.5520    -2.6690    -1.7140 H     1 <1>   0.0800 
 26 H        3.1870    -3.9590     0.2650 H     1 <1>   0.1500 
 27 H       -0.6620    -5.4840    -0.7540 H     1 <1>   0.1500 
 28 H       -6.2310    -5.6900     0.5900 H     1 <1>   0.0800 
 29 H       -6.4310    -4.2120     1.4860 H     1 <1>   0.0800 
 30 H       -6.8620    -1.9900     0.1210 H     1 <1>   0.0800 
 31 H       -6.9240    -2.1000    -1.6140 H     1 <1>   0.0800 
 32 H        4.1460    -6.1790    -0.0650 H     1 <1>   0.1500 
 33 H        0.2980    -7.6920    -1.0710 H     1 <1>   0.1500 
 34 H       -7.8240    -4.1410    -0.5210 H     1 <1>   0.0800 
 35 H       -6.4500    -4.4950    -1.5290 H     1 <1>   0.0800 
 36 H        2.7070    -8.0610    -0.7320 H     1 <1>   0.1500 
@<TRIPOS>BOND
  1   1   2  2   
  2   2   3  1   
  3   2   4  1   
  4   3   5  1   
  5   4   6  1   
  6   4   7  2   
  7   5   6  2   
  8   5   8  1   
  9   7   9  1   
 10   7  20  1   
 11   8  10  1   
 12   8  11  1   
 13   8  21  1   
 14   9  12  ar  
 15   9  13  ar  
 16  10  14  1   
 17  10  22  1   
 18  10  23  1   
 19  11  15  1   
 20  11  24  1   
 21  11  25  1   
 22  12  16  ar  
 23  12  26  1   
 24  13  17  ar  
 25  13  27  1   
 26  14  18  1   
 27  14  28  1   
 28  14  29  1   
 29  15  18  1   
 30  15  30  1   
 31  15  31  1   
 32  16  19  ar  
 33  16  32  1   
 34  17  19  ar  
 35  17  33  1   
 36  18  34  1   
 37  18  35  1   
 38  19  36  1   
@<TRIPOS>SUBSTRUCTURE
  1 ****   6 GROUP 4 **** **** 0

# MOE 2024.06 (io_trps.svl 2023.06)
