@<TRIPOS>MOLECULE
NONAME
44 45 1 0 0 
SMALL
USER_CHARGES


@<TRIPOS>ATOM
  1 S        0.6990     0.6280    -0.4290 S.o2  1 <1>   1.4470 
  2 O        0.2570     1.3810    -1.5790 O.2   1 <1>  -0.6500 
  3 O        1.2740     1.3060     0.7110 O.2   1 <1>  -0.6500 
  4 N        1.8750    -0.3920    -1.0500 N.am  1 <1>  -0.9140 
  5 C       -0.5960    -0.5180     0.1160 C.ar  1 <1>  -0.0090 
  6 C        3.1750     0.2370    -1.1340 C.3   1 <1>   0.1960 
  7 C       -1.6630    -0.8440    -0.7080 C.ar  1 <1>  -0.1500 
  8 C       -0.5400    -1.1180     1.3680 C.ar  1 <1>  -0.1500 
  9 C        4.1170    -0.7200    -1.8510 C.3   1 <1>  -0.2400 
 10 C       -2.6690    -1.7320    -0.3310 C.ar  1 <1>   0.0860 
 11 C       -1.5130    -2.0130     1.7690 C.ar  1 <1>  -0.1500 
 12 C       -2.5670    -2.3390     0.9310 C.ar  1 <1>   0.0830 
 13 C       -3.7640    -1.9480    -1.2480 C.2   1 <1>   0.5440 
 14 O       -3.4430    -3.2450     1.4220 O.3   1 <1>  -0.3620 
 15 O       -3.5730    -2.6360    -2.2340 O.2   1 <1>  -0.5700 
 16 N       -5.0060    -1.3810    -1.0470 N.am  1 <1>  -0.6600 
 17 C       -3.9870    -4.2620     0.6060 C.3   1 <1>   0.0400 
 18 C       -6.1470    -1.6220    -1.9740 C.3   1 <1>   0.1400 
 19 C       -5.3390    -0.5050     0.1110 C.3   1 <1>   0.1400 
 20 C       -7.3150    -2.2450    -1.2010 C.3   1 <1>  -0.1600 
 21 C       -6.4910    -1.1250     0.9080 C.3   1 <1>  -0.1600 
 22 C       -7.7110    -1.3970     0.0170 C.3   1 <1>  -0.1600 
 23 H        1.5670    -0.5590    -2.0050 H     1 <1>   0.4200 
 24 H        3.5460     0.4440    -0.1430 H     1 <1>   0.0800 
 25 H        3.1050     1.1670    -1.6780 H     1 <1>   0.0800 
 26 H       -1.7290    -0.3920    -1.6840 H     1 <1>   0.1500 
 27 H        0.2760    -0.8830     2.0310 H     1 <1>   0.1500 
 28 H        4.1880    -1.6460    -1.3080 H     1 <1>   0.0800 
 29 H        5.0980    -0.2840    -1.9070 H     1 <1>   0.0800 
 30 H        3.7740    -0.9130    -2.8510 H     1 <1>   0.0800 
 31 H       -1.4570    -2.4730     2.7400 H     1 <1>   0.1500 
 32 H       -4.2510    -5.0920     1.2360 H     1 <1>   0.0800 
 33 H       -3.2530    -4.5710    -0.1180 H     1 <1>   0.0800 
 34 H       -4.8680    -3.8890     0.1160 H     1 <1>   0.0800 
 35 H       -5.8580    -2.2770    -2.7780 H     1 <1>   0.0800 
 36 H       -6.4500    -0.6830    -2.4050 H     1 <1>   0.0800 
 37 H       -5.6340     0.4630    -0.2580 H     1 <1>   0.0800 
 38 H       -4.4900    -0.3680     0.7570 H     1 <1>   0.0800 
 39 H       -7.0300    -3.2310    -0.8820 H     1 <1>   0.0800 
 40 H       -8.1590    -2.3470    -1.8600 H     1 <1>   0.0800 
 41 H       -6.7680    -0.4610     1.7070 H     1 <1>   0.0800 
 42 H       -6.1500    -2.0440     1.3520 H     1 <1>   0.0800 
 43 H       -8.4700    -1.9080     0.5840 H     1 <1>   0.0800 
 44 H       -8.1210    -0.4610    -0.3200 H     1 <1>   0.0800 
@<TRIPOS>BOND
  1   1   2  2   
  2   1   3  2   
  3   1   4  am  
  4   1   5  1   
  5   4   6  1   
  6   4  23  1   
  7   5   7  ar  
  8   5   8  ar  
  9   6   9  1   
 10   6  24  1   
 11   6  25  1   
 12   7  10  ar  
 13   7  26  1   
 14   8  11  ar  
 15   8  27  1   
 16   9  28  1   
 17   9  29  1   
 18   9  30  1   
 19  10  12  ar  
 20  10  13  1   
 21  11  12  ar  
 22  11  31  1   
 23  12  14  1   
 24  13  15  2   
 25  13  16  am  
 26  14  17  1   
 27  16  18  1   
 28  16  19  1   
 29  17  32  1   
 30  17  33  1   
 31  17  34  1   
 32  18  20  1   
 33  18  35  1   
 34  18  36  1   
 35  19  21  1   
 36  19  37  1   
 37  19  38  1   
 38  20  22  1   
 39  20  39  1   
 40  20  40  1   
 41  21  22  1   
 42  21  41  1   
 43  21  42  1   
 44  22  43  1   
 45  22  44  1   
@<TRIPOS>SUBSTRUCTURE
  1 ****  10 GROUP 4 **** **** 0

# MOE 2024.06 (io_trps.svl 2023.06)
