@<TRIPOS>MOLECULE
NONAME
39 40 1 0 0 
SMALL
USER_CHARGES


@<TRIPOS>ATOM
  1 O       -0.2260     0.3630    -1.1790 O.3   1 <1>  -0.0190 
  2 N       -1.4500    -0.0380    -1.0350 N.2   1 <1>  -0.4100 
  3 C       -0.2760     1.6420    -0.9120 C.2   1 <1>   0.2980 
  4 C       -2.1630     0.9770    -0.6940 C.2   1 <1>   0.4620 
  5 N       -1.4270     2.0910    -0.6140 N.2   1 <1>  -0.5650 
  6 C        1.0150     2.4500    -1.0040 C.3   1 <1>   0.2900 
  7 C       -3.5920     0.9570    -0.4270 C.ar  1 <1>   0.0540 
  8 N        2.0740     1.9260    -0.1220 N.3   1 <1>  -0.9000 
  9 C       -4.2790     2.0990    -0.0110 C.ar  1 <1>  -0.1500 
 10 C       -4.3360    -0.2140    -0.5770 C.ar  1 <1>  -0.1500 
 11 C        3.3420     2.6180    -0.3060 C.3   1 <1>   0.1100 
 12 C       -5.6460     2.0840     0.2440 C.ar  1 <1>   0.0830 
 13 C       -5.6960    -0.2490    -0.3290 C.ar  1 <1>  -0.1500 
 14 C        4.3700     2.0020     0.6390 C.3   1 <1>  -0.1600 
 15 O       -6.3280     3.1940     0.6520 O.3   1 <1>  -0.3630 
 16 C       -6.3650     0.8980     0.0840 C.ar  1 <1>   0.0830 
 17 C        5.7330     2.6910     0.5060 C.3   1 <1>  -0.2400 
 18 C       -5.6800     4.4270     0.8720 C.3   1 <1>   0.0400 
 19 O       -7.7040     0.9130     0.3410 O.3   1 <1>  -0.3620 
 20 C       -8.5040    -0.2380     0.2010 C.3   1 <1>   0.0400 
 21 H        0.8030     3.4700    -0.7350 H     1 <1>   0.0800 
 22 H        1.3520     2.4310    -2.0250 H     1 <1>   0.0800 
 23 H        2.2060     0.9260    -0.3240 H     1 <1>   0.3600 
 24 H       -3.7150     3.0030     0.1090 H     1 <1>   0.1500 
 25 H       -3.8410    -1.1150    -0.8950 H     1 <1>   0.1500 
 26 H        3.2200     3.6640    -0.0760 H     1 <1>   0.0800 
 27 H        3.6750     2.5190    -1.3260 H     1 <1>   0.0800 
 28 H       -6.2140    -1.1790    -0.4630 H     1 <1>   0.1500 
 29 H        4.4830     0.9550     0.4160 H     1 <1>   0.0800 
 30 H        4.0220     2.1000     1.6530 H     1 <1>   0.0800 
 31 H        6.1110     2.5920    -0.4960 H     1 <1>   0.0800 
 32 H        6.4380     2.2420     1.1830 H     1 <1>   0.0800 
 33 H        5.6490     3.7370     0.7460 H     1 <1>   0.0800 
 34 H       -6.4190     5.1360     1.1980 H     1 <1>   0.0800 
 35 H       -5.2380     4.7590    -0.0500 H     1 <1>   0.0800 
 36 H       -4.9350     4.2980     1.6370 H     1 <1>   0.0800 
 37 H       -9.5140     0.0270     0.4570 H     1 <1>   0.0800 
 38 H       -8.1440    -0.9970     0.8720 H     1 <1>   0.0800 
 39 H       -8.4620    -0.5710    -0.8210 H     1 <1>   0.0800 
@<TRIPOS>BOND
  1   1   2  1   
  2   1   3  1   
  3   2   4  2   
  4   3   5  2   
  5   3   6  1   
  6   4   5  1   
  7   4   7  1   
  8   6   8  1   
  9   6  21  1   
 10   6  22  1   
 11   7   9  ar  
 12   7  10  ar  
 13   8  11  1   
 14   8  23  1   
 15   9  12  ar  
 16   9  24  1   
 17  10  13  ar  
 18  10  25  1   
 19  11  14  1   
 20  11  26  1   
 21  11  27  1   
 22  12  15  1   
 23  12  16  ar  
 24  13  16  ar  
 25  13  28  1   
 26  14  17  1   
 27  14  29  1   
 28  14  30  1   
 29  15  18  1   
 30  16  19  1   
 31  17  31  1   
 32  17  32  1   
 33  17  33  1   
 34  18  34  1   
 35  18  35  1   
 36  18  36  1   
 37  19  20  1   
 38  20  37  1   
 39  20  38  1   
 40  20  39  1   
@<TRIPOS>SUBSTRUCTURE
  1 ****   4 GROUP 4 **** **** 0

# MOE 2024.06 (io_trps.svl 2023.06)
