@<TRIPOS>MOLECULE
NONAME
52 54 1 0 0 
SMALL
USER_CHARGES


@<TRIPOS>ATOM
  1 CL       1.0270     0.7090    -1.9250 Cl    1 <1>  -0.1770 
  2 C        2.3340     0.0670    -0.9660 C.ar  1 <1>   0.1770 
  3 C        2.4820    -1.3020    -0.8500 C.ar  1 <1>  -0.1500 
  4 C        3.2030     0.9370    -0.3350 C.ar  1 <1>  -0.1500 
  5 C        3.5230    -1.8100    -0.0910 C.ar  1 <1>  -0.1500 
  6 C        4.2430     0.4260     0.4230 C.ar  1 <1>  -0.1500 
  7 C        4.4120    -0.9490     0.5430 C.ar  1 <1>  -0.1430 
  8 C        5.5640    -1.5040     1.3620 C.3   1 <1>   0.4870 
  9 N        6.6110    -2.0120     0.4350 N.4   1 <1>  -0.9590 
 10 C        7.6880    -2.7370     1.2010 C.3   1 <1>   0.3430 
 11 C        7.1790    -0.8910    -0.4030 C.3   1 <1>   0.3430 
 12 C        8.8590    -3.1790     0.2960 C.3   1 <1>   0.1400 
 13 C        8.3370    -1.3610    -1.3080 C.3   1 <1>   0.1400 
 14 N        9.3870    -2.0240    -0.4860 N.am  1 <1>  -0.6600 
 15 C       10.2530    -1.1920     0.1540 C.2   1 <1>   0.6900 
 16 O        9.9520    -0.7800     1.2580 O.2   1 <1>  -0.5700 
 17 N       11.3920    -0.8380    -0.4970 N.am  1 <1>  -0.5470 
 18 C       12.4330     0.0390    -0.1510 C.ar  1 <1>   0.1170 
 19 C       13.6630    -0.1100    -0.7790 C.ar  1 <1>  -0.1500 
 20 C       12.2840     1.0600     0.7800 C.ar  1 <1>  -0.1500 
 21 C       14.7290     0.7340    -0.4870 C.ar  1 <1>   0.0830 
 22 C       13.3330     1.9080     1.0820 C.ar  1 <1>  -0.1500 
 23 O       15.9490     0.6090    -1.0880 O.3   1 <1>  -0.3630 
 24 C       14.5650     1.7550     0.4530 C.ar  1 <1>   0.0830 
 25 C       16.2450    -0.4540    -1.9650 C.3   1 <1>   0.0400 
 26 O       15.6330     2.5670     0.7170 O.3   1 <1>  -0.3630 
 27 C       15.5650     3.5700     1.7050 C.3   1 <1>   0.0400 
 28 H        1.7840    -1.9530    -1.3470 H     1 <1>   0.1500 
 29 H        3.0580     1.9980    -0.4380 H     1 <1>   0.1500 
 30 H        3.6210    -2.8790    -0.0010 H     1 <1>   0.1500 
 31 H        4.9110     1.1140     0.9160 H     1 <1>   0.1500 
 32 H        5.2010    -2.3030     1.9880 H     1 <1>   0.0800 
 33 H        5.9710    -0.7330     1.9960 H     1 <1>   0.0800 
 34 H        6.1540    -2.6720    -0.2050 H     1 <1>   0.4500 
 35 H        7.2750    -3.6020     1.6930 H     1 <1>   0.0800 
 36 H        8.0870    -2.0860     1.9630 H     1 <1>   0.0800 
 37 H        7.5550    -0.1150     0.2440 H     1 <1>   0.0800 
 38 H        6.4030    -0.4620    -1.0180 H     1 <1>   0.0800 
 39 H        8.5380    -3.9560    -0.3750 H     1 <1>   0.0800 
 40 H        9.6470    -3.5810     0.9120 H     1 <1>   0.0800 
 41 H        8.7600    -0.5080    -1.8140 H     1 <1>   0.0800 
 42 H        7.9740    -2.0430    -2.0570 H     1 <1>   0.0800 
 43 H       11.5440    -1.3810    -1.3430 H     1 <1>   0.3700 
 44 H       13.7730    -0.8970    -1.4970 H     1 <1>   0.1500 
 45 H       11.3440     1.2060     1.2780 H     1 <1>   0.1500 
 46 H       13.1690     2.6810     1.8080 H     1 <1>   0.1500 
 47 H       17.2730    -0.3580    -2.2650 H     1 <1>   0.0800 
 48 H       15.6060    -0.3830    -2.8270 H     1 <1>   0.0800 
 49 H       16.1010    -1.3850    -1.4470 H     1 <1>   0.0800 
 50 H       16.5240     4.0530     1.7540 H     1 <1>   0.0800 
 51 H       15.3370     3.1120     2.6510 H     1 <1>   0.0800 
 52 H       14.8110     4.2840     1.4260 H     1 <1>   0.0800 
@<TRIPOS>BOND
  1   1   2  1   
  2   2   3  ar  
  3   2   4  ar  
  4   3   5  ar  
  5   3  28  1   
  6   4   6  ar  
  7   4  29  1   
  8   5   7  ar  
  9   5  30  1   
 10   6   7  ar  
 11   6  31  1   
 12   7   8  1   
 13   8   9  1   
 14   8  32  1   
 15   8  33  1   
 16   9  10  1   
 17   9  11  1   
 18   9  34  1   
 19  10  12  1   
 20  10  35  1   
 21  10  36  1   
 22  11  13  1   
 23  11  37  1   
 24  11  38  1   
 25  12  14  1   
 26  12  39  1   
 27  12  40  1   
 28  13  14  1   
 29  13  41  1   
 30  13  42  1   
 31  14  15  am  
 32  15  16  2   
 33  15  17  am  
 34  17  18  1   
 35  17  43  1   
 36  18  19  ar  
 37  18  20  ar  
 38  19  21  ar  
 39  19  44  1   
 40  20  22  ar  
 41  20  45  1   
 42  21  23  1   
 43  21  24  ar  
 44  22  24  ar  
 45  22  46  1   
 46  23  25  1   
 47  24  26  1   
 48  25  47  1   
 49  25  48  1   
 50  25  49  1   
 51  26  27  1   
 52  27  50  1   
 53  27  51  1   
 54  27  52  1   
@<TRIPOS>SUBSTRUCTURE
  1 ****  15 GROUP 4 **** **** 0

# MOE 2024.06 (io_trps.svl 2023.06)
