@<TRIPOS>MOLECULE
NONAME
49 50 1 0 0 
SMALL
USER_CHARGES


@<TRIPOS>ATOM
  1 O       -1.4740    -3.8310     0.8340 O.3   1 <1>  -0.3630 
  2 C       -2.8210    -3.8110     0.8910 C.ar  1 <1>   0.0830 
  3 C       -0.8730    -2.6160     0.4450 C.3   1 <1>   0.1200 
  4 C       -3.5720    -4.3810    -0.1320 C.ar  1 <1>  -0.1440 
  5 C       -3.4420    -3.2130     1.9780 C.ar  1 <1>  -0.1500 
  6 C        0.6100    -2.8730     0.1640 C.3   1 <1>   0.2000 
  7 C       -4.9560    -4.3200    -0.0570 C.ar  1 <1>  -0.1500 
  8 C       -2.9080    -5.0680    -1.3190 C.3   1 <1>   0.1220 
  9 C       -4.8220    -3.1620     2.0410 C.ar  1 <1>  -0.1500 
 10 O        1.1760    -3.5250     1.2620 O.3   1 <1>  -0.6800 
 11 C        1.3890    -1.5700    -0.1090 C.3   1 <1>   0.3430 
 12 C       -5.5780    -3.7130     1.0220 C.ar  1 <1>  -0.1500 
 13 C       -2.4420    -4.0510    -2.3510 C.2   1 <1>  -0.2880 
 14 N        2.8430    -1.7680     0.1720 N.4   1 <1>  -0.9590 
 15 C       -1.2220    -4.0040    -2.8960 C.2   1 <1>  -0.3000 
 16 C        3.5470    -0.5350     0.6100 C.3   1 <1>   0.3430 
 17 C        3.5640    -2.5030    -0.9130 C.3   1 <1>   0.3430 
 18 C        4.8640    -0.9250     1.3090 C.3   1 <1>  -0.0800 
 19 C        5.0890    -2.3550    -0.7820 C.3   1 <1>  -0.1600 
 20 C        5.5350    -2.1660     0.6760 C.3   1 <1>  -0.1600 
 21 C        4.6420    -1.1560     2.8120 C.3   1 <1>  -0.2400 
 22 H       -1.0020    -1.9040     1.2410 H     1 <1>   0.0800 
 23 H       -1.3720    -2.2580    -0.4390 H     1 <1>   0.0800 
 24 H       -2.8500    -2.7930     2.7700 H     1 <1>   0.1500 
 25 H        0.6940    -3.5280    -0.6860 H     1 <1>   0.0800 
 26 H       -5.5610    -4.7470    -0.8380 H     1 <1>   0.1500 
 27 H       -3.6090    -5.7380    -1.7840 H     1 <1>   0.0800 
 28 H       -2.0780    -5.6620    -0.9780 H     1 <1>   0.0800 
 29 H       -5.3080    -2.6970     2.8810 H     1 <1>   0.1500 
 30 H        0.5410    -4.2140     1.5700 H     1 <1>   0.4000 
 31 H        1.0030    -0.8090     0.5490 H     1 <1>   0.0800 
 32 H        1.2330    -1.2410    -1.1230 H     1 <1>   0.0800 
 33 H       -6.6530    -3.6740     1.0690 H     1 <1>   0.1500 
 34 H       -3.2240    -3.3580    -2.6150 H     1 <1>   0.1500 
 35 H        2.8350    -2.4100     0.9890 H     1 <1>   0.4500 
 36 H       -0.9260    -3.2790    -3.6350 H     1 <1>   0.1500 
 37 H       -0.4290    -4.6930    -2.6620 H     1 <1>   0.1500 
 38 H        2.9340     0.0330     1.2910 H     1 <1>   0.0800 
 39 H        3.7630     0.0790    -0.2490 H     1 <1>   0.0800 
 40 H        3.2590    -2.1360    -1.8790 H     1 <1>   0.0800 
 41 H        3.3040    -3.5480    -0.8550 H     1 <1>   0.0800 
 42 H        5.5330    -0.0870     1.2050 H     1 <1>   0.0800 
 43 H        5.4110    -1.5100    -1.3660 H     1 <1>   0.0800 
 44 H        5.5630    -3.2250    -1.2010 H     1 <1>   0.0800 
 45 H        5.2720    -3.0540     1.2270 H     1 <1>   0.0800 
 46 H        6.6070    -2.0650     0.7260 H     1 <1>   0.0800 
 47 H        3.9590    -1.9690     2.9860 H     1 <1>   0.0800 
 48 H        4.2440    -0.2700     3.2760 H     1 <1>   0.0800 
 49 H        5.5770    -1.3900     3.2930 H     1 <1>   0.0800 
@<TRIPOS>BOND
  1   1   2  1   
  2   1   3  1   
  3   2   4  ar  
  4   2   5  ar  
  5   3   6  1   
  6   3  22  1   
  7   3  23  1   
  8   4   7  ar  
  9   4   8  1   
 10   5   9  ar  
 11   5  24  1   
 12   6  10  1   
 13   6  11  1   
 14   6  25  1   
 15   7  12  ar  
 16   7  26  1   
 17   8  13  1   
 18   8  27  1   
 19   8  28  1   
 20   9  12  ar  
 21   9  29  1   
 22  10  30  1   
 23  11  14  1   
 24  11  31  1   
 25  11  32  1   
 26  12  33  1   
 27  13  15  2   
 28  13  34  1   
 29  14  16  1   
 30  14  17  1   
 31  14  35  1   
 32  15  36  1   
 33  15  37  1   
 34  16  18  1   
 35  16  38  1   
 36  16  39  1   
 37  17  19  1   
 38  17  40  1   
 39  17  41  1   
 40  18  20  1   
 41  18  21  1   
 42  18  42  1   
 43  19  20  1   
 44  19  43  1   
 45  19  44  1   
 46  20  45  1   
 47  20  46  1   
 48  21  47  1   
 49  21  48  1   
 50  21  49  1   
@<TRIPOS>SUBSTRUCTURE
  1 ****   6 GROUP 4 **** **** 0

# MOE 2024.06 (io_trps.svl 2023.06)
