@<TRIPOS>MOLECULE
NONAME
41 42 1 0 0 
SMALL
USER_CHARGES


@<TRIPOS>ATOM
  1 O       -5.0330     5.0750     2.0390 O.2   1 <1>  -0.5760 
  2 C       -5.6550     5.5710     1.1400 C.2   1 <1>   0.4410 
  3 C       -4.9870     6.2020    -0.1040 C.3   1 <1>   0.0510 
  4 C       -7.1840     5.5540     1.2080 C.3   1 <1>   0.4080 
  5 C       -5.5470     5.5920    -1.4030 C.3   1 <1>  -0.2480 
  6 C       -3.4650     5.9570    -0.0930 C.3   1 <1>  -0.2480 
  7 C       -5.2180     7.7240    -0.1260 C.3   1 <1>  -0.2480 
  8 N       -7.7850     4.2380     0.8140 N.pl3 1 <1>  -0.7680 
  9 C       -7.4760     3.0220     1.2710 C.cat 1 <1>   1.0690 
 10 C       -8.8360     4.0850    -0.0830 C.ar  1 <1>   0.3010 
 11 N       -6.5140     2.7630     2.1240 N.pl3 1 <1>  -0.8400 
 12 N       -8.2660     2.0920     0.7410 N.pl3 1 <1>  -0.7680 
 13 C       -9.1350     2.7350    -0.1310 C.ar  1 <1>   0.3010 
 14 C       -9.5500     4.9960    -0.8560 C.ar  1 <1>  -0.1180 
 15 C       -8.2690     0.6360     0.9860 C.3   1 <1>   0.3470 
 16 C      -10.1490     2.2600    -0.9550 C.ar  1 <1>  -0.1180 
 17 C      -10.5590     4.5250    -1.6740 C.ar  1 <1>  -0.1590 
 18 C       -7.3830    -0.0430    -0.0520 C.3   1 <1>  -0.2480 
 19 C      -10.8570     3.1630    -1.7240 C.ar  1 <1>  -0.1590 
 20 H       -7.5800     6.3360     0.5890 H     1 <1>   0.0710 
 21 H       -7.4760     5.7710     2.2210 H     1 <1>   0.0710 
 22 H       -5.0240     5.9880    -2.2570 H     1 <1>   0.0710 
 23 H       -6.5900     5.8140    -1.5290 H     1 <1>   0.0710 
 24 H       -5.4190     4.5230    -1.4010 H     1 <1>   0.0710 
 25 H       -3.2520     4.9030    -0.0910 H     1 <1>   0.0710 
 26 H       -3.0200     6.3910     0.7860 H     1 <1>   0.0710 
 27 H       -2.9980     6.3950    -0.9570 H     1 <1>   0.0710 
 28 H       -6.2600     7.9690    -0.2200 H     1 <1>   0.0710 
 29 H       -4.7000     8.1690    -0.9580 H     1 <1>   0.0710 
 30 H       -4.8410     8.1720     0.7770 H     1 <1>   0.0710 
 31 H       -6.2710     1.8260     2.4230 H     1 <1>   0.4440 
 32 H       -5.8440     3.4950     2.4000 H     1 <1>   0.4440 
 33 H       -9.3250     6.0460    -0.8240 H     1 <1>   0.1410 
 34 H       -9.2750     0.2570     0.9170 H     1 <1>   0.0710 
 35 H       -7.9050     0.4250     1.9780 H     1 <1>   0.0710 
 36 H      -10.3760     1.2100    -0.9940 H     1 <1>   0.1410 
 37 H      -11.1260     5.2100    -2.2840 H     1 <1>   0.1410 
 38 H       -7.7570     0.1390    -1.0430 H     1 <1>   0.0710 
 39 H       -7.3810    -1.1050     0.1160 H     1 <1>   0.0710 
 40 H       -6.3710     0.3130     0.0180 H     1 <1>   0.0710 
 41 H      -11.6480     2.8200    -2.3710 H     1 <1>   0.1410 
@<TRIPOS>BOND
  1   1   2  2   
  2   2   3  1   
  3   2   4  1   
  4   3   5  1   
  5   3   6  1   
  6   3   7  1   
  7   4   8  1   
  8   4  20  1   
  9   4  21  1   
 10   5  22  1   
 11   5  23  1   
 12   5  24  1   
 13   6  25  1   
 14   6  26  1   
 15   6  27  1   
 16   7  28  1   
 17   7  29  1   
 18   7  30  1   
 19   8   9  ar  
 20   8  10  1   
 21   9  11  ar  
 22   9  12  ar  
 23  10  13  ar  
 24  10  14  ar  
 25  11  31  1   
 26  11  32  1   
 27  12  13  1   
 28  12  15  1   
 29  13  16  ar  
 30  14  17  ar  
 31  14  33  1   
 32  15  18  1   
 33  15  34  1   
 34  15  35  1   
 35  16  19  ar  
 36  16  36  1   
 37  17  19  ar  
 38  17  37  1   
 39  18  38  1   
 40  18  39  1   
 41  18  40  1   
 42  19  41  1   
@<TRIPOS>SUBSTRUCTURE
  1 ****   8 GROUP 4 **** **** 0

# MOE 2024.06 (io_trps.svl 2023.06)
