@<TRIPOS>MOLECULE
NONAME
39 40 1 0 0 
SMALL
USER_CHARGES


@<TRIPOS>ATOM
  1 O       -7.9080     2.6430    -0.0530 O.3   1 <1>  -0.3630 
  2 C       -9.0560     1.9430     0.1280 C.ar  1 <1>   0.0830 
  3 C       -6.6480     2.0270     0.0840 C.3   1 <1>   0.1200 
  4 C      -10.2410     2.6430    -0.0200 C.ar  1 <1>  -0.1500 
  5 C       -9.0950     0.5880     0.4480 C.ar  1 <1>  -0.1500 
  6 C       -5.5780     3.0840    -0.1690 C.3   1 <1>   0.0960 
  7 C      -11.4630     2.0130     0.1460 C.ar  1 <1>   0.0830 
  8 C      -10.3140    -0.0470     0.6150 C.ar  1 <1>  -0.1500 
  9 N       -4.2440     2.4800    -0.0120 N.pl3 1 <1>   0.0480 
 10 O      -12.5710     2.7770    -0.0180 O.3   1 <1>  -0.3630 
 11 C      -11.4960     0.6580     0.4660 C.ar  1 <1>  -0.1500 
 12 C       -3.4820     2.4320     1.1040 C.2   1 <1>   0.0360 
 13 C       -3.5270     1.8230    -0.9430 C.2   1 <1>  -0.3020 
 14 C      -13.8630     2.2360     0.1280 C.3   1 <1>   0.1200 
 15 N       -2.3620     1.8050     0.9490 N.2   1 <1>  -0.5650 
 16 C       -2.3870     1.4220    -0.3410 C.2   1 <1>   0.0770 
 17 C      -14.8800     3.3500    -0.1200 C.3   1 <1>  -0.1600 
 18 C      -16.3170     2.8330     0.0230 C.3   1 <1>  -0.1600 
 19 C      -17.3320     3.9520    -0.2270 C.3   1 <1>  -0.2400 
 20 H       -6.5790     1.2350    -0.6400 H     1 <1>   0.0800 
 21 H       -6.5690     1.6390     1.0850 H     1 <1>   0.0800 
 22 H      -10.2170     3.6870    -0.2660 H     1 <1>   0.1500 
 23 H       -8.1970     0.0130     0.5700 H     1 <1>   0.1500 
 24 H       -5.6800     3.8890     0.5350 H     1 <1>   0.0800 
 25 H       -5.6690     3.4690    -1.1680 H     1 <1>   0.0800 
 26 H      -10.3430    -1.0940     0.8620 H     1 <1>   0.1500 
 27 H      -12.4250     0.1380     0.6020 H     1 <1>   0.1500 
 28 H       -3.7970     2.8790     2.0300 H     1 <1>   0.1500 
 29 H       -3.8550     1.6800    -1.9560 H     1 <1>   0.1500 
 30 H      -13.9590     1.8500     1.1290 H     1 <1>   0.0800 
 31 H      -13.9830     1.4450    -0.5920 H     1 <1>   0.0800 
 32 H       -1.5690     0.8690    -0.7740 H     1 <1>   0.1500 
 33 H      -14.7360     3.7400    -1.1120 H     1 <1>   0.0800 
 34 H      -14.7120     4.1410     0.5900 H     1 <1>   0.0800 
 35 H      -16.4640     2.4380     1.0140 H     1 <1>   0.0800 
 36 H      -16.4880     2.0380    -0.6840 H     1 <1>   0.0800 
 37 H      -17.1940     4.7500     0.4820 H     1 <1>   0.0800 
 38 H      -18.3330     3.5720    -0.1230 H     1 <1>   0.0800 
 39 H      -17.2180     4.3480    -1.2200 H     1 <1>   0.0800 
@<TRIPOS>BOND
  1   1   2  1   
  2   1   3  1   
  3   2   4  ar  
  4   2   5  ar  
  5   3   6  1   
  6   3  20  1   
  7   3  21  1   
  8   4   7  ar  
  9   4  22  1   
 10   5   8  ar  
 11   5  23  1   
 12   6   9  1   
 13   6  24  1   
 14   6  25  1   
 15   7  10  1   
 16   7  11  ar  
 17   8  11  ar  
 18   8  26  1   
 19   9  12  1   
 20   9  13  1   
 21  10  14  1   
 22  11  27  1   
 23  12  15  2   
 24  12  28  1   
 25  13  16  2   
 26  13  29  1   
 27  14  17  1   
 28  14  30  1   
 29  14  31  1   
 30  15  16  1   
 31  16  32  1   
 32  17  18  1   
 33  17  33  1   
 34  17  34  1   
 35  18  19  1   
 36  18  35  1   
 37  18  36  1   
 38  19  37  1   
 39  19  38  1   
 40  19  39  1   
@<TRIPOS>SUBSTRUCTURE
  1 ****   2 GROUP 4 **** **** 0

# MOE 2024.06 (io_trps.svl 2023.06)
