@<TRIPOS>MOLECULE
NONAME
36 37 1 0 0 
SMALL
USER_CHARGES


@<TRIPOS>ATOM
  1 O       -4.0510    -3.1300    -1.6530 O.co2 1 <1>  -0.9000 
  2 C       -3.5990    -3.2210    -0.5170 C.2   1 <1>   0.9060 
  3 O       -4.0790    -4.0100     0.3040 O.co2 1 <1>  -0.9000 
  4 C       -2.6140    -2.2000    -0.0170 C.3   1 <1>  -0.2660 
  5 C       -3.3030    -0.9050     0.4720 C.3   1 <1>  -0.1600 
  6 C       -4.5630    -1.1550     1.3240 C.3   1 <1>   0.3300 
  7 N       -5.7910    -0.8670     0.5350 N.pl3 1 <1>  -0.7940 
  8 C       -6.6750    -1.6960     0.0170 C.cat 1 <1>   0.6040 
  9 N       -6.5810    -3.0060     0.0550 N.pl3 1 <1>  -0.6530 
 10 C       -7.8810    -1.0940    -0.6960 C.3   1 <1>  -0.0550 
 11 C       -7.4730    -3.9510    -0.4630 C.ar  1 <1>   0.3490 
 12 C       -9.2310    -1.3280     0.0170 C.3   1 <1>  -0.1600 
 13 C       -8.8460    -3.8450    -0.2380 C.ar  1 <1>  -0.1430 
 14 C       -6.9800    -4.9960    -1.2270 C.ar  1 <1>  -0.1500 
 15 C       -9.3970    -2.7260     0.6410 C.3   1 <1>  -0.0170 
 16 C       -9.7030    -4.7800    -0.7980 C.ar  1 <1>  -0.1500 
 17 C       -7.8390    -5.9290    -1.7790 C.ar  1 <1>  -0.1500 
 18 C       -9.2020    -5.8180    -1.5670 C.ar  1 <1>  -0.1500 
 19 H       -2.0660    -2.6510     0.7890 H     1 <1>   0.0800 
 20 H       -1.9250    -1.9790    -0.8090 H     1 <1>   0.0800 
 21 H       -3.5550    -0.3020    -0.3840 H     1 <1>   0.0800 
 22 H       -2.5890    -0.3550     1.0580 H     1 <1>   0.0800 
 23 H       -4.5470    -0.4880     2.1680 H     1 <1>   0.0800 
 24 H       -4.5840    -2.1550     1.7220 H     1 <1>   0.0800 
 25 H       -5.9150     0.1330     0.3820 H     1 <1>   0.4500 
 26 H       -5.6540    -3.4260     0.2860 H     1 <1>   0.4500 
 27 H       -7.7370    -0.0400    -0.8400 H     1 <1>   0.0800 
 28 H       -7.9250    -1.5310    -1.6790 H     1 <1>   0.0800 
 29 H       -9.3520    -0.5960     0.7960 H     1 <1>   0.0800 
 30 H      -10.0200    -1.1710    -0.6980 H     1 <1>   0.0800 
 31 H       -5.9150    -5.0640    -1.3930 H     1 <1>   0.1500 
 32 H      -10.4390    -2.8970     0.8510 H     1 <1>   0.0800 
 33 H       -8.8820    -2.7570     1.5860 H     1 <1>   0.0800 
 34 H      -10.7650    -4.7130    -0.6380 H     1 <1>   0.1500 
 35 H       -7.4420    -6.7340    -2.3740 H     1 <1>   0.1500 
 36 H       -9.8710    -6.5420    -1.9990 H     1 <1>   0.1500 
@<TRIPOS>BOND
  1   1   2  ar  
  2   2   3  ar  
  3   2   4  1   
  4   4   5  1   
  5   4  19  1   
  6   4  20  1   
  7   5   6  1   
  8   5  21  1   
  9   5  22  1   
 10   6   7  1   
 11   6  23  1   
 12   6  24  1   
 13   7   8  ar  
 14   7  25  1   
 15   8   9  ar  
 16   8  10  1   
 17   9  11  1   
 18   9  26  1   
 19  10  12  1   
 20  10  27  1   
 21  10  28  1   
 22  11  13  ar  
 23  11  14  ar  
 24  12  15  1   
 25  12  29  1   
 26  12  30  1   
 27  13  15  1   
 28  13  16  ar  
 29  14  17  ar  
 30  14  31  1   
 31  15  32  1   
 32  15  33  1   
 33  16  18  ar  
 34  16  34  1   
 35  17  18  ar  
 36  17  35  1   
 37  18  36  1   
@<TRIPOS>SUBSTRUCTURE
  1 ****   9 GROUP 4 **** **** 0

# MOE 2024.06 (io_trps.svl 2023.06)
