@<TRIPOS>MOLECULE
NONAME
41 43 1 0 0 
SMALL
USER_CHARGES


@<TRIPOS>ATOM
  1 S        0.0100    -0.1810     0.4710 S.3   1 <1>  -0.4600 
  2 C       -1.3300     0.2360    -0.6870 C.3   1 <1>   0.0700 
  3 C       -0.3640    -1.9180     0.8570 C.3   1 <1>   0.0700 
  4 C       -2.6840    -0.1400    -0.0730 C.3   1 <1>   0.2090 
  5 C       -1.8250    -2.0400     1.3030 C.3   1 <1>   0.2090 
  6 N       -2.7530    -1.6020     0.2210 N.pl3 1 <1>  -0.8380 
  7 C       -3.9730    -2.2400     0.1410 C.ar  1 <1>   0.4100 
  8 N       -5.0430    -1.5680     0.4360 N.ar  1 <1>  -0.6200 
  9 C       -4.0110    -3.5830    -0.2460 C.ar  1 <1>  -0.1500 
 10 C       -6.2470    -2.2020     0.3880 C.ar  1 <1>   0.3100 
 11 C       -5.1830    -4.2700    -0.3050 C.ar  1 <1>  -0.1430 
 12 C       -6.3800    -3.5800     0.0470 C.ar  1 <1>   0.0000 
 13 C       -7.4190    -1.4580     0.7110 C.ar  1 <1>   0.0820 
 14 C       -5.1190    -5.7280    -0.7500 C.3   1 <1>  -0.0970 
 15 C       -7.6870    -4.1550     0.0890 C.ar  1 <1>   0.0820 
 16 O       -7.4090    -0.1320     1.0220 O.3   1 <1>  -0.3630 
 17 C       -8.6490    -2.0530     0.7420 C.ar  1 <1>  -0.1500 
 18 O       -7.8310    -5.4740    -0.2120 O.3   1 <1>  -0.3630 
 19 C       -8.7860    -3.3990     0.4330 C.ar  1 <1>  -0.1500 
 20 C       -6.8190     0.7770     0.1180 C.3   1 <1>   0.0400 
 21 C       -9.0700    -6.1500    -0.1650 C.3   1 <1>   0.0400 
 22 H       -1.1590    -0.3120    -1.5950 H     1 <1>   0.0800 
 23 H       -1.2690     1.2920    -0.8770 H     1 <1>   0.0800 
 24 H        0.3090    -2.2220     1.6370 H     1 <1>   0.0800 
 25 H       -0.1840    -2.4960    -0.0310 H     1 <1>   0.0800 
 26 H       -3.4640     0.1220    -0.7670 H     1 <1>   0.0800 
 27 H       -2.8440     0.4170     0.8340 H     1 <1>   0.0800 
 28 H       -1.9870    -1.4330     2.1780 H     1 <1>   0.0800 
 29 H       -2.0310    -3.0620     1.5680 H     1 <1>   0.0800 
 30 H       -3.0740    -4.0380    -0.4990 H     1 <1>   0.1500 
 31 H       -4.1150    -6.0170    -1.0040 H     1 <1>   0.0800 
 32 H       -5.7360    -5.8760    -1.6180 H     1 <1>   0.0800 
 33 H       -5.4600    -6.3710     0.0420 H     1 <1>   0.0800 
 34 H       -9.5170    -1.4750     1.0060 H     1 <1>   0.1500 
 35 H       -9.7770    -3.8080     0.4740 H     1 <1>   0.1500 
 36 H       -7.2970     1.7310     0.2410 H     1 <1>   0.0800 
 37 H       -6.9570     0.4190    -0.8870 H     1 <1>   0.0800 
 38 H       -5.7720     0.8630     0.3480 H     1 <1>   0.0800 
 39 H       -8.8980    -7.1770    -0.4330 H     1 <1>   0.0800 
 40 H       -9.7420    -5.6970    -0.8720 H     1 <1>   0.0800 
 41 H       -9.4610    -6.0940     0.8350 H     1 <1>   0.0800 
@<TRIPOS>BOND
  1   1   2  1   
  2   1   3  1   
  3   2   4  1   
  4   2  22  1   
  5   2  23  1   
  6   3   5  1   
  7   3  24  1   
  8   3  25  1   
  9   4   6  1   
 10   4  26  1   
 11   4  27  1   
 12   5   6  1   
 13   5  28  1   
 14   5  29  1   
 15   6   7  1   
 16   7   8  ar  
 17   7   9  ar  
 18   8  10  ar  
 19   9  11  ar  
 20   9  30  1   
 21  10  12  ar  
 22  10  13  ar  
 23  11  12  ar  
 24  11  14  1   
 25  12  15  ar  
 26  13  16  1   
 27  13  17  ar  
 28  14  31  1   
 29  14  32  1   
 30  14  33  1   
 31  15  18  1   
 32  15  19  ar  
 33  16  20  1   
 34  17  19  ar  
 35  17  34  1   
 36  18  21  1   
 37  19  35  1   
 38  20  36  1   
 39  20  37  1   
 40  20  38  1   
 41  21  39  1   
 42  21  40  1   
 43  21  41  1   
@<TRIPOS>SUBSTRUCTURE
  1 ****   8 GROUP 4 **** **** 0

# MOE 2024.06 (io_trps.svl 2023.06)
