@<TRIPOS>MOLECULE
NONAME
50 52 1 0 0 
SMALL
USER_CHARGES


@<TRIPOS>ATOM
  1 S        0.2480     0.6940    -0.6910 S.3   1 <1>  -0.2860 
  2 C       -1.4490     0.7620    -0.1010 C.2   1 <1>   0.2420 
  3 C        1.1390     2.0150     0.2700 C.3   1 <1>   0.2110 
  4 N       -1.8720     1.5580     0.8160 N.2   1 <1>  -0.3380 
  5 N       -2.3940    -0.0310    -0.5900 N.pl3 1 <1>   0.0480 
  6 C        1.9770     2.8550    -0.7110 C.2   1 <1>   0.5690 
  7 C        1.8800     1.3550     1.4520 C.3   1 <1>  -0.1600 
  8 N       -3.1680     1.2910     0.9600 N.2   1 <1>  -0.3380 
  9 C       -3.4770     0.3360     0.1260 C.2   1 <1>   0.1330 
 10 C       -2.2800    -1.0140    -1.6880 C.3   1 <1>   0.0160 
 11 O        1.4870     3.8690    -1.1440 O.2   1 <1>  -0.5700 
 12 N        3.2390     2.5420    -1.1260 N.am  1 <1>  -0.5470 
 13 C        0.9380     0.8120     2.5370 C.3   1 <1>  -0.2400 
 14 C       -4.7930    -0.2320    -0.0170 C.ar  1 <1>   0.0530 
 15 C        4.1450     1.5630    -0.7030 C.ar  1 <1>   0.1170 
 16 C       -5.0440    -1.5970     0.0100 C.ar  1 <1>  -0.1500 
 17 C       -5.9140     0.5650    -0.1850 C.ar  1 <1>  -0.1500 
 18 C        5.0920     1.8850     0.2720 C.ar  1 <1>  -0.1430 
 19 C        4.1290     0.2750    -1.2480 C.ar  1 <1>  -0.1430 
 20 C       -6.3320    -2.0720    -0.1490 C.ar  1 <1>   0.1600 
 21 C       -7.1630    -0.0070    -0.3360 C.ar  1 <1>   0.1600 
 22 C        5.9770     0.9190     0.7210 C.ar  1 <1>  -0.1500 
 23 C        5.1850     3.2920     0.8550 C.3   1 <1>  -0.0970 
 24 C        5.0220    -0.6750    -0.7850 C.ar  1 <1>  -0.1500 
 25 C        3.1710    -0.1490    -2.3550 C.3   1 <1>  -0.0970 
 26 N       -7.3980    -1.3090    -0.3300 N.ar  1 <1>  -0.6200 
 27 C        5.9400    -0.3600     0.1990 C.ar  1 <1>  -0.1500 
 28 H        0.3810     2.6690     0.6600 H     1 <1>   0.0800 
 29 H        2.5220     2.0880     1.9050 H     1 <1>   0.0800 
 30 H        2.4960     0.5500     1.0960 H     1 <1>   0.0800 
 31 H       -1.5880    -0.6500    -2.4260 H     1 <1>   0.0800 
 32 H       -3.2390    -1.1570    -2.1520 H     1 <1>   0.0800 
 33 H       -1.9230    -1.9480    -1.2940 H     1 <1>   0.0800 
 34 H        3.6130     3.2300    -1.7790 H     1 <1>   0.3700 
 35 H        0.2890     1.5910     2.8990 H     1 <1>   0.0800 
 36 H        1.5100     0.4310     3.3640 H     1 <1>   0.0800 
 37 H        0.3300     0.0130     2.1520 H     1 <1>   0.0800 
 38 H       -4.2380    -2.2890     0.1650 H     1 <1>   0.1500 
 39 H       -5.8050     1.6350    -0.1960 H     1 <1>   0.1500 
 40 H       -6.5000    -3.1350    -0.1230 H     1 <1>   0.1500 
 41 H       -8.0150     0.6390    -0.4670 H     1 <1>   0.1500 
 42 H        6.7050     1.1540     1.4770 H     1 <1>   0.1500 
 43 H        4.2370     3.5980     1.2570 H     1 <1>   0.0800 
 44 H        5.4730     3.9860     0.0860 H     1 <1>   0.0800 
 45 H        5.9140     3.3380     1.6430 H     1 <1>   0.0800 
 46 H        5.0100    -1.6720    -1.1910 H     1 <1>   0.1500 
 47 H        2.4440    -0.8350    -1.9600 H     1 <1>   0.0800 
 48 H        3.7170    -0.6430    -3.1390 H     1 <1>   0.0800 
 49 H        2.6540     0.6860    -2.7900 H     1 <1>   0.0800 
 50 H        6.6290    -1.1070     0.5530 H     1 <1>   0.1500 
@<TRIPOS>BOND
  1   1   2  1   
  2   1   3  1   
  3   2   4  2   
  4   2   5  1   
  5   3   6  1   
  6   3   7  1   
  7   3  28  1   
  8   4   8  1   
  9   5   9  1   
 10   5  10  1   
 11   6  11  2   
 12   6  12  am  
 13   7  13  1   
 14   7  29  1   
 15   7  30  1   
 16   8   9  2   
 17   9  14  1   
 18  10  31  1   
 19  10  32  1   
 20  10  33  1   
 21  12  15  1   
 22  12  34  1   
 23  13  35  1   
 24  13  36  1   
 25  13  37  1   
 26  14  16  ar  
 27  14  17  ar  
 28  15  18  ar  
 29  15  19  ar  
 30  16  20  ar  
 31  16  38  1   
 32  17  21  ar  
 33  17  39  1   
 34  18  22  ar  
 35  18  23  1   
 36  19  24  ar  
 37  19  25  1   
 38  20  26  ar  
 39  20  40  1   
 40  21  26  ar  
 41  21  41  1   
 42  22  27  ar  
 43  22  42  1   
 44  23  43  1   
 45  23  44  1   
 46  23  45  1   
 47  24  27  ar  
 48  24  46  1   
 49  25  47  1   
 50  25  48  1   
 51  25  49  1   
 52  27  50  1   
@<TRIPOS>SUBSTRUCTURE
  1 ****   1 GROUP 4 **** **** 0

# MOE 2024.06 (io_trps.svl 2023.06)
