@<TRIPOS>MOLECULE
NONAME
26 26 1 0 0 
SMALL
USER_CHARGES


@<TRIPOS>ATOM
  1 I       -0.4370    -0.2780     0.2800 I     1 <1>  -0.0810 
  2 C        1.5300    -1.0780     0.3100 C.ar  1 <1>   0.0810 
  3 C        2.5080    -0.4720    -0.4560 C.ar  1 <1>  -0.1500 
  4 C        1.7890    -2.1830     1.0970 C.ar  1 <1>  -0.1500 
  5 C        3.7860    -1.0010    -0.4300 C.ar  1 <1>  -0.1500 
  6 C        3.0740    -2.6960     1.1070 C.ar  1 <1>  -0.1500 
  7 C        4.0990    -2.1260     0.3440 C.ar  1 <1>   0.0860 
  8 C        5.4360    -2.6930     0.3650 C.2   1 <1>   0.5440 
  9 O        5.8430    -3.2890     1.3430 O.2   1 <1>  -0.5700 
 10 N        6.2650    -2.5760    -0.7170 N.am  1 <1>  -0.7300 
 11 C        7.6220    -3.1760    -0.8170 C.3   1 <1>   0.1400 
 12 C        8.6210    -2.4040     0.0460 C.3   1 <1>   0.1200 
 13 O        9.9070    -2.8430    -0.2660 O.3   1 <1>  -0.5600 
 14 C       10.8980    -2.2760     0.5270 C.3   1 <1>   0.0400 
 15 H        2.2760     0.3920    -1.0530 H     1 <1>   0.1500 
 16 H        1.0090    -2.6320     1.6880 H     1 <1>   0.1500 
 17 H        4.5560    -0.5270    -1.0130 H     1 <1>   0.1500 
 18 H        3.2980    -3.5560     1.7160 H     1 <1>   0.1500 
 19 H        5.8960    -2.1860    -1.5840 H     1 <1>   0.3700 
 20 H        7.9430    -3.1520    -1.8440 H     1 <1>   0.0800 
 21 H        7.5850    -4.2000    -0.4850 H     1 <1>   0.0800 
 22 H        8.4280    -2.5920     1.0880 H     1 <1>   0.0800 
 23 H        8.5630    -1.3510    -0.1630 H     1 <1>   0.0800 
 24 H       11.8470    -2.6700     0.2090 H     1 <1>   0.0800 
 25 H       10.7230    -2.5390     1.5560 H     1 <1>   0.0800 
 26 H       10.8870    -1.2070     0.4010 H     1 <1>   0.0800 
@<TRIPOS>BOND
  1   1   2  1   
  2   2   3  ar  
  3   2   4  ar  
  4   3   5  ar  
  5   3  15  1   
  6   4   6  ar  
  7   4  16  1   
  8   5   7  ar  
  9   5  17  1   
 10   6   7  ar  
 11   6  18  1   
 12   7   8  1   
 13   8   9  2   
 14   8  10  am  
 15  10  11  1   
 16  10  19  1   
 17  11  12  1   
 18  11  20  1   
 19  11  21  1   
 20  12  13  1   
 21  12  22  1   
 22  12  23  1   
 23  13  14  1   
 24  14  24  1   
 25  14  25  1   
 26  14  26  1   
@<TRIPOS>SUBSTRUCTURE
  1 ****   8 GROUP 4 **** **** 0

# MOE 2024.06 (io_trps.svl 2023.06)
