@<TRIPOS>MOLECULE
NONAME
37 39 1 0 0 
SMALL
USER_CHARGES


@<TRIPOS>ATOM
  1 F        0.4250    -1.9550    -1.5470 F     1 <1>  -0.3400 
  2 C        0.1450    -1.7190    -0.2700 C.3   1 <1>   1.0200 
  3 F        1.0550    -0.8630     0.1760 F     1 <1>  -0.3400 
  4 F       -0.9980    -1.0380    -0.2800 F     1 <1>  -0.3400 
  5 C        0.0090    -2.9950     0.5750 C.3   1 <1>   0.1760 
  6 N        1.2170    -3.8400     0.4460 N.pl3 1 <1>   0.3140 
  7 C       -1.2710    -3.8090     0.2190 C.3   1 <1>  -0.1600 
  8 N        2.4930    -3.3930     0.4830 N.2   1 <1>  -0.7070 
  9 C        1.1700    -5.1900     0.4150 C.2   1 <1>  -0.0680 
 10 C       -1.2790    -5.2170     0.8280 C.3   1 <1>   0.4330 
 11 C        3.2150    -4.4650     0.4290 C.2   1 <1>   0.1390 
 12 N       -0.0270    -5.8930     0.4410 N.pl3 1 <1>  -0.8530 
 13 C        2.4610    -5.6430     0.3820 C.2   1 <1>  -0.0860 
 14 C       -2.4760    -6.0250     0.3430 C.ar  1 <1>  -0.1430 
 15 C        3.0010    -6.9620     0.3300 C.2   1 <1>   0.8060 
 16 C       -2.5240    -6.5310    -0.9500 C.ar  1 <1>  -0.1500 
 17 C       -3.5460    -6.2610     1.1960 C.ar  1 <1>  -0.1500 
 18 O        4.1970    -7.1870     0.2820 O.2   1 <1>  -0.5700 
 19 O        2.1510    -8.0010     0.3440 O.3   1 <1>  -0.4300 
 20 C       -3.6200    -7.2570    -1.3830 C.ar  1 <1>  -0.1500 
 21 C       -4.6430    -6.9860     0.7650 C.ar  1 <1>  -0.1500 
 22 C        2.6130    -9.3370     0.2900 C.3   1 <1>   0.0400 
 23 C       -4.6810    -7.4840    -0.5250 C.ar  1 <1>  -0.1500 
 24 H       -0.0490    -2.6950     1.6030 H     1 <1>   0.0800 
 25 H       -1.3490    -3.9030    -0.8500 H     1 <1>   0.0800 
 26 H       -2.1450    -3.2810     0.5550 H     1 <1>   0.0800 
 27 H       -1.3060    -5.1470     1.9030 H     1 <1>   0.0800 
 28 H        4.2940    -4.4550     0.4260 H     1 <1>   0.1500 
 29 H       -0.0280    -6.9170     0.5580 H     1 <1>   0.4000 
 30 H       -1.7020    -6.3620    -1.6250 H     1 <1>   0.1500 
 31 H       -3.5360    -5.8830     2.2040 H     1 <1>   0.1500 
 32 H       -3.6460    -7.6440    -2.3860 H     1 <1>   0.1500 
 33 H       -5.4690    -7.1650     1.4320 H     1 <1>   0.1500 
 34 H        1.7620    -9.9940     0.3080 H     1 <1>   0.0800 
 35 H        3.2440    -9.5240     1.1430 H     1 <1>   0.0800 
 36 H        3.1690    -9.4780    -0.6210 H     1 <1>   0.0800 
 37 H       -5.5350    -8.0490    -0.8610 H     1 <1>   0.1500 
@<TRIPOS>BOND
  1   1   2  1   
  2   2   3  1   
  3   2   4  1   
  4   2   5  1   
  5   5   6  1   
  6   5   7  1   
  7   5  24  1   
  8   6   8  1   
  9   6   9  1   
 10   7  10  1   
 11   7  25  1   
 12   7  26  1   
 13   8  11  2   
 14   9  12  1   
 15   9  13  2   
 16  10  12  1   
 17  10  14  1   
 18  10  27  1   
 19  11  13  1   
 20  11  28  1   
 21  12  29  1   
 22  13  15  1   
 23  14  16  ar  
 24  14  17  ar  
 25  15  18  2   
 26  15  19  1   
 27  16  20  ar  
 28  16  30  1   
 29  17  21  ar  
 30  17  31  1   
 31  19  22  1   
 32  20  23  ar  
 33  20  32  1   
 34  21  23  ar  
 35  21  33  1   
 36  22  34  1   
 37  22  35  1   
 38  22  36  1   
 39  23  37  1   
@<TRIPOS>SUBSTRUCTURE
  1 ****  12 GROUP 4 **** **** 0

# MOE 2024.06 (io_trps.svl 2023.06)
