@<TRIPOS>MOLECULE
NONAME
45 47 1 0 0 
SMALL
USER_CHARGES


@<TRIPOS>ATOM
  1 O       -2.1630     1.8450     3.3450 O.2   1 <1>  -0.5700 
  2 C       -2.2730     1.8640     2.1110 C.2   1 <1>   0.7060 
  3 O       -3.4620     1.4720     1.6100 O.3   1 <1>  -0.2330 
  4 C       -1.2430     2.2410     1.2640 C.2   1 <1>  -0.1240 
  5 C       -3.6730     1.4320     0.2700 C.ar  1 <1>   0.0820 
  6 C       -1.3880     2.2280    -0.1150 C.2   1 <1>  -0.1780 
  7 C        0.0570     2.6720     1.8930 C.3   1 <1>   0.4810 
  8 C       -2.6650     1.8020    -0.6300 C.ar  1 <1>   0.0280 
  9 C       -4.9140     1.0150    -0.1890 C.ar  1 <1>  -0.1500 
 10 O       -0.4630     2.5600    -0.8730 O.3   1 <1>  -0.8500 
 11 N        1.1570     2.0420     1.1350 N.4   1 <1>  -0.9590 
 12 C       -2.9450     1.7380    -1.9920 C.ar  1 <1>  -0.1500 
 13 C       -5.1700     0.9580    -1.5460 C.ar  1 <1>  -0.1500 
 14 C        1.2680     0.5830     1.3540 C.3   1 <1>   0.3430 
 15 C        2.4100     2.8170     1.1270 C.3   1 <1>   0.3430 
 16 C       -4.1810     1.3210    -2.4490 C.ar  1 <1>  -0.1500 
 17 C        2.2410    -0.0140     0.3410 C.3   1 <1>  -0.1600 
 18 C        3.3740     2.2170     0.1050 C.3   1 <1>  -0.1600 
 19 C        3.6020     0.7110     0.3460 C.3   1 <1>  -0.0190 
 20 C        4.5920     0.1240    -0.6620 C.2   1 <1>   0.6590 
 21 O        4.3200    -0.8120    -1.3680 O.2   1 <1>  -0.5700 
 22 O        5.7850     0.7020    -0.6890 O.3   1 <1>  -0.4300 
 23 C        6.7960     0.2580    -1.5650 C.3   1 <1>   0.1200 
 24 C        8.0300     1.1270    -1.3450 C.3   1 <1>  -0.2400 
 25 H        0.0980     2.3930     2.9330 H     1 <1>   0.0800 
 26 H        0.1260     3.7440     1.8100 H     1 <1>   0.0800 
 27 H       -5.6720     0.7370     0.5200 H     1 <1>   0.1500 
 28 H        0.7320     2.1420     0.1670 H     1 <1>   0.4500 
 29 H       -2.1680     2.0250    -2.6780 H     1 <1>   0.1500 
 30 H       -6.1310     0.6350    -1.9040 H     1 <1>   0.1500 
 31 H        0.2990     0.1250     1.2280 H     1 <1>   0.0800 
 32 H        1.6140     0.3900     2.3550 H     1 <1>   0.0800 
 33 H        2.8560     2.7980     2.1070 H     1 <1>   0.0800 
 34 H        2.1990     3.8400     0.8590 H     1 <1>   0.0800 
 35 H       -4.3740     1.2810    -3.5060 H     1 <1>   0.1500 
 36 H        1.7960     0.0490    -0.6390 H     1 <1>   0.0800 
 37 H        2.3810    -1.0570     0.5620 H     1 <1>   0.0800 
 38 H        4.3090     2.7450     0.1610 H     1 <1>   0.0800 
 39 H        2.9720     2.3710    -0.8830 H     1 <1>   0.0800 
 40 H        4.0470     0.5860     1.3170 H     1 <1>   0.0800 
 41 H        6.4340     0.3460    -2.5760 H     1 <1>   0.0800 
 42 H        7.0070    -0.7760    -1.3470 H     1 <1>   0.0800 
 43 H        7.8020     2.1560    -1.5590 H     1 <1>   0.0800 
 44 H        8.8180     0.8090    -2.0030 H     1 <1>   0.0800 
 45 H        8.3730     1.0360    -0.3310 H     1 <1>   0.0800 
@<TRIPOS>BOND
  1   1   2  2   
  2   2   3  1   
  3   2   4  1   
  4   3   5  1   
  5   4   6  2   
  6   4   7  1   
  7   5   8  ar  
  8   5   9  ar  
  9   6   8  1   
 10   6  10  1   
 11   7  11  1   
 12   7  25  1   
 13   7  26  1   
 14   8  12  ar  
 15   9  13  ar  
 16   9  27  1   
 17  11  14  1   
 18  11  15  1   
 19  11  28  1   
 20  12  16  ar  
 21  12  29  1   
 22  13  16  ar  
 23  13  30  1   
 24  14  17  1   
 25  14  31  1   
 26  14  32  1   
 27  15  18  1   
 28  15  33  1   
 29  15  34  1   
 30  16  35  1   
 31  17  19  1   
 32  17  36  1   
 33  17  37  1   
 34  18  19  1   
 35  18  38  1   
 36  18  39  1   
 37  19  20  1   
 38  19  40  1   
 39  20  21  2   
 40  20  22  1   
 41  22  23  1   
 42  23  24  1   
 43  23  41  1   
 44  23  42  1   
 45  24  43  1   
 46  24  44  1   
 47  24  45  1   
@<TRIPOS>SUBSTRUCTURE
  1 ****  11 GROUP 4 **** **** 0

# MOE 2024.06 (io_trps.svl 2023.06)
