@<TRIPOS>MOLECULE
NONAME
54 55 1 0 0 
SMALL
USER_CHARGES


@<TRIPOS>ATOM
  1 O        0.6850    -2.1300    -0.6740 O.2   1 <1>  -0.5700 
  2 C        0.8040    -1.7200     0.4640 C.2   1 <1>   0.5440 
  3 N       -0.3270    -1.4600     1.1970 N.am  1 <1>  -0.7300 
  4 C        2.1220    -1.5310     1.0470 C.ar  1 <1>   0.0860 
  5 C       -1.7420    -1.5830     0.7800 C.3   1 <1>   0.2200 
  6 C        3.1970    -2.3190     0.6390 C.ar  1 <1>  -0.1500 
  7 C        2.3640    -0.5650     2.0270 C.ar  1 <1>  -0.1500 
  8 C       -2.0680    -3.0380     0.4340 C.3   1 <1>  -0.1600 
  9 C       -2.0290    -0.6580    -0.4060 C.3   1 <1>  -0.1600 
 10 C        4.4630    -2.1640     1.1890 C.ar  1 <1>   0.0830 
 11 C        3.6190    -0.4040     2.5850 C.ar  1 <1>  -0.1500 
 12 C       -3.4970    -3.2210    -0.0850 C.3   1 <1>   0.5030 
 13 C       -3.4590    -0.7990    -0.9380 C.3   1 <1>   0.5030 
 14 O        5.5480    -2.9000     0.8350 O.3   1 <1>  -0.3630 
 15 C        4.6650    -1.2050     2.1670 C.ar  1 <1>  -0.1500 
 16 N       -3.8130    -2.2160    -1.1120 N.4   1 <1>  -0.9060 
 17 C       -4.5320    -3.1840     1.0430 C.3   1 <1>  -0.2400 
 18 C       -3.6160    -4.5720    -0.7890 C.3   1 <1>  -0.2400 
 19 C       -3.5480    -0.1840    -2.3340 C.3   1 <1>  -0.2400 
 20 C       -4.4820    -0.0920    -0.0440 C.3   1 <1>  -0.2400 
 21 C        5.5400    -3.8370    -0.2200 C.3   1 <1>   0.2000 
 22 C        6.7490    -4.7460    -0.0170 C.3   1 <1>  -0.2400 
 23 C        5.6330    -3.0890    -1.5530 C.3   1 <1>  -0.2400 
 24 H       -0.1900    -1.2260     2.1830 H     1 <1>   0.3700 
 25 H       -2.3510    -1.2780     1.6140 H     1 <1>   0.0800 
 26 H        3.0140    -3.0540    -0.1210 H     1 <1>   0.1500 
 27 H        1.5670     0.0780     2.3540 H     1 <1>   0.1500 
 28 H       -1.9200    -3.6540     1.3040 H     1 <1>   0.0800 
 29 H       -1.3870    -3.3880    -0.3200 H     1 <1>   0.0800 
 30 H       -1.3480    -0.8780    -1.2060 H     1 <1>   0.0800 
 31 H       -1.8540     0.3620    -0.1120 H     1 <1>   0.0800 
 32 H        3.7880     0.3440     3.3400 H     1 <1>   0.1500 
 33 H        5.6460    -1.0900     2.5920 H     1 <1>   0.1500 
 34 H       -4.8070    -2.2790    -1.3360 H     1 <1>   0.4500 
 35 H       -3.3080    -2.5180    -1.9490 H     1 <1>   0.4500 
 36 H       -4.3940    -2.3490     1.7000 H     1 <1>   0.0800 
 37 H       -4.4300    -4.0650     1.6530 H     1 <1>   0.0800 
 38 H       -5.5340    -3.1720     0.6540 H     1 <1>   0.0800 
 39 H       -2.9290    -4.6460    -1.6140 H     1 <1>   0.0800 
 40 H       -4.6170    -4.7390    -1.1480 H     1 <1>   0.0800 
 41 H       -3.3800    -5.3660    -0.1020 H     1 <1>   0.0800 
 42 H       -2.8680    -0.6630    -3.0180 H     1 <1>   0.0800 
 43 H       -3.2810     0.8580    -2.2930 H     1 <1>   0.0800 
 44 H       -4.5470    -0.2500    -2.7270 H     1 <1>   0.0800 
 45 H       -4.3600    -0.3350     0.9920 H     1 <1>   0.0800 
 46 H       -5.4880    -0.3160    -0.3500 H     1 <1>   0.0800 
 47 H       -4.3490     0.9730    -0.1190 H     1 <1>   0.0800 
 48 H        4.6430    -4.4280    -0.1580 H     1 <1>   0.0800 
 49 H        7.6580    -4.1720    -0.0420 H     1 <1>   0.0800 
 50 H        6.7880    -5.4870    -0.7940 H     1 <1>   0.0800 
 51 H        6.6720    -5.2500     0.9300 H     1 <1>   0.0800 
 52 H        6.5250    -2.4910    -1.5820 H     1 <1>   0.0800 
 53 H        4.7780    -2.4530    -1.6940 H     1 <1>   0.0800 
 54 H        5.6640    -3.7920    -2.3650 H     1 <1>   0.0800 
@<TRIPOS>BOND
  1   1   2  2   
  2   2   3  am  
  3   2   4  1   
  4   3   5  1   
  5   3  24  1   
  6   4   6  ar  
  7   4   7  ar  
  8   5   8  1   
  9   5   9  1   
 10   5  25  1   
 11   6  10  ar  
 12   6  26  1   
 13   7  11  ar  
 14   7  27  1   
 15   8  12  1   
 16   8  28  1   
 17   8  29  1   
 18   9  13  1   
 19   9  30  1   
 20   9  31  1   
 21  10  14  1   
 22  10  15  ar  
 23  11  15  ar  
 24  11  32  1   
 25  12  16  1   
 26  12  17  1   
 27  12  18  1   
 28  13  16  1   
 29  13  19  1   
 30  13  20  1   
 31  14  21  1   
 32  15  33  1   
 33  16  34  1   
 34  16  35  1   
 35  17  36  1   
 36  17  37  1   
 37  17  38  1   
 38  18  39  1   
 39  18  40  1   
 40  18  41  1   
 41  19  42  1   
 42  19  43  1   
 43  19  44  1   
 44  20  45  1   
 45  20  46  1   
 46  20  47  1   
 47  21  22  1   
 48  21  23  1   
 49  21  48  1   
 50  22  49  1   
 51  22  50  1   
 52  22  51  1   
 53  23  52  1   
 54  23  53  1   
 55  23  54  1   
@<TRIPOS>SUBSTRUCTURE
  1 ****   2 GROUP 4 **** **** 0

# MOE 2024.06 (io_trps.svl 2023.06)
