@<TRIPOS>MOLECULE
NONAME
46 49 1 0 0 
SMALL
USER_CHARGES


@<TRIPOS>ATOM
  1 CL      -0.3360     0.3340     0.8380 Cl    1 <1>  -0.1770 
  2 C       -1.5290     1.5540     0.4730 C.ar  1 <1>   0.1770 
  3 C       -1.1320     2.8690     0.3200 C.ar  1 <1>  -0.1500 
  4 C       -2.8540     1.1890     0.3390 C.ar  1 <1>  -0.1500 
  5 C       -2.0820     3.8330     0.0320 C.ar  1 <1>  -0.1500 
  6 C       -3.7990     2.1580     0.0500 C.ar  1 <1>  -0.1500 
  7 C       -3.4300     3.4960    -0.1040 C.ar  1 <1>  -0.0230 
  8 N       -4.3950     4.5030    -0.3980 N.pl3 1 <1>   0.5930 
  9 N       -4.1120     5.5740    -1.2080 N.2   1 <1>  -0.7070 
 10 C       -5.6920     4.5970     0.0590 C.ar  1 <1>   0.1050 
 11 C       -5.1920     6.2770    -1.2470 C.2   1 <1>   0.1390 
 12 N       -6.4010     3.7870     0.8670 N.ar  1 <1>  -0.5670 
 13 C       -6.2220     5.7380    -0.4690 C.ar  1 <1>   0.0000 
 14 C       -7.6310     4.1820     1.0910 C.ar  1 <1>   0.4700 
 15 C       -7.5440     6.0640    -0.1460 C.ar  1 <1>   0.4100 
 16 N       -8.2520     5.2740     0.6280 N.ar  1 <1>  -0.6200 
 17 N       -8.1310     7.2170    -0.6170 N.pl3 1 <1>  -0.8380 
 18 C       -9.6030     7.2580    -0.8980 C.3   1 <1>   0.2090 
 19 C       -7.5510     8.5510    -0.2610 C.3   1 <1>   0.2090 
 20 C      -10.3790     7.9270     0.2510 C.3   1 <1>   0.1400 
 21 C       -8.3360     9.2200     0.8820 C.3   1 <1>   0.1400 
 22 N       -9.7970     9.2640     0.5780 N.am  1 <1>  -0.6600 
 23 C      -10.4930    10.4400     0.5030 C.2   1 <1>   0.7800 
 24 O       -9.9750    11.5210     0.7100 O.2   1 <1>  -0.5700 
 25 O      -11.7860    10.3770     0.1800 O.3   1 <1>  -0.4300 
 26 C      -12.5640    11.5480     0.0890 C.3   1 <1>   0.1200 
 27 C      -13.9840    11.1440    -0.2960 C.3   1 <1>  -0.2400 
 28 H       -0.0940     3.1290     0.4260 H     1 <1>   0.1500 
 29 H       -3.1390     0.1590     0.4600 H     1 <1>   0.1500 
 30 H       -1.7750     4.8590    -0.0930 H     1 <1>   0.1500 
 31 H       -4.8300     1.8670    -0.0570 H     1 <1>   0.1500 
 32 H       -5.3020     7.1840    -1.8180 H     1 <1>   0.1500 
 33 H       -8.2280     3.5530     1.7300 H     1 <1>   0.1500 
 34 H       -9.9770     6.2600    -1.0480 H     1 <1>   0.0800 
 35 H       -9.7720     7.8100    -1.8050 H     1 <1>   0.0800 
 36 H       -7.5750     9.1890    -1.1270 H     1 <1>   0.0800 
 37 H       -6.5250     8.4410     0.0420 H     1 <1>   0.0800 
 38 H      -10.3210     7.2960     1.1210 H     1 <1>   0.0800 
 39 H      -11.4140     8.0140    -0.0260 H     1 <1>   0.0800 
 40 H       -7.9540    10.2130     1.0420 H     1 <1>   0.0800 
 41 H       -8.1850     8.6580     1.7860 H     1 <1>   0.0800 
 42 H      -12.1280    12.1900    -0.6580 H     1 <1>   0.0800 
 43 H      -12.5480    12.0420     1.0460 H     1 <1>   0.0800 
 44 H      -13.9810    10.6420    -1.2470 H     1 <1>   0.0800 
 45 H      -14.6020    12.0200    -0.3730 H     1 <1>   0.0800 
 46 H      -14.4000    10.4950     0.4540 H     1 <1>   0.0800 
@<TRIPOS>BOND
  1   1   2  1   
  2   2   3  ar  
  3   2   4  ar  
  4   3   5  ar  
  5   3  28  1   
  6   4   6  ar  
  7   4  29  1   
  8   5   7  ar  
  9   5  30  1   
 10   6   7  ar  
 11   6  31  1   
 12   7   8  1   
 13   8   9  1   
 14   8  10  1   
 15   9  11  2   
 16  10  12  ar  
 17  10  13  ar  
 18  11  13  1   
 19  11  32  1   
 20  12  14  ar  
 21  13  15  ar  
 22  14  16  ar  
 23  14  33  1   
 24  15  16  ar  
 25  15  17  1   
 26  17  18  1   
 27  17  19  1   
 28  18  20  1   
 29  18  34  1   
 30  18  35  1   
 31  19  21  1   
 32  19  36  1   
 33  19  37  1   
 34  20  22  1   
 35  20  38  1   
 36  20  39  1   
 37  21  22  1   
 38  21  40  1   
 39  21  41  1   
 40  22  23  am  
 41  23  24  2   
 42  23  25  1   
 43  25  26  1   
 44  26  27  1   
 45  26  42  1   
 46  26  43  1   
 47  27  44  1   
 48  27  45  1   
 49  27  46  1   
@<TRIPOS>SUBSTRUCTURE
  1 ****  15 GROUP 4 **** **** 0

# MOE 2024.06 (io_trps.svl 2023.06)
