@<TRIPOS>MOLECULE
NONAME
41 42 1 0 0 
SMALL
USER_CHARGES


@<TRIPOS>ATOM
  1 O        0.2590    -0.6440    -0.3250 O.2   1 <1>  -0.5700 
  2 C        0.2580    -1.8480    -0.2980 C.2   1 <1>   0.5690 
  3 N        1.3990    -2.5670    -0.5530 N.am  1 <1>  -0.6600 
  4 C       -1.0400    -2.5400     0.0440 C.3   1 <1>  -0.1790 
  5 C        2.6370    -1.8800    -1.0350 C.3   1 <1>   0.1400 
  6 C        1.5820    -4.0220    -0.2660 C.3   1 <1>   0.1400 
  7 C        3.7900    -2.0880    -0.0410 C.3   1 <1>   0.3430 
  8 C        2.7570    -4.2350     0.7130 C.3   1 <1>   0.3430 
  9 N        4.0170    -3.5490     0.2600 N.4   1 <1>  -0.9590 
 10 C        5.1320    -3.7350     1.2260 C.3   1 <1>   0.4860 
 11 C        6.4100    -3.2600     0.5640 C.ar  1 <1>  -0.1440 
 12 C        7.0810    -4.0340    -0.3790 C.ar  1 <1>  -0.1440 
 13 C        6.9060    -2.0090     0.9090 C.ar  1 <1>  -0.1500 
 14 C        8.2240    -3.5260    -0.9750 C.ar  1 <1>  -0.1500 
 15 C        6.6210    -5.4310    -0.7820 C.3   1 <1>  -0.0970 
 16 C        8.0480    -1.5090     0.3100 C.ar  1 <1>  -0.1440 
 17 C        8.7030    -2.2750    -0.6370 C.ar  1 <1>  -0.1500 
 18 C        8.5890    -0.1420     0.6870 C.3   1 <1>  -0.0970 
 19 H       -1.2530    -3.3070    -0.6760 H     1 <1>   0.0800 
 20 H       -1.8430    -1.8260     0.0260 H     1 <1>   0.0800 
 21 H       -0.9840    -2.9640     1.0290 H     1 <1>   0.0800 
 22 H        2.4670    -0.8230    -1.1570 H     1 <1>   0.0800 
 23 H        2.9100    -2.2710    -1.9990 H     1 <1>   0.0800 
 24 H        1.7770    -4.5420    -1.1890 H     1 <1>   0.0800 
 25 H        0.6910    -4.4450     0.1630 H     1 <1>   0.0800 
 26 H        3.5530    -1.5590     0.8680 H     1 <1>   0.0800 
 27 H        4.6870    -1.6530    -0.4520 H     1 <1>   0.0800 
 28 H        2.9340    -5.2920     0.8240 H     1 <1>   0.0800 
 29 H        2.4640    -3.8470     1.6760 H     1 <1>   0.0800 
 30 H        4.3400    -3.9750    -0.6170 H     1 <1>   0.4500 
 31 H        5.2330    -4.7750     1.4890 H     1 <1>   0.0800 
 32 H        4.9490    -3.1710     2.1260 H     1 <1>   0.0800 
 33 H        6.4090    -1.4090     1.6520 H     1 <1>   0.1500 
 34 H        8.7610    -4.1030    -1.7100 H     1 <1>   0.1500 
 35 H        6.3640    -6.0160     0.0820 H     1 <1>   0.0800 
 36 H        7.4100    -5.9510    -1.2960 H     1 <1>   0.0800 
 37 H        5.7770    -5.3740    -1.4450 H     1 <1>   0.0800 
 38 H        9.5950    -1.9020    -1.1110 H     1 <1>   0.1500 
 39 H        7.8070     0.4890     1.0710 H     1 <1>   0.0800 
 40 H        9.0200     0.3410    -0.1720 H     1 <1>   0.0800 
 41 H        9.3500    -0.2470     1.4400 H     1 <1>   0.0800 
@<TRIPOS>BOND
  1   1   2  2   
  2   2   3  am  
  3   2   4  1   
  4   3   5  1   
  5   3   6  1   
  6   4  19  1   
  7   4  20  1   
  8   4  21  1   
  9   5   7  1   
 10   5  22  1   
 11   5  23  1   
 12   6   8  1   
 13   6  24  1   
 14   6  25  1   
 15   7   9  1   
 16   7  26  1   
 17   7  27  1   
 18   8   9  1   
 19   8  28  1   
 20   8  29  1   
 21   9  10  1   
 22   9  30  1   
 23  10  11  1   
 24  10  31  1   
 25  10  32  1   
 26  11  12  ar  
 27  11  13  ar  
 28  12  14  ar  
 29  12  15  1   
 30  13  16  ar  
 31  13  33  1   
 32  14  17  ar  
 33  14  34  1   
 34  15  35  1   
 35  15  36  1   
 36  15  37  1   
 37  16  17  ar  
 38  16  18  1   
 39  17  38  1   
 40  18  39  1   
 41  18  40  1   
 42  18  41  1   
@<TRIPOS>SUBSTRUCTURE
  1 ****   7 GROUP 4 **** **** 0

# MOE 2024.06 (io_trps.svl 2023.06)
