@<TRIPOS>MOLECULE
NONAME
29 29 1 0 0 
SMALL
USER_CHARGES


@<TRIPOS>ATOM
  1 O       -0.8370    -0.6470     1.4850 O.co2 1 <1>  -0.9000 
  2 C       -1.1810    -1.1520     0.4200 C.2   1 <1>   0.9060 
  3 O       -0.4390    -1.3520    -0.5360 O.co2 1 <1>  -0.9000 
  4 C       -2.6380    -1.3340     0.2110 C.3   1 <1>  -0.2660 
  5 C       -3.0950     0.0800     0.0030 C.3   1 <1>   0.3430 
  6 N       -4.5540     0.0690    -0.2120 N.4   1 <1>  -0.9060 
  7 C       -5.1350     1.4020    -0.3720 C.3   1 <1>   0.5660 
  8 C       -6.6360     1.2490    -0.1960 C.ar  1 <1>  -0.1440 
  9 C       -4.7600     1.9780    -1.7350 C.3   1 <1>  -0.2400 
 10 C       -7.4260     0.5750    -1.1210 C.ar  1 <1>  -0.1500 
 11 C       -7.2360     1.7910     0.9330 C.ar  1 <1>  -0.1500 
 12 C       -8.7890     0.4460    -0.9180 C.ar  1 <1>  -0.1500 
 13 C       -8.5990     1.6620     1.1360 C.ar  1 <1>  -0.1500 
 14 C       -9.3750     0.9890     0.2110 C.ar  1 <1>  -0.1500 
 15 H       -3.0570    -1.7770     1.0940 H     1 <1>   0.0800 
 16 H       -2.7950    -1.9510    -0.6530 H     1 <1>   0.0800 
 17 H       -2.5810     0.4960    -0.8500 H     1 <1>   0.0800 
 18 H       -2.8390     0.6650     0.8750 H     1 <1>   0.0800 
 19 H       -5.0050    -0.3740     0.5940 H     1 <1>   0.4500 
 20 H       -4.7760    -0.5010    -1.0300 H     1 <1>   0.4500 
 21 H       -4.7610     2.0530     0.4030 H     1 <1>   0.0800 
 22 H       -5.0300     1.3140    -2.5350 H     1 <1>   0.0800 
 23 H       -3.7060     2.1850    -1.7840 H     1 <1>   0.0800 
 24 H       -5.2820     2.9070    -1.8800 H     1 <1>   0.0800 
 25 H       -7.0020     0.1440    -2.0110 H     1 <1>   0.1500 
 26 H       -6.6550     2.3220     1.6700 H     1 <1>   0.1500 
 27 H       -9.3990    -0.0740    -1.6370 H     1 <1>   0.1500 
 28 H       -9.0600     2.0850     2.0120 H     1 <1>   0.1500 
 29 H      -10.4360     0.8890     0.3680 H     1 <1>   0.1500 
@<TRIPOS>BOND
  1   1   2  ar  
  2   2   3  ar  
  3   2   4  1   
  4   4   5  1   
  5   4  15  1   
  6   4  16  1   
  7   5   6  1   
  8   5  17  1   
  9   5  18  1   
 10   6   7  1   
 11   6  19  1   
 12   6  20  1   
 13   7   8  1   
 14   7   9  1   
 15   7  21  1   
 16   8  10  ar  
 17   8  11  ar  
 18   9  22  1   
 19   9  23  1   
 20   9  24  1   
 21  10  12  ar  
 22  10  25  1   
 23  11  13  ar  
 24  11  26  1   
 25  12  14  ar  
 26  12  27  1   
 27  13  14  ar  
 28  13  28  1   
 29  14  29  1   
@<TRIPOS>SUBSTRUCTURE
  1 ****   6 GROUP 4 **** **** 0

# MOE 2024.06 (io_trps.svl 2023.06)
