@<TRIPOS>MOLECULE
NONAME
40 42 1 0 0 
SMALL
USER_CHARGES


@<TRIPOS>ATOM
  1 O        0.4940     1.4260    -0.4280 O.2   1 <1>  -0.5700 
  2 C        1.6270     1.8430    -0.3460 C.2   1 <1>   0.6900 
  3 N        2.3340     1.7120     0.8030 N.am  1 <1>  -0.4900 
  4 N        2.2260     2.4570    -1.4020 N.am  1 <1>  -0.5390 
  5 C        3.6140     2.1640     0.9520 C.2   1 <1>   0.6160 
  6 C        3.5330     2.9470    -1.3260 C.2   1 <1>  -0.0410 
  7 O        4.1320     1.9780     2.0380 O.2   1 <1>  -0.5700 
  8 C        4.2540     2.8230    -0.1830 C.2   1 <1>   0.1140 
  9 N        5.5760     3.3540    -0.1760 N.pl3 1 <1>  -0.8380 
 10 C        5.7630     4.5760     0.6520 C.3   1 <1>   0.2890 
 11 C        6.6760     2.4140     0.2040 C.3   1 <1>   0.2090 
 12 C        6.5420     5.6150    -0.1710 C.3   1 <1>  -0.1600 
 13 C        6.6310     4.1350     1.8190 C.3   1 <1>  -0.1600 
 14 C        7.6150     3.2190     1.1150 C.3   1 <1>   0.0000 
 15 C        7.9490     5.1510    -0.6520 C.3   1 <1>   0.0000 
 16 C        8.5990     4.1100     0.3110 C.3   1 <1>  -0.1600 
 17 C        8.3750     2.3260     2.1060 C.3   1 <1>  -0.2400 
 18 C        7.8650     4.5890    -2.0860 C.3   1 <1>  -0.2400 
 19 C        8.8690     6.3820    -0.7340 C.3   1 <1>  -0.2400 
 20 H        1.8920     1.2550     1.5900 H     1 <1>   0.3700 
 21 H        1.6610     2.5330    -2.2490 H     1 <1>   0.3700 
 22 H        3.9430     3.4220    -2.2010 H     1 <1>   0.1500 
 23 H        4.8210     4.9770     0.9890 H     1 <1>   0.0800 
 24 H        7.1930     2.0560    -0.6680 H     1 <1>   0.0800 
 25 H        6.2750     1.5690     0.7370 H     1 <1>   0.0800 
 26 H        6.6510     6.4810     0.4560 H     1 <1>   0.0800 
 27 H        5.9400     5.9190    -1.0080 H     1 <1>   0.0800 
 28 H        6.0360     3.5970     2.5340 H     1 <1>   0.0800 
 29 H        7.1050     4.9620     2.3170 H     1 <1>   0.0800 
 30 H        9.2780     3.4830    -0.2400 H     1 <1>   0.0800 
 31 H        9.1980     4.6390     1.0310 H     1 <1>   0.0800 
 32 H        7.6860     1.7350     2.6840 H     1 <1>   0.0800 
 33 H        8.9570     2.9250     2.7830 H     1 <1>   0.0800 
 34 H        9.0360     1.6610     1.5790 H     1 <1>   0.0800 
 35 H        7.2080     3.7450    -2.1480 H     1 <1>   0.0800 
 36 H        8.8360     4.2820    -2.4320 H     1 <1>   0.0800 
 37 H        7.4930     5.3380    -2.7610 H     1 <1>   0.0800 
 38 H        8.9820     6.8410     0.2330 H     1 <1>   0.0800 
 39 H        8.4610     7.1160    -1.4070 H     1 <1>   0.0800 
 40 H        9.8450     6.1020    -1.0890 H     1 <1>   0.0800 
@<TRIPOS>BOND
  1   1   2  2   
  2   2   3  am  
  3   2   4  am  
  4   3   5  am  
  5   3  20  1   
  6   4   6  1   
  7   4  21  1   
  8   5   7  2   
  9   5   8  1   
 10   6   8  2   
 11   6  22  1   
 12   8   9  1   
 13   9  10  1   
 14   9  11  1   
 15  10  12  1   
 16  10  13  1   
 17  10  23  1   
 18  11  14  1   
 19  11  24  1   
 20  11  25  1   
 21  12  15  1   
 22  12  26  1   
 23  12  27  1   
 24  13  14  1   
 25  13  28  1   
 26  13  29  1   
 27  14  16  1   
 28  14  17  1   
 29  15  16  1   
 30  15  18  1   
 31  15  19  1   
 32  16  30  1   
 33  16  31  1   
 34  17  32  1   
 35  17  33  1   
 36  17  34  1   
 37  18  35  1   
 38  18  36  1   
 39  18  37  1   
 40  19  38  1   
 41  19  39  1   
 42  19  40  1   
@<TRIPOS>SUBSTRUCTURE
  1 ****   9 GROUP 4 **** **** 0

# MOE 2024.06 (io_trps.svl 2023.06)
