@<TRIPOS>MOLECULE
NONAME
47 49 1 0 0 
SMALL
USER_CHARGES


@<TRIPOS>ATOM
  1 O       -1.0770    -1.9280     2.1740 O.2   1 <1>  -0.5700 
  2 C       -1.0950    -1.3240     1.1270 C.2   1 <1>   0.5690 
  3 N       -0.0330    -1.3350     0.2570 N.am  1 <1>  -0.5470 
  4 C       -2.3390    -0.4940     0.7170 C.3   1 <1>   0.2050 
  5 C        1.1980    -2.0060     0.2860 C.ar  1 <1>   0.1170 
  6 C       -1.8360     0.7630    -0.0400 C.ar  1 <1>  -0.1440 
  7 C       -3.2550    -1.3820    -0.1590 C.3   1 <1>  -0.1600 
  8 C       -3.1800    -0.0270     1.9340 C.3   1 <1>  -0.1600 
  9 C        2.2420    -1.5100    -0.4860 C.ar  1 <1>  -0.1500 
 10 C        1.4240    -3.1550     1.0360 C.ar  1 <1>  -0.1500 
 11 C       -1.0420     1.6800     0.6440 C.ar  1 <1>  -0.1500 
 12 C       -2.1070     1.0150    -1.3830 C.ar  1 <1>  -0.1500 
 13 C       -3.9500    -2.4670     0.6670 C.3   1 <1>   0.1200 
 14 C       -3.9740    -1.1590     2.6040 C.3   1 <1>   0.1200 
 15 C        3.4740    -2.1380    -0.5070 C.ar  1 <1>  -0.1500 
 16 C        2.6550    -3.7850     1.0170 C.ar  1 <1>  -0.1500 
 17 C       -0.5390     2.8080     0.0210 C.ar  1 <1>  -0.1500 
 18 C       -1.6060     2.1420    -2.0100 C.ar  1 <1>  -0.1500 
 19 O       -4.7160    -1.8410     1.6440 O.3   1 <1>  -0.5600 
 20 C        3.6880    -3.2820     0.2440 C.ar  1 <1>  -0.1430 
 21 C       -0.8200     3.0460    -1.3180 C.ar  1 <1>   0.0830 
 22 C        5.0400    -3.9720     0.2260 C.3   1 <1>  -0.0970 
 23 O       -0.3690     4.1220    -2.0090 O.3   1 <1>  -0.3630 
 24 C        0.3950     5.1280    -1.3820 C.3   1 <1>   0.0400 
 25 H       -0.1200    -0.6480    -0.4940 H     1 <1>   0.3700 
 26 H       -2.6860    -1.8460    -0.9440 H     1 <1>   0.0800 
 27 H       -4.0310    -0.7870    -0.6070 H     1 <1>   0.0800 
 28 H       -3.8820     0.7210     1.6110 H     1 <1>   0.0800 
 29 H       -2.5460     0.4240     2.6750 H     1 <1>   0.0800 
 30 H        2.0940    -0.6220    -1.0740 H     1 <1>   0.1500 
 31 H        0.6360    -3.5670     1.6390 H     1 <1>   0.1500 
 32 H       -0.7960     1.5200     1.6810 H     1 <1>   0.1500 
 33 H       -2.7070     0.3520    -1.9780 H     1 <1>   0.1500 
 34 H       -3.2480    -3.1320     1.1430 H     1 <1>   0.0800 
 35 H       -4.6160    -3.0440     0.0500 H     1 <1>   0.0800 
 36 H       -4.6650    -0.7550     3.3230 H     1 <1>   0.0800 
 37 H       -3.3330    -1.8630     3.1060 H     1 <1>   0.0800 
 38 H        4.2680    -1.7330    -1.1100 H     1 <1>   0.1500 
 39 H        2.8050    -4.6710     1.6100 H     1 <1>   0.1500 
 40 H        0.0680     3.4850     0.5920 H     1 <1>   0.1500 
 41 H       -1.8220     2.3300    -3.0460 H     1 <1>   0.1500 
 42 H        5.5310    -3.8150    -0.7170 H     1 <1>   0.0800 
 43 H        4.9230    -5.0310     0.3740 H     1 <1>   0.0800 
 44 H        5.6590    -3.5780     1.0120 H     1 <1>   0.0800 
 45 H        0.6180     5.8830    -2.1140 H     1 <1>   0.0800 
 46 H        1.3080     4.6950    -1.0140 H     1 <1>   0.0800 
 47 H       -0.1810     5.5550    -0.5800 H     1 <1>   0.0800 
@<TRIPOS>BOND
  1   1   2  2   
  2   2   3  am  
  3   2   4  1   
  4   3   5  1   
  5   3  25  1   
  6   4   6  1   
  7   4   7  1   
  8   4   8  1   
  9   5   9  ar  
 10   5  10  ar  
 11   6  11  ar  
 12   6  12  ar  
 13   7  13  1   
 14   7  26  1   
 15   7  27  1   
 16   8  14  1   
 17   8  28  1   
 18   8  29  1   
 19   9  15  ar  
 20   9  30  1   
 21  10  16  ar  
 22  10  31  1   
 23  11  17  ar  
 24  11  32  1   
 25  12  18  ar  
 26  12  33  1   
 27  13  19  1   
 28  13  34  1   
 29  13  35  1   
 30  14  19  1   
 31  14  36  1   
 32  14  37  1   
 33  15  20  ar  
 34  15  38  1   
 35  16  20  ar  
 36  16  39  1   
 37  17  21  ar  
 38  17  40  1   
 39  18  21  ar  
 40  18  41  1   
 41  20  22  1   
 42  21  23  1   
 43  22  42  1   
 44  22  43  1   
 45  22  44  1   
 46  23  24  1   
 47  24  45  1   
 48  24  46  1   
 49  24  47  1   
@<TRIPOS>SUBSTRUCTURE
  1 ****   3 GROUP 4 **** **** 0

# MOE 2024.06 (io_trps.svl 2023.06)
