@<TRIPOS>MOLECULE
NONAME
44 44 1 0 0 
SMALL
USER_CHARGES


@<TRIPOS>ATOM
  1 O       -0.6160     0.5200     0.4910 O.2   1 <1>  -0.5700 
  2 C       -1.3670     1.3370    -0.0060 C.2   1 <1>   0.6900 
  3 N       -2.6510     1.0320    -0.3290 N.am  1 <1>  -0.5470 
  4 N       -0.9740     2.6100    -0.2620 N.am  1 <1>  -0.7300 
  5 C       -3.4060    -0.1500    -0.2820 C.ar  1 <1>   0.1170 
  6 C        0.3310     3.2390    -0.0530 C.3   1 <1>   0.3000 
  7 C       -4.8080    -0.1000    -0.1390 C.ar  1 <1>   0.1170 
  8 C       -2.7770    -1.3830    -0.3960 C.ar  1 <1>  -0.1500 
  9 C        0.1970     4.6840    -0.5310 C.3   1 <1>  -0.2400 
 10 C        0.6840     3.2240     1.4350 C.3   1 <1>  -0.2400 
 11 C        1.3920     2.5210    -0.8870 C.3   1 <1>  -0.2400 
 12 N       -5.5540     1.0960     0.0220 N.am  1 <1>  -0.5470 
 13 C       -5.5280    -1.2980    -0.1120 C.ar  1 <1>  -0.1430 
 14 C       -3.5000    -2.5580    -0.3670 C.ar  1 <1>  -0.1500 
 15 C       -5.4780     2.3890    -0.4140 C.2   1 <1>   0.5690 
 16 C       -4.8720    -2.5140    -0.2250 C.ar  1 <1>  -0.1500 
 17 C       -7.0470    -1.3140     0.0410 C.3   1 <1>  -0.0970 
 18 O       -4.5620     2.8470    -1.0580 O.2   1 <1>  -0.5700 
 19 C       -6.6470     3.3040    -0.0540 C.3   1 <1>   0.1810 
 20 O       -7.6840     2.5900     0.5810 O.3   1 <1>  -0.5600 
 21 C       -8.7770     3.3780     0.9300 C.3   1 <1>   0.0400 
 22 H       -3.2060     1.8390    -0.6180 H     1 <1>   0.3700 
 23 H       -1.6480     3.2140    -0.7260 H     1 <1>   0.3700 
 24 H       -1.7100    -1.4290    -0.5120 H     1 <1>   0.1500 
 25 H       -0.5560     5.2010     0.0360 H     1 <1>   0.0800 
 26 H       -0.0620     4.7140    -1.5750 H     1 <1>   0.0800 
 27 H        1.1290     5.2030    -0.4020 H     1 <1>   0.0800 
 28 H       -0.0950     3.6910     2.0100 H     1 <1>   0.0800 
 29 H        1.6020     3.7550     1.6040 H     1 <1>   0.0800 
 30 H        0.8150     2.2160     1.7830 H     1 <1>   0.0800 
 31 H        1.1060     2.5000    -1.9230 H     1 <1>   0.0800 
 32 H        1.5260     1.5120    -0.5420 H     1 <1>   0.0800 
 33 H        2.3360     3.0270    -0.8020 H     1 <1>   0.0800 
 34 H       -6.4440     0.9470     0.5070 H     1 <1>   0.3700 
 35 H       -2.9930    -3.5030    -0.4540 H     1 <1>   0.1500 
 36 H       -5.4240    -3.4380    -0.2040 H     1 <1>   0.1500 
 37 H       -7.3260    -0.9350     1.0080 H     1 <1>   0.0800 
 38 H       -7.4350    -2.3120    -0.0530 H     1 <1>   0.0800 
 39 H       -7.5030    -0.7080    -0.7220 H     1 <1>   0.0800 
 40 H       -7.0340     3.7490    -0.9530 H     1 <1>   0.0800 
 41 H       -6.3000     4.0750     0.6100 H     1 <1>   0.0800 
 42 H       -9.5090     2.7480     1.4040 H     1 <1>   0.0800 
 43 H       -9.1990     3.8160     0.0410 H     1 <1>   0.0800 
 44 H       -8.4610     4.1440     1.6170 H     1 <1>   0.0800 
@<TRIPOS>BOND
  1   1   2  2   
  2   2   3  am  
  3   2   4  am  
  4   3   5  1   
  5   3  22  1   
  6   4   6  1   
  7   4  23  1   
  8   5   7  ar  
  9   5   8  ar  
 10   6   9  1   
 11   6  10  1   
 12   6  11  1   
 13   7  12  1   
 14   7  13  ar  
 15   8  14  ar  
 16   8  24  1   
 17   9  25  1   
 18   9  26  1   
 19   9  27  1   
 20  10  28  1   
 21  10  29  1   
 22  10  30  1   
 23  11  31  1   
 24  11  32  1   
 25  11  33  1   
 26  12  15  am  
 27  12  34  1   
 28  13  16  ar  
 29  13  17  1   
 30  14  16  ar  
 31  14  35  1   
 32  15  18  2   
 33  15  19  1   
 34  16  36  1   
 35  17  37  1   
 36  17  38  1   
 37  17  39  1   
 38  19  20  1   
 39  19  40  1   
 40  19  41  1   
 41  20  21  1   
 42  21  42  1   
 43  21  43  1   
 44  21  44  1   
@<TRIPOS>SUBSTRUCTURE
  1 ****   3 GROUP 4 **** **** 0

# MOE 2024.06 (io_trps.svl 2023.06)
