@<TRIPOS>MOLECULE
NONAME
49 51 1 0 0 
SMALL
USER_CHARGES


@<TRIPOS>ATOM
  1 O        2.2430    -0.2930     0.5350 O.2   1 <1>  -0.5700 
  2 C        1.9060    -1.2830    -0.0910 C.2   1 <1>   0.5440 
  3 N        2.4410    -1.5090    -1.3420 N.am  1 <1>  -0.6600 
  4 C        0.9890    -2.2410     0.5070 C.ar  1 <1>   0.0860 
  5 C        2.9780    -0.4150    -2.2060 C.3   1 <1>   0.2200 
  6 C        3.1750    -2.8050    -1.5470 C.3   1 <1>   0.1400 
  7 C        0.1150    -3.0040    -0.2690 C.ar  1 <1>  -0.1500 
  8 C        0.9500    -2.4370     1.8880 C.ar  1 <1>  -0.1500 
  9 C        4.4260    -0.0950    -1.7800 C.3   1 <1>   0.1400 
 10 C        2.0660     0.8170    -2.2490 C.3   1 <1>  -0.2400 
 11 C        4.6280    -2.6090    -2.0370 C.3   1 <1>   0.1400 
 12 C       -0.7450    -3.9240     0.3030 C.ar  1 <1>  -0.1500 
 13 C        0.0920    -3.3550     2.4650 C.ar  1 <1>  -0.1500 
 14 N        5.2220    -1.3430    -1.4990 N.am  1 <1>  -0.6600 
 15 C       -0.7590    -4.1080     1.6740 C.ar  1 <1>  -0.1430 
 16 C        6.3410    -1.3660    -0.6930 C.2   1 <1>   0.5440 
 17 C       -1.7040    -5.1150     2.3060 C.3   1 <1>  -0.0970 
 18 O        7.0550    -2.3510    -0.7150 O.2   1 <1>  -0.5700 
 19 C        6.6970    -0.2510     0.1650 C.ar  1 <1>   0.0860 
 20 C        7.9300     0.3840     0.0370 C.ar  1 <1>  -0.1500 
 21 C        5.8320     0.2180     1.1530 C.ar  1 <1>  -0.1500 
 22 C        8.2780     1.4530     0.8440 C.ar  1 <1>  -0.1500 
 23 C        6.1730     1.2860     1.9620 C.ar  1 <1>  -0.1500 
 24 C        7.3980     1.9140     1.8090 C.ar  1 <1>  -0.1430 
 25 C        7.7770     3.0860     2.6960 C.3   1 <1>  -0.0970 
 26 H        3.0140    -0.7910    -3.2140 H     1 <1>   0.0800 
 27 H        2.6380    -3.4130    -2.2530 H     1 <1>   0.0800 
 28 H        3.2110    -3.3440    -0.6160 H     1 <1>   0.0800 
 29 H        0.1080    -2.8670    -1.3350 H     1 <1>   0.1500 
 30 H        1.6050    -1.8540     2.5130 H     1 <1>   0.1500 
 31 H        4.3850     0.5270    -0.9060 H     1 <1>   0.0800 
 32 H        4.9120     0.4660    -2.5590 H     1 <1>   0.0800 
 33 H        2.0780     1.3480    -1.3150 H     1 <1>   0.0800 
 34 H        1.0580     0.5220    -2.4770 H     1 <1>   0.0800 
 35 H        2.4050     1.4910    -3.0140 H     1 <1>   0.0800 
 36 H        4.6420    -2.5650    -3.1110 H     1 <1>   0.0800 
 37 H        5.2140    -3.4640    -1.7460 H     1 <1>   0.0800 
 38 H       -1.4070    -4.4950    -0.3250 H     1 <1>   0.1500 
 39 H        0.0890    -3.4790     3.5340 H     1 <1>   0.1500 
 40 H       -2.6380    -4.6390     2.5430 H     1 <1>   0.0800 
 41 H       -1.2790    -5.5150     3.2090 H     1 <1>   0.0800 
 42 H       -1.8920    -5.9310     1.6300 H     1 <1>   0.0800 
 43 H        8.6200     0.0250    -0.7060 H     1 <1>   0.1500 
 44 H        4.8760    -0.2630     1.2830 H     1 <1>   0.1500 
 45 H        9.2380     1.9220     0.7190 H     1 <1>   0.1500 
 46 H        5.4780     1.6250     2.7100 H     1 <1>   0.1500 
 47 H        8.3010     2.7300     3.5650 H     1 <1>   0.0800 
 48 H        6.8970     3.6170     3.0140 H     1 <1>   0.0800 
 49 H        8.4120     3.7700     2.1630 H     1 <1>   0.0800 
@<TRIPOS>BOND
  1   1   2  2   
  2   2   3  am  
  3   2   4  1   
  4   3   5  1   
  5   3   6  1   
  6   4   7  ar  
  7   4   8  ar  
  8   5   9  1   
  9   5  10  1   
 10   5  26  1   
 11   6  11  1   
 12   6  27  1   
 13   6  28  1   
 14   7  12  ar  
 15   7  29  1   
 16   8  13  ar  
 17   8  30  1   
 18   9  14  1   
 19   9  31  1   
 20   9  32  1   
 21  10  33  1   
 22  10  34  1   
 23  10  35  1   
 24  11  14  1   
 25  11  36  1   
 26  11  37  1   
 27  12  15  ar  
 28  12  38  1   
 29  13  15  ar  
 30  13  39  1   
 31  14  16  am  
 32  15  17  1   
 33  16  18  2   
 34  16  19  1   
 35  17  40  1   
 36  17  41  1   
 37  17  42  1   
 38  19  20  ar  
 39  19  21  ar  
 40  20  22  ar  
 41  20  43  1   
 42  21  23  ar  
 43  21  44  1   
 44  22  24  ar  
 45  22  45  1   
 46  23  24  ar  
 47  23  46  1   
 48  24  25  1   
 49  25  47  1   
 50  25  48  1   
 51  25  49  1   
@<TRIPOS>SUBSTRUCTURE
  1 ****   1 GROUP 4 **** **** 0

# MOE 2024.06 (io_trps.svl 2023.06)
