@<TRIPOS>MOLECULE
NONAME
40 41 1 0 0 
SMALL
USER_CHARGES


@<TRIPOS>ATOM
  1 O        1.2240     2.6960    -3.0410 O.2   1 <1>  -0.5700 
  2 C        1.0240     2.9070    -1.8670 C.2   1 <1>   0.5690 
  3 N        1.6680     2.1820    -0.8950 N.am  1 <1>  -0.6600 
  4 C        0.0400     4.0190    -1.5170 C.3   1 <1>   0.0440 
  5 C        2.5960     1.0670    -1.2550 C.3   1 <1>   0.1400 
  6 C        1.4270     2.3370     0.5740 C.3   1 <1>   0.1400 
  7 C       -1.1420     3.5520    -0.6710 C.ar  1 <1>  -0.1440 
  8 C        2.5400    -0.0650    -0.2080 C.3   1 <1>   0.2000 
  9 C        2.5770     1.7300     1.4050 C.3   1 <1>   0.2000 
 10 C       -1.4990     4.2390     0.4800 C.ar  1 <1>  -0.1500 
 11 C       -1.8670     2.4300    -1.0430 C.ar  1 <1>  -0.1500 
 12 O        2.8130     0.3830     1.0940 O.3   1 <1>  -0.5600 
 13 C        3.5390    -1.1780    -0.5100 C.3   1 <1>  -0.2400 
 14 C        2.2960     1.7940     2.9030 C.3   1 <1>  -0.2400 
 15 C       -2.5590     3.8010     1.2530 C.ar  1 <1>  -0.1500 
 16 C       -2.9280     1.9890    -0.2710 C.ar  1 <1>  -0.1500 
 17 C       -3.2780     2.6750     0.8880 C.ar  1 <1>   0.0830 
 18 O       -4.2990     2.3110     1.7040 O.3   1 <1>  -0.3620 
 19 C       -5.1000     1.1870     1.4160 C.3   1 <1>   0.0400 
 20 H       -0.3410     4.4370    -2.4300 H     1 <1>   0.0800 
 21 H        0.5810     4.7960    -1.0110 H     1 <1>   0.0800 
 22 H        3.6000     1.4470    -1.3220 H     1 <1>   0.0800 
 23 H        2.3290     0.6660    -2.2180 H     1 <1>   0.0800 
 24 H        0.5050     1.8470     0.8370 H     1 <1>   0.0800 
 25 H        1.3350     3.3790     0.8200 H     1 <1>   0.0800 
 26 H        1.5440    -0.4750    -0.1990 H     1 <1>   0.0800 
 27 H        3.4840     2.2700     1.1910 H     1 <1>   0.0800 
 28 H       -0.9570     5.1180     0.7830 H     1 <1>   0.1500 
 29 H       -1.6050     1.8910    -1.9390 H     1 <1>   0.1500 
 30 H        4.5430    -0.7920    -0.4910 H     1 <1>   0.0800 
 31 H        3.3450    -1.5950    -1.4810 H     1 <1>   0.0800 
 32 H        3.4450    -1.9590     0.2230 H     1 <1>   0.0800 
 33 H        1.4090     1.2340     3.1390 H     1 <1>   0.0800 
 34 H        2.1550     2.8130     3.2120 H     1 <1>   0.0800 
 35 H        3.1280     1.3850     3.4470 H     1 <1>   0.0800 
 36 H       -2.8380     4.3300     2.1460 H     1 <1>   0.1500 
 37 H       -3.4660     1.1160    -0.5870 H     1 <1>   0.1500 
 38 H       -5.8390     1.0970     2.1910 H     1 <1>   0.0800 
 39 H       -4.4780     0.3100     1.3990 H     1 <1>   0.0800 
 40 H       -5.5830     1.3370     0.4660 H     1 <1>   0.0800 
@<TRIPOS>BOND
  1   1   2  2   
  2   2   3  am  
  3   2   4  1   
  4   3   5  1   
  5   3   6  1   
  6   4   7  1   
  7   4  20  1   
  8   4  21  1   
  9   5   8  1   
 10   5  22  1   
 11   5  23  1   
 12   6   9  1   
 13   6  24  1   
 14   6  25  1   
 15   7  10  ar  
 16   7  11  ar  
 17   8  12  1   
 18   8  13  1   
 19   8  26  1   
 20   9  12  1   
 21   9  14  1   
 22   9  27  1   
 23  10  15  ar  
 24  10  28  1   
 25  11  16  ar  
 26  11  29  1   
 27  13  30  1   
 28  13  31  1   
 29  13  32  1   
 30  14  33  1   
 31  14  34  1   
 32  14  35  1   
 33  15  17  ar  
 34  15  36  1   
 35  16  17  ar  
 36  16  37  1   
 37  17  18  1   
 38  18  19  1   
 39  19  38  1   
 40  19  39  1   
 41  19  40  1   
@<TRIPOS>SUBSTRUCTURE
  1 ****   6 GROUP 4 **** **** 0

# MOE 2024.06 (io_trps.svl 2023.06)
