@<TRIPOS>MOLECULE
NONAME
45 47 1 0 0 
SMALL
USER_CHARGES


@<TRIPOS>ATOM
  1 O        0.4230    -0.3230    -0.3240 O.2   1 <1>  -0.5700 
  2 C        0.2640    -1.5130    -0.5180 C.2   1 <1>   0.6900 
  3 N        1.3440    -2.3410    -0.6680 N.am  1 <1>  -0.6600 
  4 N       -0.9830    -2.0570    -0.6180 N.am  1 <1>  -0.5470 
  5 C        2.7090    -1.7730    -0.9200 C.3   1 <1>   0.1400 
  6 C        1.3750    -3.7370    -0.1210 C.3   1 <1>   0.1400 
  7 C       -2.2510    -1.5180    -0.3540 C.ar  1 <1>   0.1170 
  8 C        3.6030    -1.8800     0.3270 C.3   1 <1>   0.2090 
  9 C        2.2760    -3.8220     1.1240 C.3   1 <1>   0.2090 
 10 C       -3.3600    -2.0620    -0.9920 C.ar  1 <1>  -0.1500 
 11 C       -2.4500    -0.4720     0.5410 C.ar  1 <1>  -0.1500 
 12 N        3.6400    -3.2950     0.8160 N.pl3 1 <1>  -0.8380 
 13 C       -4.6340    -1.5770    -0.7490 C.ar  1 <1>  -0.1500 
 14 C       -3.7200     0.0170     0.7870 C.ar  1 <1>  -0.1500 
 15 C        4.7100    -4.1230     0.5530 C.ar  1 <1>   0.7200 
 16 C       -4.8200    -0.5290     0.1480 C.ar  1 <1>   0.0830 
 17 N        5.9000    -3.5440     0.4020 N.ar  1 <1>  -0.6200 
 18 N        4.4620    -5.4310     0.4640 N.ar  1 <1>  -0.6200 
 19 O       -6.0320     0.0090     0.4480 O.3   1 <1>  -0.3630 
 20 C        6.9110    -4.3420     0.1600 C.ar  1 <1>   0.1600 
 21 C        5.4920    -6.2040     0.2200 C.ar  1 <1>   0.1600 
 22 C       -7.2040    -0.4520    -0.1800 C.3   1 <1>   0.1200 
 23 C        6.7600    -5.7020     0.0570 C.ar  1 <1>  -0.1500 
 24 C       -8.3770     0.3630     0.3560 C.3   1 <1>  -0.2400 
 25 H       -0.9730    -2.9580    -1.0810 H     1 <1>   0.3700 
 26 H        2.6380    -0.7420    -1.2190 H     1 <1>   0.0800 
 27 H        3.1710    -2.3150    -1.7260 H     1 <1>   0.0800 
 28 H        1.7590    -4.4040    -0.8730 H     1 <1>   0.0800 
 29 H        0.3880    -4.0660     0.1470 H     1 <1>   0.0800 
 30 H        3.2060    -1.2470     1.1020 H     1 <1>   0.0800 
 31 H        4.5870    -1.5200     0.0890 H     1 <1>   0.0800 
 32 H        2.3210    -4.8390     1.4740 H     1 <1>   0.0800 
 33 H        1.8430    -3.2330     1.9130 H     1 <1>   0.0800 
 34 H       -3.2280    -2.8690    -1.6880 H     1 <1>   0.1500 
 35 H       -1.6090    -0.0350     1.0490 H     1 <1>   0.1500 
 36 H       -5.4630    -2.0240    -1.2640 H     1 <1>   0.1500 
 37 H       -3.8640     0.8270     1.4790 H     1 <1>   0.1500 
 38 H        7.8850    -3.8980     0.0400 H     1 <1>   0.1500 
 39 H        5.3210    -7.2640     0.1470 H     1 <1>   0.1500 
 40 H       -7.3290    -1.4960     0.0540 H     1 <1>   0.0800 
 41 H       -7.0990    -0.3150    -1.2420 H     1 <1>   0.0800 
 42 H        7.5960    -6.3450    -0.1410 H     1 <1>   0.1500 
 43 H       -8.4630     0.2320     1.4200 H     1 <1>   0.0800 
 44 H       -9.2910     0.0340    -0.1060 H     1 <1>   0.0800 
 45 H       -8.2340     1.4050     0.1320 H     1 <1>   0.0800 
@<TRIPOS>BOND
  1   1   2  2   
  2   2   3  am  
  3   2   4  am  
  4   3   5  1   
  5   3   6  1   
  6   4   7  1   
  7   4  25  1   
  8   5   8  1   
  9   5  26  1   
 10   5  27  1   
 11   6   9  1   
 12   6  28  1   
 13   6  29  1   
 14   7  10  ar  
 15   7  11  ar  
 16   8  12  1   
 17   8  30  1   
 18   8  31  1   
 19   9  12  1   
 20   9  32  1   
 21   9  33  1   
 22  10  13  ar  
 23  10  34  1   
 24  11  14  ar  
 25  11  35  1   
 26  12  15  1   
 27  13  16  ar  
 28  13  36  1   
 29  14  16  ar  
 30  14  37  1   
 31  15  17  ar  
 32  15  18  ar  
 33  16  19  1   
 34  17  20  ar  
 35  18  21  ar  
 36  19  22  1   
 37  20  23  ar  
 38  20  38  1   
 39  21  23  ar  
 40  21  39  1   
 41  22  24  1   
 42  22  40  1   
 43  22  41  1   
 44  23  42  1   
 45  24  43  1   
 46  24  44  1   
 47  24  45  1   
@<TRIPOS>SUBSTRUCTURE
  1 ****   2 GROUP 4 **** **** 0

# MOE 2024.06 (io_trps.svl 2023.06)
