@<TRIPOS>MOLECULE
NONAME
41 41 1 0 0 
SMALL
USER_CHARGES


@<TRIPOS>ATOM
  1 O       -0.3210    -6.9650    -0.5410 O.3   1 <1>  -0.3630 
  2 C       -1.5560    -6.4340    -0.3600 C.ar  1 <1>   0.0830 
  3 C        0.8370    -6.2540    -0.1870 C.3   1 <1>   0.1200 
  4 C       -2.6330    -7.2140    -0.7430 C.ar  1 <1>  -0.1500 
  5 C       -1.7890    -5.1750     0.1790 C.ar  1 <1>  -0.1500 
  6 C        2.0280    -7.1500    -0.5290 C.3   1 <1>   0.3430 
  7 C       -3.9360    -6.7640    -0.6000 C.ar  1 <1>  -0.1440 
  8 C       -3.0870    -4.7220     0.3230 C.ar  1 <1>  -0.1500 
  9 N        3.3290    -6.4950    -0.2010 N.4   1 <1>  -0.9060 
 10 C       -4.1740    -5.4990    -0.0590 C.ar  1 <1>  -0.1430 
 11 C       -5.0600    -7.6900    -1.0480 C.3   1 <1>  -0.0970 
 12 C        4.4860    -7.3500    -0.5040 C.3   1 <1>   0.4810 
 13 C       -5.5880    -4.9300     0.1310 C.3   1 <1>   0.0630 
 14 C        5.6900    -6.5910    -0.0080 C.2   1 <1>  -0.2880 
 15 C       -5.7840    -3.6570    -0.7000 C.3   1 <1>  -0.2400 
 16 C       -5.8780    -4.6620     1.6120 C.3   1 <1>  -0.2400 
 17 C        6.4090    -6.9090     1.0750 C.2   1 <1>  -0.3000 
 18 H        0.7920    -6.0500     0.8690 H     1 <1>   0.0800 
 19 H        0.8550    -5.3430    -0.7600 H     1 <1>   0.0800 
 20 H       -2.4380    -8.1850    -1.1570 H     1 <1>   0.1500 
 21 H       -0.9910    -4.5320     0.4910 H     1 <1>   0.1500 
 22 H        1.9930    -7.3790    -1.5820 H     1 <1>   0.0800 
 23 H        1.9350    -8.0700     0.0250 H     1 <1>   0.0800 
 24 H       -3.2490    -3.7450     0.7420 H     1 <1>   0.1500 
 25 H        3.3850    -6.2670     0.8000 H     1 <1>   0.4500 
 26 H        3.4380    -5.6120    -0.7130 H     1 <1>   0.4500 
 27 H       -4.6720    -8.6140    -1.4350 H     1 <1>   0.0800 
 28 H       -5.6360    -7.2190    -1.8240 H     1 <1>   0.0800 
 29 H       -5.7010    -7.9190    -0.2170 H     1 <1>   0.0800 
 30 H        4.5660    -7.5430    -1.5630 H     1 <1>   0.0800 
 31 H        4.4040    -8.2890     0.0210 H     1 <1>   0.0800 
 32 H       -6.3220    -5.6370    -0.2060 H     1 <1>   0.0800 
 33 H        5.9380    -5.7430    -0.6250 H     1 <1>   0.1500 
 34 H       -5.1360    -2.8700    -0.3620 H     1 <1>   0.0800 
 35 H       -6.8020    -3.3180    -0.6250 H     1 <1>   0.0800 
 36 H       -5.5660    -3.8610    -1.7330 H     1 <1>   0.0800 
 37 H       -5.2320    -3.8970     2.0010 H     1 <1>   0.0800 
 38 H       -5.7250    -5.5620     2.1810 H     1 <1>   0.0800 
 39 H       -6.8980    -4.3470     1.7400 H     1 <1>   0.0800 
 40 H        7.2710    -6.3500     1.4050 H     1 <1>   0.1500 
 41 H        6.2180    -7.7460     1.7270 H     1 <1>   0.1500 
@<TRIPOS>BOND
  1   1   2  1   
  2   1   3  1   
  3   2   4  ar  
  4   2   5  ar  
  5   3   6  1   
  6   3  18  1   
  7   3  19  1   
  8   4   7  ar  
  9   4  20  1   
 10   5   8  ar  
 11   5  21  1   
 12   6   9  1   
 13   6  22  1   
 14   6  23  1   
 15   7  10  ar  
 16   7  11  1   
 17   8  10  ar  
 18   8  24  1   
 19   9  12  1   
 20   9  25  1   
 21   9  26  1   
 22  10  13  1   
 23  11  27  1   
 24  11  28  1   
 25  11  29  1   
 26  12  14  1   
 27  12  30  1   
 28  12  31  1   
 29  13  15  1   
 30  13  16  1   
 31  13  32  1   
 32  14  17  2   
 33  14  33  1   
 34  15  34  1   
 35  15  35  1   
 36  15  36  1   
 37  16  37  1   
 38  16  38  1   
 39  16  39  1   
 40  17  40  1   
 41  17  41  1   
@<TRIPOS>SUBSTRUCTURE
  1 ****   2 GROUP 4 **** **** 0

# MOE 2024.06 (io_trps.svl 2023.06)
