@<TRIPOS>MOLECULE
NONAME
24 24 1 0 0 
SMALL
USER_CHARGES


@<TRIPOS>ATOM
  1 S        0.1850    -0.2360    -0.6240 S.3   1 <1>  -0.3710 
  2 C        1.5600     0.8410    -0.2780 C.2   1 <1>   0.6510 
  3 C       -1.2650     0.7640    -0.0520 C.3   1 <1>   0.0700 
  4 N        2.7680     0.3220    -0.6080 N.am  1 <1>  -0.4900 
  5 N        1.3490     1.9910     0.2380 N.2   1 <1>  -0.6210 
  6 C       -2.5660    -0.0200    -0.2860 C.3   1 <1>  -0.0800 
  7 C        3.8900     1.0620    -0.3860 C.2   1 <1>   0.6160 
  8 C        2.4540     2.7710     0.4790 C.2   1 <1>   0.0210 
  9 C       -3.7740     0.8910    -0.0380 C.3   1 <1>  -0.2400 
 10 C       -2.6580    -1.2550     0.6230 C.3   1 <1>  -0.2400 
 11 O        4.9720     0.5450    -0.7040 O.2   1 <1>  -0.5700 
 12 C        3.7260     2.3170     0.1710 C.2   1 <1>  -0.1360 
 13 O        2.2640     3.8820     0.9760 O.3   1 <1>  -0.8500 
 14 H       -1.2460     1.6790    -0.6180 H     1 <1>   0.0800 
 15 H       -1.1090     0.9890     0.9900 H     1 <1>   0.0800 
 16 H        2.8590    -0.5970    -1.0140 H     1 <1>   0.3700 
 17 H       -2.5880    -0.3390    -1.3150 H     1 <1>   0.0800 
 18 H       -3.7820     1.2390     0.9800 H     1 <1>   0.0800 
 19 H       -4.6900     0.3610    -0.2300 H     1 <1>   0.0800 
 20 H       -3.7340     1.7460    -0.6900 H     1 <1>   0.0800 
 21 H       -2.6090    -0.9650     1.6580 H     1 <1>   0.0800 
 22 H       -1.8510    -1.9350     0.4200 H     1 <1>   0.0800 
 23 H       -3.5840    -1.7750     0.4530 H     1 <1>   0.0800 
 24 H        4.5690     2.9430     0.3680 H     1 <1>   0.1500 
@<TRIPOS>BOND
  1   1   2  1   
  2   1   3  1   
  3   2   4  1   
  4   2   5  2   
  5   3   6  1   
  6   3  14  1   
  7   3  15  1   
  8   4   7  am  
  9   4  16  1   
 10   5   8  1   
 11   6   9  1   
 12   6  10  1   
 13   6  17  1   
 14   7  11  2   
 15   7  12  1   
 16   8  12  2   
 17   8  13  1   
 18   9  18  1   
 19   9  19  1   
 20   9  20  1   
 21  10  21  1   
 22  10  22  1   
 23  10  23  1   
 24  12  24  1   
@<TRIPOS>SUBSTRUCTURE
  1 ****   2 GROUP 4 **** **** 0

# MOE 2024.06 (io_trps.svl 2023.06)
