@<TRIPOS>MOLECULE
NONAME
33 34 1 0 0 
SMALL
USER_CHARGES


@<TRIPOS>ATOM
  1 O        0.6040     1.8380     2.8100 O.2   1 <1>  -0.5700 
  2 C        0.2090     2.2420     1.7400 C.2   1 <1>   0.5690 
  3 N        1.0080     2.2010     0.6270 N.am  1 <1>  -0.6600 
  4 C       -1.1930     2.8440     1.6810 C.3   1 <1>   0.1810 
  5 C        0.6220     2.6230    -0.7370 C.3   1 <1>   0.1400 
  6 C        2.3670     1.6200     0.6420 C.3   1 <1>   0.1400 
  7 O       -2.0030     2.1960     0.7110 O.3   1 <1>  -0.3620 
  8 C        1.9100     2.5360    -1.5470 C.3   1 <1>  -0.1600 
  9 C        2.7450     1.4780    -0.8290 C.3   1 <1>  -0.1600 
 10 C       -3.2510     2.6430     0.4110 C.ar  1 <1>   0.0820 
 11 C       -3.9270     2.0120    -0.6310 C.ar  1 <1>  -0.1440 
 12 C       -3.8630     3.6910     1.0950 C.ar  1 <1>  -0.1500 
 13 C       -5.1970     2.4400    -0.9810 C.ar  1 <1>  -0.1500 
 14 C       -3.2840     0.8580    -1.3870 C.3   1 <1>  -0.0970 
 15 C       -5.1320     4.1090     0.7370 C.ar  1 <1>  -0.1500 
 16 C       -5.7990     3.4850    -0.3020 C.ar  1 <1>  -0.1500 
 17 H       -1.1180     3.8830     1.4240 H     1 <1>   0.0800 
 18 H       -1.6680     2.7350     2.6380 H     1 <1>   0.0800 
 19 H        0.2180     3.6210    -0.7400 H     1 <1>   0.0800 
 20 H       -0.1090     1.9330    -1.1240 H     1 <1>   0.0800 
 21 H        2.3720     0.6710     1.1510 H     1 <1>   0.0800 
 22 H        3.0320     2.3020     1.1430 H     1 <1>   0.0800 
 23 H        2.4130     3.4870    -1.5070 H     1 <1>   0.0800 
 24 H        1.7210     2.2820    -2.5750 H     1 <1>   0.0800 
 25 H        2.4620     0.4970    -1.1660 H     1 <1>   0.0800 
 26 H        3.8010     1.6110    -0.9840 H     1 <1>   0.0800 
 27 H       -3.3760     4.1920     1.9090 H     1 <1>   0.1500 
 28 H       -5.7280     1.9620    -1.7850 H     1 <1>   0.1500 
 29 H       -2.4220     1.2100    -1.9220 H     1 <1>   0.0800 
 30 H       -3.9720     0.4220    -2.0880 H     1 <1>   0.0800 
 31 H       -2.9740     0.0960    -0.6940 H     1 <1>   0.0800 
 32 H       -5.6030     4.9190     1.2660 H     1 <1>   0.1500 
 33 H       -6.7860     3.8100    -0.5810 H     1 <1>   0.1500 
@<TRIPOS>BOND
  1   1   2  2   
  2   2   3  am  
  3   2   4  1   
  4   3   5  1   
  5   3   6  1   
  6   4   7  1   
  7   4  17  1   
  8   4  18  1   
  9   5   8  1   
 10   5  19  1   
 11   5  20  1   
 12   6   9  1   
 13   6  21  1   
 14   6  22  1   
 15   7  10  1   
 16   8   9  1   
 17   8  23  1   
 18   8  24  1   
 19   9  25  1   
 20   9  26  1   
 21  10  11  ar  
 22  10  12  ar  
 23  11  13  ar  
 24  11  14  1   
 25  12  15  ar  
 26  12  27  1   
 27  13  16  ar  
 28  13  28  1   
 29  14  29  1   
 30  14  30  1   
 31  14  31  1   
 32  15  16  ar  
 33  15  32  1   
 34  16  33  1   
@<TRIPOS>SUBSTRUCTURE
  1 ****   7 GROUP 4 **** **** 0

# MOE 2024.06 (io_trps.svl 2023.06)
