@<TRIPOS>MOLECULE
NONAME
32 33 1 0 0 
SMALL
USER_CHARGES


@<TRIPOS>ATOM
  1 F        0.2210    -0.6750    -1.3490 F     1 <1>  -0.1900 
  2 C        0.8230    -1.6620    -0.7440 C.ar  1 <1>   0.1900 
  3 C        0.0620    -2.5600    -0.0230 C.ar  1 <1>  -0.1500 
  4 C        2.1980    -1.7660    -0.8520 C.ar  1 <1>  -0.1500 
  5 C        0.7440    -3.5880     0.5960 C.ar  1 <1>   0.1900 
  6 C        2.8670    -2.8090    -0.2160 C.ar  1 <1>   0.1170 
  7 F        0.0600    -4.4620     1.2850 F     1 <1>  -0.1900 
  8 C        2.1170    -3.7300     0.5140 C.ar  1 <1>  -0.1500 
  9 N        4.2610    -2.8940    -0.3520 N.am  1 <1>  -0.5470 
 10 C        5.1990    -3.5040     0.4380 C.2   1 <1>   0.5690 
 11 O        4.9250    -4.0750     1.4650 O.2   1 <1>  -0.5700 
 12 C        6.6590    -3.4330    -0.0110 C.3   1 <1>  -0.0190 
 13 C        7.2640    -4.8400    -0.1920 C.3   1 <1>  -0.1600 
 14 C        7.5060    -2.6030     0.9730 C.3   1 <1>  -0.1600 
 15 C        8.7330    -4.7700    -0.6330 C.3   1 <1>  -0.1600 
 16 C        8.9750    -2.5320     0.5330 C.3   1 <1>  -0.1600 
 17 C        9.5660    -3.9360     0.3490 C.3   1 <1>  -0.1600 
 18 H       -1.0050    -2.4650     0.0510 H     1 <1>   0.1500 
 19 H        2.7360    -1.0350    -1.4250 H     1 <1>   0.1500 
 20 H        2.5870    -4.5550     1.0160 H     1 <1>   0.1500 
 21 H        4.6440    -2.3830    -1.1450 H     1 <1>   0.3700 
 22 H        6.6940    -2.9420    -0.9670 H     1 <1>   0.0800 
 23 H        6.6940    -5.3880    -0.9210 H     1 <1>   0.0800 
 24 H        7.2010    -5.3750     0.7410 H     1 <1>   0.0800 
 25 H        7.4510    -3.0520     1.9510 H     1 <1>   0.0800 
 26 H        7.1050    -1.6070     1.0480 H     1 <1>   0.0800 
 27 H        8.7930    -4.3310    -1.6140 H     1 <1>   0.0800 
 28 H        9.1380    -5.7650    -0.6920 H     1 <1>   0.0800 
 29 H        9.5470    -1.9980     1.2730 H     1 <1>   0.0800 
 30 H        9.0480    -1.9910    -0.3940 H     1 <1>   0.0800 
 31 H       10.5770    -3.8580    -0.0110 H     1 <1>   0.0800 
 32 H        9.5950    -4.4370     1.3030 H     1 <1>   0.0800 
@<TRIPOS>BOND
  1   1   2  1   
  2   2   3  ar  
  3   2   4  ar  
  4   3   5  ar  
  5   3  18  1   
  6   4   6  ar  
  7   4  19  1   
  8   5   7  1   
  9   5   8  ar  
 10   6   8  ar  
 11   6   9  1   
 12   8  20  1   
 13   9  10  am  
 14   9  21  1   
 15  10  11  2   
 16  10  12  1   
 17  12  13  1   
 18  12  14  1   
 19  12  22  1   
 20  13  15  1   
 21  13  23  1   
 22  13  24  1   
 23  14  16  1   
 24  14  25  1   
 25  14  26  1   
 26  15  17  1   
 27  15  27  1   
 28  15  28  1   
 29  16  17  1   
 30  16  29  1   
 31  16  30  1   
 32  17  31  1   
 33  17  32  1   
@<TRIPOS>SUBSTRUCTURE
  1 ****   9 GROUP 4 **** **** 0

# MOE 2024.06 (io_trps.svl 2023.06)
