@<TRIPOS>MOLECULE
NONAME
48 50 1 0 0 
SMALL
USER_CHARGES


@<TRIPOS>ATOM
  1 O        0.5340     1.1630     3.2970 O.2   1 <1>  -0.5700 
  2 C        0.2710     0.2640     2.5340 C.2   1 <1>   0.5690 
  3 N        1.0060    -0.0520     1.4310 N.am  1 <1>  -0.5470 
  4 C       -0.9700    -0.5960     2.7920 C.3   1 <1>   0.1710 
  5 C        2.1420     0.4940     0.8110 C.ar  1 <1>   0.1170 
  6 N       -1.4170    -1.3830     1.6030 N.3   1 <1>  -0.8100 
  7 C        2.4680     0.0650    -0.4800 C.ar  1 <1>   0.0830 
  8 C        2.9580     1.4320     1.4340 C.ar  1 <1>  -0.1500 
  9 C       -2.3360    -2.4740     1.9900 C.3   1 <1>   0.1100 
 10 C       -2.0910    -0.5190     0.6020 C.3   1 <1>   0.1100 
 11 O        1.6410    -0.8570    -1.0610 O.3   1 <1>  -0.3630 
 12 C        3.5930     0.5760    -1.1210 C.ar  1 <1>  -0.1500 
 13 C        4.0750     1.9370     0.7920 C.ar  1 <1>  -0.1500 
 14 C       -2.7550    -3.3330     0.7820 C.3   1 <1>   0.2090 
 15 C       -2.5030    -1.3010    -0.6580 C.3   1 <1>   0.2090 
 16 C        2.0270    -1.5520    -2.2240 C.3   1 <1>   0.1200 
 17 C        4.3930     1.5090    -0.4840 C.ar  1 <1>  -0.1500 
 18 N       -3.3390    -2.4970    -0.3160 N.pl3 1 <1>  -0.8380 
 19 C        0.9520    -2.5880    -2.5350 C.3   1 <1>  -0.2400 
 20 C       -4.3380    -2.9610    -1.1470 C.ar  1 <1>   0.7200 
 21 N       -4.9610    -4.0830    -0.7840 N.ar  1 <1>  -0.6200 
 22 N       -4.5970    -2.2520    -2.2460 N.ar  1 <1>  -0.6200 
 23 C       -5.9070    -4.5120    -1.5810 C.ar  1 <1>   0.1600 
 24 C       -5.5480    -2.7050    -3.0250 C.ar  1 <1>   0.1600 
 25 C       -6.2470    -3.8490    -2.7340 C.ar  1 <1>  -0.1500 
 26 H        0.5710    -0.8100     0.8890 H     1 <1>   0.3700 
 27 H       -1.7690     0.0370     3.1370 H     1 <1>   0.0800 
 28 H       -0.7180    -1.2720     3.5890 H     1 <1>   0.0800 
 29 H        2.7250     1.7710     2.4260 H     1 <1>   0.1500 
 30 H       -3.2210    -2.0660     2.4470 H     1 <1>   0.0800 
 31 H       -1.8510    -3.1120     2.7080 H     1 <1>   0.0800 
 32 H       -1.4340     0.2800     0.3040 H     1 <1>   0.0800 
 33 H       -2.9730    -0.0770     1.0340 H     1 <1>   0.0800 
 34 H        3.8620     0.2680    -2.1130 H     1 <1>   0.1500 
 35 H        4.6950     2.6630     1.2890 H     1 <1>   0.1500 
 36 H       -3.4610    -4.0690     1.1220 H     1 <1>   0.0800 
 37 H       -1.8930    -3.8530     0.4020 H     1 <1>   0.0800 
 38 H       -1.6180    -1.6280    -1.1720 H     1 <1>   0.0800 
 39 H       -3.0380    -0.6320    -1.3080 H     1 <1>   0.0800 
 40 H        2.9740    -2.0290    -2.0350 H     1 <1>   0.0800 
 41 H        2.1170    -0.8460    -3.0320 H     1 <1>   0.0800 
 42 H        5.2620     1.9040    -0.9810 H     1 <1>   0.1500 
 43 H        0.8180    -3.2490    -1.6970 H     1 <1>   0.0800 
 44 H        1.2470    -3.1720    -3.3880 H     1 <1>   0.0800 
 45 H        0.0220    -2.1010    -2.7630 H     1 <1>   0.0800 
 46 H       -6.4260    -5.4160    -1.3080 H     1 <1>   0.1500 
 47 H       -5.7760    -2.1480    -3.9180 H     1 <1>   0.1500 
 48 H       -7.0240    -4.2100    -3.3800 H     1 <1>   0.1500 
@<TRIPOS>BOND
  1   1   2  2   
  2   2   3  am  
  3   2   4  1   
  4   3   5  1   
  5   3  26  1   
  6   4   6  1   
  7   4  27  1   
  8   4  28  1   
  9   5   7  ar  
 10   5   8  ar  
 11   6   9  1   
 12   6  10  1   
 13   7  11  1   
 14   7  12  ar  
 15   8  13  ar  
 16   8  29  1   
 17   9  14  1   
 18   9  30  1   
 19   9  31  1   
 20  10  15  1   
 21  10  32  1   
 22  10  33  1   
 23  11  16  1   
 24  12  17  ar  
 25  12  34  1   
 26  13  17  ar  
 27  13  35  1   
 28  14  18  1   
 29  14  36  1   
 30  14  37  1   
 31  15  18  1   
 32  15  38  1   
 33  15  39  1   
 34  16  19  1   
 35  16  40  1   
 36  16  41  1   
 37  17  42  1   
 38  18  20  1   
 39  19  43  1   
 40  19  44  1   
 41  19  45  1   
 42  20  21  ar  
 43  20  22  ar  
 44  21  23  ar  
 45  22  24  ar  
 46  23  25  ar  
 47  23  46  1   
 48  24  25  ar  
 49  24  47  1   
 50  25  48  1   
@<TRIPOS>SUBSTRUCTURE
  1 ****  10 GROUP 4 **** **** 0

# MOE 2024.06 (io_trps.svl 2023.06)
