@<TRIPOS>MOLECULE
NONAME
51 52 1 0 0 
SMALL
USER_CHARGES


@<TRIPOS>ATOM
  1 O       -1.2610    -1.0460     1.1310 O.2   1 <1>  -0.5700 
  2 C       -2.0470    -1.4750     0.3100 C.2   1 <1>   0.7060 
  3 O       -3.2970    -1.0250     0.3680 O.3   1 <1>  -0.2330 
  4 C       -1.7010    -2.4300    -0.7050 C.2   1 <1>  -0.1240 
  5 C       -4.2670    -1.3950    -0.4960 C.ar  1 <1>   0.0820 
  6 C       -2.6420    -2.8720    -1.5840 C.2   1 <1>  -0.1670 
  7 C       -0.2350    -2.8870    -0.6800 C.3   1 <1>   0.0390 
  8 C       -3.9730    -2.3180    -1.5120 C.ar  1 <1>   0.0280 
  9 C       -5.5350    -0.8340    -0.3510 C.ar  1 <1>  -0.1440 
 10 C       -2.3840    -3.9480    -2.6420 C.3   1 <1>  -0.1020 
 11 C        0.0450    -3.9060     0.4090 C.2   1 <1>   0.6590 
 12 C       -5.0060    -2.6340    -2.4000 C.ar  1 <1>  -0.1500 
 13 C       -6.5370    -1.1760    -1.2500 C.ar  1 <1>   0.0830 
 14 C       -5.8220     0.1570     0.7790 C.3   1 <1>  -0.0960 
 15 O        1.1320    -3.9930     0.9190 O.2   1 <1>  -0.5700 
 16 O       -0.9560    -4.7140     0.7430 O.3   1 <1>  -0.4300 
 17 C       -6.2600    -2.0790    -2.2760 C.ar  1 <1>  -0.1500 
 18 O       -7.7570    -0.6070    -1.0950 O.3   1 <1>  -0.3630 
 19 C       -0.8150    -5.6900     1.7550 C.3   1 <1>   0.0400 
 20 C       -8.8900    -1.0210    -1.8410 C.3   1 <1>   0.1810 
 21 C      -10.1440    -0.2960    -1.3790 C.2   1 <1>   0.6590 
 22 O      -10.7820     0.3810    -2.1450 O.2   1 <1>  -0.5700 
 23 O      -10.4860    -0.4860    -0.1080 O.3   1 <1>  -0.4300 
 24 C      -11.5860     0.0630     0.5830 C.3   1 <1>   0.2800 
 25 C      -11.4790     1.5920     0.6040 C.3   1 <1>  -0.2400 
 26 C      -12.8950    -0.4200    -0.0500 C.3   1 <1>  -0.2400 
 27 C      -11.4780    -0.4760     2.0090 C.3   1 <1>  -0.2400 
 28 H        0.4040    -2.0390    -0.5110 H     1 <1>   0.0800 
 29 H        0.0740    -3.3020    -1.6160 H     1 <1>   0.0800 
 30 H       -2.4060    -3.5100    -3.6250 H     1 <1>   0.0800 
 31 H       -3.1440    -4.7070    -2.5820 H     1 <1>   0.0800 
 32 H       -1.4480    -4.4520    -2.5160 H     1 <1>   0.0800 
 33 H       -4.8370    -3.3200    -3.2080 H     1 <1>   0.1500 
 34 H       -5.6690     1.1600     0.4250 H     1 <1>   0.0800 
 35 H       -5.1820    -0.0120     1.6250 H     1 <1>   0.0800 
 36 H       -6.8370     0.0660     1.1220 H     1 <1>   0.0800 
 37 H       -7.0120    -2.3550    -2.9900 H     1 <1>   0.1500 
 38 H       -1.7500    -6.2120     1.8570 H     1 <1>   0.0800 
 39 H       -0.5620    -5.1970     2.6780 H     1 <1>   0.0800 
 40 H       -0.0340    -6.3740     1.4730 H     1 <1>   0.0800 
 41 H       -9.0200    -2.0780    -1.7020 H     1 <1>   0.0800 
 42 H       -8.7120    -0.8000    -2.8770 H     1 <1>   0.0800 
 43 H      -10.5230     1.8950     0.9890 H     1 <1>   0.0800 
 44 H      -12.2460     2.0040     1.2340 H     1 <1>   0.0800 
 45 H      -11.6110     2.0030    -0.3800 H     1 <1>   0.0800 
 46 H      -13.0250    -0.0090    -1.0340 H     1 <1>   0.0800 
 47 H      -13.7290    -0.1010     0.5480 H     1 <1>   0.0800 
 48 H      -12.9100    -1.4930    -0.1080 H     1 <1>   0.0800 
 49 H      -10.5510    -0.1640     2.4560 H     1 <1>   0.0800 
 50 H      -11.5240    -1.5500     2.0080 H     1 <1>   0.0800 
 51 H      -12.2870    -0.1030     2.6120 H     1 <1>   0.0800 
@<TRIPOS>BOND
  1   1   2  2   
  2   2   3  1   
  3   2   4  1   
  4   3   5  1   
  5   4   6  2   
  6   4   7  1   
  7   5   8  ar  
  8   5   9  ar  
  9   6   8  1   
 10   6  10  1   
 11   7  11  1   
 12   7  28  1   
 13   7  29  1   
 14   8  12  ar  
 15   9  13  ar  
 16   9  14  1   
 17  10  30  1   
 18  10  31  1   
 19  10  32  1   
 20  11  15  2   
 21  11  16  1   
 22  12  17  ar  
 23  12  33  1   
 24  13  17  ar  
 25  13  18  1   
 26  14  34  1   
 27  14  35  1   
 28  14  36  1   
 29  16  19  1   
 30  17  37  1   
 31  18  20  1   
 32  19  38  1   
 33  19  39  1   
 34  19  40  1   
 35  20  21  1   
 36  20  41  1   
 37  20  42  1   
 38  21  22  2   
 39  21  23  1   
 40  23  24  1   
 41  24  25  1   
 42  24  26  1   
 43  24  27  1   
 44  25  43  1   
 45  25  44  1   
 46  25  45  1   
 47  26  46  1   
 48  26  47  1   
 49  26  48  1   
 50  27  49  1   
 51  27  50  1   
 52  27  51  1   
@<TRIPOS>SUBSTRUCTURE
  1 ****   9 GROUP 4 **** **** 0

# MOE 2024.06 (io_trps.svl 2023.06)
