@<TRIPOS>MOLECULE
NONAME
34 35 1 0 0 
SMALL
USER_CHARGES


@<TRIPOS>ATOM
  1 O       -1.1120    -1.3450    -1.5970 O.2   1 <1>  -0.5700 
  2 C       -0.5770    -1.9270    -0.6720 C.2   1 <1>   0.5440 
  3 N       -1.3440    -2.1710     0.4500 N.am  1 <1>  -0.6600 
  4 C        0.8010    -2.3660    -0.7900 C.ar  1 <1>   0.0860 
  5 C       -2.5160    -1.2930     0.7430 C.3   1 <1>   0.1400 
  6 C       -1.2110    -3.4130     1.2530 C.3   1 <1>   0.1400 
  7 C        1.6970    -2.3530     0.2720 C.ar  1 <1>  -0.1500 
  8 C        1.3270    -2.8270    -1.9890 C.ar  1 <1>  -0.1500 
  9 C       -3.7080    -1.6270    -0.1740 C.3   1 <1>   0.3430 
 10 C       -2.5210    -4.2130     1.2730 C.3   1 <1>  -0.1600 
 11 C        2.9920    -2.8000     0.0990 C.ar  1 <1>   0.1600 
 12 C        2.6390    -3.2530    -2.0600 C.ar  1 <1>   0.1600 
 13 N       -4.3170    -2.9900     0.0530 N.4   1 <1>  -0.9590 
 14 C       -3.3320    -4.1130    -0.0240 C.3   1 <1>   0.3430 
 15 N        3.4800    -3.2590    -1.0400 N.ar  1 <1>  -0.6200 
 16 C       -5.4080    -3.2060    -0.9450 C.3   1 <1>   0.2630 
 17 H       -2.2260    -0.2720     0.5600 H     1 <1>   0.0800 
 18 H       -2.7970    -1.3700     1.7780 H     1 <1>   0.0800 
 19 H       -0.9130    -3.1650     2.2580 H     1 <1>   0.0800 
 20 H       -0.4400    -4.0330     0.8270 H     1 <1>   0.0800 
 21 H        1.3860    -1.9860     1.2330 H     1 <1>   0.1500 
 22 H        0.7100    -2.8480    -2.8690 H     1 <1>   0.1500 
 23 H       -3.3750    -1.5470    -1.1960 H     1 <1>   0.0800 
 24 H       -4.4660    -0.8760    -0.0260 H     1 <1>   0.0800 
 25 H       -3.1190    -3.9250     2.1190 H     1 <1>   0.0800 
 26 H       -2.2560    -5.2450     1.4250 H     1 <1>   0.0800 
 27 H        3.6670    -2.7810     0.9390 H     1 <1>   0.1500 
 28 H        3.0200    -3.6070    -3.0040 H     1 <1>   0.1500 
 29 H       -4.7300    -3.0040     0.9950 H     1 <1>   0.4500 
 30 H       -3.8670    -5.0390    -0.1580 H     1 <1>   0.0800 
 31 H       -2.6740    -3.9800    -0.8690 H     1 <1>   0.0800 
 32 H       -5.0060    -3.1990    -1.9450 H     1 <1>   0.0800 
 33 H       -6.1490    -2.4270    -0.8660 H     1 <1>   0.0800 
 34 H       -5.8910    -4.1550    -0.7740 H     1 <1>   0.0800 
@<TRIPOS>BOND
  1   1   2  2   
  2   2   3  am  
  3   2   4  1   
  4   3   5  1   
  5   3   6  1   
  6   4   7  ar  
  7   4   8  ar  
  8   5   9  1   
  9   5  17  1   
 10   5  18  1   
 11   6  10  1   
 12   6  19  1   
 13   6  20  1   
 14   7  11  ar  
 15   7  21  1   
 16   8  12  ar  
 17   8  22  1   
 18   9  13  1   
 19   9  23  1   
 20   9  24  1   
 21  10  14  1   
 22  10  25  1   
 23  10  26  1   
 24  11  15  ar  
 25  11  27  1   
 26  12  15  ar  
 27  12  28  1   
 28  13  14  1   
 29  13  16  1   
 30  13  29  1   
 31  14  30  1   
 32  14  31  1   
 33  16  32  1   
 34  16  33  1   
 35  16  34  1   
@<TRIPOS>SUBSTRUCTURE
  1 ****   2 GROUP 4 **** **** 0

# MOE 2024.06 (io_trps.svl 2023.06)
