@<TRIPOS>MOLECULE
NONAME
32 33 1 0 0 
SMALL
USER_CHARGES


@<TRIPOS>ATOM
  1 BR      -0.0290     0.1520     0.3270 Br    1 <1>  -0.0570 
  2 C       -1.9680     0.2160     0.2830 C.2   1 <1>   0.0570 
  3 C       -2.7310     1.3400     0.5500 C.2   1 <1>   0.1080 
  4 C       -2.8110    -0.7920    -0.0060 C.2   1 <1>  -0.3320 
  5 N       -3.9960     1.0670     0.4380 N.2   1 <1>  -0.7070 
  6 C       -2.2020     2.7070     0.9210 C.3   1 <1>  -0.0590 
  7 N       -4.0510    -0.2500     0.0950 N.pl3 1 <1>   0.3140 
  8 C       -2.5050    -2.2360    -0.3720 C.3   1 <1>  -0.0600 
  9 C       -5.3260    -0.9670    -0.1420 C.3   1 <1>   0.0960 
 10 C       -6.5550    -0.1730     0.3100 C.3   1 <1>   0.3440 
 11 O       -6.4260     0.1640     1.6490 O.3   1 <1>  -0.6800 
 12 C       -7.8240    -0.9950     0.0990 C.ar  1 <1>  -0.1440 
 13 C       -8.5930    -0.7880    -1.0370 C.ar  1 <1>  -0.1500 
 14 C       -8.2190    -1.9650     1.0110 C.ar  1 <1>  -0.1500 
 15 C       -9.7340    -1.5400    -1.2610 C.ar  1 <1>  -0.1500 
 16 C       -9.3590    -2.7180     0.7890 C.ar  1 <1>  -0.1500 
 17 C      -10.1170    -2.5070    -0.3490 C.ar  1 <1>  -0.1500 
 18 H       -1.5630     2.6300     1.7800 H     1 <1>   0.0800 
 19 H       -3.0200     3.3660     1.1510 H     1 <1>   0.0800 
 20 H       -1.6450     3.1150     0.0980 H     1 <1>   0.0800 
 21 H       -1.4420    -2.3990    -0.3940 H     1 <1>   0.0800 
 22 H       -2.9040    -2.4680    -1.3440 H     1 <1>   0.0800 
 23 H       -2.9350    -2.9040     0.3540 H     1 <1>   0.0800 
 24 H       -5.3000    -1.9020     0.3840 H     1 <1>   0.0800 
 25 H       -5.4060    -1.1700    -1.1920 H     1 <1>   0.0800 
 26 H       -6.6220     0.7460    -0.2470 H     1 <1>   0.0800 
 27 H       -5.6140     0.7190     1.7230 H     1 <1>   0.4000 
 28 H       -8.3110    -0.0390    -1.7560 H     1 <1>   0.1500 
 29 H       -7.6400    -2.1310     1.9040 H     1 <1>   0.1500 
 30 H      -10.3250    -1.3720    -2.1450 H     1 <1>   0.1500 
 31 H       -9.6570    -3.4650     1.5040 H     1 <1>   0.1500 
 32 H      -11.0040    -3.0910    -0.5220 H     1 <1>   0.1500 
@<TRIPOS>BOND
  1   1   2  1   
  2   2   3  1   
  3   2   4  2   
  4   3   5  2   
  5   3   6  1   
  6   4   7  1   
  7   4   8  1   
  8   5   7  1   
  9   6  18  1   
 10   6  19  1   
 11   6  20  1   
 12   7   9  1   
 13   8  21  1   
 14   8  22  1   
 15   8  23  1   
 16   9  10  1   
 17   9  24  1   
 18   9  25  1   
 19  10  11  1   
 20  10  12  1   
 21  10  26  1   
 22  11  27  1   
 23  12  13  ar  
 24  12  14  ar  
 25  13  15  ar  
 26  13  28  1   
 27  14  16  ar  
 28  14  29  1   
 29  15  17  ar  
 30  15  30  1   
 31  16  17  ar  
 32  16  31  1   
 33  17  32  1   
@<TRIPOS>SUBSTRUCTURE
  1 ****   9 GROUP 4 **** **** 0

# MOE 2024.06 (io_trps.svl 2023.06)
