@<TRIPOS>MOLECULE
NONAME
38 39 1 0 0 
SMALL
USER_CHARGES


@<TRIPOS>ATOM
  1 S        0.3800     0.6250    -0.0160 S.3   1 <1>  -0.2860 
  2 C       -1.3340     0.8900     0.4530 C.2   1 <1>   0.2420 
  3 C        1.3080     1.3390     1.4310 C.3   1 <1>   0.1310 
  4 N       -1.6880     1.4160     1.5700 N.2   1 <1>  -0.3380 
  5 N       -2.3600     0.5540    -0.3290 N.pl3 1 <1>   0.0480 
  6 C        2.8070     1.1180     1.3000 C.2   1 <1>   0.5690 
  7 N       -3.0240     1.4390     1.5520 N.2   1 <1>  -0.3380 
  8 C       -3.4030     0.9280     0.4270 C.2   1 <1>   0.0060 
  9 C       -2.3380    -0.0610    -1.6740 C.3   1 <1>   0.0960 
 10 O        3.5400     1.8650     1.9010 O.2   1 <1>  -0.5700 
 11 N        3.2500     0.0860     0.5160 N.am  1 <1>  -0.5470 
 12 C       -4.8570     0.7740     0.0210 C.3   1 <1>  -0.0600 
 13 C       -2.3200    -1.5900    -1.5690 C.3   1 <1>  -0.2400 
 14 C        4.5380    -0.3910     0.2280 C.ar  1 <1>   0.1170 
 15 C        5.6560    -0.0860     0.9980 C.ar  1 <1>  -0.1500 
 16 C        4.7070    -1.2240    -0.8720 C.ar  1 <1>  -0.1500 
 17 C        6.9020    -0.5930     0.6730 C.ar  1 <1>  -0.1500 
 18 C        5.9510    -1.7330    -1.1980 C.ar  1 <1>  -0.1500 
 19 C        7.0580    -1.4190    -0.4280 C.ar  1 <1>  -0.1430 
 20 C        8.4250    -1.9750    -0.7820 C.3   1 <1>  -0.0970 
 21 H        0.9380     0.8610     2.3190 H     1 <1>   0.0800 
 22 H        1.0840     2.3890     1.4660 H     1 <1>   0.0800 
 23 H       -1.4660     0.2830    -2.2010 H     1 <1>   0.0800 
 24 H       -3.2070     0.2610    -2.2200 H     1 <1>   0.0800 
 25 H        2.5030    -0.3870     0.0070 H     1 <1>   0.3700 
 26 H       -5.0600     1.3560    -0.8580 H     1 <1>   0.0800 
 27 H       -5.4940     1.1200     0.8160 H     1 <1>   0.0800 
 28 H       -5.0810    -0.2590    -0.1720 H     1 <1>   0.0800 
 29 H       -1.4400    -1.9180    -1.0440 H     1 <1>   0.0800 
 30 H       -2.3080    -2.0220    -2.5540 H     1 <1>   0.0800 
 31 H       -3.1940    -1.9440    -1.0530 H     1 <1>   0.0800 
 32 H        5.5620     0.5480     1.8600 H     1 <1>   0.1500 
 33 H        3.8600    -1.4760    -1.4830 H     1 <1>   0.1500 
 34 H        7.7500    -0.3410     1.2850 H     1 <1>   0.1500 
 35 H        6.0560    -2.3750    -2.0550 H     1 <1>   0.1500 
 36 H        8.5810    -2.9080    -0.2710 H     1 <1>   0.0800 
 37 H        9.1970    -1.2850    -0.4910 H     1 <1>   0.0800 
 38 H        8.5010    -2.1410    -1.8410 H     1 <1>   0.0800 
@<TRIPOS>BOND
  1   1   2  1   
  2   1   3  1   
  3   2   4  2   
  4   2   5  1   
  5   3   6  1   
  6   3  21  1   
  7   3  22  1   
  8   4   7  1   
  9   5   8  1   
 10   5   9  1   
 11   6  10  2   
 12   6  11  am  
 13   7   8  2   
 14   8  12  1   
 15   9  13  1   
 16   9  23  1   
 17   9  24  1   
 18  11  14  1   
 19  11  25  1   
 20  12  26  1   
 21  12  27  1   
 22  12  28  1   
 23  13  29  1   
 24  13  30  1   
 25  13  31  1   
 26  14  15  ar  
 27  14  16  ar  
 28  15  17  ar  
 29  15  32  1   
 30  16  18  ar  
 31  16  33  1   
 32  17  19  ar  
 33  17  34  1   
 34  18  19  ar  
 35  18  35  1   
 36  19  20  1   
 37  20  36  1   
 38  20  37  1   
 39  20  38  1   
@<TRIPOS>SUBSTRUCTURE
  1 ****   1 GROUP 4 **** **** 0

# MOE 2024.06 (io_trps.svl 2023.06)
