@<TRIPOS>MOLECULE
NONAME
17 17 1 0 0 
SMALL
USER_CHARGES


@<TRIPOS>ATOM
  1 S        5.1240     1.6820    -0.1480 S.3   1 <1>  -0.4600 
  2 C        3.9430     0.3660     0.2500 C.3   1 <1>   0.0700 
  3 C        3.9680     3.0720    -0.2250 C.3   1 <1>   0.0700 
  4 C        2.5990     1.0240    -0.0560 C.3   1 <1>   0.2000 
  5 C        2.6990     2.4890     0.4020 C.3   1 <1>   0.4230 
  6 O        1.5360     0.4220     0.6080 O.3   1 <1>  -0.6800 
  7 N        1.4430     3.2250     0.0950 N.4   1 <1>  -0.8530 
  8 H        4.0660     0.1320     1.2940 H     1 <1>   0.0800 
  9 H        4.1590    -0.4820    -0.3770 H     1 <1>   0.0800 
 10 H        3.8510     3.3230    -1.2640 H     1 <1>   0.0800 
 11 H        4.3880     3.8860     0.3400 H     1 <1>   0.0800 
 12 H        2.4140     0.9700    -1.1160 H     1 <1>   0.0800 
 13 H        2.8450     2.4750     1.4700 H     1 <1>   0.0800 
 14 H        1.5020    -0.5440     0.4250 H     1 <1>   0.4000 
 15 H        1.3070     3.3570    -0.9120 H     1 <1>   0.4500 
 16 H        1.3960     4.1290     0.5750 H     1 <1>   0.4500 
 17 H        0.6720     2.6310     0.4380 H     1 <1>   0.4500 
@<TRIPOS>BOND
  1   1   2  1   
  2   1   3  1   
  3   2   4  1   
  4   2   8  1   
  5   2   9  1   
  6   3   5  1   
  7   3  10  1   
  8   3  11  1   
  9   4   5  1   
 10   4   6  1   
 11   4  12  1   
 12   5   7  1   
 13   5  13  1   
 14   6  14  1   
 15   7  15  1   
 16   7  16  1   
 17   7  17  1   
@<TRIPOS>SUBSTRUCTURE
  1 ****   5 GROUP 4 **** **** 0

# MOE 2024.06 (io_trps.svl 2023.06)
