@<TRIPOS>MOLECULE
NONAME
46 49 1 0 0 
SMALL
USER_CHARGES


@<TRIPOS>ATOM
  1 CL       0.0530    -0.5990     0.7750 Cl    1 <1>  -0.1770 
  2 C        1.3950     0.4900     0.4850 C.ar  1 <1>   0.1770 
  3 C        1.1680     1.8540     0.3150 C.ar  1 <1>   0.0820 
  4 C        2.6680    -0.0340     0.4350 C.ar  1 <1>  -0.1500 
  5 O       -0.0690     2.3850     0.3620 O.3   1 <1>  -0.3630 
  6 C        2.2460     2.6920     0.1130 C.ar  1 <1>  -0.1500 
  7 C        3.7750     0.7950     0.2100 C.ar  1 <1>   0.0280 
  8 C       -0.8620     2.2600    -0.8090 C.3   1 <1>   0.1810 
  9 C        3.5290     2.1710     0.0600 C.ar  1 <1>   0.0830 
 10 C        5.1370     0.3380     0.1310 C.2   1 <1>  -0.1670 
 11 C       -2.1530     3.0680    -0.7020 C.2   1 <1>   0.5690 
 12 O        4.5480     3.0320    -0.1380 O.3   1 <1>  -0.2330 
 13 C        6.1270     1.2520    -0.0430 C.2   1 <1>  -0.1240 
 14 C        5.4270    -1.1600     0.2530 C.3   1 <1>  -0.0220 
 15 O       -2.3400     3.9120    -1.5500 O.2   1 <1>  -0.5700 
 16 N       -3.0750     2.8350     0.2900 N.am  1 <1>  -0.6600 
 17 C        5.8240     2.6490    -0.1920 C.2   1 <1>   0.7060 
 18 C        7.6060     0.8660    -0.1000 C.3   1 <1>  -0.0220 
 19 C        6.8540    -1.5310    -0.1650 C.3   1 <1>  -0.1600 
 20 C       -4.3200     3.6520     0.4100 C.3   1 <1>   0.1400 
 21 C       -2.9360     1.8200     1.3800 C.3   1 <1>   0.1400 
 22 O        6.6600     3.5120    -0.3720 O.2   1 <1>  -0.5700 
 23 C        7.8660    -0.5490     0.4270 C.3   1 <1>  -0.1600 
 24 C       -5.5430     2.7490     0.6380 C.3   1 <1>   0.1200 
 25 C       -4.2420     1.0270     1.5580 C.3   1 <1>   0.1200 
 26 O       -5.3310     1.8900     1.7230 O.3   1 <1>  -0.5600 
 27 H        2.7890    -1.0900     0.5770 H     1 <1>   0.1500 
 28 H        2.0900     3.7500    -0.0030 H     1 <1>   0.1500 
 29 H       -1.0960     1.2240    -0.9610 H     1 <1>   0.0800 
 30 H       -0.2870     2.6200    -1.6430 H     1 <1>   0.0800 
 31 H        4.7490    -1.7190    -0.3670 H     1 <1>   0.0800 
 32 H        5.2690    -1.4570     1.2760 H     1 <1>   0.0800 
 33 H        8.1890     1.5610     0.4800 H     1 <1>   0.0800 
 34 H        7.9370     0.9370    -1.1220 H     1 <1>   0.0800 
 35 H        6.9270    -1.5090    -1.2400 H     1 <1>   0.0800 
 36 H        7.0770    -2.5320     0.1620 H     1 <1>   0.0800 
 37 H       -4.4750     4.2390    -0.4780 H     1 <1>   0.0800 
 38 H       -4.2190     4.3280     1.2400 H     1 <1>   0.0800 
 39 H       -2.7010     2.3240     2.3010 H     1 <1>   0.0800 
 40 H       -2.1410     1.1310     1.1680 H     1 <1>   0.0800 
 41 H        7.7810    -0.5520     1.5000 H     1 <1>   0.0800 
 42 H        8.8670    -0.8510     0.1710 H     1 <1>   0.0800 
 43 H       -5.7440     2.1580    -0.2390 H     1 <1>   0.0800 
 44 H       -6.4090     3.3480     0.8570 H     1 <1>   0.0800 
 45 H       -4.1810     0.4060     2.4330 H     1 <1>   0.0800 
 46 H       -4.4250     0.4020     0.7020 H     1 <1>   0.0800 
@<TRIPOS>BOND
  1   1   2  1   
  2   2   3  ar  
  3   2   4  ar  
  4   3   5  1   
  5   3   6  ar  
  6   4   7  ar  
  7   4  27  1   
  8   5   8  1   
  9   6   9  ar  
 10   6  28  1   
 11   7   9  ar  
 12   7  10  1   
 13   8  11  1   
 14   8  29  1   
 15   8  30  1   
 16   9  12  1   
 17  10  13  2   
 18  10  14  1   
 19  11  15  2   
 20  11  16  am  
 21  12  17  1   
 22  13  17  1   
 23  13  18  1   
 24  14  19  1   
 25  14  31  1   
 26  14  32  1   
 27  16  20  1   
 28  16  21  1   
 29  17  22  2   
 30  18  23  1   
 31  18  33  1   
 32  18  34  1   
 33  19  23  1   
 34  19  35  1   
 35  19  36  1   
 36  20  24  1   
 37  20  37  1   
 38  20  38  1   
 39  21  25  1   
 40  21  39  1   
 41  21  40  1   
 42  23  41  1   
 43  23  42  1   
 44  24  26  1   
 45  24  43  1   
 46  24  44  1   
 47  25  26  1   
 48  25  45  1   
 49  25  46  1   
@<TRIPOS>SUBSTRUCTURE
  1 ****   3 GROUP 4 **** **** 0

# MOE 2024.06 (io_trps.svl 2023.06)
