@<TRIPOS>MOLECULE
NONAME
38 39 1 0 0 
SMALL
USER_CHARGES


@<TRIPOS>ATOM
  1 S        0.5900     0.5690     1.0310 S.o2  1 <1>   1.3330 
  2 O        0.0460    -0.5680     0.3320 O.2   1 <1>  -0.6500 
  3 O        1.9420     0.5330     1.5390 O.2   1 <1>  -0.6500 
  4 N        0.5020     1.9310    -0.0260 N.am  1 <1>  -0.6930 
  5 C       -0.5060     1.0350     2.3540 C.3   1 <1>  -0.1350 
  6 C       -0.6750     2.2220    -0.7180 C.ar  1 <1>   0.1990 
  7 C        1.5520     2.9920     0.0870 C.3   1 <1>   0.2570 
  8 C       -1.5920     3.1820    -0.2630 C.ar  1 <1>   0.0830 
  9 C       -0.9460     1.5360    -1.8930 C.ar  1 <1>  -0.1500 
 10 C        2.8050     2.7200    -0.7500 C.2   1 <1>   0.5690 
 11 O       -1.3090     3.8310     0.9100 O.3   1 <1>  -0.3630 
 12 C       -2.7450     3.4360    -0.9990 C.ar  1 <1>  -0.1500 
 13 C       -2.0950     1.7920    -2.6190 C.ar  1 <1>  -0.1500 
 14 O        3.1270     3.5290    -1.5910 O.2   1 <1>  -0.5700 
 15 N        3.5340     1.5960    -0.5090 N.am  1 <1>  -0.5790 
 16 C       -2.1010     4.9120     1.3540 C.3   1 <1>   0.0400 
 17 C       -2.9930     2.7440    -2.1720 C.ar  1 <1>  -0.1500 
 18 C        4.7370     1.1640    -1.2290 C.3   1 <1>   0.0490 
 19 C        4.9080    -0.2970    -1.4780 C.3   1 <1>  -0.2000 
 20 C        5.7690     0.4020    -0.4680 C.3   1 <1>  -0.2000 
 21 H       -0.5190     0.2730     3.1070 H     1 <1>   0.0800 
 22 H       -1.5020     1.1640     1.9780 H     1 <1>   0.0800 
 23 H       -0.1840     1.9560     2.7970 H     1 <1>   0.0800 
 24 H        1.8410     3.1060     1.1150 H     1 <1>   0.0800 
 25 H        1.1390     3.9310    -0.2380 H     1 <1>   0.0800 
 26 H       -0.2460     0.7930    -2.2350 H     1 <1>   0.1500 
 27 H       -3.4680     4.1640    -0.6810 H     1 <1>   0.1500 
 28 H       -2.2870     1.2500    -3.5290 H     1 <1>   0.1500 
 29 H        3.2070     0.9540     0.2270 H     1 <1>   0.3700 
 30 H       -1.6590     5.3040     2.2530 H     1 <1>   0.0800 
 31 H       -3.0950     4.5570     1.5630 H     1 <1>   0.0800 
 32 H       -2.1150     5.6720     0.5930 H     1 <1>   0.0800 
 33 H       -3.8870     2.9440    -2.7380 H     1 <1>   0.1500 
 34 H        5.0550     1.8610    -1.9880 H     1 <1>   0.1000 
 35 H        5.3580    -0.6110    -2.4030 H     1 <1>   0.1000 
 36 H        4.1400    -0.9700    -1.1390 H     1 <1>   0.1000 
 37 H        5.6050     0.2110     0.5780 H     1 <1>   0.1000 
 38 H        6.8060     0.5600    -0.7050 H     1 <1>   0.1000 
@<TRIPOS>BOND
  1   1   2  2   
  2   1   3  2   
  3   1   4  am  
  4   1   5  1   
  5   4   6  1   
  6   4   7  1   
  7   5  21  1   
  8   5  22  1   
  9   5  23  1   
 10   6   8  ar  
 11   6   9  ar  
 12   7  10  1   
 13   7  24  1   
 14   7  25  1   
 15   8  11  1   
 16   8  12  ar  
 17   9  13  ar  
 18   9  26  1   
 19  10  14  2   
 20  10  15  am  
 21  11  16  1   
 22  12  17  ar  
 23  12  27  1   
 24  13  17  ar  
 25  13  28  1   
 26  15  18  1   
 27  15  29  1   
 28  16  30  1   
 29  16  31  1   
 30  16  32  1   
 31  17  33  1   
 32  18  19  1   
 33  18  20  1   
 34  18  34  1   
 35  19  20  1   
 36  19  35  1   
 37  19  36  1   
 38  20  37  1   
 39  20  38  1   
@<TRIPOS>SUBSTRUCTURE
  1 ****   4 GROUP 4 **** **** 0

# MOE 2024.06 (io_trps.svl 2023.06)
