@<TRIPOS>MOLECULE
NONAME
32 33 1 0 0 
SMALL
USER_CHARGES


@<TRIPOS>ATOM
  1 O        0.4680     0.0110     0.1700 O.3   1 <1>  -0.3720 
  2 C        1.6300    -0.6850     0.1110 C.ar  1 <1>   0.0700 
  3 C        0.4440     1.4190     0.0850 C.3   1 <1>   0.0270 
  4 C        2.8760    -0.0920    -0.0340 C.ar  1 <1>  -0.1210 
  5 C        1.5180    -2.0740     0.2070 C.ar  1 <1>  -0.1620 
  6 C        3.9900    -0.9180    -0.0820 C.ar  1 <1>   0.2990 
  7 C        2.6330    -2.8870     0.1590 C.ar  1 <1>  -0.1210 
  8 N        5.3360    -0.6350    -0.2120 N.pl3 1 <1>  -0.7060 
  9 C        3.8820    -2.2930     0.0090 C.ar  1 <1>   0.2990 
 10 C        6.0150    -1.7740    -0.1920 C.cat 1 <1>   1.0680 
 11 N        5.1730    -2.8130    -0.0760 N.pl3 1 <1>  -0.7690 
 12 N        7.3440    -1.7870    -0.2770 N.pl3 1 <1>  -0.7200 
 13 C        5.4460    -4.2740    -0.1170 C.3   1 <1>   0.2640 
 14 C        8.2870    -2.9240    -0.1100 C.3   1 <1>   0.1560 
 15 C        9.6510    -2.4440     0.3910 C.3   1 <1>   0.1080 
 16 O       10.4480    -3.5600     0.5550 O.3   1 <1>  -0.6860 
 17 H       -0.5800     1.7400     0.1540 H     1 <1>   0.0680 
 18 H        0.8550     1.7210    -0.8630 H     1 <1>   0.0680 
 19 H        1.0090     1.8310     0.9020 H     1 <1>   0.0680 
 20 H        3.0000     0.9710    -0.1090 H     1 <1>   0.1380 
 21 H        0.5350    -2.5010     0.3210 H     1 <1>   0.1380 
 22 H        2.5350    -3.9540     0.2360 H     1 <1>   0.1380 
 23 H        5.7220     0.3010    -0.2810 H     1 <1>   0.4420 
 24 H        7.8090    -0.9020    -0.4640 H     1 <1>   0.4420 
 25 H        4.5640    -4.8120    -0.4200 H     1 <1>   0.0680 
 26 H        5.7440    -4.6190     0.8580 H     1 <1>   0.0680 
 27 H        6.2240    -4.4920    -0.8280 H     1 <1>   0.0680 
 28 H        8.4150    -3.4210    -1.0570 H     1 <1>   0.0680 
 29 H        7.8940    -3.6210     0.6090 H     1 <1>   0.0680 
 30 H        9.5650    -1.9550     1.3470 H     1 <1>   0.0680 
 31 H       10.1270    -1.7980    -0.3260 H     1 <1>   0.0680 
 32 H       11.3420    -3.3170     0.8750 H     1 <1>   0.3910 
@<TRIPOS>BOND
  1   1   2  1   
  2   1   3  1   
  3   2   4  ar  
  4   2   5  ar  
  5   3  17  1   
  6   3  18  1   
  7   3  19  1   
  8   4   6  ar  
  9   4  20  1   
 10   5   7  ar  
 11   5  21  1   
 12   6   8  1   
 13   6   9  ar  
 14   7   9  ar  
 15   7  22  1   
 16   8  10  ar  
 17   8  23  1   
 18   9  11  1   
 19  10  11  ar  
 20  10  12  ar  
 21  11  13  1   
 22  12  14  1   
 23  12  24  1   
 24  13  25  1   
 25  13  26  1   
 26  13  27  1   
 27  14  15  1   
 28  14  28  1   
 29  14  29  1   
 30  15  16  1   
 31  15  30  1   
 32  15  31  1   
 33  16  32  1   
@<TRIPOS>SUBSTRUCTURE
  1 ****   9 GROUP 4 **** **** 0

# MOE 2024.06 (io_trps.svl 2023.06)
