@<TRIPOS>MOLECULE
NONAME
51 54 1 0 0 
SMALL
USER_CHARGES


@<TRIPOS>ATOM
  1 S        1.8760     3.0560    -1.3540 S.3   1 <1>  -0.0800 
  2 C        2.1400     2.1280     0.1110 C.2   1 <1>   0.1040 
  3 C        0.1350     2.9720    -1.1670 C.2   1 <1>  -0.1400 
  4 N        3.4790     1.8900     0.4080 N.am  1 <1>  -0.4940 
  5 C        0.9500     1.8170     0.6980 C.2   1 <1>   0.0190 
  6 C       -0.1900     2.2900    -0.0540 C.2   1 <1>  -0.1810 
  7 C       -0.7100     3.6430    -2.2310 C.3   1 <1>   0.0200 
  8 C        4.0890     0.8690     1.0750 C.2   1 <1>   0.5690 
  9 C        0.7970     1.1400     1.9530 C.1   1 <1>   0.5380 
 10 C       -1.6370     2.0390     0.3610 C.3   1 <1>   0.0210 
 11 C       -1.7040     4.6390    -1.6200 C.3   1 <1>  -0.1600 
 12 O        3.4990    -0.0790     1.5310 O.2   1 <1>  -0.5700 
 13 C        5.6110     0.9500     1.2000 C.3   1 <1>   0.1710 
 14 N        0.5840     0.6540     2.9650 N.1   1 <1>  -0.5570 
 15 C       -2.4360     3.3430     0.5020 C.3   1 <1>  -0.1600 
 16 C       -2.8520     3.9840    -0.8330 C.3   1 <1>  -0.1600 
 17 N        6.2460     1.7980     0.1460 N.3   1 <1>  -0.8100 
 18 C        6.2720     1.0850    -1.1470 C.3   1 <1>   0.1100 
 19 C        7.6060     2.1870     0.5510 C.3   1 <1>   0.1100 
 20 C        6.7990     2.0160    -2.2380 C.3   1 <1>  -0.1600 
 21 C        8.1920     3.1610    -0.4720 C.3   1 <1>  -0.1600 
 22 C        8.1810     2.5350    -1.8670 C.3   1 <1>   0.5600 
 23 O        8.5970     3.4510    -2.8210 O.3   1 <1>  -0.5600 
 24 O        9.0950     1.4890    -1.9340 O.3   1 <1>  -0.5600 
 25 C        9.9630     3.3370    -2.9860 C.3   1 <1>   0.1200 
 26 C       10.2920     1.9610    -2.4410 C.3   1 <1>   0.1200 
 27 H        4.1720     2.4930    -0.0510 H     1 <1>   0.3700 
 28 H       -1.2330     2.8940    -2.7980 H     1 <1>   0.0800 
 29 H       -0.0640     4.1740    -2.9080 H     1 <1>   0.0800 
 30 H       -1.6820     1.5220     1.3020 H     1 <1>   0.0800 
 31 H       -2.1070     1.4010    -0.3670 H     1 <1>   0.0800 
 32 H       -2.1340     5.2110    -2.4230 H     1 <1>   0.0800 
 33 H       -1.1740     5.3270    -0.9840 H     1 <1>   0.0800 
 34 H        6.0200    -0.0450     1.1730 H     1 <1>   0.0800 
 35 H        5.8210     1.3660     2.1700 H     1 <1>   0.0800 
 36 H       -1.8730     4.0470     1.0910 H     1 <1>   0.0800 
 37 H       -3.3340     3.1170     1.0500 H     1 <1>   0.0800 
 38 H       -3.3480     3.2540    -1.4510 H     1 <1>   0.0800 
 39 H       -3.5740     4.7520    -0.6140 H     1 <1>   0.0800 
 40 H        5.2800     0.7590    -1.4150 H     1 <1>   0.0800 
 41 H        6.9040     0.2140    -1.0760 H     1 <1>   0.0800 
 42 H        8.2330     1.3130     0.6250 H     1 <1>   0.0800 
 43 H        7.5760     2.6690     1.5140 H     1 <1>   0.0800 
 44 H        6.1240     2.8440    -2.3450 H     1 <1>   0.0800 
 45 H        6.8530     1.4940    -3.1750 H     1 <1>   0.0800 
 46 H        9.1920     3.4270    -0.1900 H     1 <1>   0.0800 
 47 H        7.5910     4.0510    -0.4820 H     1 <1>   0.0800 
 48 H       10.4500     4.1120    -2.4220 H     1 <1>   0.0800 
 49 H       10.2010     3.4290    -4.0310 H     1 <1>   0.0800 
 50 H       10.6290     1.2930    -3.2140 H     1 <1>   0.0800 
 51 H       11.0180     2.0090    -1.6480 H     1 <1>   0.0800 
@<TRIPOS>BOND
  1   1   2  1   
  2   1   3  1   
  3   2   4  1   
  4   2   5  2   
  5   3   6  2   
  6   3   7  1   
  7   4   8  am  
  8   4  27  1   
  9   5   6  1   
 10   5   9  1   
 11   6  10  1   
 12   7  11  1   
 13   7  28  1   
 14   7  29  1   
 15   8  12  2   
 16   8  13  1   
 17   9  14  3   
 18  10  15  1   
 19  10  30  1   
 20  10  31  1   
 21  11  16  1   
 22  11  32  1   
 23  11  33  1   
 24  13  17  1   
 25  13  34  1   
 26  13  35  1   
 27  15  16  1   
 28  15  36  1   
 29  15  37  1   
 30  16  38  1   
 31  16  39  1   
 32  17  18  1   
 33  17  19  1   
 34  18  20  1   
 35  18  40  1   
 36  18  41  1   
 37  19  21  1   
 38  19  42  1   
 39  19  43  1   
 40  20  22  1   
 41  20  44  1   
 42  20  45  1   
 43  21  22  1   
 44  21  46  1   
 45  21  47  1   
 46  22  23  1   
 47  22  24  1   
 48  23  25  1   
 49  24  26  1   
 50  25  26  1   
 51  25  48  1   
 52  25  49  1   
 53  26  50  1   
 54  26  51  1   
@<TRIPOS>SUBSTRUCTURE
  1 ****   4 GROUP 4 **** **** 0

# MOE 2024.06 (io_trps.svl 2023.06)
