@<TRIPOS>MOLECULE
NONAME
27 28 1 0 0 
SMALL
USER_CHARGES


@<TRIPOS>ATOM
  1 O       -0.3160    -0.3680     0.4490 O.3   1 <1>  -0.5600 
  2 C        0.1020    -1.7040     0.5940 C.3   1 <1>   0.1200 
  3 C       -1.4580    -0.1370    -0.3370 C.3   1 <1>   0.1200 
  4 C       -0.4220    -2.6210    -0.5300 C.3   1 <1>   0.1100 
  5 C       -2.4720    -1.2890    -0.2240 C.3   1 <1>   0.1100 
  6 N       -1.8980    -2.5900    -0.6490 N.3   1 <1>  -0.8100 
  7 C       -2.5390    -3.7260     0.0330 C.3   1 <1>   0.3100 
  8 C       -4.0000    -3.7740    -0.2670 C.1   1 <1>  -0.2000 
  9 C       -5.1650    -3.8060    -0.4990 C.1   1 <1>  -0.1050 
 10 C       -6.6250    -3.8390    -0.7940 C.3   1 <1>   0.0050 
 11 C       -7.5530    -2.9780     0.0030 C.3   1 <1>  -0.2000 
 12 C       -7.5610    -4.4630     0.1930 C.3   1 <1>  -0.2000 
 13 H       -0.2530    -2.0550     1.5470 H     1 <1>   0.0800 
 14 H        1.1770    -1.7070     0.6090 H     1 <1>   0.0800 
 15 H       -1.1450    -0.0230    -1.3600 H     1 <1>   0.0800 
 16 H       -1.8990     0.7870    -0.0080 H     1 <1>   0.0800 
 17 H       -0.0760    -3.6270    -0.3710 H     1 <1>   0.0800 
 18 H        0.0030    -2.2840    -1.4600 H     1 <1>   0.0800 
 19 H       -3.3310    -1.0720    -0.8360 H     1 <1>   0.0800 
 20 H       -2.8030    -1.3410     0.7990 H     1 <1>   0.0800 
 21 H       -2.3900    -3.6500     1.0960 H     1 <1>   0.0800 
 22 H       -2.0950    -4.6450    -0.3100 H     1 <1>   0.0800 
 23 H       -6.8370    -3.9710    -1.8410 H     1 <1>   0.1000 
 24 H       -8.3800    -2.5110    -0.5020 H     1 <1>   0.1000 
 25 H       -7.1400    -2.3580     0.7800 H     1 <1>   0.1000 
 26 H       -7.1530    -4.8720     1.1010 H     1 <1>   0.1000 
 27 H       -8.3940    -5.0320    -0.1800 H     1 <1>   0.1000 
@<TRIPOS>BOND
  1   1   2  1   
  2   1   3  1   
  3   2   4  1   
  4   2  13  1   
  5   2  14  1   
  6   3   5  1   
  7   3  15  1   
  8   3  16  1   
  9   4   6  1   
 10   4  17  1   
 11   4  18  1   
 12   5   6  1   
 13   5  19  1   
 14   5  20  1   
 15   6   7  1   
 16   7   8  1   
 17   7  21  1   
 18   7  22  1   
 19   8   9  3   
 20   9  10  1   
 21  10  11  1   
 22  10  12  1   
 23  10  23  1   
 24  11  12  1   
 25  11  24  1   
 26  11  25  1   
 27  12  26  1   
 28  12  27  1   
@<TRIPOS>SUBSTRUCTURE
  1 ****   8 GROUP 4 **** **** 0

# MOE 2024.06 (io_trps.svl 2023.06)
