@<TRIPOS>MOLECULE
NONAME
42 44 1 0 0 
SMALL
USER_CHARGES


@<TRIPOS>ATOM
  1 O        0.9520     0.6520     2.5830 O.2   1 <1>  -0.5700 
  2 C        1.1240     1.4400     1.6800 C.2   1 <1>   0.5690 
  3 N        2.1800     1.3110     0.8070 N.am  1 <1>  -0.6600 
  4 C        0.1260     2.5860     1.5690 C.3   1 <1>   0.0440 
  5 C        2.4380     2.1990    -0.3620 C.3   1 <1>   0.1400 
  6 C        3.1500     0.1860     0.9240 C.3   1 <1>   0.1400 
  7 C       -0.8200     2.4420     0.3730 C.ar  1 <1>  -0.1440 
  8 C        3.8400     2.7970    -0.2440 C.3   1 <1>  -0.1600 
  9 C        4.5650     0.7480     1.0640 C.3   1 <1>  -0.1600 
 10 C       -0.9870     3.4570    -0.5690 C.ar  1 <1>   0.0820 
 11 C       -1.5350     1.2610     0.2350 C.ar  1 <1>  -0.1500 
 12 C        4.8840     1.6960    -0.0940 C.3   1 <1>   0.5600 
 13 O       -0.2770     4.6050    -0.4050 O.3   1 <1>  -0.3630 
 14 C       -1.8640     3.2670    -1.6360 C.ar  1 <1>  -0.1500 
 15 C       -2.4030     1.0800    -0.8260 C.ar  1 <1>  -0.1500 
 16 O        4.9710     0.9890    -1.2880 O.3   1 <1>  -0.5600 
 17 O        6.1310     2.2760     0.0800 O.3   1 <1>  -0.5600 
 18 C       -0.4130     5.6980    -1.2870 C.3   1 <1>   0.0400 
 19 C       -2.5670     2.0830    -1.7620 C.ar  1 <1>  -0.1500 
 20 C        6.2890     0.6410    -1.5170 C.3   1 <1>   0.1200 
 21 C        7.0820     1.4950    -0.5470 C.3   1 <1>   0.1200 
 22 H        0.6750     3.5070     1.5420 H     1 <1>   0.0800 
 23 H       -0.4670     2.6070     2.4640 H     1 <1>   0.0800 
 24 H        1.7200     2.9940    -0.4230 H     1 <1>   0.0800 
 25 H        2.3640     1.6180    -1.2660 H     1 <1>   0.0800 
 26 H        3.0830    -0.4260     0.0400 H     1 <1>   0.0800 
 27 H        2.9210    -0.4320     1.7750 H     1 <1>   0.0800 
 28 H        3.8720     3.4360     0.6190 H     1 <1>   0.0800 
 29 H        4.0630     3.3850    -1.1140 H     1 <1>   0.0800 
 30 H        5.2720    -0.0580     1.0960 H     1 <1>   0.0800 
 31 H        4.6260     1.2900     1.9900 H     1 <1>   0.0800 
 32 H       -1.4160     0.4710     0.9590 H     1 <1>   0.1500 
 33 H       -2.0130     4.0260    -2.3790 H     1 <1>   0.1500 
 34 H       -2.9500     0.1570    -0.9200 H     1 <1>   0.1500 
 35 H        0.2310     6.4870    -0.9420 H     1 <1>   0.0800 
 36 H       -1.4360     6.0310    -1.2750 H     1 <1>   0.0800 
 37 H       -0.1180     5.3900    -2.2740 H     1 <1>   0.0800 
 38 H       -3.2430     1.9410    -2.5870 H     1 <1>   0.1500 
 39 H        6.5340     0.8610    -2.5400 H     1 <1>   0.0800 
 40 H        6.4160    -0.4080    -1.3190 H     1 <1>   0.0800 
 41 H        7.5830     0.8940     0.1910 H     1 <1>   0.0800 
 42 H        7.7870     2.1340    -1.0490 H     1 <1>   0.0800 
@<TRIPOS>BOND
  1   1   2  2   
  2   2   3  am  
  3   2   4  1   
  4   3   5  1   
  5   3   6  1   
  6   4   7  1   
  7   4  22  1   
  8   4  23  1   
  9   5   8  1   
 10   5  24  1   
 11   5  25  1   
 12   6   9  1   
 13   6  26  1   
 14   6  27  1   
 15   7  10  ar  
 16   7  11  ar  
 17   8  12  1   
 18   8  28  1   
 19   8  29  1   
 20   9  12  1   
 21   9  30  1   
 22   9  31  1   
 23  10  13  1   
 24  10  14  ar  
 25  11  15  ar  
 26  11  32  1   
 27  12  16  1   
 28  12  17  1   
 29  13  18  1   
 30  14  19  ar  
 31  14  33  1   
 32  15  19  ar  
 33  15  34  1   
 34  16  20  1   
 35  17  21  1   
 36  18  35  1   
 37  18  36  1   
 38  18  37  1   
 39  19  38  1   
 40  20  21  1   
 41  20  39  1   
 42  20  40  1   
 43  21  41  1   
 44  21  42  1   
@<TRIPOS>SUBSTRUCTURE
  1 ****   5 GROUP 4 **** **** 0

# MOE 2024.06 (io_trps.svl 2023.06)
