@<TRIPOS>MOLECULE
NONAME
37 38 1 0 0 
SMALL
USER_CHARGES


@<TRIPOS>ATOM
  1 CL       1.1550    -1.4090     0.7940 Cl    1 <1>  -0.1770 
  2 C        2.7440    -0.7310     0.5410 C.ar  1 <1>   0.1770 
  3 C        3.8150    -1.5770     0.3240 C.ar  1 <1>  -0.1500 
  4 C        2.9060     0.6420     0.5610 C.ar  1 <1>  -0.1500 
  5 C        5.0730    -1.0350     0.1240 C.ar  1 <1>  -0.1500 
  6 C        4.1650     1.1830     0.3610 C.ar  1 <1>  -0.1500 
  7 C        5.2570     0.3410     0.1400 C.ar  1 <1>   0.0830 
  8 O        6.5220     0.7840    -0.0650 O.3   1 <1>  -0.3630 
  9 C        6.8220     2.1610    -0.0690 C.3   1 <1>   0.3200 
 10 C        8.2870     2.2990    -0.3200 C.1   1 <1>  -0.2000 
 11 C        9.4570     2.3500    -0.5230 C.1   1 <1>  -0.2000 
 12 C       10.9150     2.3140    -0.7780 C.3   1 <1>   0.5430 
 13 N       11.2560     0.8870    -0.8590 N.4   1 <1>  -0.9060 
 14 C       12.6720     0.5890    -1.1250 C.3   1 <1>   0.4230 
 15 C       12.8010    -0.9150    -1.3290 C.3   1 <1>  -0.1600 
 16 C       13.4920     0.8270     0.1400 C.3   1 <1>  -0.1600 
 17 C       12.8220    -1.5290     0.0770 C.3   1 <1>  -0.1600 
 18 C       13.2640    -0.4050     1.0240 C.3   1 <1>  -0.1600 
 19 H        3.6630    -2.6420     0.3130 H     1 <1>   0.1500 
 20 H        2.0520     1.2740     0.7320 H     1 <1>   0.1500 
 21 H        5.9170    -1.6780    -0.0460 H     1 <1>   0.1500 
 22 H        4.2670     2.2510     0.3800 H     1 <1>   0.1500 
 23 H        6.5600     2.5730     0.8900 H     1 <1>   0.0800 
 24 H        6.2560     2.6340    -0.8530 H     1 <1>   0.0800 
 25 H       11.4450     2.7920     0.0300 H     1 <1>   0.0800 
 26 H       11.1430     2.8160    -1.7050 H     1 <1>   0.0800 
 27 H       10.6600     0.4650    -1.5780 H     1 <1>   0.4500 
 28 H       10.9880     0.4410     0.0240 H     1 <1>   0.4500 
 29 H       13.0390     1.1450    -1.9740 H     1 <1>   0.0800 
 30 H       13.7490    -1.1110    -1.8000 H     1 <1>   0.0800 
 31 H       12.0280    -1.3310    -1.9520 H     1 <1>   0.0800 
 32 H       13.2620     1.7470     0.6470 H     1 <1>   0.0800 
 33 H       14.5320     0.8550    -0.1380 H     1 <1>   0.0800 
 34 H       13.5030    -2.3640     0.1190 H     1 <1>   0.0800 
 35 H       11.8410    -1.8800     0.3530 H     1 <1>   0.0800 
 36 H       12.4940    -0.2140     1.7530 H     1 <1>   0.0800 
 37 H       14.1670    -0.6720     1.5490 H     1 <1>   0.0800 
@<TRIPOS>BOND
  1   1   2  1   
  2   2   3  ar  
  3   2   4  ar  
  4   3   5  ar  
  5   3  19  1   
  6   4   6  ar  
  7   4  20  1   
  8   5   7  ar  
  9   5  21  1   
 10   6   7  ar  
 11   6  22  1   
 12   7   8  1   
 13   8   9  1   
 14   9  10  1   
 15   9  23  1   
 16   9  24  1   
 17  10  11  3   
 18  11  12  1   
 19  12  13  1   
 20  12  25  1   
 21  12  26  1   
 22  13  14  1   
 23  13  27  1   
 24  13  28  1   
 25  14  15  1   
 26  14  16  1   
 27  14  29  1   
 28  15  17  1   
 29  15  30  1   
 30  15  31  1   
 31  16  18  1   
 32  16  32  1   
 33  16  33  1   
 34  17  18  1   
 35  17  34  1   
 36  17  35  1   
 37  18  36  1   
 38  18  37  1   
@<TRIPOS>SUBSTRUCTURE
  1 ****   8 GROUP 4 **** **** 0

# MOE 2024.06 (io_trps.svl 2023.06)
