@<TRIPOS>MOLECULE
NONAME
29 29 1 0 0 
SMALL
USER_CHARGES


@<TRIPOS>ATOM
  1 S        0.4190     3.6850     1.5290 S.3   1 <1>  -0.0800 
  2 C        0.6210     2.5150     0.2350 C.2   1 <1>   0.1980 
  3 C       -1.1940     4.0020     0.9430 C.2   1 <1>  -0.1100 
  4 N       -0.3970     2.3830    -0.5170 N.2   1 <1>  -0.5650 
  5 C        1.9390     1.7780     0.1540 C.3   1 <1>   0.0810 
  6 C       -1.4180     3.2210    -0.1290 C.2   1 <1>   0.3100 
  7 C        3.0080     2.6260    -0.4940 C.2   1 <1>   0.6590 
  8 N       -2.5500     3.1380    -0.9060 N.pl3 1 <1>  -0.8520 
  9 O        3.5360     2.2930    -1.5250 O.2   1 <1>  -0.5700 
 10 O        3.3590     3.7300     0.1570 O.3   1 <1>  -0.4300 
 11 C       -3.7820     2.7500    -0.1880 C.3   1 <1>   0.3470 
 12 C        4.3550     4.6130    -0.3120 C.3   1 <1>   0.1200 
 13 C       -4.6290     3.9700     0.1480 C.2   1 <1>  -0.2880 
 14 C        5.7150     4.1310     0.1870 C.3   1 <1>  -0.2400 
 15 C       -4.3870     5.2470    -0.1730 C.2   1 <1>  -0.3000 
 16 H       -1.8000     4.7300     1.4460 H     1 <1>   0.1500 
 17 H        1.8040     0.8870    -0.4310 H     1 <1>   0.0800 
 18 H        2.2600     1.4940     1.1370 H     1 <1>   0.0800 
 19 H       -2.3510     2.4680    -1.6530 H     1 <1>   0.4000 
 20 H       -3.5260     2.2270     0.7190 H     1 <1>   0.0800 
 21 H       -4.3530     2.0820    -0.8090 H     1 <1>   0.0800 
 22 H        4.1340     5.5900     0.0800 H     1 <1>   0.0800 
 23 H        4.3190     4.6500    -1.3890 H     1 <1>   0.0800 
 24 H       -5.5060     3.6910     0.7050 H     1 <1>   0.1500 
 25 H        5.7230     4.0850     1.2610 H     1 <1>   0.0800 
 26 H        6.4800     4.8150    -0.1330 H     1 <1>   0.0800 
 27 H        5.9390     3.1600    -0.2190 H     1 <1>   0.0800 
 28 H       -5.0270     6.0700     0.0930 H     1 <1>   0.1500 
 29 H       -3.5260     5.5730    -0.7330 H     1 <1>   0.1500 
@<TRIPOS>BOND
  1   1   2  1   
  2   1   3  1   
  3   2   4  2   
  4   2   5  1   
  5   3   6  2   
  6   3  16  1   
  7   4   6  1   
  8   5   7  1   
  9   5  17  1   
 10   5  18  1   
 11   6   8  1   
 12   7   9  2   
 13   7  10  1   
 14   8  11  1   
 15   8  19  1   
 16  10  12  1   
 17  11  13  1   
 18  11  20  1   
 19  11  21  1   
 20  12  14  1   
 21  12  22  1   
 22  12  23  1   
 23  13  15  2   
 24  13  24  1   
 25  14  25  1   
 26  14  26  1   
 27  14  27  1   
 28  15  28  1   
 29  15  29  1   
@<TRIPOS>SUBSTRUCTURE
  1 ****   2 GROUP 4 **** **** 0

# MOE 2024.06 (io_trps.svl 2023.06)
