@<TRIPOS>MOLECULE
NONAME
34 36 1 0 0 
SMALL
USER_CHARGES


@<TRIPOS>ATOM
  1 CL      -2.9220     2.5130    -2.3620 Cl    1 <1>  -0.1770 
  2 C       -1.5520     2.7100    -1.2830 C.ar  1 <1>   0.1770 
  3 C       -0.4050     3.3380    -1.7370 C.ar  1 <1>   0.1770 
  4 C       -1.6210     2.2230     0.0210 C.ar  1 <1>   0.1170 
  5 CL      -0.3110     3.9560    -3.3710 Cl    1 <1>  -0.1770 
  6 C        0.6940     3.4900    -0.9110 C.ar  1 <1>  -0.1500 
  7 N       -2.7820     1.5910     0.5120 N.am  1 <1>  -0.2370 
  8 C       -0.5080     2.3740     0.8430 C.ar  1 <1>  -0.1500 
  9 C        0.6400     3.0020     0.3850 C.ar  1 <1>  -0.1500 
 10 C       -3.9700     2.2190     0.7460 C.2   1 <1>   0.5690 
 11 C       -2.8930     0.2640     0.8070 C.2   1 <1>   0.5690 
 12 O       -4.1270     3.4160     0.7820 O.2   1 <1>  -0.5700 
 13 C       -5.0760     1.1990     1.0560 C.3   1 <1>   0.2510 
 14 O       -2.0020    -0.5440     0.7570 O.2   1 <1>  -0.5700 
 15 C       -4.2810    -0.0960     1.2740 C.3   1 <1>  -0.0990 
 16 N       -6.0520     0.9840    -0.0440 N.3   1 <1>  -0.8100 
 17 C       -7.2260     0.2120     0.3590 C.3   1 <1>   0.1100 
 18 C       -6.5850     2.2270    -0.6050 C.3   1 <1>   0.1100 
 19 C       -8.2480     0.4680    -0.7400 C.3   1 <1>  -0.1600 
 20 C       -7.8450     1.8100    -1.3510 C.3   1 <1>  -0.1600 
 21 H        1.5770     3.9800    -1.2800 H     1 <1>   0.1500 
 22 H       -0.5380     1.9930     1.8500 H     1 <1>   0.1500 
 23 H        1.4910     3.1100     1.0360 H     1 <1>   0.1500 
 24 H       -5.5870     1.5000     1.9540 H     1 <1>   0.0800 
 25 H       -4.2440    -0.3530     2.3160 H     1 <1>   0.0800 
 26 H       -4.6560    -0.9230     0.7010 H     1 <1>   0.0800 
 27 H       -7.6080     0.5810     1.2970 H     1 <1>   0.0800 
 28 H       -6.9970    -0.8360     0.4460 H     1 <1>   0.0800 
 29 H       -5.8710     2.6920    -1.2660 H     1 <1>   0.0800 
 30 H       -6.8400     2.9120     0.1870 H     1 <1>   0.0800 
 31 H       -9.2460     0.4870    -0.3420 H     1 <1>   0.0800 
 32 H       -8.1790    -0.3090    -1.4810 H     1 <1>   0.0800 
 33 H       -7.6230     1.6910    -2.3970 H     1 <1>   0.0800 
 34 H       -8.6150     2.5520    -1.2390 H     1 <1>   0.0800 
@<TRIPOS>BOND
  1   1   2  1   
  2   2   3  ar  
  3   2   4  ar  
  4   3   5  1   
  5   3   6  ar  
  6   4   7  1   
  7   4   8  ar  
  8   6   9  ar  
  9   6  21  1   
 10   7  10  am  
 11   7  11  am  
 12   8   9  ar  
 13   8  22  1   
 14   9  23  1   
 15  10  12  2   
 16  10  13  1   
 17  11  14  2   
 18  11  15  1   
 19  13  15  1   
 20  13  16  1   
 21  13  24  1   
 22  15  25  1   
 23  15  26  1   
 24  16  17  1   
 25  16  18  1   
 26  17  19  1   
 27  17  27  1   
 28  17  28  1   
 29  18  20  1   
 30  18  29  1   
 31  18  30  1   
 32  19  20  1   
 33  19  31  1   
 34  19  32  1   
 35  20  33  1   
 36  20  34  1   
@<TRIPOS>SUBSTRUCTURE
  1 ****   7 GROUP 4 **** **** 0

# MOE 2024.06 (io_trps.svl 2023.06)
