@<TRIPOS>MOLECULE
NONAME
30 31 1 0 0 
SMALL
USER_CHARGES


@<TRIPOS>ATOM
  1 O        7.5800     2.5480     0.2870 O.3   1 <1>  -0.5600 
  2 C        6.4740     3.4040     0.2670 C.3   1 <1>   0.1200 
  3 C        7.4310     1.4370    -0.5500 C.3   1 <1>   0.1200 
  4 C        5.2030     2.6530     0.7020 C.3   1 <1>   0.1100 
  5 C        6.1940     0.6180    -0.1390 C.3   1 <1>   0.1100 
  6 N        4.9780     1.4540    -0.1360 N.3   1 <1>  -0.8100 
  7 C        3.8080     0.6800     0.3010 C.3   1 <1>   0.3100 
  8 C        2.5540     1.4590     0.0900 C.1   1 <1>  -0.2000 
  9 C        1.5680     2.1030    -0.0770 C.1   1 <1>  -0.0200 
 10 C        0.3910     2.8900    -0.2750 C.2   1 <1>  -0.1320 
 11 N       -0.8780     2.4150    -0.2390 N.pl3 1 <1>   0.3140 
 12 C        0.2810     4.2150    -0.5300 C.2   1 <1>  -0.1500 
 13 N       -1.7860     3.3830    -0.4570 N.2   1 <1>  -0.7070 
 14 C       -1.2880     1.0240    -0.0020 C.3   1 <1>   0.0160 
 15 C       -1.0800     4.4580    -0.6310 C.2   1 <1>   0.1390 
 16 H        6.3560     3.7950    -0.7290 H     1 <1>   0.0800 
 17 H        6.6750     4.2180     0.9400 H     1 <1>   0.0800 
 18 H        8.3200     0.8400    -0.4660 H     1 <1>   0.0800 
 19 H        7.3350     1.7800    -1.5660 H     1 <1>   0.0800 
 20 H        4.3650     3.3210     0.6150 H     1 <1>   0.0800 
 21 H        5.3020     2.3700     1.7360 H     1 <1>   0.0800 
 22 H        6.3630     0.2050     0.8410 H     1 <1>   0.0800 
 23 H        6.0680    -0.1950    -0.8320 H     1 <1>   0.0800 
 24 H        3.9050     0.4190     1.3410 H     1 <1>   0.0800 
 25 H        3.7450    -0.2270    -0.2750 H     1 <1>   0.0800 
 26 H        1.0690     4.9380    -0.6350 H     1 <1>   0.1500 
 27 H       -0.9460     0.7180     0.9690 H     1 <1>   0.0800 
 28 H       -0.8570     0.3970    -0.7580 H     1 <1>   0.0800 
 29 H       -2.3590     0.9600    -0.0450 H     1 <1>   0.0800 
 30 H       -1.5150     5.4240    -0.8310 H     1 <1>   0.1500 
@<TRIPOS>BOND
  1   1   2  1   
  2   1   3  1   
  3   2   4  1   
  4   2  16  1   
  5   2  17  1   
  6   3   5  1   
  7   3  18  1   
  8   3  19  1   
  9   4   6  1   
 10   4  20  1   
 11   4  21  1   
 12   5   6  1   
 13   5  22  1   
 14   5  23  1   
 15   6   7  1   
 16   7   8  1   
 17   7  24  1   
 18   7  25  1   
 19   8   9  3   
 20   9  10  1   
 21  10  11  1   
 22  10  12  2   
 23  11  13  1   
 24  11  14  1   
 25  12  15  1   
 26  12  26  1   
 27  13  15  2   
 28  14  27  1   
 29  14  28  1   
 30  14  29  1   
 31  15  30  1   
@<TRIPOS>SUBSTRUCTURE
  1 ****   8 GROUP 4 **** **** 0

# MOE 2024.06 (io_trps.svl 2023.06)
