@<TRIPOS>MOLECULE
NONAME
44 45 1 0 0 
SMALL
USER_CHARGES


@<TRIPOS>ATOM
  1 S        0.1150     0.9030    -1.2800 S.o2  1 <1>   1.4470 
  2 O        0.6570    -0.3440    -1.7710 O.2   1 <1>  -0.6500 
  3 O        0.1960     2.0880    -2.1090 O.2   1 <1>  -0.6500 
  4 N        0.9030     1.2650     0.1780 N.am  1 <1>  -0.8490 
  5 C       -1.6060     0.6330    -0.7700 C.ar  1 <1>  -0.0090 
  6 C        0.5640     2.6060     0.6690 C.3   1 <1>   0.1960 
  7 C        2.3560     1.1060     0.0540 C.3   1 <1>   0.1960 
  8 C       -2.6600     1.1520    -1.5110 C.ar  1 <1>  -0.1500 
  9 C       -1.9120    -0.1130     0.3610 C.ar  1 <1>  -0.1500 
 10 C        1.1620     2.8260     2.0620 C.3   1 <1>  -0.1600 
 11 C        3.0310     1.2840     1.4190 C.3   1 <1>  -0.1600 
 12 C       -3.9860     0.9680    -1.1380 C.ar  1 <1>   0.1170 
 13 C       -3.2240    -0.3320     0.7440 C.ar  1 <1>  -0.1500 
 14 C        2.6840     2.6390     2.0480 C.3   1 <1>  -0.1600 
 15 N       -5.0510     1.5040    -1.8830 N.am  1 <1>  -0.5470 
 16 C       -4.2670     0.2010    -0.0030 C.ar  1 <1>   0.0820 
 17 C       -5.2400     2.6710    -2.5520 C.2   1 <1>   0.5690 
 18 O       -5.5810     0.0100     0.3130 O.3   1 <1>  -0.3630 
 19 O       -6.2850     2.8760    -3.1130 O.2   1 <1>  -0.5700 
 20 C       -4.1840     3.7510    -2.5890 C.3   1 <1>  -0.1790 
 21 C       -5.9710    -0.7310     1.4450 C.3   1 <1>   0.1200 
 22 C       -7.4960    -0.7340     1.5030 C.3   1 <1>  -0.2400 
 23 H       -0.5060     2.7130     0.7280 H     1 <1>   0.0800 
 24 H        0.9410     3.3540    -0.0110 H     1 <1>   0.0800 
 25 H        2.7450     1.8250    -0.6500 H     1 <1>   0.0800 
 26 H        2.5870     0.1190    -0.3140 H     1 <1>   0.0800 
 27 H       -2.4330     1.7020    -2.4050 H     1 <1>   0.1500 
 28 H       -1.1090    -0.5310     0.9460 H     1 <1>   0.1500 
 29 H        0.7150     2.1280     2.7470 H     1 <1>   0.0800 
 30 H        0.9240     3.8190     2.4000 H     1 <1>   0.0800 
 31 H        4.0970     1.2010     1.3030 H     1 <1>   0.0800 
 32 H        2.7080     0.4890     2.0680 H     1 <1>   0.0800 
 33 H       -3.4070    -0.9220     1.6230 H     1 <1>   0.1500 
 34 H        3.0720     2.6910     3.0500 H     1 <1>   0.0800 
 35 H        3.1360     3.4270     1.4710 H     1 <1>   0.0800 
 36 H       -5.9220     0.9790    -1.7800 H     1 <1>   0.3700 
 37 H       -3.4810     3.5440    -3.3730 H     1 <1>   0.0800 
 38 H       -3.6750     3.8100    -1.6450 H     1 <1>   0.0800 
 39 H       -4.6500     4.6980    -2.7860 H     1 <1>   0.0800 
 40 H       -5.5590    -0.2610     2.3210 H     1 <1>   0.0800 
 41 H       -5.5930    -1.7340     1.3440 H     1 <1>   0.0800 
 42 H       -7.8650     0.2720     1.5860 H     1 <1>   0.0800 
 43 H       -7.8270    -1.2920     2.3600 H     1 <1>   0.0800 
 44 H       -7.9000    -1.1940     0.6190 H     1 <1>   0.0800 
@<TRIPOS>BOND
  1   1   2  2   
  2   1   3  2   
  3   1   4  am  
  4   1   5  1   
  5   4   6  1   
  6   4   7  1   
  7   5   8  ar  
  8   5   9  ar  
  9   6  10  1   
 10   6  23  1   
 11   6  24  1   
 12   7  11  1   
 13   7  25  1   
 14   7  26  1   
 15   8  12  ar  
 16   8  27  1   
 17   9  13  ar  
 18   9  28  1   
 19  10  14  1   
 20  10  29  1   
 21  10  30  1   
 22  11  14  1   
 23  11  31  1   
 24  11  32  1   
 25  12  15  1   
 26  12  16  ar  
 27  13  16  ar  
 28  13  33  1   
 29  14  34  1   
 30  14  35  1   
 31  15  17  am  
 32  15  36  1   
 33  16  18  1   
 34  17  19  2   
 35  17  20  1   
 36  18  21  1   
 37  20  37  1   
 38  20  38  1   
 39  20  39  1   
 40  21  22  1   
 41  21  40  1   
 42  21  41  1   
 43  22  42  1   
 44  22  43  1   
 45  22  44  1   
@<TRIPOS>SUBSTRUCTURE
  1 ****   5 GROUP 4 **** **** 0

# MOE 2024.06 (io_trps.svl 2023.06)
