@<TRIPOS>MOLECULE
NONAME
48 50 1 0 0 
SMALL
USER_CHARGES


@<TRIPOS>ATOM
  1 O        3.5320    -7.2580     1.9930 O.2   1 <1>  -0.5700 
  2 C        2.9540    -6.2310     1.7080 C.2   1 <1>   0.8050 
  3 O        3.6870    -5.1120     1.7570 O.3   1 <1>  -0.4300 
  4 C        1.5610    -6.1850     1.3150 C.2   1 <1>   0.0550 
  5 C        3.3660    -3.9470     1.0240 C.3   1 <1>   0.1200 
  6 O        1.0330    -7.1570     0.5760 O.3   1 <1>  -0.2800 
  7 C        0.5840    -5.2640     1.5520 C.2   1 <1>  -0.1500 
  8 C        4.6360    -3.1120     0.8530 C.3   1 <1>   0.1100 
  9 C       -0.2240    -6.8800     0.3240 C.2   1 <1>  -0.0400 
 10 C       -0.5680    -5.7090     0.9030 C.2   1 <1>  -0.1810 
 11 N        4.3330    -1.8240     0.2090 N.3   1 <1>  -0.8100 
 12 C       -1.0100    -7.8600    -0.5210 C.3   1 <1>  -0.0600 
 13 C       -1.8910    -4.9660     0.8970 C.3   1 <1>   0.3010 
 14 C        4.0250    -1.9290    -1.2290 C.3   1 <1>   0.1100 
 15 C        5.3990    -0.8230     0.4530 C.3   1 <1>   0.1100 
 16 O       -1.6550    -3.6440     0.4690 O.3   1 <1>  -0.3630 
 17 C        3.6380    -0.5540    -1.8230 C.3   1 <1>   0.1200 
 18 C        5.5660     0.2130    -0.6820 C.3   1 <1>   0.1200 
 19 C       -2.6580    -2.7350     0.4040 C.ar  1 <1>   0.0830 
 20 O        4.3370     0.5300    -1.2630 O.3   1 <1>  -0.5600 
 21 C       -2.3070    -1.4490     0.0240 C.ar  1 <1>  -0.1500 
 22 C       -3.9900    -3.0240     0.6950 C.ar  1 <1>  -0.1500 
 23 C       -3.2670    -0.4570    -0.0670 C.ar  1 <1>  -0.1500 
 24 C       -4.9490    -2.0290     0.6030 C.ar  1 <1>  -0.1500 
 25 C       -4.5890    -0.7470     0.2220 C.ar  1 <1>  -0.1500 
 26 H        2.6360    -3.3850     1.5780 H     1 <1>   0.0800 
 27 H        2.9730    -4.2390     0.0660 H     1 <1>   0.0800 
 28 H        0.6470    -4.3540     2.1230 H     1 <1>   0.1500 
 29 H        5.3620    -3.6540     0.2710 H     1 <1>   0.0800 
 30 H        5.0420    -2.9260     1.8320 H     1 <1>   0.0800 
 31 H       -1.0220    -8.8210    -0.0390 H     1 <1>   0.0800 
 32 H       -0.5420    -7.9620    -1.4830 H     1 <1>   0.0800 
 33 H       -2.0200    -7.5250    -0.6590 H     1 <1>   0.0800 
 34 H       -2.3040    -4.9330     1.8900 H     1 <1>   0.0800 
 35 H       -2.5870    -5.4240     0.2170 H     1 <1>   0.0800 
 36 H        3.2080    -2.6100    -1.3900 H     1 <1>   0.0800 
 37 H        4.8820    -2.3130    -1.7550 H     1 <1>   0.0800 
 38 H        6.3460    -1.3140     0.5960 H     1 <1>   0.0800 
 39 H        5.1670    -0.3000     1.3650 H     1 <1>   0.0800 
 40 H        2.5920    -0.3720    -1.6500 H     1 <1>   0.0800 
 41 H        3.8100    -0.5500    -2.8840 H     1 <1>   0.0800 
 42 H        6.2110    -0.1720    -1.4510 H     1 <1>   0.0800 
 43 H        5.9970     1.1210    -0.2980 H     1 <1>   0.0800 
 44 H       -1.2790    -1.2300    -0.1990 H     1 <1>   0.1500 
 45 H       -4.3020    -4.0060     0.9920 H     1 <1>   0.1500 
 46 H       -2.9860     0.5390    -0.3630 H     1 <1>   0.1500 
 47 H       -5.9780    -2.2510     0.8270 H     1 <1>   0.1500 
 48 H       -5.3370     0.0230     0.1520 H     1 <1>   0.1500 
@<TRIPOS>BOND
  1   1   2  2   
  2   2   3  1   
  3   2   4  1   
  4   3   5  1   
  5   4   6  1   
  6   4   7  2   
  7   5   8  1   
  8   5  26  1   
  9   5  27  1   
 10   6   9  1   
 11   7  10  1   
 12   7  28  1   
 13   8  11  1   
 14   8  29  1   
 15   8  30  1   
 16   9  10  2   
 17   9  12  1   
 18  10  13  1   
 19  11  14  1   
 20  11  15  1   
 21  12  31  1   
 22  12  32  1   
 23  12  33  1   
 24  13  16  1   
 25  13  34  1   
 26  13  35  1   
 27  14  17  1   
 28  14  36  1   
 29  14  37  1   
 30  15  18  1   
 31  15  38  1   
 32  15  39  1   
 33  16  19  1   
 34  17  20  1   
 35  17  40  1   
 36  17  41  1   
 37  18  20  1   
 38  18  42  1   
 39  18  43  1   
 40  19  21  ar  
 41  19  22  ar  
 42  21  23  ar  
 43  21  44  1   
 44  22  24  ar  
 45  22  45  1   
 46  23  25  ar  
 47  23  46  1   
 48  24  25  ar  
 49  24  47  1   
 50  25  48  1   
@<TRIPOS>SUBSTRUCTURE
  1 ****   7 GROUP 4 **** **** 0

# MOE 2024.06 (io_trps.svl 2023.06)
