@<TRIPOS>MOLECULE
NONAME
50 52 1 0 0 
SMALL
USER_CHARGES


@<TRIPOS>ATOM
  1 S       -0.0330     0.6140    -0.1750 S.3   1 <1>  -0.0800 
  2 C       -0.9730    -0.8280     0.1890 C.2   1 <1>   0.1040 
  3 C        1.4820    -0.2660    -0.0760 C.2   1 <1>  -0.1400 
  4 N       -2.3510    -0.7320     0.3310 N.am  1 <1>  -0.4940 
  5 C       -0.1470    -1.9050     0.3460 C.2   1 <1>  -0.0860 
  6 C        1.2420    -1.5580     0.2070 C.2   1 <1>  -0.1500 
  7 C        2.7530     0.5300    -0.3100 C.3   1 <1>   0.1630 
  8 C       -3.2460     0.1870    -0.1560 C.2   1 <1>   0.5690 
  9 C       -0.5600    -3.2550     0.6060 C.2   1 <1>   0.7160 
 10 C        3.9860    -0.3600    -0.2290 C.ar  1 <1>  -0.1440 
 11 O       -2.9580     1.0070    -0.9910 O.2   1 <1>  -0.5700 
 12 C       -4.6770     0.1220     0.3870 C.3   1 <1>  -0.0190 
 13 O        0.1080    -4.0330     1.2510 O.2   1 <1>  -0.5700 
 14 N       -1.7240    -3.7330     0.1130 N.am  1 <1>  -0.8000 
 15 C        4.5380    -0.9050    -1.3790 C.ar  1 <1>  -0.1500 
 16 C        4.5630    -0.6420     1.0010 C.ar  1 <1>  -0.1500 
 17 C       -5.3970    -1.1640    -0.0710 C.3   1 <1>  -0.1600 
 18 C       -5.5210     1.3580     0.0050 C.3   1 <1>  -0.1600 
 19 C        5.6550    -1.7190    -1.3010 C.ar  1 <1>  -0.1500 
 20 C        5.6790    -1.4560     1.0800 C.ar  1 <1>  -0.1500 
 21 C       -6.8320    -1.2310     0.4600 C.3   1 <1>   0.1400 
 22 C       -6.9540     1.2600     0.5310 C.3   1 <1>   0.1400 
 23 C        6.2270    -1.9940    -0.0720 C.ar  1 <1>  -0.1500 
 24 N       -7.5690    -0.0070     0.0490 N.am  1 <1>  -0.6600 
 25 C       -8.6890    -0.0920    -0.7400 C.2   1 <1>   0.5690 
 26 O       -9.1390    -1.1520    -1.1040 O.2   1 <1>  -0.5700 
 27 C       -9.4120     1.1550    -1.1920 C.3   1 <1>  -0.1790 
 28 H       -2.7700    -1.4720     0.8920 H     1 <1>   0.3700 
 29 H        2.0040    -2.3120     0.3270 H     1 <1>   0.1500 
 30 H        2.8220     1.3110     0.4260 H     1 <1>   0.0800 
 31 H        2.7040     0.9960    -1.2780 H     1 <1>   0.0800 
 32 H       -4.6050     0.1020     1.4610 H     1 <1>   0.0800 
 33 H       -1.8820    -4.7350     0.2200 H     1 <1>   0.3700 
 34 H       -2.1290    -3.3100    -0.7230 H     1 <1>   0.3700 
 35 H        4.0980    -0.7020    -2.3390 H     1 <1>   0.1500 
 36 H        4.1410    -0.2330     1.9020 H     1 <1>   0.1500 
 37 H       -4.8650    -2.0340     0.2680 H     1 <1>   0.0800 
 38 H       -5.4290    -1.1960    -1.1470 H     1 <1>   0.0800 
 39 H       -5.5540     1.4590    -1.0670 H     1 <1>   0.0800 
 40 H       -5.0570     2.2460     0.3980 H     1 <1>   0.0800 
 41 H        6.0770    -2.1390    -2.1970 H     1 <1>   0.1500 
 42 H        6.1200    -1.6720     2.0370 H     1 <1>   0.1500 
 43 H       -6.8300    -1.2940     1.5350 H     1 <1>   0.0800 
 44 H       -7.3150    -2.1150     0.0790 H     1 <1>   0.0800 
 45 H       -7.5130     2.1180     0.2060 H     1 <1>   0.0800 
 46 H       -6.9500     1.2580     1.6080 H     1 <1>   0.0800 
 47 H        7.0940    -2.6280    -0.0110 H     1 <1>   0.1500 
 48 H       -9.7710     1.6980    -0.3390 H     1 <1>   0.0800 
 49 H      -10.2520     0.8830    -1.8050 H     1 <1>   0.0800 
 50 H       -8.7500     1.7700    -1.7710 H     1 <1>   0.0800 
@<TRIPOS>BOND
  1   1   2  1   
  2   1   3  1   
  3   2   4  1   
  4   2   5  2   
  5   3   6  2   
  6   3   7  1   
  7   4   8  am  
  8   4  28  1   
  9   5   6  1   
 10   5   9  1   
 11   6  29  1   
 12   7  10  1   
 13   7  30  1   
 14   7  31  1   
 15   8  11  2   
 16   8  12  1   
 17   9  13  2   
 18   9  14  am  
 19  10  15  ar  
 20  10  16  ar  
 21  12  17  1   
 22  12  18  1   
 23  12  32  1   
 24  14  33  1   
 25  14  34  1   
 26  15  19  ar  
 27  15  35  1   
 28  16  20  ar  
 29  16  36  1   
 30  17  21  1   
 31  17  37  1   
 32  17  38  1   
 33  18  22  1   
 34  18  39  1   
 35  18  40  1   
 36  19  23  ar  
 37  19  41  1   
 38  20  23  ar  
 39  20  42  1   
 40  21  24  1   
 41  21  43  1   
 42  21  44  1   
 43  22  24  1   
 44  22  45  1   
 45  22  46  1   
 46  23  47  1   
 47  24  25  am  
 48  25  26  2   
 49  25  27  1   
 50  27  48  1   
 51  27  49  1   
 52  27  50  1   
@<TRIPOS>SUBSTRUCTURE
  1 ****   2 GROUP 4 **** **** 0

# MOE 2024.06 (io_trps.svl 2023.06)
