@<TRIPOS>MOLECULE
NONAME
50 51 1 0 0 
SMALL
USER_CHARGES


@<TRIPOS>ATOM
  1 S        2.3020     0.3060    -0.2600 S.o2  1 <1>   1.3330 
  2 O        0.9370    -0.1160    -0.4450 O.2   1 <1>  -0.6500 
  3 O        3.2950    -0.6490     0.1760 O.2   1 <1>  -0.6500 
  4 N        2.3120     1.6390     0.8490 N.am  1 <1>  -0.6930 
  5 C        2.8750     1.0720    -1.7630 C.3   1 <1>  -0.1350 
  6 C        1.3970     2.6770     0.6900 C.ar  1 <1>   0.1990 
  7 C        3.4940     1.8850     1.7360 C.3   1 <1>   0.3370 
  8 C        1.8110     3.9400     0.2800 C.ar  1 <1>  -0.1500 
  9 C        0.0470     2.4730     0.9340 C.ar  1 <1>  -0.1500 
 10 C        4.8470     1.9860     0.9940 C.2   1 <1>   0.5690 
 11 C        3.4810     0.8960     2.9110 C.3   1 <1>  -0.2400 
 12 C        0.9090     4.9790     0.1200 C.ar  1 <1>  -0.1440 
 13 C       -0.8620     3.5000     0.7760 C.ar  1 <1>  -0.1500 
 14 O        5.2490     3.0880     0.7030 O.2   1 <1>  -0.5700 
 15 N        5.5250     0.8420     0.6640 N.am  1 <1>  -0.5470 
 16 C       -0.4420     4.7580     0.3700 C.ar  1 <1>  -0.1430 
 17 C        1.4220     6.3410    -0.3280 C.3   1 <1>  -0.0970 
 18 C        6.7320     0.6410    -0.0200 C.ar  1 <1>   0.1170 
 19 C       -1.4740     5.8650     0.2070 C.3   1 <1>  -0.0970 
 20 C        7.7430     1.5950    -0.0790 C.ar  1 <1>  -0.1500 
 21 C        6.9310    -0.5760    -0.6620 C.ar  1 <1>  -0.1500 
 22 C        8.9150     1.3390    -0.7680 C.ar  1 <1>  -0.1500 
 23 C        8.1020    -0.8380    -1.3510 C.ar  1 <1>  -0.1500 
 24 C        9.1040     0.1260    -1.4080 C.ar  1 <1>   0.0820 
 25 O       10.2840    -0.0430    -2.0610 O.3   1 <1>  -0.3620 
 26 C       10.5850    -1.2540    -2.7180 C.3   1 <1>   0.0400 
 27 H        2.9170     0.3460    -2.5510 H     1 <1>   0.0800 
 28 H        3.8540     1.4880    -1.6270 H     1 <1>   0.0800 
 29 H        2.2050     1.8560    -2.0560 H     1 <1>   0.0800 
 30 H        3.3530     2.8540     2.1850 H     1 <1>   0.0800 
 31 H        2.8540     4.1080     0.0820 H     1 <1>   0.1500 
 32 H       -0.2890     1.5000     1.2470 H     1 <1>   0.1500 
 33 H        3.6420    -0.1160     2.5900 H     1 <1>   0.0800 
 34 H        2.5380     0.9540     3.4230 H     1 <1>   0.0800 
 35 H        4.2600     1.1540     3.6060 H     1 <1>   0.0800 
 36 H       -1.9030     3.3120     0.9710 H     1 <1>   0.1500 
 37 H        4.9660    -0.0150     0.7820 H     1 <1>   0.3700 
 38 H        2.4890     6.3270    -0.4630 H     1 <1>   0.0800 
 39 H        1.1860     7.0850     0.4120 H     1 <1>   0.0800 
 40 H        0.9670     6.6170    -1.2620 H     1 <1>   0.0800 
 41 H       -1.4720     6.2240    -0.8060 H     1 <1>   0.0800 
 42 H       -1.2460     6.6810     0.8700 H     1 <1>   0.0800 
 43 H       -2.4610     5.5090     0.4370 H     1 <1>   0.0800 
 44 H        7.6200     2.5420     0.4140 H     1 <1>   0.1500 
 45 H        6.1600    -1.3250    -0.6230 H     1 <1>   0.1500 
 46 H        9.6910     2.0810    -0.8120 H     1 <1>   0.1500 
 47 H        8.2150    -1.7890    -1.8340 H     1 <1>   0.1500 
 48 H       11.5650    -1.1640    -3.1500 H     1 <1>   0.0800 
 49 H        9.8590    -1.4210    -3.4940 H     1 <1>   0.0800 
 50 H       10.5750    -2.0540    -1.9990 H     1 <1>   0.0800 
@<TRIPOS>BOND
  1   1   2  2   
  2   1   3  2   
  3   1   4  am  
  4   1   5  1   
  5   4   6  1   
  6   4   7  1   
  7   5  27  1   
  8   5  28  1   
  9   5  29  1   
 10   6   8  ar  
 11   6   9  ar  
 12   7  10  1   
 13   7  11  1   
 14   7  30  1   
 15   8  12  ar  
 16   8  31  1   
 17   9  13  ar  
 18   9  32  1   
 19  10  14  2   
 20  10  15  am  
 21  11  33  1   
 22  11  34  1   
 23  11  35  1   
 24  12  16  ar  
 25  12  17  1   
 26  13  16  ar  
 27  13  36  1   
 28  15  18  1   
 29  15  37  1   
 30  16  19  1   
 31  17  38  1   
 32  17  39  1   
 33  17  40  1   
 34  18  20  ar  
 35  18  21  ar  
 36  19  41  1   
 37  19  42  1   
 38  19  43  1   
 39  20  22  ar  
 40  20  44  1   
 41  21  23  ar  
 42  21  45  1   
 43  22  24  ar  
 44  22  46  1   
 45  23  24  ar  
 46  23  47  1   
 47  24  25  1   
 48  25  26  1   
 49  26  48  1   
 50  26  49  1   
 51  26  50  1   
@<TRIPOS>SUBSTRUCTURE
  1 ****  10 GROUP 4 **** **** 0

# MOE 2024.06 (io_trps.svl 2023.06)
