@<TRIPOS>MOLECULE
NONAME
31 33 1 0 0 
SMALL
USER_CHARGES


@<TRIPOS>ATOM
  1 F       -0.2900     0.2550    -0.3360 F     1 <1>  -0.3400 
  2 C       -1.5760     0.0790    -0.6190 C.3   1 <1>   1.1640 
  3 F       -1.9170    -1.0820    -0.0740 F     1 <1>  -0.3400 
  4 F       -1.6480    -0.0900    -1.9320 F     1 <1>  -0.3400 
  5 C       -2.4670     1.2360    -0.1380 C.ar  1 <1>  -0.1440 
  6 C       -3.8490     1.0870    -0.1250 C.ar  1 <1>  -0.1500 
  7 C       -1.9250     2.4460     0.2840 C.ar  1 <1>  -0.1500 
  8 C       -4.7090     2.1040     0.2980 C.ar  1 <1>   0.0540 
  9 C       -2.7510     3.4700     0.7090 C.ar  1 <1>  -0.1500 
 10 C       -6.1540     1.9300     0.3050 C.2   1 <1>   0.4620 
 11 C       -4.1220     3.2980     0.7150 C.ar  1 <1>  -0.1500 
 12 N       -7.0080     2.8170     0.6930 N.2   1 <1>  -0.4100 
 13 N       -6.7440     0.7920    -0.1060 N.2   1 <1>  -0.5650 
 14 O       -8.1400     2.2540     0.5330 O.3   1 <1>  -0.0190 
 15 C       -7.9990     1.0490     0.0580 C.2   1 <1>   0.3930 
 16 C       -9.1830     0.2410    -0.1950 C.2   1 <1>   0.7150 
 17 O       -9.1010    -0.8920    -0.6400 O.2   1 <1>  -0.5700 
 18 N      -10.4350     0.7470     0.0660 N.am  1 <1>  -0.5790 
 19 C      -11.7150     0.0520    -0.1380 C.3   1 <1>   0.0490 
 20 C      -12.8910     0.8650    -0.5660 C.3   1 <1>  -0.2000 
 21 C      -12.8190     0.3220     0.8290 C.3   1 <1>  -0.2000 
 22 H       -4.2790     0.1540    -0.4530 H     1 <1>   0.1500 
 23 H       -0.8590     2.6030     0.2860 H     1 <1>   0.1500 
 24 H       -2.3250     4.4030     1.0350 H     1 <1>   0.1500 
 25 H       -4.7470     4.1080     1.0490 H     1 <1>   0.1500 
 26 H      -10.5160     1.6930     0.4390 H     1 <1>   0.3700 
 27 H      -11.6070    -0.9470    -0.5330 H     1 <1>   0.1000 
 28 H      -13.6010     0.4260    -1.2450 H     1 <1>   0.1000 
 29 H      -12.7690     1.9230    -0.7220 H     1 <1>   0.1000 
 30 H      -12.6470     0.9990     1.6470 H     1 <1>   0.1000 
 31 H      -13.4800    -0.4850     1.0940 H     1 <1>   0.1000 
@<TRIPOS>BOND
  1   1   2  1   
  2   2   3  1   
  3   2   4  1   
  4   2   5  1   
  5   5   6  ar  
  6   5   7  ar  
  7   6   8  ar  
  8   6  22  1   
  9   7   9  ar  
 10   7  23  1   
 11   8  10  1   
 12   8  11  ar  
 13   9  11  ar  
 14   9  24  1   
 15  10  12  2   
 16  10  13  1   
 17  11  25  1   
 18  12  14  1   
 19  13  15  2   
 20  14  15  1   
 21  15  16  1   
 22  16  17  2   
 23  16  18  am  
 24  18  19  1   
 25  18  26  1   
 26  19  20  1   
 27  19  21  1   
 28  19  27  1   
 29  20  21  1   
 30  20  28  1   
 31  20  29  1   
 32  21  30  1   
 33  21  31  1   
@<TRIPOS>SUBSTRUCTURE
  1 ****  13 GROUP 4 **** **** 0

# MOE 2024.06 (io_trps.svl 2023.06)
