@<TRIPOS>MOLECULE
NONAME
31 31 1 0 0 
SMALL
USER_CHARGES


@<TRIPOS>ATOM
  1 S       -0.0230    -0.2100     0.4140 S.o2  1 <1>   1.3330 
  2 O        1.2230    -0.7490     0.9070 O.2   1 <1>  -0.6500 
  3 O       -0.8970    -0.9520    -0.4640 O.2   1 <1>  -0.6500 
  4 N        0.2380     1.4040    -0.1560 N.am  1 <1>  -0.6930 
  5 C       -0.9760     0.1510     1.8710 C.3   1 <1>  -0.1350 
  6 C       -0.8030     2.1520    -0.6990 C.ar  1 <1>   0.1990 
  7 C        1.6490     1.7720    -0.5560 C.3   1 <1>   0.0900 
  8 C       -1.3510     3.2580    -0.0340 C.ar  1 <1>  -0.1430 
  9 C       -1.3160     1.7830    -1.9350 C.ar  1 <1>  -0.1500 
 10 C        2.2890     1.0750    -1.7670 C.2   1 <1>   0.9060 
 11 C       -2.4160     3.9500    -0.6070 C.ar  1 <1>  -0.1440 
 12 C       -0.7910     3.7120     1.3160 C.3   1 <1>  -0.0970 
 13 C       -2.3640     2.4740    -2.5050 C.ar  1 <1>  -0.1500 
 14 O        1.6040     0.4680    -2.5990 O.co2 1 <1>  -0.9000 
 15 O        3.5140     1.1990    -1.9060 O.co2 1 <1>  -0.9000 
 16 C       -2.9140     3.5530    -1.8390 C.ar  1 <1>  -0.1500 
 17 C       -3.0630     5.1470     0.0780 C.3   1 <1>  -0.0970 
 18 H       -1.2170    -0.7590     2.3830 H     1 <1>   0.0800 
 19 H       -1.8850     0.6480     1.5990 H     1 <1>   0.0800 
 20 H       -0.4140     0.7830     2.5290 H     1 <1>   0.0800 
 21 H        2.2990     1.5880     0.2780 H     1 <1>   0.0800 
 22 H        1.6830     2.8230    -0.7630 H     1 <1>   0.0800 
 23 H       -0.8750     0.9430    -2.4470 H     1 <1>   0.1500 
 24 H        0.1600     3.2640     1.5330 H     1 <1>   0.0800 
 25 H       -1.4770     3.4500     2.1000 H     1 <1>   0.0800 
 26 H       -0.6450     4.7770     1.3190 H     1 <1>   0.0800 
 27 H       -2.7440     2.1690    -3.4640 H     1 <1>   0.1500 
 28 H       -3.7330     4.0820    -2.2940 H     1 <1>   0.1500 
 29 H       -2.3780     5.9750     0.0900 H     1 <1>   0.0800 
 30 H       -3.3340     4.8970     1.0870 H     1 <1>   0.0800 
 31 H       -3.9540     5.4520    -0.4400 H     1 <1>   0.0800 
@<TRIPOS>BOND
  1   1   2  2   
  2   1   3  2   
  3   1   4  am  
  4   1   5  1   
  5   4   6  1   
  6   4   7  1   
  7   5  18  1   
  8   5  19  1   
  9   5  20  1   
 10   6   8  ar  
 11   6   9  ar  
 12   7  10  1   
 13   7  21  1   
 14   7  22  1   
 15   8  11  ar  
 16   8  12  1   
 17   9  13  ar  
 18   9  23  1   
 19  10  14  ar  
 20  10  15  ar  
 21  11  16  ar  
 22  11  17  1   
 23  12  24  1   
 24  12  25  1   
 25  12  26  1   
 26  13  16  ar  
 27  13  27  1   
 28  16  28  1   
 29  17  29  1   
 30  17  30  1   
 31  17  31  1   
@<TRIPOS>SUBSTRUCTURE
  1 ****   6 GROUP 4 **** **** 0

# MOE 2024.06 (io_trps.svl 2023.06)
