@<TRIPOS>MOLECULE
NONAME
48 49 1 0 0 
SMALL
USER_CHARGES


@<TRIPOS>ATOM
  1 O       -0.0780    -0.7390     1.7830 O.2   1 <1>  -0.5700 
  2 C       -0.1960    -1.6360     0.9710 C.2   1 <1>   0.5440 
  3 N        0.9050    -1.9650     0.2260 N.am  1 <1>  -0.7300 
  4 C       -1.4660    -2.3140     0.7790 C.ar  1 <1>   0.0860 
  5 C        2.2230    -1.3390     0.4080 C.3   1 <1>   0.2200 
  6 C       -2.6700    -1.6790     1.0930 C.ar  1 <1>  -0.1500 
  7 C       -1.5460    -3.6160     0.2780 C.ar  1 <1>  -0.1500 
  8 C        2.3010    -0.0800    -0.4490 C.3   1 <1>  -0.1600 
  9 C        3.3200    -2.3110    -0.0090 C.3   1 <1>  -0.1600 
 10 C       -3.8920    -2.2980     0.9060 C.ar  1 <1>  -0.1500 
 11 C       -2.7640    -4.2410     0.0860 C.ar  1 <1>  -0.1500 
 12 C        3.6600     0.6170    -0.3200 C.3   1 <1>   0.5030 
 13 C        4.7160    -1.6850     0.1270 C.3   1 <1>   0.5030 
 14 C       -3.9470    -3.5900     0.3940 C.ar  1 <1>   0.0830 
 15 N        4.7680    -0.3420    -0.4770 N.4   1 <1>  -0.9060 
 16 C        3.8250     1.6250    -1.4560 C.3   1 <1>  -0.2400 
 17 C        3.8000     1.3690     1.0060 C.3   1 <1>  -0.2400 
 18 C        5.1790    -1.6200     1.5850 C.3   1 <1>  -0.2400 
 19 C        5.7280    -2.5230    -0.6520 C.3   1 <1>  -0.2400 
 20 O       -5.0960    -4.2680     0.1760 O.3   1 <1>  -0.3620 
 21 C       -6.3560    -3.7060     0.4690 C.3   1 <1>   0.0400 
 22 H        0.7910    -2.6080    -0.5580 H     1 <1>   0.3700 
 23 H        2.3350    -1.0850     1.4490 H     1 <1>   0.0800 
 24 H       -2.6390    -0.6800     1.4930 H     1 <1>   0.1500 
 25 H       -0.6470    -4.1560     0.0420 H     1 <1>   0.1500 
 26 H        1.5250     0.6020    -0.1440 H     1 <1>   0.0800 
 27 H        2.1180    -0.3390    -1.4760 H     1 <1>   0.0800 
 28 H        3.1570    -2.6100    -1.0290 H     1 <1>   0.0800 
 29 H        3.2650    -3.1940     0.6040 H     1 <1>   0.0800 
 30 H       -4.7870    -1.7630     1.1620 H     1 <1>   0.1500 
 31 H       -2.8120    -5.2430    -0.3010 H     1 <1>   0.1500 
 32 H        5.6240     0.1150    -0.1570 H     1 <1>   0.4500 
 33 H        4.8800    -0.4830    -1.4830 H     1 <1>   0.4500 
 34 H        3.7610     1.1480    -2.4180 H     1 <1>   0.0800 
 35 H        4.7640     2.1470    -1.3810 H     1 <1>   0.0800 
 36 H        3.0400     2.3600    -1.4080 H     1 <1>   0.0800 
 37 H        3.5590     0.7590     1.8540 H     1 <1>   0.0800 
 38 H        3.1080     2.1940     1.0260 H     1 <1>   0.0800 
 39 H        4.7890     1.7730     1.1270 H     1 <1>   0.0800 
 40 H        4.4540    -1.1600     2.2270 H     1 <1>   0.0800 
 41 H        6.1150    -1.0980     1.6760 H     1 <1>   0.0800 
 42 H        5.3260    -2.6170     1.9620 H     1 <1>   0.0800 
 43 H        5.4690    -2.5830    -1.6950 H     1 <1>   0.0800 
 44 H        5.7460    -3.5280    -0.2660 H     1 <1>   0.0800 
 45 H        6.7220    -2.1220    -0.5590 H     1 <1>   0.0800 
 46 H       -7.1100    -4.4300     0.2170 H     1 <1>   0.0800 
 47 H       -6.4880    -2.8190    -0.1240 H     1 <1>   0.0800 
 48 H       -6.4020    -3.4800     1.5190 H     1 <1>   0.0800 
@<TRIPOS>BOND
  1   1   2  2   
  2   2   3  am  
  3   2   4  1   
  4   3   5  1   
  5   3  22  1   
  6   4   6  ar  
  7   4   7  ar  
  8   5   8  1   
  9   5   9  1   
 10   5  23  1   
 11   6  10  ar  
 12   6  24  1   
 13   7  11  ar  
 14   7  25  1   
 15   8  12  1   
 16   8  26  1   
 17   8  27  1   
 18   9  13  1   
 19   9  28  1   
 20   9  29  1   
 21  10  14  ar  
 22  10  30  1   
 23  11  14  ar  
 24  11  31  1   
 25  12  15  1   
 26  12  16  1   
 27  12  17  1   
 28  13  15  1   
 29  13  18  1   
 30  13  19  1   
 31  14  20  1   
 32  15  32  1   
 33  15  33  1   
 34  16  34  1   
 35  16  35  1   
 36  16  36  1   
 37  17  37  1   
 38  17  38  1   
 39  17  39  1   
 40  18  40  1   
 41  18  41  1   
 42  18  42  1   
 43  19  43  1   
 44  19  44  1   
 45  19  45  1   
 46  20  21  1   
 47  21  46  1   
 48  21  47  1   
 49  21  48  1   
@<TRIPOS>SUBSTRUCTURE
  1 ****   3 GROUP 4 **** **** 0

# MOE 2024.06 (io_trps.svl 2023.06)
