@<TRIPOS>MOLECULE
NONAME
48 50 1 0 0 
SMALL
USER_CHARGES


@<TRIPOS>ATOM
  1 F       -0.4300     0.1660     0.1140 F     1 <1>  -0.3400 
  2 C       -1.7000    -0.1360    -0.1300 C.3   1 <1>   0.7380 
  3 F       -1.6890    -0.6490    -1.3530 F     1 <1>  -0.3400 
  4 C       -2.5290     1.1260    -0.1290 C.2   1 <1>  -0.1690 
  5 N       -3.8290     0.9680     0.2660 N.pl3 1 <1>   0.6010 
  6 C       -2.1240     2.3770    -0.4790 C.2   1 <1>  -0.1360 
  7 N       -4.4480    -0.1500     0.6980 N.2   1 <1>  -0.7070 
  8 C       -4.6630     2.0550     0.2950 C.2   1 <1>  -0.0260 
  9 C       -3.0280     3.4860    -0.4350 C.2   1 <1>   0.3490 
 10 C       -5.6580     0.2420     0.9770 C.2   1 <1>   0.1390 
 11 N       -4.2750     3.3200    -0.0680 N.2   1 <1>  -0.5760 
 12 C       -5.8730     1.5990     0.7550 C.2   1 <1>  -0.0860 
 13 C       -2.5700     4.8000    -0.8320 C.ar  1 <1>   0.0860 
 14 C       -7.0880     2.3170     0.9790 C.2   1 <1>   0.7160 
 15 C       -1.4250     5.3980    -0.2860 C.ar  1 <1>   0.0830 
 16 C       -3.2850     5.5160    -1.7920 C.ar  1 <1>  -0.1500 
 17 O       -8.0900     1.7570     1.3870 O.2   1 <1>  -0.5700 
 18 N       -7.1260     3.6530     0.7300 N.am  1 <1>  -0.7300 
 19 O       -0.7470     4.7120     0.6700 O.3   1 <1>  -0.3630 
 20 C       -1.0180     6.6590    -0.7160 C.ar  1 <1>  -0.1500 
 21 C       -2.8810     6.7680    -2.2140 C.ar  1 <1>  -0.1500 
 22 C       -8.2110     4.5830     1.0820 C.3   1 <1>   0.2200 
 23 C        0.3910     5.2340     1.3210 C.3   1 <1>   0.0400 
 24 C       -1.7430     7.3400    -1.6760 C.ar  1 <1>  -0.1500 
 25 C       -9.3300     4.4950     0.0310 C.3   1 <1>   0.1200 
 26 C       -7.5930     5.9790     1.1800 C.3   1 <1>  -0.2400 
 27 O      -10.3260     5.4360     0.3070 O.3   1 <1>  -0.5600 
 28 C      -11.4090     5.3770    -0.5620 C.3   1 <1>   0.0400 
 29 H       -2.0080    -0.8960     0.5660 H     1 <1>   0.0800 
 30 H       -1.1160     2.5710    -0.8020 H     1 <1>   0.1500 
 31 H       -6.4240    -0.4210     1.3490 H     1 <1>   0.1500 
 32 H       -4.1740     5.0780    -2.2130 H     1 <1>   0.1500 
 33 H       -6.2380     4.0710     0.4270 H     1 <1>   0.3700 
 34 H       -0.1410     7.1320    -0.3160 H     1 <1>   0.1500 
 35 H       -3.4500     7.2980    -2.9580 H     1 <1>   0.1500 
 36 H       -8.6170     4.2970     2.0390 H     1 <1>   0.0800 
 37 H        0.7270     4.5080     2.0400 H     1 <1>   0.0800 
 38 H        0.1190     6.1460     1.8240 H     1 <1>   0.0800 
 39 H        1.1630     5.4090     0.5930 H     1 <1>   0.0800 
 40 H       -1.4240     8.3150    -2.0050 H     1 <1>   0.1500 
 41 H       -9.7710     3.5130     0.0580 H     1 <1>   0.0800 
 42 H       -8.9340     4.6970    -0.9480 H     1 <1>   0.0800 
 43 H       -7.2050     6.2890     0.2270 H     1 <1>   0.0800 
 44 H       -6.8070     5.9880     1.9130 H     1 <1>   0.0800 
 45 H       -8.3440     6.6850     1.4850 H     1 <1>   0.0800 
 46 H      -12.1130     6.1360    -0.2710 H     1 <1>   0.0800 
 47 H      -11.8710     4.4070    -0.4880 H     1 <1>   0.0800 
 48 H      -11.0710     5.5600    -1.5670 H     1 <1>   0.0800 
@<TRIPOS>BOND
  1   1   2  1   
  2   2   3  1   
  3   2   4  1   
  4   2  29  1   
  5   4   5  1   
  6   4   6  2   
  7   5   7  1   
  8   5   8  1   
  9   6   9  1   
 10   6  30  1   
 11   7  10  2   
 12   8  11  1   
 13   8  12  2   
 14   9  11  2   
 15   9  13  1   
 16  10  12  1   
 17  10  31  1   
 18  12  14  1   
 19  13  15  ar  
 20  13  16  ar  
 21  14  17  2   
 22  14  18  am  
 23  15  19  1   
 24  15  20  ar  
 25  16  21  ar  
 26  16  32  1   
 27  18  22  1   
 28  18  33  1   
 29  19  23  1   
 30  20  24  ar  
 31  20  34  1   
 32  21  24  ar  
 33  21  35  1   
 34  22  25  1   
 35  22  26  1   
 36  22  36  1   
 37  23  37  1   
 38  23  38  1   
 39  23  39  1   
 40  24  40  1   
 41  25  27  1   
 42  25  41  1   
 43  25  42  1   
 44  26  43  1   
 45  26  44  1   
 46  26  45  1   
 47  27  28  1   
 48  28  46  1   
 49  28  47  1   
 50  28  48  1   
@<TRIPOS>SUBSTRUCTURE
  1 ****  11 GROUP 4 **** **** 0

# MOE 2024.06 (io_trps.svl 2023.06)
