@<TRIPOS>MOLECULE
NONAME
46 48 1 0 0 
SMALL
USER_CHARGES


@<TRIPOS>ATOM
  1 CL       2.6780    -2.7200    -2.9010 Cl    1 <1>  -0.1770 
  2 C        2.6420    -1.8870    -1.3630 C.ar  1 <1>   0.1770 
  3 C        1.6830    -2.2100    -0.4090 C.ar  1 <1>   0.0820 
  4 C        3.5900    -0.9100    -1.1310 C.ar  1 <1>  -0.1500 
  5 O        0.7800    -3.1800    -0.7030 O.3   1 <1>  -0.3630 
  6 C        1.7000    -1.5190     0.7990 C.ar  1 <1>  -0.1500 
  7 C        3.6180    -0.2210     0.0750 C.ar  1 <1>  -0.0090 
  8 C       -0.2660    -3.5190     0.1790 C.3   1 <1>   0.1200 
  9 C        2.6560    -0.5420     1.0280 C.ar  1 <1>  -0.1500 
 10 S        4.8650     1.0610     0.3850 S.o2  1 <1>   1.4470 
 11 C       -1.1040    -4.6090    -0.4820 C.3   1 <1>  -0.2400 
 12 O        4.9950     1.2880     1.8080 O.2   1 <1>  -0.6500 
 13 O        4.6170     2.1800    -0.4970 O.2   1 <1>  -0.6500 
 14 N        6.3000     0.3280    -0.1350 N.am  1 <1>  -0.8490 
 15 C        7.3720     1.3260    -0.3330 C.3   1 <1>   0.1960 
 16 C        6.7750    -0.7150     0.7990 C.3   1 <1>   0.1960 
 17 C        8.6730     0.6900    -0.8610 C.3   1 <1>   0.2090 
 18 C        8.0500    -1.4130     0.2900 C.3   1 <1>   0.2090 
 19 N        9.1340    -0.4230     0.0210 N.pl3 1 <1>  -0.8380 
 20 C       10.3870    -0.9520    -0.2630 C.ar  1 <1>   0.1000 
 21 C       10.6350    -1.6590    -1.4350 C.ar  1 <1>  -0.1500 
 22 C       11.4240    -0.7750     0.6420 C.ar  1 <1>  -0.1500 
 23 C       11.8910    -2.1770    -1.6940 C.ar  1 <1>  -0.1500 
 24 C       12.6820    -1.2910     0.3880 C.ar  1 <1>  -0.1500 
 25 C       12.9170    -1.9930    -0.7820 C.ar  1 <1>  -0.1500 
 26 H        4.3130    -0.6850    -1.8960 H     1 <1>   0.1500 
 27 H        0.9820    -1.7270     1.5710 H     1 <1>   0.1500 
 28 H       -0.8600    -2.6390     0.3580 H     1 <1>   0.0800 
 29 H        0.1640    -3.8760     1.0990 H     1 <1>   0.0800 
 30 H        2.6550    -0.0150     1.9700 H     1 <1>   0.1500 
 31 H       -1.5150    -4.2480    -1.4080 H     1 <1>   0.0800 
 32 H       -1.9140    -4.8900     0.1660 H     1 <1>   0.0800 
 33 H       -0.4990    -5.4770    -0.6720 H     1 <1>   0.0800 
 34 H        7.5810     1.8270     0.5980 H     1 <1>   0.0800 
 35 H        7.0480     2.0680    -1.0420 H     1 <1>   0.0800 
 36 H        6.0070    -1.4580     0.9330 H     1 <1>   0.0800 
 37 H        6.9880    -0.2800     1.7620 H     1 <1>   0.0800 
 38 H        9.4430     1.4410    -0.9100 H     1 <1>   0.0800 
 39 H        8.5050     0.3170    -1.8550 H     1 <1>   0.0800 
 40 H        7.8230    -1.9550    -0.6120 H     1 <1>   0.0800 
 41 H        8.3930    -2.1180     1.0280 H     1 <1>   0.0800 
 42 H        9.8400    -1.8010    -2.1410 H     1 <1>   0.1500 
 43 H       11.2300    -0.2280     1.5460 H     1 <1>   0.1500 
 44 H       12.0730    -2.7230    -2.6040 H     1 <1>   0.1500 
 45 H       13.4760    -1.1460     1.0980 H     1 <1>   0.1500 
 46 H       13.8950    -2.3950    -0.9820 H     1 <1>   0.1500 
@<TRIPOS>BOND
  1   1   2  1   
  2   2   3  ar  
  3   2   4  ar  
  4   3   5  1   
  5   3   6  ar  
  6   4   7  ar  
  7   4  26  1   
  8   5   8  1   
  9   6   9  ar  
 10   6  27  1   
 11   7   9  ar  
 12   7  10  1   
 13   8  11  1   
 14   8  28  1   
 15   8  29  1   
 16   9  30  1   
 17  10  12  2   
 18  10  13  2   
 19  10  14  am  
 20  11  31  1   
 21  11  32  1   
 22  11  33  1   
 23  14  15  1   
 24  14  16  1   
 25  15  17  1   
 26  15  34  1   
 27  15  35  1   
 28  16  18  1   
 29  16  36  1   
 30  16  37  1   
 31  17  19  1   
 32  17  38  1   
 33  17  39  1   
 34  18  19  1   
 35  18  40  1   
 36  18  41  1   
 37  19  20  1   
 38  20  21  ar  
 39  20  22  ar  
 40  21  23  ar  
 41  21  42  1   
 42  22  24  ar  
 43  22  43  1   
 44  23  25  ar  
 45  23  44  1   
 46  24  25  ar  
 47  24  45  1   
 48  25  46  1   
@<TRIPOS>SUBSTRUCTURE
  1 ****  16 GROUP 4 **** **** 0

# MOE 2024.06 (io_trps.svl 2023.06)
