@<TRIPOS>MOLECULE
NONAME
31 32 1 0 0 
SMALL
USER_CHARGES


@<TRIPOS>ATOM
  1 S       -0.1410    -0.2960     0.3690 S.3   1 <1>  -0.2860 
  2 C       -1.5930     0.6790    -0.0360 C.2   1 <1>   0.2420 
  3 C        1.2150     0.6550    -0.4430 C.3   1 <1>   0.2140 
  4 N       -1.5530     1.7630    -0.7260 N.2   1 <1>  -0.3380 
  5 N       -2.8210     0.3380     0.3540 N.pl3 1 <1>   0.0480 
  6 C        2.5220    -0.0790    -0.1930 C.ar  1 <1>  -0.1440 
  7 N       -2.8190     2.1830    -0.8120 N.2   1 <1>  -0.3380 
  8 C       -3.5520     1.3330    -0.1720 C.2   1 <1>   0.0070 
  9 C       -3.2440    -0.8310     1.1540 C.3   1 <1>   0.0960 
 10 C        3.2920     0.2310     0.9220 C.ar  1 <1>  -0.1500 
 11 C        2.9470    -1.0610    -1.0800 C.ar  1 <1>  -0.1500 
 12 C       -5.0580     1.4540    -0.0370 C.3   1 <1>  -0.0600 
 13 C       -3.5360    -2.0310     0.2470 C.3   1 <1>  -0.2400 
 14 C        4.4850    -0.4330     1.1530 C.ar  1 <1>  -0.1500 
 15 C        4.1390    -1.7320    -0.8590 C.ar  1 <1>  -0.1500 
 16 C        4.8860    -1.4040     0.2550 C.ar  1 <1>   0.1900 
 17 F        6.0100    -2.0330     0.4680 F     1 <1>  -0.1900 
 18 H        1.2170     1.6410    -0.0130 H     1 <1>   0.0800 
 19 H        0.9810     0.7150    -1.4910 H     1 <1>   0.0800 
 20 H       -4.1230    -0.5700     1.7160 H     1 <1>   0.0800 
 21 H       -2.4620    -1.0780     1.8500 H     1 <1>   0.0800 
 22 H        2.9620     0.9870     1.6140 H     1 <1>   0.1500 
 23 H        2.3500    -1.3070    -1.9410 H     1 <1>   0.1500 
 24 H       -5.5380     0.5850    -0.4470 H     1 <1>   0.0800 
 25 H       -5.4020     2.3200    -0.5730 H     1 <1>   0.0800 
 26 H       -5.3300     1.5600     0.9970 H     1 <1>   0.0800 
 27 H       -4.3220    -1.7970    -0.4490 H     1 <1>   0.0800 
 28 H       -3.8450    -2.8710     0.8430 H     1 <1>   0.0800 
 29 H       -2.6500    -2.3100    -0.2970 H     1 <1>   0.0800 
 30 H        5.0930    -0.2070     2.0100 H     1 <1>   0.1500 
 31 H        4.4830    -2.4950    -1.5340 H     1 <1>   0.1500 
@<TRIPOS>BOND
  1   1   2  1   
  2   1   3  1   
  3   2   4  2   
  4   2   5  1   
  5   3   6  1   
  6   3  18  1   
  7   3  19  1   
  8   4   7  1   
  9   5   8  1   
 10   5   9  1   
 11   6  10  ar  
 12   6  11  ar  
 13   7   8  2   
 14   8  12  1   
 15   9  13  1   
 16   9  20  1   
 17   9  21  1   
 18  10  14  ar  
 19  10  22  1   
 20  11  15  ar  
 21  11  23  1   
 22  12  24  1   
 23  12  25  1   
 24  12  26  1   
 25  13  27  1   
 26  13  28  1   
 27  13  29  1   
 28  14  16  ar  
 29  14  30  1   
 30  15  16  ar  
 31  15  31  1   
 32  16  17  1   
@<TRIPOS>SUBSTRUCTURE
  1 ****   1 GROUP 4 **** **** 0

# MOE 2024.06 (io_trps.svl 2023.06)
