@<TRIPOS>MOLECULE
NONAME
33 34 1 0 0 
SMALL
USER_CHARGES


@<TRIPOS>ATOM
  1 O       -0.4870     0.3850    -0.8500 O.2   1 <1>  -0.5700 
  2 C       -1.3990     0.8610    -0.2170 C.2   1 <1>   0.5690 
  3 N       -1.2950     2.0960     0.3700 N.am  1 <1>  -0.6600 
  4 C       -2.6860     0.0590    -0.0790 C.3   1 <1>  -0.0990 
  5 C       -2.3770     2.8030     1.1230 C.3   1 <1>   0.1400 
  6 C       -0.0360     2.8960     0.2820 C.3   1 <1>   0.1400 
  7 C       -2.6070    -1.3590    -0.6630 C.3   1 <1>  -0.0170 
  8 C       -2.5410     4.2440     0.6110 C.3   1 <1>   0.1200 
  9 C       -0.3340     4.3320    -0.1790 C.3   1 <1>   0.1200 
 10 C       -3.9310    -2.0780    -0.4650 C.ar  1 <1>  -0.1440 
 11 O       -1.3160     4.9180     0.6290 O.3   1 <1>  -0.5600 
 12 C       -4.9210    -2.0020    -1.4330 C.ar  1 <1>  -0.1500 
 13 C       -4.1640    -2.8100     0.6890 C.ar  1 <1>  -0.1500 
 14 C       -6.1310    -2.6480    -1.2480 C.ar  1 <1>  -0.1500 
 15 C       -5.3730    -3.4570     0.8750 C.ar  1 <1>  -0.1500 
 16 C       -6.3580    -3.3760    -0.0940 C.ar  1 <1>  -0.1500 
 17 H       -3.4730     0.5930    -0.5770 H     1 <1>   0.0800 
 18 H       -2.9310    -0.0160     0.9640 H     1 <1>   0.0800 
 19 H       -2.1170     2.8310     2.1670 H     1 <1>   0.0800 
 20 H       -3.3170     2.2930     1.0290 H     1 <1>   0.0800 
 21 H        0.6570     2.4430    -0.4050 H     1 <1>   0.0800 
 22 H        0.4330     2.9250     1.2500 H     1 <1>   0.0800 
 23 H       -1.8170    -1.9080    -0.1800 H     1 <1>   0.0800 
 24 H       -2.3720    -1.3090    -1.7130 H     1 <1>   0.0800 
 25 H       -3.2230     4.7870     1.2400 H     1 <1>   0.0800 
 26 H       -2.9210     4.2480    -0.3960 H     1 <1>   0.0800 
 27 H       -0.6760     4.3370    -1.1990 H     1 <1>   0.0800 
 28 H        0.5540     4.9350    -0.1090 H     1 <1>   0.0800 
 29 H       -4.7530    -1.4390    -2.3340 H     1 <1>   0.1500 
 30 H       -3.4040    -2.8790     1.4480 H     1 <1>   0.1500 
 31 H       -6.8940    -2.5860    -2.0040 H     1 <1>   0.1500 
 32 H       -5.5470    -4.0240     1.7730 H     1 <1>   0.1500 
 33 H       -7.2980    -3.8790     0.0500 H     1 <1>   0.1500 
@<TRIPOS>BOND
  1   1   2  2   
  2   2   3  am  
  3   2   4  1   
  4   3   5  1   
  5   3   6  1   
  6   4   7  1   
  7   4  17  1   
  8   4  18  1   
  9   5   8  1   
 10   5  19  1   
 11   5  20  1   
 12   6   9  1   
 13   6  21  1   
 14   6  22  1   
 15   7  10  1   
 16   7  23  1   
 17   7  24  1   
 18   8  11  1   
 19   8  25  1   
 20   8  26  1   
 21   9  11  1   
 22   9  27  1   
 23   9  28  1   
 24  10  12  ar  
 25  10  13  ar  
 26  12  14  ar  
 27  12  29  1   
 28  13  15  ar  
 29  13  30  1   
 30  14  16  ar  
 31  14  31  1   
 32  15  16  ar  
 33  15  32  1   
 34  16  33  1   
@<TRIPOS>SUBSTRUCTURE
  1 ****   4 GROUP 4 **** **** 0

# MOE 2024.06 (io_trps.svl 2023.06)
