@<TRIPOS>MOLECULE
NONAME
36 37 1 0 0 
SMALL
USER_CHARGES


@<TRIPOS>ATOM
  1 CL      -0.4320    -0.0870     2.2070 Cl    1 <1>  -0.1770 
  2 C       -1.7370    -0.9380     1.4070 C.ar  1 <1>   0.1770 
  3 C       -1.5120    -2.1600     0.7840 C.ar  1 <1>   0.0830 
  4 C       -2.9930    -0.3650     1.4160 C.ar  1 <1>  -0.1500 
  5 O       -0.2900    -2.7440     0.7660 O.3   1 <1>  -0.3630 
  6 C       -2.5730    -2.8120     0.1790 C.ar  1 <1>  -0.1500 
  7 C       -4.0610    -1.0070     0.8000 C.ar  1 <1>   0.1170 
  8 C        0.6070    -2.2640    -0.2090 C.3   1 <1>   0.0400 
  9 C       -3.8330    -2.2380     0.1880 C.ar  1 <1>  -0.1500 
 10 N       -5.3270    -0.4000     0.8370 N.am  1 <1>  -0.5470 
 11 C       -6.3900    -0.5140    -0.0170 C.2   1 <1>   0.5690 
 12 O       -6.3640    -1.1860    -1.0190 O.2   1 <1>  -0.5700 
 13 C       -7.6610     0.2660     0.3250 C.3   1 <1>  -0.0190 
 14 C       -8.8710    -0.6740     0.4940 C.3   1 <1>  -0.1600 
 15 C       -7.9580     1.3440    -0.7350 C.3   1 <1>  -0.1600 
 16 C      -10.1500     0.1070     0.8290 C.3   1 <1>  -0.1600 
 17 C       -9.2360     2.1260    -0.4020 C.3   1 <1>  -0.1600 
 18 C      -10.4330     1.1820    -0.2290 C.3   1 <1>  -0.1600 
 19 H       -3.1320     0.5820     1.9020 H     1 <1>   0.1500 
 20 H       -2.4100    -3.7640    -0.2940 H     1 <1>   0.1500 
 21 H        1.5200    -2.8270    -0.1320 H     1 <1>   0.0800 
 22 H        0.8030    -1.2220    -0.0280 H     1 <1>   0.0800 
 23 H        0.1700    -2.4000    -1.1830 H     1 <1>   0.0800 
 24 H       -4.6460    -2.7600    -0.2850 H     1 <1>   0.1500 
 25 H       -5.4590     0.2610     1.5990 H     1 <1>   0.3700 
 26 H       -7.5060     0.7660     1.2640 H     1 <1>   0.0800 
 27 H       -8.6700    -1.3870     1.2750 H     1 <1>   0.0800 
 28 H       -9.0220    -1.2240    -0.4200 H     1 <1>   0.0800 
 29 H       -8.0730     0.8720    -1.6970 H     1 <1>   0.0800 
 30 H       -7.1270     2.0250    -0.8030 H     1 <1>   0.0800 
 31 H      -10.0450     0.5740     1.7930 H     1 <1>   0.0800 
 32 H      -10.9830    -0.5730     0.8810 H     1 <1>   0.0800 
 33 H       -9.4440     2.8280    -1.1910 H     1 <1>   0.0800 
 34 H       -9.0900     2.6870     0.5060 H     1 <1>   0.0800 
 35 H      -11.3020     1.7500     0.0570 H     1 <1>   0.0800 
 36 H      -10.6480     0.7050    -1.1700 H     1 <1>   0.0800 
@<TRIPOS>BOND
  1   1   2  1   
  2   2   3  ar  
  3   2   4  ar  
  4   3   5  1   
  5   3   6  ar  
  6   4   7  ar  
  7   4  19  1   
  8   5   8  1   
  9   6   9  ar  
 10   6  20  1   
 11   7   9  ar  
 12   7  10  1   
 13   8  21  1   
 14   8  22  1   
 15   8  23  1   
 16   9  24  1   
 17  10  11  am  
 18  10  25  1   
 19  11  12  2   
 20  11  13  1   
 21  13  14  1   
 22  13  15  1   
 23  13  26  1   
 24  14  16  1   
 25  14  27  1   
 26  14  28  1   
 27  15  17  1   
 28  15  29  1   
 29  15  30  1   
 30  16  18  1   
 31  16  31  1   
 32  16  32  1   
 33  17  18  1   
 34  17  33  1   
 35  17  34  1   
 36  18  35  1   
 37  18  36  1   
@<TRIPOS>SUBSTRUCTURE
  1 ****  10 GROUP 4 **** **** 0

# MOE 2024.06 (io_trps.svl 2023.06)
