@<TRIPOS>MOLECULE
NONAME
41 43 1 0 0 
SMALL
USER_CHARGES


@<TRIPOS>ATOM
  1 O        2.0460    -1.9930     2.5150 O.2   1 <1>  -0.5700 
  2 C        1.4030    -2.1980     1.5030 C.2   1 <1>   0.5440 
  3 N        1.7480    -1.5250     0.3490 N.am  1 <1>  -0.6600 
  4 C        0.2960    -3.1360     1.5430 C.ar  1 <1>   0.0860 
  5 C        2.6140    -0.3110     0.3700 C.3   1 <1>   0.1400 
  6 C        1.2970    -1.8830    -1.0320 C.3   1 <1>   0.1400 
  7 C       -0.9460    -2.8010     1.0180 C.ar  1 <1>  -0.1500 
  8 C        0.4310    -4.4010     2.1060 C.ar  1 <1>  -0.1500 
  9 C        1.9440     0.8320    -0.4110 C.3   1 <1>   0.1200 
 10 C        0.6880    -0.6560    -1.7300 C.3   1 <1>   0.1200 
 11 C       -2.0040    -3.6970     0.9750 C.ar  1 <1>   0.1170 
 12 C       -0.6210    -5.2990     2.1090 C.ar  1 <1>  -0.1500 
 13 O        1.5890     0.4190    -1.7020 O.3   1 <1>  -0.5600 
 14 N       -3.2180    -3.3360     0.3740 N.am  1 <1>  -0.5470 
 15 C       -1.8390    -4.9620     1.5420 C.ar  1 <1>  -0.1430 
 16 C       -3.4480    -2.5610    -0.7410 C.2   1 <1>   0.7150 
 17 C       -2.9670    -5.9860     1.5420 C.3   1 <1>  -0.0970 
 18 O       -2.5010    -2.1340    -1.3790 O.2   1 <1>  -0.5700 
 19 C       -4.8140    -2.2900    -1.1300 C.2   1 <1>   0.0550 
 20 O       -5.0960    -1.7200    -2.2980 O.3   1 <1>  -0.2800 
 21 C       -5.9920    -2.5250    -0.4790 C.2   1 <1>  -0.1500 
 22 C       -6.3980    -1.5880    -2.4100 C.2   1 <1>  -0.0100 
 23 C       -7.0150    -2.0700    -1.3120 C.2   1 <1>  -0.1500 
 24 H        3.5640    -0.5450    -0.0790 H     1 <1>   0.0800 
 25 H        2.7930     0.0080     1.3820 H     1 <1>   0.0800 
 26 H        0.5810    -2.6840    -1.0220 H     1 <1>   0.0800 
 27 H        2.1460    -2.2180    -1.6010 H     1 <1>   0.0800 
 28 H       -1.0790    -1.8100     0.6250 H     1 <1>   0.1500 
 29 H        1.3760    -4.6740     2.5450 H     1 <1>   0.1500 
 30 H        2.6200     1.6620    -0.5060 H     1 <1>   0.0800 
 31 H        1.0570     1.1660     0.0990 H     1 <1>   0.0800 
 32 H       -0.2280    -0.3580    -1.2490 H     1 <1>   0.0800 
 33 H        0.4740    -0.8820    -2.7600 H     1 <1>   0.0800 
 34 H       -0.4770    -6.2690     2.5550 H     1 <1>   0.1500 
 35 H       -4.0370    -3.8180     0.7320 H     1 <1>   0.3700 
 36 H       -3.7870    -5.6340     2.1400 H     1 <1>   0.0800 
 37 H       -2.6330    -6.9250     1.9480 H     1 <1>   0.0800 
 38 H       -3.3080    -6.1610     0.5370 H     1 <1>   0.0800 
 39 H       -6.1470    -2.9640     0.4900 H     1 <1>   0.1500 
 40 H       -6.8020    -1.1410    -3.3020 H     1 <1>   0.1500 
 41 H       -8.0690    -2.1060    -1.0990 H     1 <1>   0.1500 
@<TRIPOS>BOND
  1   1   2  2   
  2   2   3  am  
  3   2   4  1   
  4   3   5  1   
  5   3   6  1   
  6   4   7  ar  
  7   4   8  ar  
  8   5   9  1   
  9   5  24  1   
 10   5  25  1   
 11   6  10  1   
 12   6  26  1   
 13   6  27  1   
 14   7  11  ar  
 15   7  28  1   
 16   8  12  ar  
 17   8  29  1   
 18   9  13  1   
 19   9  30  1   
 20   9  31  1   
 21  10  13  1   
 22  10  32  1   
 23  10  33  1   
 24  11  14  1   
 25  11  15  ar  
 26  12  15  ar  
 27  12  34  1   
 28  14  16  am  
 29  14  35  1   
 30  15  17  1   
 31  16  18  2   
 32  16  19  1   
 33  17  36  1   
 34  17  37  1   
 35  17  38  1   
 36  19  20  1   
 37  19  21  2   
 38  20  22  1   
 39  21  23  1   
 40  21  39  1   
 41  22  23  2   
 42  22  40  1   
 43  23  41  1   
@<TRIPOS>SUBSTRUCTURE
  1 ****   7 GROUP 4 **** **** 0

# MOE 2024.06 (io_trps.svl 2023.06)
