@<TRIPOS>MOLECULE
NONAME
49 50 1 0 0 
SMALL
USER_CHARGES


@<TRIPOS>ATOM
  1 CL       0.4460    -0.2760     0.2190 Cl    1 <1>  -0.1770 
  2 C       -1.0750     0.5820     0.1300 C.ar  1 <1>   0.1770 
  3 C       -1.1530     1.8980    -0.3330 C.ar  1 <1>   0.0860 
  4 C       -2.1980    -0.1150     0.5330 C.ar  1 <1>  -0.1500 
  5 C       -0.0100     2.6860    -0.7530 C.2   1 <1>   0.5440 
  6 C       -2.4290     2.4640    -0.3810 C.ar  1 <1>  -0.1500 
  7 C       -3.4400     0.4890     0.4810 C.ar  1 <1>  -0.1500 
  8 O       -0.1290     3.4850    -1.6600 O.2   1 <1>  -0.5700 
  9 N        1.1990     2.5870    -0.1260 N.am  1 <1>  -0.7300 
 10 C       -3.5770     1.7950     0.0240 C.ar  1 <1>  -0.0090 
 11 C        2.4170     3.3340    -0.4780 C.3   1 <1>   0.2200 
 12 S       -5.2090     2.5920    -0.0600 S.o2  1 <1>   1.4470 
 13 C        3.4410     2.3580    -1.0660 C.3   1 <1>  -0.1600 
 14 C        2.9580     4.0160     0.7830 C.3   1 <1>  -0.1600 
 15 O       -6.0980     1.9760     0.9020 O.2   1 <1>  -0.6500 
 16 O       -5.6050     2.6110    -1.4510 O.2   1 <1>  -0.6500 
 17 N       -4.9040     4.1910     0.4500 N.am  1 <1>  -0.8490 
 18 C        4.7770     3.0610    -1.3500 C.3   1 <1>  -0.1600 
 19 C        4.2920     4.7230     0.5020 C.3   1 <1>  -0.1600 
 20 C       -5.7190     5.1770    -0.2730 C.3   1 <1>   0.1960 
 21 C       -5.0020     4.3760     1.9070 C.3   1 <1>   0.1960 
 22 C        5.3210     3.7500    -0.0910 C.3   1 <1>  -0.1600 
 23 C       -5.0690     6.5610    -0.2270 C.3   1 <1>  -0.2400 
 24 C       -3.8270     3.7190     2.6300 C.3   1 <1>  -0.2400 
 25 H       -2.1000    -1.1280     0.8840 H     1 <1>   0.1500 
 26 H       -2.5260     3.4740    -0.7480 H     1 <1>   0.1500 
 27 H       -4.3160    -0.0560     0.7960 H     1 <1>   0.1500 
 28 H        1.3440     1.8400     0.5540 H     1 <1>   0.3700 
 29 H        2.1860     4.0880    -1.2130 H     1 <1>   0.0800 
 30 H        3.0530     1.9490    -1.9820 H     1 <1>   0.0800 
 31 H        3.6100     1.5510    -0.3750 H     1 <1>   0.0800 
 32 H        3.1090     3.2810     1.5540 H     1 <1>   0.0800 
 33 H        2.2400     4.7370     1.1310 H     1 <1>   0.0800 
 34 H        4.6330     3.7960    -2.1240 H     1 <1>   0.0800 
 35 H        5.4940     2.3420    -1.7080 H     1 <1>   0.0800 
 36 H        4.6770     5.1450     1.4140 H     1 <1>   0.0800 
 37 H        4.1260     5.5310    -0.1910 H     1 <1>   0.0800 
 38 H       -6.7200     5.2050     0.1270 H     1 <1>   0.0800 
 39 H       -5.7890     4.9130    -1.3140 H     1 <1>   0.0800 
 40 H       -5.9380     3.9910     2.2790 H     1 <1>   0.0800 
 41 H       -4.9710     5.4220     2.1490 H     1 <1>   0.0800 
 42 H        6.2230     4.2850    -0.3350 H     1 <1>   0.0800 
 43 H        5.5700     3.0040     0.6440 H     1 <1>   0.0800 
 44 H       -5.1280     7.0010     0.7500 H     1 <1>   0.0800 
 45 H       -5.5820     7.2140    -0.9100 H     1 <1>   0.0800 
 46 H       -4.0400     6.4940    -0.5330 H     1 <1>   0.0800 
 47 H       -3.9070     2.6490     2.6070 H     1 <1>   0.0800 
 48 H       -3.8340     4.0230     3.6610 H     1 <1>   0.0800 
 49 H       -2.8960     4.0320     2.1910 H     1 <1>   0.0800 
@<TRIPOS>BOND
  1   1   2  1   
  2   2   3  ar  
  3   2   4  ar  
  4   3   5  1   
  5   3   6  ar  
  6   4   7  ar  
  7   4  25  1   
  8   5   8  2   
  9   5   9  am  
 10   6  10  ar  
 11   6  26  1   
 12   7  10  ar  
 13   7  27  1   
 14   9  11  1   
 15   9  28  1   
 16  10  12  1   
 17  11  13  1   
 18  11  14  1   
 19  11  29  1   
 20  12  15  2   
 21  12  16  2   
 22  12  17  am  
 23  13  18  1   
 24  13  30  1   
 25  13  31  1   
 26  14  19  1   
 27  14  32  1   
 28  14  33  1   
 29  17  20  1   
 30  17  21  1   
 31  18  22  1   
 32  18  34  1   
 33  18  35  1   
 34  19  22  1   
 35  19  36  1   
 36  19  37  1   
 37  20  23  1   
 38  20  38  1   
 39  20  39  1   
 40  21  24  1   
 41  21  40  1   
 42  21  41  1   
 43  22  42  1   
 44  22  43  1   
 45  23  44  1   
 46  23  45  1   
 47  23  46  1   
 48  24  47  1   
 49  24  48  1   
 50  24  49  1   
@<TRIPOS>SUBSTRUCTURE
  1 ****   3 GROUP 4 **** **** 0

# MOE 2024.06 (io_trps.svl 2023.06)
