@<TRIPOS>MOLECULE
NONAME
25 26 1 0 0 
SMALL
USER_CHARGES


@<TRIPOS>ATOM
  1 F        0.2290    -0.5250    -0.5140 F     1 <1>  -0.3400 
  2 C       -0.6120    -1.0530     0.3640 C.3   1 <1>   1.3000 
  3 F       -0.7990    -2.3270     0.0530 F     1 <1>  -0.3400 
  4 F       -0.0320    -1.0110     1.5510 F     1 <1>  -0.3400 
  5 O       -1.8050    -0.3750     0.4120 O.3   1 <1>  -0.5600 
  6 C       -2.4390    -0.3600    -0.8140 C.3   1 <1>   0.7200 
  7 F       -2.0830     0.7910    -1.3710 F     1 <1>  -0.3400 
  8 C       -3.9490    -0.3550    -0.6230 C.2   1 <1>   0.0060 
  9 N       -4.5730     0.6680     0.0160 N.pl3 1 <1>   0.0330 
 10 N       -4.7540    -1.2830    -1.0250 N.2   1 <1>  -0.5650 
 11 C       -5.8930     0.3610     0.0180 C.ar  1 <1>  -0.1520 
 12 C       -5.9870    -0.8540    -0.6330 C.ar  1 <1>   0.2270 
 13 C       -7.0250     1.0080     0.5170 C.ar  1 <1>  -0.1500 
 14 C       -7.2330    -1.4540    -0.8010 C.ar  1 <1>  -0.1500 
 15 C       -8.2570     0.4110     0.3490 C.ar  1 <1>  -0.1440 
 16 C       -8.3560    -0.8220    -0.3120 C.ar  1 <1>  -0.1500 
 17 C       -9.5210     1.0680     0.8700 C.3   1 <1>  -0.0970 
 18 H       -2.1260    -1.1570    -1.4690 H     1 <1>   0.0800 
 19 H       -4.1330     1.5030     0.4120 H     1 <1>   0.2700 
 20 H       -6.9240     1.9530     1.0200 H     1 <1>   0.1500 
 21 H       -7.2870    -2.3980    -1.3100 H     1 <1>   0.1500 
 22 H       -9.3230    -1.2770    -0.4370 H     1 <1>   0.1500 
 23 H       -9.2990     2.0050     1.3490 H     1 <1>   0.0800 
 24 H      -10.0000     0.4230     1.5850 H     1 <1>   0.0800 
 25 H      -10.2000     1.2520     0.0570 H     1 <1>   0.0800 
@<TRIPOS>BOND
  1   1   2  1   
  2   2   3  1   
  3   2   4  1   
  4   2   5  1   
  5   5   6  1   
  6   6   7  1   
  7   6   8  1   
  8   6  18  1   
  9   8   9  1   
 10   8  10  2   
 11   9  11  1   
 12   9  19  1   
 13  10  12  1   
 14  11  12  ar  
 15  11  13  ar  
 16  12  14  ar  
 17  13  15  ar  
 18  13  20  1   
 19  14  16  ar  
 20  14  21  1   
 21  15  16  ar  
 22  15  17  1   
 23  16  22  1   
 24  17  23  1   
 25  17  24  1   
 26  17  25  1   
@<TRIPOS>SUBSTRUCTURE
  1 ****   8 GROUP 4 **** **** 0

# MOE 2024.06 (io_trps.svl 2023.06)
