@<TRIPOS>MOLECULE
NONAME
35 36 1 0 0 
SMALL
USER_CHARGES


@<TRIPOS>ATOM
  1 F       -0.3840     0.8060     1.6420 F     1 <1>  -0.1900 
  2 C       -1.0580     1.6530     0.9060 C.ar  1 <1>   0.1900 
  3 C       -0.4070     2.7000     0.2740 C.ar  1 <1>   0.1900 
  4 C       -2.4220     1.4830     0.7760 C.ar  1 <1>  -0.1500 
  5 F        0.8880     2.8530     0.4040 F     1 <1>  -0.1900 
  6 C       -1.1110     3.6000    -0.5030 C.ar  1 <1>  -0.1500 
  7 C       -3.1490     2.3790    -0.0060 C.ar  1 <1>   0.1000 
  8 C       -2.4810     3.4310    -0.6350 C.ar  1 <1>  -0.1500 
  9 N       -4.5340     2.2680    -0.1820 N.pl3 1 <1>  -0.6000 
 10 C       -5.3950     1.2710     0.1710 C.2   1 <1>  -0.0500 
 11 C       -6.7570     1.2590    -0.0450 C.2   1 <1>   0.0290 
 12 C       -7.5280     0.1340     0.3940 C.2   1 <1>   0.4950 
 13 C       -7.4420     2.3410    -0.6990 C.2   1 <1>   0.4950 
 14 O       -7.0400    -0.8290     0.9370 O.2   1 <1>  -0.5700 
 15 C       -9.0330     0.0740     0.1880 C.3   1 <1>  -0.0990 
 16 O       -6.8900     3.3310    -1.1260 O.2   1 <1>  -0.5700 
 17 C       -8.9460     2.3000    -0.9170 C.3   1 <1>  -0.0990 
 18 C       -9.6880     1.4610     0.1320 C.3   1 <1>   0.0000 
 19 C      -11.1630     1.3170    -0.2730 C.3   1 <1>  -0.2400 
 20 C       -9.6300     2.1430     1.5120 C.3   1 <1>  -0.2400 
 21 H       -2.9000     0.6660     1.2810 H     1 <1>   0.1500 
 22 H       -0.5980     4.4100    -0.9890 H     1 <1>   0.1500 
 23 H       -3.0420     4.1230    -1.2380 H     1 <1>   0.1500 
 24 H       -4.9770     3.0680    -0.6700 H     1 <1>   0.4000 
 25 H       -4.9540     0.4190     0.6620 H     1 <1>   0.1500 
 26 H       -9.2150    -0.4590    -0.7280 H     1 <1>   0.0800 
 27 H       -9.4700    -0.5010     0.9850 H     1 <1>   0.0800 
 28 H       -9.3260     3.3070    -0.9080 H     1 <1>   0.0800 
 29 H       -9.1210     1.9010    -1.9000 H     1 <1>   0.0800 
 30 H      -11.2540     0.8430    -1.2350 H     1 <1>   0.0800 
 31 H      -11.6370     2.2820    -0.3280 H     1 <1>   0.0800 
 32 H      -11.6970     0.7210     0.4470 H     1 <1>   0.0800 
 33 H      -10.1550     1.5560     2.2440 H     1 <1>   0.0800 
 34 H      -10.0940     3.1140     1.4710 H     1 <1>   0.0800 
 35 H       -8.6200     2.2750     1.8570 H     1 <1>   0.0800 
@<TRIPOS>BOND
  1   1   2  1   
  2   2   3  ar  
  3   2   4  ar  
  4   3   5  1   
  5   3   6  ar  
  6   4   7  ar  
  7   4  21  1   
  8   6   8  ar  
  9   6  22  1   
 10   7   8  ar  
 11   7   9  1   
 12   8  23  1   
 13   9  10  1   
 14   9  24  1   
 15  10  11  2   
 16  10  25  1   
 17  11  12  1   
 18  11  13  1   
 19  12  14  2   
 20  12  15  1   
 21  13  16  2   
 22  13  17  1   
 23  15  18  1   
 24  15  26  1   
 25  15  27  1   
 26  17  18  1   
 27  17  28  1   
 28  17  29  1   
 29  18  19  1   
 30  18  20  1   
 31  19  30  1   
 32  19  31  1   
 33  19  32  1   
 34  20  33  1   
 35  20  34  1   
 36  20  35  1   
@<TRIPOS>SUBSTRUCTURE
  1 ****  10 GROUP 4 **** **** 0

# MOE 2024.06 (io_trps.svl 2023.06)
