@<TRIPOS>MOLECULE
NONAME
53 55 1 0 0 
SMALL
USER_CHARGES


@<TRIPOS>ATOM
  1 O       -1.2360     0.8450     0.3340 O.2   1 <1>  -0.5700 
  2 C       -1.2170     1.3380    -0.7770 C.2   1 <1>   0.6900 
  3 N       -2.3670     1.3420    -1.5100 N.am  1 <1>  -0.6600 
  4 N       -0.1190     1.9310    -1.3180 N.am  1 <1>  -0.5470 
  5 C       -3.2290     0.1250    -1.4360 C.3   1 <1>   0.1400 
  6 C       -3.1510     2.6070    -1.5090 C.3   1 <1>   0.1400 
  7 C        1.1570     2.1990    -0.8000 C.ar  1 <1>   0.1170 
  8 C       -4.1280     0.1760    -0.1840 C.3   1 <1>   0.3430 
  9 C       -4.0450     2.6730    -0.2520 C.3   1 <1>   0.3430 
 10 C        1.4440     2.2050     0.5610 C.ar  1 <1>  -0.1500 
 11 C        2.1860     2.4910    -1.6880 C.ar  1 <1>  -0.1500 
 12 N       -4.9240     1.4530    -0.1070 N.4   1 <1>  -0.9590 
 13 C        2.7190     2.4900     1.0170 C.ar  1 <1>  -0.1500 
 14 C        3.4610     2.7770    -1.2340 C.ar  1 <1>  -0.1500 
 15 C       -5.7110     1.5150     1.1540 C.3   1 <1>   0.4860 
 16 C        3.7370     2.7760     0.1230 C.ar  1 <1>  -0.1430 
 17 C       -6.6290     2.7190     1.0850 C.ar  1 <1>  -0.1430 
 18 C        5.1380     3.0870     0.6250 C.3   1 <1>  -0.0170 
 19 C       -7.7620     2.6940     0.2850 C.ar  1 <1>  -0.1500 
 20 C       -6.3360     3.8620     1.8150 C.ar  1 <1>  -0.1500 
 21 C        5.3040     4.5890     0.8620 C.3   1 <1>  -0.2400 
 22 C       -8.5830     3.8050     0.2060 C.ar  1 <1>  -0.1500 
 23 C       -7.1600     4.9700     1.7320 C.ar  1 <1>  -0.1500 
 24 C       -8.2850     4.9480     0.9280 C.ar  1 <1>  -0.1430 
 25 C       -9.1890     6.1650     0.8390 C.3   1 <1>  -0.0970 
 26 H       -0.2240     2.1130    -2.3120 H     1 <1>   0.3700 
 27 H       -2.6040    -0.7510    -1.3860 H     1 <1>   0.0800 
 28 H       -3.8290     0.0520    -2.3260 H     1 <1>   0.0800 
 29 H       -3.7540     2.6630    -2.3980 H     1 <1>   0.0800 
 30 H       -2.4810     3.4510    -1.5100 H     1 <1>   0.0800 
 31 H       -3.4930     0.0940     0.6840 H     1 <1>   0.0800 
 32 H       -4.7910    -0.6740    -0.1890 H     1 <1>   0.0800 
 33 H       -4.6530     3.5610    -0.2990 H     1 <1>   0.0800 
 34 H       -3.4030     2.7570     0.6100 H     1 <1>   0.0800 
 35 H        0.6760     1.9900     1.2790 H     1 <1>   0.1500 
 36 H        1.9950     2.4950    -2.7450 H     1 <1>   0.1500 
 37 H       -5.6020     1.4760    -0.8780 H     1 <1>   0.4500 
 38 H        2.9160     2.4870     2.0750 H     1 <1>   0.1500 
 39 H        4.2410     3.0000    -1.9410 H     1 <1>   0.1500 
 40 H       -5.0520     1.6000     2.0030 H     1 <1>   0.0800 
 41 H       -6.3050     0.6220     1.2690 H     1 <1>   0.0800 
 42 H        5.8640     2.7510    -0.0950 H     1 <1>   0.0800 
 43 H        5.3200     2.5540     1.5420 H     1 <1>   0.0800 
 44 H       -8.0270     1.8170    -0.2810 H     1 <1>   0.1500 
 45 H       -5.4710     3.9070     2.4550 H     1 <1>   0.1500 
 46 H        5.1400     5.1290    -0.0540 H     1 <1>   0.0800 
 47 H        6.2970     4.8020     1.2170 H     1 <1>   0.0800 
 48 H        4.5930     4.9290     1.5940 H     1 <1>   0.0800 
 49 H       -9.4610     3.7780    -0.4180 H     1 <1>   0.1500 
 50 H       -6.9240     5.8540     2.3010 H     1 <1>   0.1500 
 51 H      -10.2070     5.8670     0.6630 H     1 <1>   0.0800 
 52 H       -8.8700     6.8000     0.0330 H     1 <1>   0.0800 
 53 H       -9.1570     6.7270     1.7560 H     1 <1>   0.0800 
@<TRIPOS>BOND
  1   1   2  2   
  2   2   3  am  
  3   2   4  am  
  4   3   5  1   
  5   3   6  1   
  6   4   7  1   
  7   4  26  1   
  8   5   8  1   
  9   5  27  1   
 10   5  28  1   
 11   6   9  1   
 12   6  29  1   
 13   6  30  1   
 14   7  10  ar  
 15   7  11  ar  
 16   8  12  1   
 17   8  31  1   
 18   8  32  1   
 19   9  12  1   
 20   9  33  1   
 21   9  34  1   
 22  10  13  ar  
 23  10  35  1   
 24  11  14  ar  
 25  11  36  1   
 26  12  15  1   
 27  12  37  1   
 28  13  16  ar  
 29  13  38  1   
 30  14  16  ar  
 31  14  39  1   
 32  15  17  1   
 33  15  40  1   
 34  15  41  1   
 35  16  18  1   
 36  17  19  ar  
 37  17  20  ar  
 38  18  21  1   
 39  18  42  1   
 40  18  43  1   
 41  19  22  ar  
 42  19  44  1   
 43  20  23  ar  
 44  20  45  1   
 45  21  46  1   
 46  21  47  1   
 47  21  48  1   
 48  22  24  ar  
 49  22  49  1   
 50  23  24  ar  
 51  23  50  1   
 52  24  25  1   
 53  25  51  1   
 54  25  52  1   
 55  25  53  1   
@<TRIPOS>SUBSTRUCTURE
  1 ****   9 GROUP 4 **** **** 0

# MOE 2024.06 (io_trps.svl 2023.06)
