@<TRIPOS>MOLECULE
NONAME
41 44 1 0 0 
SMALL
USER_CHARGES


@<TRIPOS>ATOM
  1 O        0.3590     0.3570    -0.7540 O.2   1 <1>  -0.5700 
  2 C        0.5740     1.4440    -0.2860 C.2   1 <1>   0.5690 
  3 N        1.7930     2.0840    -0.1070 N.am  1 <1>  -0.2370 
  4 C       -0.4770     2.3540     0.2600 C.3   1 <1>  -0.0190 
  5 C        3.0660     1.4850    -0.2110 C.ar  1 <1>   0.1170 
  6 C        1.5400     3.4180     0.1900 C.2   1 <1>   0.5690 
  7 C       -1.9670     2.6740     0.2280 C.3   1 <1>   0.4180 
  8 C        0.1110     3.6920    -0.1690 C.3   1 <1>  -0.0190 
  9 C        3.2780     0.1680     0.1880 C.ar  1 <1>  -0.1500 
 10 C        4.1560     2.1870    -0.7170 C.ar  1 <1>  -0.1500 
 11 O        2.3000     4.2460     0.6180 O.2   1 <1>  -0.5700 
 12 O       -1.8520     3.8200     1.0120 O.3   1 <1>  -0.5600 
 13 C       -2.4660     3.3520    -1.0340 C.2   1 <1>  -0.2880 
 14 C       -2.9250     1.6900     0.8830 C.3   1 <1>  -0.2400 
 15 C       -1.0570     4.6300     0.1990 C.3   1 <1>   0.3380 
 16 C        4.5250    -0.4190     0.0840 C.ar  1 <1>  -0.1500 
 17 C        5.4010     1.5970    -0.8200 C.ar  1 <1>  -0.1500 
 18 C       -1.9550     4.5810    -1.0210 C.2   1 <1>  -0.2880 
 19 C        5.6250     0.2770    -0.4240 C.ar  1 <1>   0.0860 
 20 C        6.9380    -0.3280    -0.5400 C.2   1 <1>   0.6340 
 21 O        7.9020     0.2530    -0.9970 O.2   1 <1>  -0.5700 
 22 O        7.0900    -1.5880    -0.1200 O.3   1 <1>  -0.4300 
 23 C        8.3320    -2.2490    -0.1980 C.3   1 <1>   0.1200 
 24 C        8.1560    -3.6570     0.3600 C.3   1 <1>  -0.2400 
 25 H       -0.3090     2.2170     1.3190 H     1 <1>   0.0800 
 26 H        0.1810     3.7420    -1.2450 H     1 <1>   0.0800 
 27 H        2.4610    -0.4100     0.5830 H     1 <1>   0.1500 
 28 H        4.0350     3.2090    -1.0340 H     1 <1>   0.1500 
 29 H       -3.1160     2.8400    -1.7220 H     1 <1>   0.1500 
 30 H       -2.5850     1.4310     1.8690 H     1 <1>   0.0800 
 31 H       -2.9830     0.7950     0.2900 H     1 <1>   0.0800 
 32 H       -3.9060     2.1250     0.9460 H     1 <1>   0.0800 
 33 H       -0.8540     5.5900     0.6450 H     1 <1>   0.0800 
 34 H        4.6470    -1.4410     0.4010 H     1 <1>   0.1500 
 35 H        6.2240     2.1690    -1.2150 H     1 <1>   0.1500 
 36 H       -2.0480     5.4200    -1.6890 H     1 <1>   0.1500 
 37 H        9.0520    -1.6910     0.3770 H     1 <1>   0.0800 
 38 H        8.6390    -2.2770    -1.2310 H     1 <1>   0.0800 
 39 H        7.8390    -3.6110     1.3870 H     1 <1>   0.0800 
 40 H        9.0910    -4.1860     0.3130 H     1 <1>   0.0800 
 41 H        7.4270    -4.1970    -0.2180 H     1 <1>   0.0800 
@<TRIPOS>BOND
  1   1   2  2   
  2   2   3  am  
  3   2   4  1   
  4   3   5  1   
  5   3   6  am  
  6   4   7  1   
  7   4   8  1   
  8   4  25  1   
  9   5   9  ar  
 10   5  10  ar  
 11   6   8  1   
 12   6  11  2   
 13   7  12  1   
 14   7  13  1   
 15   7  14  1   
 16   8  15  1   
 17   8  26  1   
 18   9  16  ar  
 19   9  27  1   
 20  10  17  ar  
 21  10  28  1   
 22  12  15  1   
 23  13  18  2   
 24  13  29  1   
 25  14  30  1   
 26  14  31  1   
 27  14  32  1   
 28  15  18  1   
 29  15  33  1   
 30  16  19  ar  
 31  16  34  1   
 32  17  19  ar  
 33  17  35  1   
 34  18  36  1   
 35  19  20  1   
 36  20  21  2   
 37  20  22  1   
 38  22  23  1   
 39  23  24  1   
 40  23  37  1   
 41  23  38  1   
 42  24  39  1   
 43  24  40  1   
 44  24  41  1   
@<TRIPOS>SUBSTRUCTURE
  1 ****   5 GROUP 4 **** **** 0

# MOE 2024.06 (io_trps.svl 2023.06)
