@<TRIPOS>MOLECULE
NONAME
30 30 1 0 0 
SMALL
USER_CHARGES


@<TRIPOS>ATOM
  1 CL      -0.5670     0.0040     0.4850 Cl    1 <1>  -0.1770 
  2 C       -0.4040     1.7050     0.0700 C.ar  1 <1>   0.1770 
  3 C        0.8270     2.3310     0.1590 C.ar  1 <1>   0.3920 
  4 C       -1.4780     2.4590    -0.3490 C.ar  1 <1>   0.1660 
  5 O        1.8970     1.6170     0.5670 O.3   1 <1>  -0.3630 
  6 N        0.9900     3.6070    -0.1420 N.ar  1 <1>  -0.6200 
  7 N       -1.3340     3.7330    -0.6550 N.ar  1 <1>  -0.6200 
  8 C       -2.8860     1.9070    -0.4920 C.3   1 <1>  -0.0970 
  9 C        3.1860     2.1900     0.6600 C.3   1 <1>   0.0400 
 10 C       -0.1120     4.2310    -0.5410 C.ar  1 <1>   0.7030 
 11 O       -0.0160     5.5280    -0.8640 O.3   1 <1>  -0.3620 
 12 C        1.2080     6.2370    -0.7340 C.3   1 <1>   0.1810 
 13 C        1.0560     7.7060    -1.1180 C.2   1 <1>   0.6590 
 14 O        1.7080     8.1610    -2.0200 O.2   1 <1>  -0.5700 
 15 O        0.2450     8.5020    -0.4230 O.3   1 <1>  -0.4300 
 16 C       -0.7230     8.0710     0.5060 C.3   1 <1>   0.1200 
 17 C       -1.3660     9.3100     1.1200 C.3   1 <1>  -0.2400 
 18 H       -2.9480     0.8700    -0.2250 H     1 <1>   0.0800 
 19 H       -3.2100     2.0170    -1.5110 H     1 <1>   0.0800 
 20 H       -3.5540     2.4630     0.1400 H     1 <1>   0.0800 
 21 H        3.8690     1.4300     0.9960 H     1 <1>   0.0800 
 22 H        3.1580     3.0000     1.3680 H     1 <1>   0.0800 
 23 H        3.4800     2.5470    -0.3110 H     1 <1>   0.0800 
 24 H        1.9310     5.7760    -1.3830 H     1 <1>   0.0800 
 25 H        1.5430     6.1640     0.2840 H     1 <1>   0.0800 
 26 H       -0.2430     7.4780     1.2660 H     1 <1>   0.0800 
 27 H       -1.4600     7.4810    -0.0150 H     1 <1>   0.0800 
 28 H       -0.6240     9.9020     1.6260 H     1 <1>   0.0800 
 29 H       -2.1160     9.0170     1.8310 H     1 <1>   0.0800 
 30 H       -1.8340     9.9010     0.3530 H     1 <1>   0.0800 
@<TRIPOS>BOND
  1   1   2  1   
  2   2   3  ar  
  3   2   4  ar  
  4   3   5  1   
  5   3   6  ar  
  6   4   7  ar  
  7   4   8  1   
  8   5   9  1   
  9   6  10  ar  
 10   7  10  ar  
 11   8  18  1   
 12   8  19  1   
 13   8  20  1   
 14   9  21  1   
 15   9  22  1   
 16   9  23  1   
 17  10  11  1   
 18  11  12  1   
 19  12  13  1   
 20  12  24  1   
 21  12  25  1   
 22  13  14  2   
 23  13  15  1   
 24  15  16  1   
 25  16  17  1   
 26  16  26  1   
 27  16  27  1   
 28  17  28  1   
 29  17  29  1   
 30  17  30  1   
@<TRIPOS>SUBSTRUCTURE
  1 ****  10 GROUP 4 **** **** 0

# MOE 2024.06 (io_trps.svl 2023.06)
