@<TRIPOS>MOLECULE
NONAME
40 42 1 0 0 
SMALL
USER_CHARGES


@<TRIPOS>ATOM
  1 F       -0.1080    -2.1810     1.8350 F     1 <1>  -0.3400 
  2 C       -0.5220    -2.0060     0.5870 C.3   1 <1>   1.1640 
  3 F        0.5480    -2.1570    -0.1850 F     1 <1>  -0.3400 
  4 F       -0.8710    -0.7280     0.4840 F     1 <1>  -0.3400 
  5 C       -1.6590    -2.9710     0.2160 C.ar  1 <1>  -0.1440 
  6 C       -2.9900    -2.5960     0.3570 C.ar  1 <1>  -0.1500 
  7 C       -1.3760    -4.2480    -0.2600 C.ar  1 <1>  -0.1500 
  8 C       -4.0320    -3.4590     0.0320 C.ar  1 <1>   0.1170 
  9 C       -2.3980    -5.1180    -0.5900 C.ar  1 <1>  -0.1500 
 10 N       -5.3800    -3.0620     0.1850 N.am  1 <1>  -0.2370 
 11 C       -3.7150    -4.7250    -0.4460 C.ar  1 <1>  -0.1500 
 12 C       -6.3760    -3.2870    -0.7280 C.2   1 <1>   0.5690 
 13 C       -5.8990    -2.4070     1.2700 C.2   1 <1>   0.5690 
 14 O       -6.2200    -3.6830    -1.8580 O.2   1 <1>  -0.5700 
 15 C       -7.7420    -2.9000    -0.1470 C.3   1 <1>   0.2510 
 16 O       -5.3020    -2.0810     2.2620 O.2   1 <1>  -0.5700 
 17 C       -7.3650    -2.1000     1.1010 C.3   1 <1>  -0.0990 
 18 N       -8.5680    -4.0660     0.2390 N.3   1 <1>  -0.9000 
 19 C       -9.9780    -3.7630     0.4630 C.3   1 <1>   0.1900 
 20 C      -10.6100    -4.9250     1.2180 C.3   1 <1>  -0.1600 
 21 C      -10.7240    -3.7740    -0.8680 C.3   1 <1>  -0.1600 
 22 C      -10.9260    -5.9890     0.1620 C.3   1 <1>  -0.1600 
 23 C      -10.9930    -5.2500    -1.1800 C.3   1 <1>  -0.1600 
 24 H       -3.2310    -1.6150     0.7320 H     1 <1>   0.1500 
 25 H       -0.3550    -4.5740    -0.3780 H     1 <1>   0.1500 
 26 H       -2.1700    -6.1030    -0.9620 H     1 <1>   0.1500 
 27 H       -4.5030    -5.4100    -0.7120 H     1 <1>   0.1500 
 28 H       -8.2650    -2.2900    -0.8630 H     1 <1>   0.0800 
 29 H       -7.4780    -1.0470     0.9240 H     1 <1>   0.0800 
 30 H       -7.9170    -2.3870     1.9770 H     1 <1>   0.0800 
 31 H       -8.1840    -4.5210     1.0750 H     1 <1>   0.3600 
 32 H      -10.0990    -2.8340     0.9970 H     1 <1>   0.0800 
 33 H      -11.5340    -4.5860     1.6520 H     1 <1>   0.0800 
 34 H       -9.9800    -5.3010     2.0050 H     1 <1>   0.0800 
 35 H      -10.1820    -3.2880    -1.6590 H     1 <1>   0.0800 
 36 H      -11.6660    -3.2710    -0.7370 H     1 <1>   0.0800 
 37 H      -11.8510    -6.4930     0.3840 H     1 <1>   0.0800 
 38 H      -10.1310    -6.7140     0.1280 H     1 <1>   0.0800 
 39 H      -10.2200    -5.6230    -1.8290 H     1 <1>   0.0800 
 40 H      -11.9470    -5.3790    -1.6600 H     1 <1>   0.0800 
@<TRIPOS>BOND
  1   1   2  1   
  2   2   3  1   
  3   2   4  1   
  4   2   5  1   
  5   5   6  ar  
  6   5   7  ar  
  7   6   8  ar  
  8   6  24  1   
  9   7   9  ar  
 10   7  25  1   
 11   8  10  1   
 12   8  11  ar  
 13   9  11  ar  
 14   9  26  1   
 15  10  12  am  
 16  10  13  am  
 17  11  27  1   
 18  12  14  2   
 19  12  15  1   
 20  13  16  2   
 21  13  17  1   
 22  15  17  1   
 23  15  18  1   
 24  15  28  1   
 25  17  29  1   
 26  17  30  1   
 27  18  19  1   
 28  18  31  1   
 29  19  20  1   
 30  19  21  1   
 31  19  32  1   
 32  20  22  1   
 33  20  33  1   
 34  20  34  1   
 35  21  23  1   
 36  21  35  1   
 37  21  36  1   
 38  22  23  1   
 39  22  37  1   
 40  22  38  1   
 41  23  39  1   
 42  23  40  1   
@<TRIPOS>SUBSTRUCTURE
  1 ****  10 GROUP 4 **** **** 0

# MOE 2024.06 (io_trps.svl 2023.06)
