@<TRIPOS>MOLECULE
NONAME
49 51 1 0 0 
SMALL
USER_CHARGES


@<TRIPOS>ATOM
  1 CL       0.0370    -2.5650     0.2510 Cl    1 <1>  -0.1770 
  2 C        1.6190    -2.6230     0.9890 C.ar  1 <1>   0.1770 
  3 C        2.7350    -2.7670     0.1900 C.ar  1 <1>  -0.1500 
  4 C        1.7240    -2.5240     2.3650 C.ar  1 <1>  -0.1500 
  5 C        3.9950    -2.8140     0.7680 C.ar  1 <1>   0.1000 
  6 C        2.9800    -2.5700     2.9490 C.ar  1 <1>  -0.1500 
  7 N        5.1130    -2.9600    -0.0420 N.pl3 1 <1>  -0.8380 
  8 C        4.1040    -2.7150     2.1530 C.ar  1 <1>  -0.1500 
  9 C        5.8410    -4.2580     0.0700 C.3   1 <1>   0.2090 
 10 C        6.0500    -1.7990    -0.0910 C.3   1 <1>   0.2090 
 11 C        6.9120    -4.3920    -1.0300 C.3   1 <1>   0.1100 
 12 C        7.1150    -1.9900    -1.1880 C.3   1 <1>   0.1100 
 13 N        7.8660    -3.2550    -1.0220 N.3   1 <1>  -0.8100 
 14 C        8.8860    -3.4110    -2.1030 C.3   1 <1>   0.1710 
 15 C        9.9400    -4.4880    -1.8280 C.2   1 <1>   0.5690 
 16 O       10.5400    -4.9660    -2.7610 O.2   1 <1>  -0.5700 
 17 N       10.1540    -4.8290    -0.5300 N.am  1 <1>  -0.7300 
 18 C       11.1740    -5.6860     0.1030 C.3   1 <1>   0.3640 
 19 C       12.3840    -4.8390     0.4840 C.ar  1 <1>  -0.1430 
 20 C       11.5600    -6.8930    -0.7530 C.3   1 <1>  -0.2400 
 21 C       13.1190    -4.1680    -0.4840 C.ar  1 <1>  -0.1500 
 22 C       12.7650    -4.7270     1.8140 C.ar  1 <1>  -0.1500 
 23 C       14.2140    -3.3990    -0.1310 C.ar  1 <1>  -0.1500 
 24 C       13.8600    -3.9580     2.1700 C.ar  1 <1>  -0.1500 
 25 C       14.5850    -3.2930     1.1970 C.ar  1 <1>  -0.1500 
 26 H        2.6380    -2.8430    -0.8760 H     1 <1>   0.1500 
 27 H        0.8380    -2.4120     2.9630 H     1 <1>   0.1500 
 28 H        3.0800    -2.4950     4.0180 H     1 <1>   0.1500 
 29 H        5.0780    -2.7510     2.6040 H     1 <1>   0.1500 
 30 H        5.1360    -5.0670    -0.0170 H     1 <1>   0.0800 
 31 H        6.3130    -4.3260     1.0340 H     1 <1>   0.0800 
 32 H        6.5400    -1.6890     0.8600 H     1 <1>   0.0800 
 33 H        5.4900    -0.9020    -0.2870 H     1 <1>   0.0800 
 34 H        6.4150    -4.4460    -1.9830 H     1 <1>   0.0800 
 35 H        7.4440    -5.3150    -0.8800 H     1 <1>   0.0800 
 36 H        7.8000    -1.1610    -1.1490 H     1 <1>   0.0800 
 37 H        6.6260    -1.9770    -2.1480 H     1 <1>   0.0800 
 38 H        9.4170    -2.4840    -2.2230 H     1 <1>   0.0800 
 39 H        8.4000    -3.6330    -3.0370 H     1 <1>   0.0800 
 40 H        9.5990    -4.2810     0.1320 H     1 <1>   0.3700 
 41 H       10.7370    -6.0740     1.0070 H     1 <1>   0.0800 
 42 H       12.1030    -6.5880    -1.6280 H     1 <1>   0.0800 
 43 H       10.6800    -7.4340    -1.0490 H     1 <1>   0.0800 
 44 H       12.1930    -7.5470    -0.1830 H     1 <1>   0.0800 
 45 H       12.8370    -4.2440    -1.5210 H     1 <1>   0.1500 
 46 H       12.2130    -5.2370     2.5830 H     1 <1>   0.1500 
 47 H       14.7750    -2.8850    -0.8910 H     1 <1>   0.1500 
 48 H       14.1490    -3.8770     3.2030 H     1 <1>   0.1500 
 49 H       15.4370    -2.6960     1.4720 H     1 <1>   0.1500 
@<TRIPOS>BOND
  1   1   2  1   
  2   2   3  ar  
  3   2   4  ar  
  4   3   5  ar  
  5   3  26  1   
  6   4   6  ar  
  7   4  27  1   
  8   5   7  1   
  9   5   8  ar  
 10   6   8  ar  
 11   6  28  1   
 12   7   9  1   
 13   7  10  1   
 14   8  29  1   
 15   9  11  1   
 16   9  30  1   
 17   9  31  1   
 18  10  12  1   
 19  10  32  1   
 20  10  33  1   
 21  11  13  1   
 22  11  34  1   
 23  11  35  1   
 24  12  13  1   
 25  12  36  1   
 26  12  37  1   
 27  13  14  1   
 28  14  15  1   
 29  14  38  1   
 30  14  39  1   
 31  15  16  2   
 32  15  17  am  
 33  17  18  1   
 34  17  40  1   
 35  18  19  1   
 36  18  20  1   
 37  18  41  1   
 38  19  21  ar  
 39  19  22  ar  
 40  20  42  1   
 41  20  43  1   
 42  20  44  1   
 43  21  23  ar  
 44  21  45  1   
 45  22  24  ar  
 46  22  46  1   
 47  23  25  ar  
 48  23  47  1   
 49  24  25  ar  
 50  24  48  1   
 51  25  49  1   
@<TRIPOS>SUBSTRUCTURE
  1 ****  13 GROUP 4 **** **** 0

# MOE 2024.06 (io_trps.svl 2023.06)
