@<TRIPOS>MOLECULE
NONAME
51 53 1 0 0 
SMALL
USER_CHARGES


@<TRIPOS>ATOM
  1 S       -0.5200    -1.1040     0.3470 S.o2  1 <1>   1.3330 
  2 O       -0.3020    -2.4010    -0.2420 O.2   1 <1>  -0.6500 
  3 O        0.3070    -0.6590     1.4430 O.2   1 <1>  -0.6500 
  4 N       -0.3100     0.0470    -0.9240 N.am  1 <1>  -0.6930 
  5 C       -2.2460    -0.9410     0.7520 C.3   1 <1>  -0.1350 
  6 C       -0.7720     1.3560    -0.8170 C.ar  1 <1>   0.1990 
  7 C        0.8550    -0.1930    -1.8350 C.3   1 <1>   0.2570 
  8 C       -1.6650     1.8420    -1.7630 C.ar  1 <1>  -0.1500 
  9 C       -0.3660     2.1980     0.2130 C.ar  1 <1>  -0.1500 
 10 C        2.1790     0.4240    -1.3650 C.2   1 <1>   0.5690 
 11 C       -2.1510     3.1340    -1.6760 C.ar  1 <1>  -0.1500 
 12 C       -0.8470     3.4920     0.3040 C.ar  1 <1>  -0.1500 
 13 O        2.8780     0.9490    -2.1980 O.2   1 <1>  -0.5700 
 14 N        2.5270     0.3670    -0.0470 N.am  1 <1>  -0.7300 
 15 C       -1.7490     3.9660    -0.6450 C.ar  1 <1>   0.0830 
 16 C        3.6940     0.9730     0.6410 C.3   1 <1>   0.2200 
 17 O       -2.2750     5.2200    -0.6340 O.3   1 <1>  -0.3630 
 18 C        3.6540     2.6090     0.6630 C.3   1 <1>  -0.0800 
 19 C        5.1600     0.5080    -0.0090 C.3   1 <1>  -0.1600 
 20 C       -1.8610     6.1680     0.3220 C.3   1 <1>   0.1200 
 21 C        4.8840     2.2390     0.2760 C.3   1 <1>  -0.1600 
 22 C        4.5790     3.9520     0.5310 C.3   1 <1>  -0.1600 
 23 C        6.0880     1.8510    -0.1530 C.3   1 <1>  -0.0800 
 24 C       -2.5980     7.4740     0.0390 C.3   1 <1>  -0.2400 
 25 C        6.0660     3.4880    -0.0890 C.3   1 <1>  -0.1600 
 26 H       -2.5100    -1.6370     1.5240 H     1 <1>   0.0800 
 27 H       -2.8490    -1.1400    -0.1120 H     1 <1>   0.0800 
 28 H       -2.4560     0.0520     1.0990 H     1 <1>   0.0800 
 29 H        0.6250     0.2250    -2.7990 H     1 <1>   0.0800 
 30 H        1.0060    -1.2480    -1.9740 H     1 <1>   0.0800 
 31 H       -1.9810     1.2020    -2.5670 H     1 <1>   0.1500 
 32 H        0.3360     1.8460     0.9460 H     1 <1>   0.1500 
 33 H       -2.8440     3.5080    -2.4090 H     1 <1>   0.1500 
 34 H       -0.5090     4.1100     1.1130 H     1 <1>   0.1500 
 35 H        1.8490    -0.0490     0.6080 H     1 <1>   0.3700 
 36 H        3.6650     0.6260     1.6640 H     1 <1>   0.0800 
 37 H        2.8780     2.8240    -0.0610 H     1 <1>   0.0800 
 38 H        5.0220     0.0550    -0.9770 H     1 <1>   0.0800 
 39 H        5.6340    -0.2180     0.6300 H     1 <1>   0.0800 
 40 H       -0.7970     6.3040     0.2300 H     1 <1>   0.0800 
 41 H       -2.1090     5.7970     1.3010 H     1 <1>   0.0800 
 42 H        5.2500     2.1600     1.3910 H     1 <1>   0.0800 
 43 H        4.5250     2.3080    -0.8460 H     1 <1>   0.0800 
 44 H        4.7070     4.4140     1.4990 H     1 <1>   0.0800 
 45 H        4.1130     4.6770    -0.1170 H     1 <1>   0.0800 
 46 H        6.8870     1.6280     0.5410 H     1 <1>   0.0800 
 47 H       -2.3570     7.8270    -0.9470 H     1 <1>   0.0800 
 48 H       -2.3020     8.2200     0.7540 H     1 <1>   0.0800 
 49 H       -3.6600     7.3230     0.1170 H     1 <1>   0.0800 
 50 H        6.8680     3.8660     0.5260 H     1 <1>   0.0800 
 51 H        6.1970     3.8960    -1.0810 H     1 <1>   0.0800 
@<TRIPOS>BOND
  1   1   2  2   
  2   1   3  2   
  3   1   4  am  
  4   1   5  1   
  5   4   6  1   
  6   4   7  1   
  7   5  26  1   
  8   5  27  1   
  9   5  28  1   
 10   6   8  ar  
 11   6   9  ar  
 12   7  10  1   
 13   7  29  1   
 14   7  30  1   
 15   8  11  ar  
 16   8  31  1   
 17   9  12  ar  
 18   9  32  1   
 19  10  13  2   
 20  10  14  am  
 21  11  15  ar  
 22  11  33  1   
 23  12  15  ar  
 24  12  34  1   
 25  14  16  1   
 26  14  35  1   
 27  15  17  1   
 28  16  18  1   
 29  16  19  1   
 30  16  36  1   
 31  17  20  1   
 32  18  21  1   
 33  18  22  1   
 34  18  37  1   
 35  19  23  1   
 36  19  38  1   
 37  19  39  1   
 38  20  24  1   
 39  20  40  1   
 40  20  41  1   
 41  21  23  1   
 42  21  42  1   
 43  21  43  1   
 44  22  25  1   
 45  22  44  1   
 46  22  45  1   
 47  23  25  1   
 48  23  46  1   
 49  24  47  1   
 50  24  48  1   
 51  24  49  1   
 52  25  50  1   
 53  25  51  1   
@<TRIPOS>SUBSTRUCTURE
  1 ****   9 GROUP 4 **** **** 0

# MOE 2024.06 (io_trps.svl 2023.06)
