@<TRIPOS>MOLECULE
NONAME
49 51 1 0 0 
SMALL
USER_CHARGES


@<TRIPOS>ATOM
  1 S        0.8920    -0.0340     0.4930 S.3   1 <1>  -0.3320 
  2 C       -0.2190    -1.4480     0.3850 C.ar  1 <1>   0.1020 
  3 C        1.4080     0.3660    -1.2490 C.3   1 <1>   0.1310 
  4 C       -0.6330    -1.9740    -0.8300 C.ar  1 <1>  -0.1500 
  5 C       -0.6490    -1.9980     1.5800 C.ar  1 <1>  -0.1500 
  6 C        2.4160     1.5120    -1.2780 C.2   1 <1>   0.5690 
  7 C       -1.4810    -3.0690    -0.8390 C.ar  1 <1>  -0.1500 
  8 C       -1.4950    -3.0930     1.5630 C.ar  1 <1>  -0.1500 
  9 O        2.1470     2.4570    -1.9780 O.2   1 <1>  -0.5700 
 10 N        3.5990     1.4820    -0.5690 N.am  1 <1>  -0.6600 
 11 C       -1.9090    -3.6280     0.3540 C.ar  1 <1>  -0.1500 
 12 C        4.1130     0.2990     0.1900 C.3   1 <1>   0.1400 
 13 C        4.4210     2.7260    -0.4270 C.3   1 <1>   0.1400 
 14 C        5.6190     0.0750    -0.0580 C.3   1 <1>   0.3430 
 15 C        5.9100     2.4500    -0.6930 C.3   1 <1>   0.3430 
 16 N        6.4350     1.3250     0.1600 N.4   1 <1>  -0.9590 
 17 C        7.8930     1.1160    -0.1100 C.3   1 <1>   0.3430 
 18 C        8.5490     0.1930     0.9190 C.3   1 <1>  -0.0170 
 19 C       10.0330     0.1240     0.6210 C.ar  1 <1>  -0.1430 
 20 C       10.9120     1.0020     1.2380 C.ar  1 <1>  -0.1500 
 21 C       10.5230    -0.8090    -0.2800 C.ar  1 <1>  -0.1500 
 22 C       12.2650     0.9510     0.9520 C.ar  1 <1>  -0.1500 
 23 C       11.8760    -0.8600    -0.5660 C.ar  1 <1>  -0.1500 
 24 C       12.7470     0.0210     0.0480 C.ar  1 <1>  -0.1500 
 25 H        0.5180     0.6490    -1.7800 H     1 <1>   0.0800 
 26 H        1.8290    -0.5220    -1.6790 H     1 <1>   0.0800 
 27 H       -0.3200    -1.5520    -1.7640 H     1 <1>   0.1500 
 28 H       -0.3240    -1.5740     2.5130 H     1 <1>   0.1500 
 29 H       -1.8100    -3.4880    -1.7740 H     1 <1>   0.1500 
 30 H       -1.8330    -3.5270     2.4890 H     1 <1>   0.1500 
 31 H       -2.5670    -4.4800     0.3420 H     1 <1>   0.1500 
 32 H        3.5880    -0.5930    -0.1020 H     1 <1>   0.0800 
 33 H        3.9360     0.4510     1.2410 H     1 <1>   0.0800 
 34 H        4.2950     3.1190     0.5670 H     1 <1>   0.0800 
 35 H        4.0860     3.4850    -1.1140 H     1 <1>   0.0800 
 36 H        5.7490    -0.2640    -1.0720 H     1 <1>   0.0800 
 37 H        5.9640    -0.7080     0.5970 H     1 <1>   0.0800 
 38 H        6.4710     3.3500    -0.5020 H     1 <1>   0.0800 
 39 H        6.0290     2.2040    -1.7360 H     1 <1>   0.0800 
 40 H        6.3230     1.6110     1.1430 H     1 <1>   0.4500 
 41 H        8.4040     2.0650    -0.0810 H     1 <1>   0.0800 
 42 H        8.0310     0.7020    -1.0970 H     1 <1>   0.0800 
 43 H        8.1360    -0.7980     0.8670 H     1 <1>   0.0800 
 44 H        8.4030     0.5770     1.9130 H     1 <1>   0.0800 
 45 H       10.5610     1.7310     1.9480 H     1 <1>   0.1500 
 46 H        9.8650    -1.5080    -0.7660 H     1 <1>   0.1500 
 47 H       12.9460     1.6320     1.4320 H     1 <1>   0.1500 
 48 H       12.2550    -1.5860    -1.2650 H     1 <1>   0.1500 
 49 H       13.8000    -0.0190    -0.1730 H     1 <1>   0.1500 
@<TRIPOS>BOND
  1   1   2  1   
  2   1   3  1   
  3   2   4  ar  
  4   2   5  ar  
  5   3   6  1   
  6   3  25  1   
  7   3  26  1   
  8   4   7  ar  
  9   4  27  1   
 10   5   8  ar  
 11   5  28  1   
 12   6   9  2   
 13   6  10  am  
 14   7  11  ar  
 15   7  29  1   
 16   8  11  ar  
 17   8  30  1   
 18  10  12  1   
 19  10  13  1   
 20  11  31  1   
 21  12  14  1   
 22  12  32  1   
 23  12  33  1   
 24  13  15  1   
 25  13  34  1   
 26  13  35  1   
 27  14  16  1   
 28  14  36  1   
 29  14  37  1   
 30  15  16  1   
 31  15  38  1   
 32  15  39  1   
 33  16  17  1   
 34  16  40  1   
 35  17  18  1   
 36  17  41  1   
 37  17  42  1   
 38  18  19  1   
 39  18  43  1   
 40  18  44  1   
 41  19  20  ar  
 42  19  21  ar  
 43  20  22  ar  
 44  20  45  1   
 45  21  23  ar  
 46  21  46  1   
 47  22  24  ar  
 48  22  47  1   
 49  23  24  ar  
 50  23  48  1   
 51  24  49  1   
@<TRIPOS>SUBSTRUCTURE
  1 ****  12 GROUP 4 **** **** 0

# MOE 2024.06 (io_trps.svl 2023.06)
