@<TRIPOS>MOLECULE
NONAME
41 41 1 0 0 
SMALL
USER_CHARGES


@<TRIPOS>ATOM
  1 O      -11.8330     2.7020     0.0970 O.3   1 <1>  -0.3630 
  2 C      -10.5290     2.6310    -0.2970 C.ar  1 <1>   0.0830 
  3 C      -12.8080     1.7680    -0.3100 C.3   1 <1>   0.1200 
  4 C       -9.6220     3.6420     0.0690 C.ar  1 <1>   0.0830 
  5 C      -10.0650     1.5570    -1.0550 C.ar  1 <1>  -0.1500 
  6 C      -14.1530     2.2040     0.2710 C.3   1 <1>  -0.1600 
  7 O       -9.8900     4.7630     0.7980 O.3   1 <1>  -0.3630 
  8 C       -8.2980     3.5410    -0.3230 C.ar  1 <1>  -0.1500 
  9 C       -8.7370     1.4730    -1.4360 C.ar  1 <1>  -0.1500 
 10 C      -15.2720     1.2350    -0.1250 C.3   1 <1>  -0.2400 
 11 C      -11.1990     5.2160     1.0690 C.3   1 <1>   0.0400 
 12 C       -7.8430     2.4640    -1.0670 C.ar  1 <1>  -0.1430 
 13 C       -6.3850     2.3770    -1.4510 C.3   1 <1>   0.4860 
 14 N       -5.6810     1.8250    -0.2770 N.4   1 <1>  -0.9060 
 15 C       -4.2200     1.6930    -0.4650 C.3   1 <1>   0.3430 
 16 C       -3.6080     1.1150     0.8090 C.3   1 <1>  -0.1600 
 17 C       -2.0910     0.9550     0.6670 C.3   1 <1>  -0.2400 
 18 H      -12.5300     0.7990     0.0660 H     1 <1>   0.0800 
 19 H      -12.8450     1.7600    -1.3850 H     1 <1>   0.0800 
 20 H      -10.7250     0.7670    -1.3600 H     1 <1>   0.1500 
 21 H      -14.3930     3.1890    -0.0900 H     1 <1>   0.0800 
 22 H      -14.0800     2.2390     1.3450 H     1 <1>   0.0800 
 23 H       -7.6340     4.3360    -0.0310 H     1 <1>   0.1500 
 24 H       -8.4200     0.6270    -2.0230 H     1 <1>   0.1500 
 25 H      -15.3750     1.1950    -1.1960 H     1 <1>   0.0800 
 26 H      -16.2070     1.5630     0.2940 H     1 <1>   0.0800 
 27 H      -15.0630     0.2450     0.2420 H     1 <1>   0.0800 
 28 H      -11.1320     6.1920     1.5130 H     1 <1>   0.0800 
 29 H      -11.6680     4.5350     1.7570 H     1 <1>   0.0800 
 30 H      -11.7500     5.2690     0.1470 H     1 <1>   0.0800 
 31 H       -6.0100     3.3590    -1.6930 H     1 <1>   0.0800 
 32 H       -6.2640     1.7330    -2.3070 H     1 <1>   0.0800 
 33 H       -6.1020     0.9160    -0.0520 H     1 <1>   0.4500 
 34 H       -5.8880     2.4310     0.5260 H     1 <1>   0.4500 
 35 H       -3.7820     2.6580    -0.6700 H     1 <1>   0.0800 
 36 H       -4.0090     1.0370    -1.2950 H     1 <1>   0.0800 
 37 H       -4.0360     0.1500     1.0180 H     1 <1>   0.0800 
 38 H       -3.8070     1.7690     1.6420 H     1 <1>   0.0800 
 39 H       -1.8480     0.2850    -0.1400 H     1 <1>   0.0800 
 40 H       -1.6780     0.5470     1.5750 H     1 <1>   0.0800 
 41 H       -1.6180     1.9050     0.4840 H     1 <1>   0.0800 
@<TRIPOS>BOND
  1   1   2  1   
  2   1   3  1   
  3   2   4  ar  
  4   2   5  ar  
  5   3   6  1   
  6   3  18  1   
  7   3  19  1   
  8   4   7  1   
  9   4   8  ar  
 10   5   9  ar  
 11   5  20  1   
 12   6  10  1   
 13   6  21  1   
 14   6  22  1   
 15   7  11  1   
 16   8  12  ar  
 17   8  23  1   
 18   9  12  ar  
 19   9  24  1   
 20  10  25  1   
 21  10  26  1   
 22  10  27  1   
 23  11  28  1   
 24  11  29  1   
 25  11  30  1   
 26  12  13  1   
 27  13  14  1   
 28  13  31  1   
 29  13  32  1   
 30  14  15  1   
 31  14  33  1   
 32  14  34  1   
 33  15  16  1   
 34  15  35  1   
 35  15  36  1   
 36  16  17  1   
 37  16  37  1   
 38  16  38  1   
 39  17  39  1   
 40  17  40  1   
 41  17  41  1   
@<TRIPOS>SUBSTRUCTURE
  1 ****   8 GROUP 4 **** **** 0

# MOE 2024.06 (io_trps.svl 2023.06)
