@<TRIPOS>MOLECULE
NONAME
31 34 1 0 0 
SMALL
USER_CHARGES


@<TRIPOS>ATOM
  1 CL      -0.0620    -0.0460     0.5040 Cl    1 <1>  -0.1770 
  2 C       -1.8010    -0.0200     0.3470 C.ar  1 <1>   0.1770 
  3 C       -2.4300    -0.9940    -0.4040 C.ar  1 <1>  -0.1500 
  4 C       -2.5250     0.9750     0.9750 C.ar  1 <1>  -0.1500 
  5 C       -3.8090    -0.9700    -0.5260 C.ar  1 <1>  -0.1500 
  6 C       -3.9040     0.9910     0.8480 C.ar  1 <1>  -0.1500 
  7 C       -4.5670     0.0210     0.0970 C.ar  1 <1>   0.1170 
  8 N       -5.9760     0.0410    -0.0310 N.am  1 <1>  -0.2370 
  9 C       -6.8020    -1.0700    -0.0950 C.2   1 <1>   0.5690 
 10 C       -6.7730     1.1740    -0.1120 C.2   1 <1>   0.5690 
 11 O       -6.5410    -2.2150     0.1670 O.2   1 <1>  -0.5700 
 12 C       -8.1350    -0.5940    -0.5870 C.3   1 <1>  -0.0190 
 13 O       -6.4340     2.3150    -0.2860 O.2   1 <1>  -0.5700 
 14 C       -8.1930     0.7390     0.1260 C.3   1 <1>  -0.0190 
 15 C       -9.6170    -0.9370    -0.6390 C.3   1 <1>   0.2000 
 16 C       -9.6330     1.1710    -0.2230 C.3   1 <1>   0.2000 
 17 O      -10.0140     0.2670    -1.2050 O.3   1 <1>  -0.5600 
 18 C      -10.3830    -0.8750     0.6970 C.3   1 <1>  -0.1600 
 19 C      -10.5480     0.6470     0.8900 C.3   1 <1>  -0.1600 
 20 H       -1.8460    -1.7600    -0.8830 H     1 <1>   0.1500 
 21 H       -2.0140     1.7240     1.5530 H     1 <1>   0.1500 
 22 H       -4.2940    -1.7320    -1.1100 H     1 <1>   0.1500 
 23 H       -4.4630     1.7700     1.3370 H     1 <1>   0.1500 
 24 H       -7.9110    -0.4360    -1.6320 H     1 <1>   0.0800 
 25 H       -8.1830     0.5900     1.1930 H     1 <1>   0.0800 
 26 H       -9.8690    -1.7660    -1.2790 H     1 <1>   0.0800 
 27 H       -9.7780     2.1940    -0.5280 H     1 <1>   0.0800 
 28 H       -9.8230    -1.3440     1.4880 H     1 <1>   0.0800 
 29 H      -11.3400    -1.3580     0.6040 H     1 <1>   0.0800 
 30 H      -11.5620     0.9510     0.6920 H     1 <1>   0.0800 
 31 H      -10.2660     0.9870     1.8720 H     1 <1>   0.0800 
@<TRIPOS>BOND
  1   1   2  1   
  2   2   3  ar  
  3   2   4  ar  
  4   3   5  ar  
  5   3  20  1   
  6   4   6  ar  
  7   4  21  1   
  8   5   7  ar  
  9   5  22  1   
 10   6   7  ar  
 11   6  23  1   
 12   7   8  1   
 13   8   9  am  
 14   8  10  am  
 15   9  11  2   
 16   9  12  1   
 17  10  13  2   
 18  10  14  1   
 19  12  14  1   
 20  12  15  1   
 21  12  24  1   
 22  14  16  1   
 23  14  25  1   
 24  15  17  1   
 25  15  18  1   
 26  15  26  1   
 27  16  17  1   
 28  16  19  1   
 29  16  27  1   
 30  18  19  1   
 31  18  28  1   
 32  18  29  1   
 33  19  30  1   
 34  19  31  1   
@<TRIPOS>SUBSTRUCTURE
  1 ****   8 GROUP 4 **** **** 0

# MOE 2024.06 (io_trps.svl 2023.06)
