@<TRIPOS>MOLECULE
NONAME
31 32 1 0 0 
SMALL
USER_CHARGES


@<TRIPOS>ATOM
  1 O       -1.7150    -1.4240    -1.6520 O.2   1 <1>  -0.5700 
  2 C       -0.9590    -1.8850    -0.8340 C.2   1 <1>   0.6590 
  3 O       -0.8890    -1.4070     0.4030 O.3   1 <1>  -0.4300 
  4 C       -0.0750    -3.0640    -1.1540 C.3   1 <1>   0.0820 
  5 C       -1.6600    -0.3040     0.8130 C.3   1 <1>   0.1200 
  6 C        1.3690    -2.7370    -0.8590 C.2   1 <1>   0.3350 
  7 C       -1.3190    -0.0070     2.2700 C.3   1 <1>  -0.2400 
  8 N        2.0370    -1.8590    -1.5400 N.2   1 <1>  -0.7070 
  9 N        2.0140    -3.3670     0.1220 N.2   1 <1>  -0.5650 
 10 N        3.2270    -1.8990    -0.9480 N.pl3 1 <1>   0.6010 
 11 C        3.1870    -2.8230     0.0540 C.2   1 <1>   0.3120 
 12 C        4.3910    -1.1880    -1.2000 C.2   1 <1>  -0.1690 
 13 N        4.2630    -3.1100     0.8580 N.2   1 <1>  -0.5760 
 14 C        5.4570    -1.4690    -0.4050 C.2   1 <1>  -0.1360 
 15 C        4.3950    -0.1620    -2.3260 C.3   1 <1>  -0.1020 
 16 C        5.3470    -2.4490     0.6230 C.2   1 <1>   0.3750 
 17 C        6.5630    -2.7250     1.4800 C.3   1 <1>  -0.1790 
 18 H       -0.1760    -3.3120    -2.1930 H     1 <1>   0.0800 
 19 H       -0.3870    -3.9040    -0.5650 H     1 <1>   0.0800 
 20 H       -2.7010    -0.5550     0.7010 H     1 <1>   0.0800 
 21 H       -1.4190     0.5340     0.1800 H     1 <1>   0.0800 
 22 H       -1.5530    -0.8560     2.8860 H     1 <1>   0.0800 
 23 H       -1.8910     0.8350     2.6130 H     1 <1>   0.0800 
 24 H       -0.2730     0.2260     2.3630 H     1 <1>   0.0800 
 25 H        6.4020    -0.9690    -0.5240 H     1 <1>   0.1500 
 26 H        4.1660    -0.6420    -3.2620 H     1 <1>   0.0800 
 27 H        5.3560     0.3140    -2.4090 H     1 <1>   0.0800 
 28 H        3.6510     0.5920    -2.1390 H     1 <1>   0.0800 
 29 H        7.3710    -3.0770     0.8660 H     1 <1>   0.0800 
 30 H        6.3370    -3.4770     2.2150 H     1 <1>   0.0800 
 31 H        6.8650    -1.8280     1.9880 H     1 <1>   0.0800 
@<TRIPOS>BOND
  1   1   2  2   
  2   2   3  1   
  3   2   4  1   
  4   3   5  1   
  5   4   6  1   
  6   4  18  1   
  7   4  19  1   
  8   5   7  1   
  9   5  20  1   
 10   5  21  1   
 11   6   8  2   
 12   6   9  1   
 13   7  22  1   
 14   7  23  1   
 15   7  24  1   
 16   8  10  1   
 17   9  11  2   
 18  10  11  1   
 19  10  12  1   
 20  11  13  1   
 21  12  14  2   
 22  12  15  1   
 23  13  16  2   
 24  14  16  1   
 25  14  25  1   
 26  15  26  1   
 27  15  27  1   
 28  15  28  1   
 29  16  17  1   
 30  17  29  1   
 31  17  30  1   
 32  17  31  1   
@<TRIPOS>SUBSTRUCTURE
  1 ****   6 GROUP 4 **** **** 0

# MOE 2024.06 (io_trps.svl 2023.06)
