@<TRIPOS>MOLECULE
NONAME
40 42 1 0 0 
SMALL
USER_CHARGES


@<TRIPOS>ATOM
  1 S       -1.3590    -0.0990    -1.7920 S.3   1 <1>  -0.0800 
  2 C       -2.0070     1.2240    -0.8150 C.2   1 <1>  -0.0450 
  3 C       -0.0950     0.9130    -2.4610 C.2   1 <1>  -0.1100 
  4 C       -3.1470     0.9740     0.0160 C.2   1 <1>   0.4740 
  5 C       -1.2520     2.3340    -1.0400 C.2   1 <1>  -0.1500 
  6 C       -0.1800     2.1590    -1.9620 C.2   1 <1>  -0.1500 
  7 N       -3.7830    -0.1220     0.1570 N.2   1 <1>  -0.5120 
  8 C       -3.7100     2.0940     0.8580 C.3   1 <1>  -0.0990 
  9 N       -4.8300     0.0510     1.0320 N.am  1 <1>  -0.2980 
 10 C       -4.9680     1.4610     1.4400 C.3   1 <1>   0.3640 
 11 C       -5.6650    -0.9180     1.5540 C.2   1 <1>   0.5690 
 12 C       -6.2270     2.0970     0.8470 C.ar  1 <1>  -0.1440 
 13 O       -6.4240    -0.6910     2.4680 O.2   1 <1>  -0.5700 
 14 C       -5.6260    -2.3270     0.9800 C.3   1 <1>  -0.0990 
 15 C       -7.0460     2.8770     1.6510 C.ar  1 <1>  -0.1500 
 16 C       -6.5700     1.9180    -0.4880 C.ar  1 <1>  -0.1500 
 17 C       -6.3950    -2.4380    -0.3460 C.3   1 <1>  -0.2400 
 18 C       -8.1780     3.4750     1.1280 C.ar  1 <1>  -0.1500 
 19 C       -7.7030     2.5140    -1.0140 C.ar  1 <1>  -0.1500 
 20 C       -8.5150     3.3020    -0.2040 C.ar  1 <1>   0.0820 
 21 O       -9.6400     3.9240    -0.6370 O.3   1 <1>  -0.3630 
 22 C      -10.1050     3.7580    -1.9580 C.3   1 <1>   0.0400 
 23 H        0.5850     0.4610    -3.1630 H     1 <1>   0.1500 
 24 H       -1.4140     3.2930    -0.5790 H     1 <1>   0.1500 
 25 H        0.4790     2.9720    -2.2120 H     1 <1>   0.1500 
 26 H       -3.9350     2.9600     0.2640 H     1 <1>   0.0800 
 27 H       -3.0230     2.3530     1.6410 H     1 <1>   0.0800 
 28 H       -4.9720     1.5240     2.5140 H     1 <1>   0.0800 
 29 H       -6.0580    -3.0000     1.6980 H     1 <1>   0.0800 
 30 H       -4.6030    -2.6180     0.8320 H     1 <1>   0.0800 
 31 H       -6.8110     3.0210     2.6910 H     1 <1>   0.1500 
 32 H       -5.9560     1.3070    -1.1270 H     1 <1>   0.1500 
 33 H       -7.4220    -2.1500    -0.2030 H     1 <1>   0.0800 
 34 H       -6.3640    -3.4500    -0.7090 H     1 <1>   0.0800 
 35 H       -5.9540    -1.7920    -1.0850 H     1 <1>   0.0800 
 36 H       -8.8130     4.0790     1.7520 H     1 <1>   0.1500 
 37 H       -7.9360     2.3530    -2.0480 H     1 <1>   0.1500 
 38 H      -11.0150     4.3200    -2.0640 H     1 <1>   0.0800 
 39 H      -10.2970     2.7140    -2.1310 H     1 <1>   0.0800 
 40 H       -9.3620     4.1330    -2.6390 H     1 <1>   0.0800 
@<TRIPOS>BOND
  1   1   2  1   
  2   1   3  1   
  3   2   4  1   
  4   2   5  2   
  5   3   6  2   
  6   3  23  1   
  7   4   7  2   
  8   4   8  1   
  9   5   6  1   
 10   5  24  1   
 11   6  25  1   
 12   7   9  1   
 13   8  10  1   
 14   8  26  1   
 15   8  27  1   
 16   9  10  1   
 17   9  11  am  
 18  10  12  1   
 19  10  28  1   
 20  11  13  2   
 21  11  14  1   
 22  12  15  ar  
 23  12  16  ar  
 24  14  17  1   
 25  14  29  1   
 26  14  30  1   
 27  15  18  ar  
 28  15  31  1   
 29  16  19  ar  
 30  16  32  1   
 31  17  33  1   
 32  17  34  1   
 33  17  35  1   
 34  18  20  ar  
 35  18  36  1   
 36  19  20  ar  
 37  19  37  1   
 38  20  21  1   
 39  21  22  1   
 40  22  38  1   
 41  22  39  1   
 42  22  40  1   
@<TRIPOS>SUBSTRUCTURE
  1 ****  10 GROUP 4 **** **** 0

# MOE 2024.06 (io_trps.svl 2023.06)
