@<TRIPOS>MOLECULE
NONAME
52 54 1 0 0 
SMALL
USER_CHARGES


@<TRIPOS>ATOM
  1 O        1.5510    -1.8960     2.1970 O.2   1 <1>  -0.5700 
  2 C        0.9520    -1.8040     1.1530 C.2   1 <1>   0.5690 
  3 N        1.2240    -0.8680     0.1990 N.am  1 <1>  -0.5470 
  4 C       -0.1930    -2.7720     0.8550 C.3   1 <1>   0.1710 
  5 C        2.1460     0.1840     0.2180 C.ar  1 <1>   0.1170 
  6 N       -1.2420    -2.2010    -0.0400 N.3   1 <1>  -0.8100 
  7 C        3.5280    -0.0130     0.1320 C.ar  1 <1>  -0.1430 
  8 C        1.6520     1.4800     0.3010 C.ar  1 <1>  -0.1500 
  9 C       -2.1270    -3.2710    -0.5560 C.3   1 <1>   0.1100 
 10 C       -2.0600    -1.1950     0.6840 C.3   1 <1>   0.1100 
 11 C        4.3740     1.0860     0.1360 C.ar  1 <1>  -0.1500 
 12 C        4.1500    -1.4020     0.0180 C.3   1 <1>  -0.0170 
 13 C        2.5030     2.5690     0.3050 C.ar  1 <1>  -0.1500 
 14 C       -3.2340    -2.7300    -1.4830 C.3   1 <1>   0.2090 
 15 C       -3.1670    -0.5820    -0.1970 C.3   1 <1>   0.2090 
 16 C        3.8680     2.3710     0.2230 C.ar  1 <1>  -0.1500 
 17 C        4.1000    -1.9060    -1.4260 C.3   1 <1>  -0.2400 
 18 N       -4.0080    -1.6220    -0.8540 N.pl3 1 <1>  -0.8380 
 19 C       -5.2530    -1.9160    -0.2980 C.ar  1 <1>   0.1000 
 20 C       -6.4310    -1.5180    -0.9330 C.ar  1 <1>  -0.1430 
 21 C       -5.3410    -2.6130     0.9030 C.ar  1 <1>  -0.1500 
 22 C       -7.6580    -1.8180    -0.3640 C.ar  1 <1>  -0.1500 
 23 C       -6.3760    -0.7550    -2.2480 C.3   1 <1>  -0.0970 
 24 C       -6.5670    -2.9100     1.4660 C.ar  1 <1>  -0.1500 
 25 C       -7.7300    -2.5110     0.8320 C.ar  1 <1>  -0.1500 
 26 H        0.5250    -0.8630    -0.5500 H     1 <1>   0.3700 
 27 H       -0.6320    -3.0890     1.7850 H     1 <1>   0.0800 
 28 H        0.2430    -3.6360     0.3850 H     1 <1>   0.0800 
 29 H        0.5910     1.6350     0.3680 H     1 <1>   0.1500 
 30 H       -2.5890    -3.7920     0.2640 H     1 <1>   0.0800 
 31 H       -1.5390    -3.9820    -1.1090 H     1 <1>   0.0800 
 32 H       -1.4290    -0.3980     1.0360 H     1 <1>   0.0800 
 33 H       -2.5200    -1.6480     1.5450 H     1 <1>   0.0800 
 34 H        5.4380     0.9480     0.0700 H     1 <1>   0.1500 
 35 H        3.6430    -2.0940     0.6650 H     1 <1>   0.0800 
 36 H        5.1750    -1.3680     0.3450 H     1 <1>   0.0800 
 37 H        2.1060     3.5670     0.3730 H     1 <1>   0.1500 
 38 H       -3.9050    -3.5300    -1.7440 H     1 <1>   0.0800 
 39 H       -2.7860    -2.3670    -2.3910 H     1 <1>   0.0800 
 40 H       -2.7140     0.0280    -0.9580 H     1 <1>   0.0800 
 41 H       -3.7930     0.0540     0.4050 H     1 <1>   0.0800 
 42 H        4.5370     3.2140     0.2260 H     1 <1>   0.1500 
 43 H        3.0810    -1.9790    -1.7590 H     1 <1>   0.0800 
 44 H        4.5580    -2.8770    -1.4950 H     1 <1>   0.0800 
 45 H        4.6270    -1.2260    -2.0730 H     1 <1>   0.0800 
 46 H       -4.4420    -2.9230     1.3950 H     1 <1>   0.1500 
 47 H       -8.5680    -1.5130    -0.8490 H     1 <1>   0.1500 
 48 H       -5.8740    -1.3500    -2.9890 H     1 <1>   0.0800 
 49 H       -5.8270     0.1590    -2.1120 H     1 <1>   0.0800 
 50 H       -7.3610    -0.5170    -2.6040 H     1 <1>   0.0800 
 51 H       -6.6190    -3.4490     2.3960 H     1 <1>   0.1500 
 52 H       -8.6870    -2.7390     1.2660 H     1 <1>   0.1500 
@<TRIPOS>BOND
  1   1   2  2   
  2   2   3  am  
  3   2   4  1   
  4   3   5  1   
  5   3  26  1   
  6   4   6  1   
  7   4  27  1   
  8   4  28  1   
  9   5   7  ar  
 10   5   8  ar  
 11   6   9  1   
 12   6  10  1   
 13   7  11  ar  
 14   7  12  1   
 15   8  13  ar  
 16   8  29  1   
 17   9  14  1   
 18   9  30  1   
 19   9  31  1   
 20  10  15  1   
 21  10  32  1   
 22  10  33  1   
 23  11  16  ar  
 24  11  34  1   
 25  12  17  1   
 26  12  35  1   
 27  12  36  1   
 28  13  16  ar  
 29  13  37  1   
 30  14  18  1   
 31  14  38  1   
 32  14  39  1   
 33  15  18  1   
 34  15  40  1   
 35  15  41  1   
 36  16  42  1   
 37  17  43  1   
 38  17  44  1   
 39  17  45  1   
 40  18  19  1   
 41  19  20  ar  
 42  19  21  ar  
 43  20  22  ar  
 44  20  23  1   
 45  21  24  ar  
 46  21  46  1   
 47  22  25  ar  
 48  22  47  1   
 49  23  48  1   
 50  23  49  1   
 51  23  50  1   
 52  24  25  ar  
 53  24  51  1   
 54  25  52  1   
@<TRIPOS>SUBSTRUCTURE
  1 ****  10 GROUP 4 **** **** 0

# MOE 2024.06 (io_trps.svl 2023.06)
