@<TRIPOS>MOLECULE
NONAME
28 28 1 0 0 
SMALL
USER_CHARGES


@<TRIPOS>ATOM
  1 CL       1.3250    -0.5890     2.7720 Cl    1 <1>  -0.1770 
  2 C        2.1500    -1.1130     1.3240 C.ar  1 <1>   0.1770 
  3 C        1.7010    -2.2080     0.6050 C.ar  1 <1>   0.1770 
  4 C        3.2680    -0.4110     0.9100 C.ar  1 <1>  -0.1500 
  5 CL       0.2940    -3.1050     1.1210 Cl    1 <1>  -0.1770 
  6 C        2.3690    -2.6090    -0.5380 C.ar  1 <1>  -0.1500 
  7 C        3.9490    -0.8110    -0.2350 C.ar  1 <1>  -0.1440 
  8 C        3.4910    -1.9090    -0.9560 C.ar  1 <1>  -0.1500 
  9 C        5.1810    -0.0570    -0.6910 C.3   1 <1>   0.4870 
 10 N        6.3400    -0.6820    -0.0190 N.4   1 <1>  -0.9060 
 11 C        7.6350    -0.0360    -0.3880 C.3   1 <1>   0.3430 
 12 C        8.8230    -0.6960     0.3160 C.3   1 <1>   0.1200 
 13 O        9.9570    -0.0190    -0.1010 O.3   1 <1>  -0.5600 
 14 C       11.1490    -0.4930     0.4460 C.3   1 <1>   0.0400 
 15 H        3.5810     0.4390     1.4920 H     1 <1>   0.1500 
 16 H        2.0070    -3.4590    -1.0900 H     1 <1>   0.1500 
 17 H        3.9930    -2.2340    -1.8540 H     1 <1>   0.1500 
 18 H        5.1000     0.9840    -0.4170 H     1 <1>   0.0800 
 19 H        5.2810    -0.1270    -1.7620 H     1 <1>   0.0800 
 20 H        6.3510    -1.6790    -0.2640 H     1 <1>   0.4500 
 21 H        6.1880    -0.6320     0.9950 H     1 <1>   0.4500 
 22 H        7.6140     1.0070    -0.1140 H     1 <1>   0.0800 
 23 H        7.7880    -0.1060    -1.4530 H     1 <1>   0.0800 
 24 H        8.9210    -1.7290     0.0290 H     1 <1>   0.0800 
 25 H        8.7450    -0.6000     1.3860 H     1 <1>   0.0800 
 26 H       11.9570     0.1010     0.0550 H     1 <1>   0.0800 
 27 H       11.2920    -1.5220     0.1620 H     1 <1>   0.0800 
 28 H       11.1180    -0.3960     1.5180 H     1 <1>   0.0800 
@<TRIPOS>BOND
  1   1   2  1   
  2   2   3  ar  
  3   2   4  ar  
  4   3   5  1   
  5   3   6  ar  
  6   4   7  ar  
  7   4  15  1   
  8   6   8  ar  
  9   6  16  1   
 10   7   8  ar  
 11   7   9  1   
 12   8  17  1   
 13   9  10  1   
 14   9  18  1   
 15   9  19  1   
 16  10  11  1   
 17  10  20  1   
 18  10  21  1   
 19  11  12  1   
 20  11  22  1   
 21  11  23  1   
 22  12  13  1   
 23  12  24  1   
 24  12  25  1   
 25  13  14  1   
 26  14  26  1   
 27  14  27  1   
 28  14  28  1   
@<TRIPOS>SUBSTRUCTURE
  1 ****   7 GROUP 4 **** **** 0

# MOE 2024.06 (io_trps.svl 2023.06)
