@<TRIPOS>MOLECULE
NONAME
44 47 1 0 0 
SMALL
USER_CHARGES


@<TRIPOS>ATOM
  1 O       -4.3870     3.7060     1.4850 O.2   1 <1>  -0.5700 
  2 C       -4.6340     2.6530     0.9660 C.2   1 <1>   0.4480 
  3 C       -6.0540     2.2310     0.5470 C.3   1 <1>   0.0610 
  4 C       -3.4940     1.6610     0.6990 C.3   1 <1>   0.4040 
  5 C       -7.0930     3.3070     0.9590 C.3   1 <1>  -0.1600 
  6 C       -6.4560     0.8950     1.2260 C.3   1 <1>  -0.1600 
  7 C       -6.1380     2.0500    -0.9910 C.3   1 <1>  -0.1600 
  8 N       -2.1290     2.2510     0.9600 N.4   1 <1>  -0.9590 
  9 C       -8.5160     2.8960     0.5410 C.3   1 <1>  -0.0800 
 10 C       -7.8760     0.4720     0.8050 C.3   1 <1>  -0.0800 
 11 C       -7.5570     1.6280    -1.4160 C.3   1 <1>  -0.0800 
 12 C       -1.7350     3.2900    -0.0220 C.3   1 <1>   0.3430 
 13 C       -1.0160     1.2790     1.0250 C.3   1 <1>   0.3430 
 14 C       -8.8760     1.5650     1.2230 C.3   1 <1>  -0.1600 
 15 C       -8.5600     2.7140    -0.9860 C.3   1 <1>  -0.1600 
 16 C       -7.9220     0.3020    -0.7240 C.3   1 <1>  -0.1600 
 17 C       -0.2320     3.4290     0.1700 C.3   1 <1>  -0.1600 
 18 C        0.2350     2.1260     0.8280 C.3   1 <1>  -0.1600 
 19 H       -3.5510     1.3240    -0.3210 H     1 <1>   0.0800 
 20 H       -3.6410     0.8100     1.3410 H     1 <1>   0.0800 
 21 H       -6.8480     4.2500     0.4990 H     1 <1>   0.0800 
 22 H       -7.0650     3.4560     2.0250 H     1 <1>   0.0800 
 23 H       -6.4260     1.0080     2.2970 H     1 <1>   0.0800 
 24 H       -5.7770     0.1070     0.9580 H     1 <1>   0.0800 
 25 H       -5.4470     1.2980    -1.3280 H     1 <1>   0.0800 
 26 H       -5.8850     2.9750    -1.4810 H     1 <1>   0.0800 
 27 H       -2.1960     2.7490     1.8630 H     1 <1>   0.4500 
 28 H       -9.2180     3.6580     0.8370 H     1 <1>   0.0800 
 29 H       -8.1390    -0.4570     1.2820 H     1 <1>   0.0800 
 30 H       -7.5990     1.5040    -2.4850 H     1 <1>   0.0800 
 31 H       -2.2510     4.2210     0.1560 H     1 <1>   0.0800 
 32 H       -1.9410     2.9490    -1.0240 H     1 <1>   0.0800 
 33 H       -1.0990     0.5690     0.2170 H     1 <1>   0.0800 
 34 H       -0.9970     0.7530     1.9670 H     1 <1>   0.0800 
 35 H       -9.8730     1.2720     0.9430 H     1 <1>   0.0800 
 36 H       -8.8630     1.6860     2.2920 H     1 <1>   0.0800 
 37 H       -8.3240     3.6450    -1.4720 H     1 <1>   0.0800 
 38 H       -9.5540     2.4330    -1.2890 H     1 <1>   0.0800 
 39 H       -8.9110    -0.0010    -1.0240 H     1 <1>   0.0800 
 40 H       -7.2420    -0.4740    -1.0300 H     1 <1>   0.0800 
 41 H       -0.0270     4.2680     0.8130 H     1 <1>   0.0800 
 42 H        0.2550     3.5990    -0.7760 H     1 <1>   0.0800 
 43 H        0.9490     1.6030     0.2150 H     1 <1>   0.0800 
 44 H        0.6910     2.3300     1.7820 H     1 <1>   0.0800 
@<TRIPOS>BOND
  1   1   2  2   
  2   2   3  1   
  3   2   4  1   
  4   3   5  1   
  5   3   6  1   
  6   3   7  1   
  7   4   8  1   
  8   4  19  1   
  9   4  20  1   
 10   5   9  1   
 11   5  21  1   
 12   5  22  1   
 13   6  10  1   
 14   6  23  1   
 15   6  24  1   
 16   7  11  1   
 17   7  25  1   
 18   7  26  1   
 19   8  12  1   
 20   8  13  1   
 21   8  27  1   
 22   9  14  1   
 23   9  15  1   
 24   9  28  1   
 25  10  14  1   
 26  10  16  1   
 27  10  29  1   
 28  11  15  1   
 29  11  16  1   
 30  11  30  1   
 31  12  17  1   
 32  12  31  1   
 33  12  32  1   
 34  13  18  1   
 35  13  33  1   
 36  13  34  1   
 37  14  35  1   
 38  14  36  1   
 39  15  37  1   
 40  15  38  1   
 41  16  39  1   
 42  16  40  1   
 43  17  18  1   
 44  17  41  1   
 45  17  42  1   
 46  18  43  1   
 47  18  44  1   
@<TRIPOS>SUBSTRUCTURE
  1 ****   2 GROUP 4 **** **** 0

# MOE 2024.06 (io_trps.svl 2023.06)
