@<TRIPOS>MOLECULE
NONAME
51 53 1 0 0 
SMALL
USER_CHARGES


@<TRIPOS>ATOM
  1 O       -6.1530     5.1060    -0.2700 O.3   1 <1>  -0.5600 
  2 C       -7.4590     4.9530    -0.7380 C.3   1 <1>   0.2640 
  3 C       -5.2050     4.2900    -0.8850 C.3   1 <1>   0.1200 
  4 C       -8.3420     5.9560    -0.0180 C.ar  1 <1>  -0.1440 
  5 C       -3.8390     4.6030    -0.2580 C.3   1 <1>   0.2000 
  6 C       -8.7080     5.7400     1.3020 C.ar  1 <1>  -0.1500 
  7 C       -8.7920     7.0950    -0.6700 C.ar  1 <1>  -0.1500 
  8 O       -3.6960     5.9890    -0.1860 O.3   1 <1>  -0.6800 
  9 C       -2.6500     4.0140    -1.0470 C.3   1 <1>   0.3430 
 10 C       -9.5190     6.6480     1.9620 C.ar  1 <1>  -0.1500 
 11 C       -9.6030     8.0030    -0.0110 C.ar  1 <1>  -0.1500 
 12 N       -1.4090     4.8040    -0.7750 N.4   1 <1>  -0.9590 
 13 C       -9.9680     7.7800     1.3050 C.ar  1 <1>  -0.1500 
 14 C       -0.3990     4.7380    -1.8910 C.3   1 <1>   0.3430 
 15 C       -0.7890     4.4830     0.5630 C.3   1 <1>   0.3430 
 16 C        0.8550     5.5920    -1.6050 C.3   1 <1>   0.2090 
 17 C        0.4610     5.3410     0.8530 C.3   1 <1>   0.2090 
 18 N        1.4350     5.2540    -0.2730 N.pl3 1 <1>  -0.8380 
 19 C        2.7060     5.7560    -0.0210 C.ar  1 <1>   0.1000 
 20 C        2.9230     7.1130     0.1960 C.ar  1 <1>  -0.1500 
 21 C        3.7910     4.8910     0.0150 C.ar  1 <1>  -0.1500 
 22 C        4.1960     7.5920     0.4440 C.ar  1 <1>  -0.1500 
 23 C        5.0660     5.3660     0.2630 C.ar  1 <1>  -0.1500 
 24 C        5.2710     6.7190     0.4780 C.ar  1 <1>  -0.1500 
 25 H       -7.7890     3.9490    -0.5310 H     1 <1>   0.0800 
 26 H       -7.4740     5.1290    -1.8000 H     1 <1>   0.0800 
 27 H       -5.1990     4.5070    -1.9400 H     1 <1>   0.0800 
 28 H       -5.4740     3.2590    -0.7260 H     1 <1>   0.0800 
 29 H       -3.8280     4.2250     0.7500 H     1 <1>   0.0800 
 30 H       -8.3600     4.8650     1.8220 H     1 <1>   0.1500 
 31 H       -8.5150     7.2830    -1.6920 H     1 <1>   0.1500 
 32 H       -4.5890     6.3530     0.0450 H     1 <1>   0.4000 
 33 H       -2.8850     4.0760    -2.0960 H     1 <1>   0.0800 
 34 H       -2.5080     2.9750    -0.7990 H     1 <1>   0.0800 
 35 H       -9.8000     6.4740     2.9860 H     1 <1>   0.1500 
 36 H       -9.9510     8.8850    -0.5220 H     1 <1>   0.1500 
 37 H       -1.7650     5.7770    -0.7000 H     1 <1>   0.4500 
 38 H      -10.5970     8.4860     1.8170 H     1 <1>   0.1500 
 39 H       -0.8460     5.0720    -2.8120 H     1 <1>   0.0800 
 40 H       -0.0800     3.7180    -2.0270 H     1 <1>   0.0800 
 41 H       -0.4940     3.4480     0.5850 H     1 <1>   0.0800 
 42 H       -1.5100     4.6430     1.3480 H     1 <1>   0.0800 
 43 H        0.6000     6.6370    -1.6350 H     1 <1>   0.0800 
 44 H        1.5940     5.4100    -2.3680 H     1 <1>   0.0800 
 45 H        0.9330     4.9920     1.7560 H     1 <1>   0.0800 
 46 H        0.1710     6.3660     1.0060 H     1 <1>   0.0800 
 47 H        2.0950     7.7950     0.1700 H     1 <1>   0.1500 
 48 H        3.6290     3.8430    -0.1510 H     1 <1>   0.1500 
 49 H        4.3550     8.6430     0.6110 H     1 <1>   0.1500 
 50 H        5.9000     4.6860     0.2890 H     1 <1>   0.1500 
 51 H        6.2620     7.0900     0.6710 H     1 <1>   0.1500 
@<TRIPOS>BOND
  1   1   2  1   
  2   1   3  1   
  3   2   4  1   
  4   2  25  1   
  5   2  26  1   
  6   3   5  1   
  7   3  27  1   
  8   3  28  1   
  9   4   6  ar  
 10   4   7  ar  
 11   5   8  1   
 12   5   9  1   
 13   5  29  1   
 14   6  10  ar  
 15   6  30  1   
 16   7  11  ar  
 17   7  31  1   
 18   8  32  1   
 19   9  12  1   
 20   9  33  1   
 21   9  34  1   
 22  10  13  ar  
 23  10  35  1   
 24  11  13  ar  
 25  11  36  1   
 26  12  14  1   
 27  12  15  1   
 28  12  37  1   
 29  13  38  1   
 30  14  16  1   
 31  14  39  1   
 32  14  40  1   
 33  15  17  1   
 34  15  41  1   
 35  15  42  1   
 36  16  18  1   
 37  16  43  1   
 38  16  44  1   
 39  17  18  1   
 40  17  45  1   
 41  17  46  1   
 42  18  19  1   
 43  19  20  ar  
 44  19  21  ar  
 45  20  22  ar  
 46  20  47  1   
 47  21  23  ar  
 48  21  48  1   
 49  22  24  ar  
 50  22  49  1   
 51  23  24  ar  
 52  23  50  1   
 53  24  51  1   
@<TRIPOS>SUBSTRUCTURE
  1 ****   8 GROUP 4 **** **** 0

# MOE 2024.06 (io_trps.svl 2023.06)
