@<TRIPOS>MOLECULE
NONAME
43 45 1 0 0 
SMALL
USER_CHARGES


@<TRIPOS>ATOM
  1 N       -0.6310    -0.3860    -1.3440 N.ar  1 <1>  -0.6200 
  2 C       -0.9700     0.1410    -0.1810 C.ar  1 <1>   0.1600 
  3 C       -1.3920    -1.3780    -1.7690 C.ar  1 <1>   0.1600 
  4 C       -2.0550    -0.2690     0.5770 C.ar  1 <1>  -0.1500 
  5 C       -2.4980    -1.8640    -1.0900 C.ar  1 <1>  -0.1500 
  6 C       -2.8590    -1.2960     0.1180 C.ar  1 <1>  -0.1430 
  7 C       -4.0710    -1.7690     0.8980 C.3   1 <1>   0.4870 
  8 N       -5.3020    -1.2970     0.2080 N.4   1 <1>  -0.9590 
  9 C       -5.3820     0.1940     0.1720 C.3   1 <1>   0.3430 
 10 C       -6.5230    -1.9080     0.8040 C.3   1 <1>   0.3430 
 11 C       -6.5920     0.6270    -0.6590 C.3   1 <1>  -0.1600 
 12 C       -7.7490    -1.5140    -0.0160 C.3   1 <1>  -0.1600 
 13 C       -7.8970     0.0150    -0.1260 C.3   1 <1>  -0.0800 
 14 C       -9.0930     0.4160    -1.0110 C.3   1 <1>  -0.0170 
 15 C      -10.3970    -0.1570    -0.4770 C.ar  1 <1>  -0.1430 
 16 C      -10.9920     0.3960     0.6470 C.ar  1 <1>  -0.1500 
 17 C      -11.0010    -1.2380    -1.1020 C.ar  1 <1>  -0.1500 
 18 C      -12.1690    -0.1320     1.1470 C.ar  1 <1>  -0.1500 
 19 C      -12.1790    -1.7660    -0.6030 C.ar  1 <1>  -0.1500 
 20 C      -12.7620    -1.2150     0.5240 C.ar  1 <1>  -0.1500 
 21 H       -0.3490     0.9420     0.1850 H     1 <1>   0.1500 
 22 H       -1.1180    -1.8270    -2.7100 H     1 <1>   0.1500 
 23 H       -2.2470     0.2230     1.5140 H     1 <1>   0.1500 
 24 H       -3.0510    -2.6800    -1.5190 H     1 <1>   0.1500 
 25 H       -4.0350    -1.3840     1.9040 H     1 <1>   0.0800 
 26 H       -4.0620    -2.8470     0.9450 H     1 <1>   0.0800 
 27 H       -5.2350    -1.6090    -0.7680 H     1 <1>   0.4500 
 28 H       -4.4870     0.6050    -0.2680 H     1 <1>   0.0800 
 29 H       -5.4770     0.5810     1.1740 H     1 <1>   0.0800 
 30 H       -6.6470    -1.5640     1.8190 H     1 <1>   0.0800 
 31 H       -6.4340    -2.9830     0.8180 H     1 <1>   0.0800 
 32 H       -6.4360     0.3420    -1.6850 H     1 <1>   0.0800 
 33 H       -6.6620     1.7000    -0.6310 H     1 <1>   0.0800 
 34 H       -8.6190    -1.9280     0.4650 H     1 <1>   0.0800 
 35 H       -7.6850    -1.9550    -0.9950 H     1 <1>   0.0800 
 36 H       -8.0760     0.4070     0.8620 H     1 <1>   0.0800 
 37 H       -8.9360     0.0760    -2.0200 H     1 <1>   0.0800 
 38 H       -9.1780     1.4880    -1.0440 H     1 <1>   0.0800 
 39 H      -10.5450     1.2410     1.1400 H     1 <1>   0.1500 
 40 H      -10.5620    -1.6750    -1.9810 H     1 <1>   0.1500 
 41 H      -12.6270     0.3010     2.0200 H     1 <1>   0.1500 
 42 H      -12.6430    -2.6050    -1.0920 H     1 <1>   0.1500 
 43 H      -13.6780    -1.6260     0.9120 H     1 <1>   0.1500 
@<TRIPOS>BOND
  1   1   2  ar  
  2   1   3  ar  
  3   2   4  ar  
  4   2  21  1   
  5   3   5  ar  
  6   3  22  1   
  7   4   6  ar  
  8   4  23  1   
  9   5   6  ar  
 10   5  24  1   
 11   6   7  1   
 12   7   8  1   
 13   7  25  1   
 14   7  26  1   
 15   8   9  1   
 16   8  10  1   
 17   8  27  1   
 18   9  11  1   
 19   9  28  1   
 20   9  29  1   
 21  10  12  1   
 22  10  30  1   
 23  10  31  1   
 24  11  13  1   
 25  11  32  1   
 26  11  33  1   
 27  12  13  1   
 28  12  34  1   
 29  12  35  1   
 30  13  14  1   
 31  13  36  1   
 32  14  15  1   
 33  14  37  1   
 34  14  38  1   
 35  15  16  ar  
 36  15  17  ar  
 37  16  18  ar  
 38  16  39  1   
 39  17  19  ar  
 40  17  40  1   
 41  18  20  ar  
 42  18  41  1   
 43  19  20  ar  
 44  19  42  1   
 45  20  43  1   
@<TRIPOS>SUBSTRUCTURE
  1 ****  12 GROUP 4 **** **** 0

# MOE 2024.06 (io_trps.svl 2023.06)
