@<TRIPOS>MOLECULE
NONAME
47 49 1 0 0 
SMALL
USER_CHARGES


@<TRIPOS>ATOM
  1 S       -0.3080     0.1210    -1.5770 S.o2  1 <1>   1.4470 
  2 O        1.0930    -0.1400    -1.8340 O.2   1 <1>  -0.6500 
  3 O       -1.2840    -0.2610    -2.5710 O.2   1 <1>  -0.6500 
  4 N       -0.4340     1.8370    -1.3570 N.am  1 <1>  -0.6930 
  5 C       -0.7500    -0.5380     0.0550 C.ar  1 <1>  -0.0090 
  6 C       -1.6050     2.4450    -0.9090 C.ar  1 <1>   0.1990 
  7 C        0.7640     2.6820    -1.6550 C.3   1 <1>   0.2570 
  8 C       -1.6700    -1.5740     0.1780 C.ar  1 <1>  -0.1500 
  9 C       -0.1780    -0.0410     1.2230 C.ar  1 <1>  -0.1500 
 10 C       -2.8100     2.2770    -1.5790 C.ar  1 <1>  -0.1500 
 11 C       -1.5930     3.2390     0.2310 C.ar  1 <1>  -0.1500 
 12 C        1.8120     2.7020    -0.5370 C.2   1 <1>   0.5690 
 13 C       -2.0090    -2.0950     1.4150 C.ar  1 <1>  -0.1500 
 14 C       -0.5100    -0.5560     2.4640 C.ar  1 <1>  -0.1500 
 15 C       -3.9790     2.8680    -1.1280 C.ar  1 <1>  -0.1430 
 16 C       -2.7510     3.8360     0.6880 C.ar  1 <1>  -0.1500 
 17 O        1.8790     3.6720     0.1820 O.2   1 <1>  -0.5700 
 18 N        2.6290     1.6270    -0.3740 N.am  1 <1>  -0.5790 
 19 C       -1.4270    -1.5850     2.5610 C.ar  1 <1>  -0.1500 
 20 C       -3.9510     3.6560     0.0170 C.ar  1 <1>  -0.1430 
 21 C       -5.2690     2.6390    -1.9040 C.3   1 <1>  -0.0970 
 22 C        3.6260     1.4460     0.6870 C.3   1 <1>   0.0490 
 23 C       -5.2070     4.3270     0.5540 C.3   1 <1>  -0.0970 
 24 C        4.7720     0.5290     0.4210 C.3   1 <1>  -0.2000 
 25 C        3.6810     0.1160     1.3630 C.3   1 <1>  -0.2000 
 26 H        0.4420     3.6940    -1.8250 H     1 <1>   0.0800 
 27 H        1.2270     2.3370    -2.5620 H     1 <1>   0.0800 
 28 H       -2.1320    -1.9780    -0.7080 H     1 <1>   0.1500 
 29 H        0.5350     0.7630     1.1700 H     1 <1>   0.1500 
 30 H       -2.8290     1.6780    -2.4710 H     1 <1>   0.1500 
 31 H       -0.6750     3.3890     0.7700 H     1 <1>   0.1500 
 32 H       -2.7250    -2.8960     1.4850 H     1 <1>   0.1500 
 33 H       -0.0560    -0.1530     3.3530 H     1 <1>   0.1500 
 34 H       -2.7110     4.4440     1.5750 H     1 <1>   0.1500 
 35 H        2.4740     0.8010    -0.9720 H     1 <1>   0.3700 
 36 H       -1.6890    -1.9870     3.5240 H     1 <1>   0.1500 
 37 H       -5.1020     1.9980    -2.7510 H     1 <1>   0.0800 
 38 H       -5.6560     3.5760    -2.2610 H     1 <1>   0.0800 
 39 H       -6.0020     2.1730    -1.2710 H     1 <1>   0.0800 
 40 H        3.7950     2.3350     1.2750 H     1 <1>   0.1000 
 41 H       -5.9430     3.5840     0.8020 H     1 <1>   0.0800 
 42 H       -5.6130     4.9930    -0.1850 H     1 <1>   0.0800 
 43 H       -4.9920     4.8970     1.4390 H     1 <1>   0.0800 
 44 H        5.7350     0.7740     0.8350 H     1 <1>   0.1000 
 45 H        4.8430     0.0490    -0.5390 H     1 <1>   0.1000 
 46 H        2.9950    -0.6550     1.0570 H     1 <1>   0.1000 
 47 H        3.9050     0.0790     2.4140 H     1 <1>   0.1000 
@<TRIPOS>BOND
  1   1   2  2   
  2   1   3  2   
  3   1   4  am  
  4   1   5  1   
  5   4   6  1   
  6   4   7  1   
  7   5   8  ar  
  8   5   9  ar  
  9   6  10  ar  
 10   6  11  ar  
 11   7  12  1   
 12   7  26  1   
 13   7  27  1   
 14   8  13  ar  
 15   8  28  1   
 16   9  14  ar  
 17   9  29  1   
 18  10  15  ar  
 19  10  30  1   
 20  11  16  ar  
 21  11  31  1   
 22  12  17  2   
 23  12  18  am  
 24  13  19  ar  
 25  13  32  1   
 26  14  19  ar  
 27  14  33  1   
 28  15  20  ar  
 29  15  21  1   
 30  16  20  ar  
 31  16  34  1   
 32  18  22  1   
 33  18  35  1   
 34  19  36  1   
 35  20  23  1   
 36  21  37  1   
 37  21  38  1   
 38  21  39  1   
 39  22  24  1   
 40  22  25  1   
 41  22  40  1   
 42  23  41  1   
 43  23  42  1   
 44  23  43  1   
 45  24  25  1   
 46  24  44  1   
 47  24  45  1   
 48  25  46  1   
 49  25  47  1   
@<TRIPOS>SUBSTRUCTURE
  1 ****   4 GROUP 4 **** **** 0

# MOE 2024.06 (io_trps.svl 2023.06)
