@<TRIPOS>MOLECULE
NONAME
50 52 1 0 0 
SMALL
USER_CHARGES


@<TRIPOS>ATOM
  1 O       -0.3670     3.6590     1.7120 O.2   1 <1>  -0.5700 
  2 C        0.2780     2.9320     0.9950 C.2   1 <1>   0.5690 
  3 N       -0.2390     1.8100     0.4370 N.am  1 <1>  -0.7300 
  4 C        1.7440     3.2620     0.6960 C.3   1 <1>   0.1710 
  5 C       -1.5790     1.2510     0.6460 C.3   1 <1>   0.2200 
  6 N        2.5720     2.0770     0.3200 N.3   1 <1>  -0.8100 
  7 C       -1.4440    -0.0560     1.4180 C.3   1 <1>  -0.1600 
  8 C       -2.1360     0.8050    -0.7000 C.3   1 <1>  -0.1600 
  9 C        3.8700     2.4930    -0.2580 C.3   1 <1>   0.1100 
 10 C        2.8140     1.2010     1.4950 C.3   1 <1>   0.1100 
 11 C       -1.0400    -1.1080     0.3790 C.3   1 <1>  -0.1600 
 12 C       -1.5060    -0.5650    -0.9790 C.3   1 <1>  -0.1600 
 13 C        4.7470     1.2850    -0.6410 C.3   1 <1>   0.2090 
 14 C        3.6760    -0.0250     1.1390 C.3   1 <1>   0.2090 
 15 N        4.9730     0.3960     0.5360 N.pl3 1 <1>  -0.8380 
 16 C        5.9120    -0.6280     0.3480 C.ar  1 <1>   0.1000 
 17 C        5.7480    -1.7100    -0.5380 C.ar  1 <1>   0.0820 
 18 C        7.0770    -0.5540     1.0980 C.ar  1 <1>  -0.1500 
 19 O        4.5970    -1.7810    -1.2780 O.3   1 <1>  -0.3620 
 20 C        6.7500    -2.6710    -0.6410 C.ar  1 <1>  -0.1500 
 21 C        8.0670    -1.5120     0.9890 C.ar  1 <1>  -0.1500 
 22 C        4.3860    -2.8090    -2.2190 C.3   1 <1>   0.0400 
 23 C        7.9030    -2.5730     0.1180 C.ar  1 <1>  -0.1500 
 24 H        0.4150     1.2300    -0.0960 H     1 <1>   0.3700 
 25 H        2.1710     3.7490     1.5550 H     1 <1>   0.0800 
 26 H        1.7460     3.9650    -0.1170 H     1 <1>   0.0800 
 27 H       -2.2150     1.9640     1.1450 H     1 <1>   0.0800 
 28 H       -2.4080    -0.3130     1.8210 H     1 <1>   0.0800 
 29 H       -0.7420     0.0220     2.2290 H     1 <1>   0.0800 
 30 H       -1.9380     1.5220    -1.4780 H     1 <1>   0.0800 
 31 H       -3.2010     0.6870    -0.6040 H     1 <1>   0.0800 
 32 H        4.4100     3.0970     0.4510 H     1 <1>   0.0800 
 33 H        3.6940     3.0830    -1.1400 H     1 <1>   0.0800 
 34 H        1.8760     0.8550     1.8920 H     1 <1>   0.0800 
 35 H        3.3170     1.7570     2.2680 H     1 <1>   0.0800 
 36 H       -1.4900    -2.0610     0.6000 H     1 <1>   0.0800 
 37 H        0.0310    -1.2220     0.3730 H     1 <1>   0.0800 
 38 H       -0.6570    -0.4520    -1.6330 H     1 <1>   0.0800 
 39 H       -2.2170    -1.2260    -1.4440 H     1 <1>   0.0800 
 40 H        5.6970     1.6300    -1.0090 H     1 <1>   0.0800 
 41 H        4.2630     0.7330    -1.4270 H     1 <1>   0.0800 
 42 H        3.1350    -0.6460     0.4470 H     1 <1>   0.0800 
 43 H        3.8700    -0.6000     2.0270 H     1 <1>   0.0800 
 44 H        7.1960     0.2740     1.7720 H     1 <1>   0.1500 
 45 H        6.6570    -3.5080    -1.3050 H     1 <1>   0.1500 
 46 H        8.9610    -1.4310     1.5820 H     1 <1>   0.1500 
 47 H        3.4300    -2.6440    -2.6830 H     1 <1>   0.0800 
 48 H        4.3850    -3.7560    -1.7090 H     1 <1>   0.0800 
 49 H        5.1640    -2.7690    -2.9600 H     1 <1>   0.0800 
 50 H        8.6720    -3.3200     0.0320 H     1 <1>   0.1500 
@<TRIPOS>BOND
  1   1   2  2   
  2   2   3  am  
  3   2   4  1   
  4   3   5  1   
  5   3  24  1   
  6   4   6  1   
  7   4  25  1   
  8   4  26  1   
  9   5   7  1   
 10   5   8  1   
 11   5  27  1   
 12   6   9  1   
 13   6  10  1   
 14   7  11  1   
 15   7  28  1   
 16   7  29  1   
 17   8  12  1   
 18   8  30  1   
 19   8  31  1   
 20   9  13  1   
 21   9  32  1   
 22   9  33  1   
 23  10  14  1   
 24  10  34  1   
 25  10  35  1   
 26  11  12  1   
 27  11  36  1   
 28  11  37  1   
 29  12  38  1   
 30  12  39  1   
 31  13  15  1   
 32  13  40  1   
 33  13  41  1   
 34  14  15  1   
 35  14  42  1   
 36  14  43  1   
 37  15  16  1   
 38  16  17  ar  
 39  16  18  ar  
 40  17  19  1   
 41  17  20  ar  
 42  18  21  ar  
 43  18  44  1   
 44  19  22  1   
 45  20  23  ar  
 46  20  45  1   
 47  21  23  ar  
 48  21  46  1   
 49  22  47  1   
 50  22  48  1   
 51  22  49  1   
 52  23  50  1   
@<TRIPOS>SUBSTRUCTURE
  1 ****  14 GROUP 4 **** **** 0

# MOE 2024.06 (io_trps.svl 2023.06)
