@<TRIPOS>MOLECULE
NONAME
38 41 1 0 0 
SMALL
USER_CHARGES


@<TRIPOS>ATOM
  1 O        0.0070     0.4770     0.1850 O.2   1 <1>  -0.5700 
  2 C        0.2350     1.6470     0.0000 C.2   1 <1>   0.5690 
  3 N        1.4060     2.2020    -0.4820 N.am  1 <1>  -0.2370 
  4 C       -0.7180     2.7800     0.2980 C.3   1 <1>  -0.0190 
  5 C        2.6490     1.5440    -0.5770 C.ar  1 <1>   0.1170 
  6 C        1.1630     3.5200    -0.8150 C.2   1 <1>   0.5690 
  7 C       -2.2170     3.1460     0.5870 C.3   1 <1>   0.4180 
  8 C       -0.3210     3.7070    -0.8430 C.3   1 <1>  -0.0190 
  9 C        3.7840     2.0860     0.0080 C.ar  1 <1>  -0.1500 
 10 C        2.7610     0.3380    -1.2560 C.ar  1 <1>  -0.1500 
 11 O        1.9600     4.3820    -1.0790 O.2   1 <1>  -0.5700 
 12 O       -1.7700     4.5010     0.6790 O.3   1 <1>  -0.5600 
 13 C       -3.0700     3.5750    -0.6430 C.2   1 <1>  -0.2880 
 14 C       -2.7500     1.6680     0.6100 C.3   1 <1>   0.1200 
 15 C       -1.2530     4.8660    -0.5590 C.3   1 <1>   0.3380 
 16 C        5.0320     1.4650    -0.0570 C.ar  1 <1>   0.0860 
 17 C        3.9820    -0.3030    -1.3430 C.ar  1 <1>  -0.1500 
 18 C       -2.5050     4.5790    -1.3050 C.2   1 <1>  -0.2880 
 19 O       -2.5760     0.9050    -0.5580 O.3   1 <1>  -0.6800 
 20 C        6.1800     2.0740     0.5860 C.2   1 <1>   0.4230 
 21 C        5.1010     0.2530    -0.7520 C.ar  1 <1>  -0.1500 
 22 O        6.0870     2.9830     1.3690 O.2   1 <1>  -0.5700 
 23 C        7.5810     1.5740     0.2890 C.3   1 <1>  -0.1790 
 24 H       -0.2440     3.1010     1.2190 H     1 <1>   0.0800 
 25 H       -0.6150     3.2810    -1.7890 H     1 <1>   0.0800 
 26 H        3.7060     3.0240     0.5320 H     1 <1>   0.1500 
 27 H        1.8920    -0.1040    -1.7120 H     1 <1>   0.1500 
 28 H       -4.0040     3.0900    -0.8780 H     1 <1>   0.1500 
 29 H       -3.8070     1.6780     0.8120 H     1 <1>   0.0800 
 30 H       -2.2940     1.1210     1.4170 H     1 <1>   0.0800 
 31 H       -0.8740     5.8740    -0.5590 H     1 <1>   0.0800 
 32 H        4.0580    -1.2390    -1.8710 H     1 <1>   0.1500 
 33 H       -2.7860     5.1290    -2.1860 H     1 <1>   0.1500 
 34 H       -1.7350     0.3890    -0.4920 H     1 <1>   0.4000 
 35 H        6.0340    -0.2740    -0.8320 H     1 <1>   0.1500 
 36 H        7.7260     0.6080     0.7350 H     1 <1>   0.0800 
 37 H        8.3040     2.2540     0.7010 H     1 <1>   0.0800 
 38 H        7.7360     1.5130    -0.7720 H     1 <1>   0.0800 
@<TRIPOS>BOND
  1   1   2  2   
  2   2   3  am  
  3   2   4  1   
  4   3   5  1   
  5   3   6  am  
  6   4   7  1   
  7   4   8  1   
  8   4  24  1   
  9   5   9  ar  
 10   5  10  ar  
 11   6   8  1   
 12   6  11  2   
 13   7  12  1   
 14   7  13  1   
 15   7  14  1   
 16   8  15  1   
 17   8  25  1   
 18   9  16  ar  
 19   9  26  1   
 20  10  17  ar  
 21  10  27  1   
 22  12  15  1   
 23  13  18  2   
 24  13  28  1   
 25  14  19  1   
 26  14  29  1   
 27  14  30  1   
 28  15  18  1   
 29  15  31  1   
 30  16  20  1   
 31  16  21  ar  
 32  17  21  ar  
 33  17  32  1   
 34  18  33  1   
 35  19  34  1   
 36  20  22  2   
 37  20  23  1   
 38  21  35  1   
 39  23  36  1   
 40  23  37  1   
 41  23  38  1   
@<TRIPOS>SUBSTRUCTURE
  1 ****   3 GROUP 4 **** **** 0

# MOE 2024.06 (io_trps.svl 2023.06)
