@<TRIPOS>MOLECULE
NONAME
50 52 1 0 0 
SMALL
USER_CHARGES


@<TRIPOS>ATOM
  1 O       -1.5150     0.5200     0.5020 O.3   1 <1>  -0.5600 
  2 C       -0.6230     1.2250     1.3090 C.3   1 <1>   0.1200 
  3 C       -2.6590     1.2340     0.1610 C.3   1 <1>   0.1200 
  4 C        0.5450     0.3040     1.6580 C.3   1 <1>   0.1200 
  5 C       -3.5600     0.3110    -0.6640 C.3   1 <1>   0.1100 
  6 O        1.4910     1.0160     2.3840 O.3   1 <1>  -0.6800 
  7 N       -4.8180     0.9790    -1.0640 N.3   1 <1>  -0.8100 
  8 C       -4.6190     1.9340    -2.1840 C.3   1 <1>   0.1100 
  9 C       -5.8440    -0.0300    -1.4320 C.3   1 <1>   0.1100 
 10 C       -5.9360     2.6360    -2.6010 C.3   1 <1>   0.3430 
 11 C       -7.1700     0.6090    -1.9110 C.3   1 <1>   0.3430 
 12 N       -7.1030     2.1060    -1.8250 N.4   1 <1>  -0.9590 
 13 C       -8.3890     2.7950    -2.1040 C.3   1 <1>   0.4860 
 14 C       -9.4480     2.2500    -1.1660 C.ar  1 <1>  -0.1440 
 15 C       -9.4440     2.5660     0.1680 C.ar  1 <1>  -0.1500 
 16 C      -10.4420     1.3980    -1.6700 C.ar  1 <1>  -0.1500 
 17 C      -10.4060     2.0400     1.0530 C.ar  1 <1>   0.0000 
 18 C      -11.3890     0.8770    -0.8330 C.ar  1 <1>  -0.1500 
 19 C      -11.3970     1.1760     0.5430 C.ar  1 <1>   0.0000 
 20 C      -10.4150     2.3430     2.4300 C.ar  1 <1>  -0.1500 
 21 C      -12.3570     0.6460     1.4290 C.ar  1 <1>  -0.1500 
 22 C      -11.3580     1.8140     3.2670 C.ar  1 <1>  -0.1500 
 23 C      -12.3410     0.9560     2.7610 C.ar  1 <1>  -0.1500 
 24 H       -1.1330     1.5280     2.2080 H     1 <1>   0.0800 
 25 H       -0.2770     2.0850     0.7620 H     1 <1>   0.0800 
 26 H       -2.3620     2.0960    -0.4070 H     1 <1>   0.0800 
 27 H       -3.1630     1.5310     1.0650 H     1 <1>   0.0800 
 28 H        1.0160    -0.0760     0.7680 H     1 <1>   0.0800 
 29 H        0.2040    -0.5130     2.2700 H     1 <1>   0.0800 
 30 H       -3.7910    -0.5430    -0.0480 H     1 <1>   0.0800 
 31 H       -3.0270    -0.0340    -1.5340 H     1 <1>   0.0800 
 32 H        1.9570     1.6570     1.8130 H     1 <1>   0.4000 
 33 H       -4.2110     1.4150    -3.0360 H     1 <1>   0.0800 
 34 H       -3.9070     2.6880    -1.8980 H     1 <1>   0.0800 
 35 H       -6.0530    -0.6500    -0.5760 H     1 <1>   0.0800 
 36 H       -5.4640    -0.6750    -2.2080 H     1 <1>   0.0800 
 37 H       -6.0950     2.4890    -3.6570 H     1 <1>   0.0800 
 38 H       -5.8340     3.6940    -2.4290 H     1 <1>   0.0800 
 39 H       -7.9730     0.2380    -1.2940 H     1 <1>   0.0800 
 40 H       -7.3680     0.3040    -2.9250 H     1 <1>   0.0800 
 41 H       -6.8510     2.2630    -0.8380 H     1 <1>   0.4500 
 42 H       -8.6860     2.6310    -3.1270 H     1 <1>   0.0800 
 43 H       -8.2820     3.8550    -1.9430 H     1 <1>   0.0800 
 44 H       -8.7040     3.2250     0.5850 H     1 <1>   0.1500 
 45 H      -10.4660     1.1530    -2.7190 H     1 <1>   0.1500 
 46 H      -12.1560     0.2240    -1.2140 H     1 <1>   0.1500 
 47 H       -9.6620     3.0040     2.8200 H     1 <1>   0.1500 
 48 H      -13.1110    -0.0120     1.0370 H     1 <1>   0.1500 
 49 H      -11.3610     2.0480     4.3180 H     1 <1>   0.1500 
 50 H      -13.0760     0.5490     3.4330 H     1 <1>   0.1500 
@<TRIPOS>BOND
  1   1   2  1   
  2   1   3  1   
  3   2   4  1   
  4   2  24  1   
  5   2  25  1   
  6   3   5  1   
  7   3  26  1   
  8   3  27  1   
  9   4   6  1   
 10   4  28  1   
 11   4  29  1   
 12   5   7  1   
 13   5  30  1   
 14   5  31  1   
 15   6  32  1   
 16   7   8  1   
 17   7   9  1   
 18   8  10  1   
 19   8  33  1   
 20   8  34  1   
 21   9  11  1   
 22   9  35  1   
 23   9  36  1   
 24  10  12  1   
 25  10  37  1   
 26  10  38  1   
 27  11  12  1   
 28  11  39  1   
 29  11  40  1   
 30  12  13  1   
 31  12  41  1   
 32  13  14  1   
 33  13  42  1   
 34  13  43  1   
 35  14  15  ar  
 36  14  16  ar  
 37  15  17  ar  
 38  15  44  1   
 39  16  18  ar  
 40  16  45  1   
 41  17  19  ar  
 42  17  20  ar  
 43  18  19  ar  
 44  18  46  1   
 45  19  21  ar  
 46  20  22  ar  
 47  20  47  1   
 48  21  23  ar  
 49  21  48  1   
 50  22  23  ar  
 51  22  49  1   
 52  23  50  1   
@<TRIPOS>SUBSTRUCTURE
  1 ****  12 GROUP 4 **** **** 0

# MOE 2024.06 (io_trps.svl 2023.06)
