@<TRIPOS>MOLECULE
NONAME
38 39 1 0 0 
SMALL
USER_CHARGES


@<TRIPOS>ATOM
  1 O       -3.5330     3.3430     0.7130 O.3   1 <1>  -0.3630 
  2 C       -3.6130     2.0720     0.2360 C.ar  1 <1>   0.0830 
  3 C       -4.5070     3.8700     1.5860 C.3   1 <1>   0.0400 
  4 C       -2.6350     1.6560    -0.6630 C.ar  1 <1>  -0.1440 
  5 C       -4.6220     1.1870     0.6080 C.ar  1 <1>  -0.1500 
  6 C       -2.6750     0.3680    -1.1730 C.ar  1 <1>  -0.1500 
  7 C       -1.5270     2.6070    -1.0920 C.3   1 <1>  -0.0960 
  8 C       -4.6500    -0.0960     0.0930 C.ar  1 <1>  -0.1500 
  9 C       -3.6750    -0.5150    -0.7970 C.ar  1 <1>  -0.1440 
 10 C       -3.7010    -1.9330    -1.3490 C.3   1 <1>  -0.0170 
 11 C       -3.2000    -2.9540    -0.3100 C.3   1 <1>  -0.0800 
 12 C       -1.7620    -2.6470     0.1530 C.3   1 <1>  -0.1600 
 13 C       -3.2760    -4.3850    -0.8690 C.3   1 <1>  -0.1600 
 14 C       -1.2370    -3.7040     1.1240 C.3   1 <1>   0.3430 
 15 C       -2.7250    -5.4120     0.1220 C.3   1 <1>   0.3430 
 16 N       -1.3310    -5.0490     0.4950 N.4   1 <1>  -0.9060 
 17 H       -4.2410     4.8880     1.8060 H     1 <1>   0.0800 
 18 H       -4.5140     3.2910     2.4910 H     1 <1>   0.0800 
 19 H       -5.4650     3.8400     1.0980 H     1 <1>   0.0800 
 20 H       -5.3930     1.4800     1.2940 H     1 <1>   0.1500 
 21 H       -1.9200     0.0550    -1.8710 H     1 <1>   0.1500 
 22 H       -0.9680     2.9260    -0.2300 H     1 <1>   0.0800 
 23 H       -1.9570     3.4730    -1.5620 H     1 <1>   0.0800 
 24 H       -0.8540     2.1380    -1.7850 H     1 <1>   0.0800 
 25 H       -5.4400    -0.7640     0.3880 H     1 <1>   0.1500 
 26 H       -3.0990    -1.9830    -2.2390 H     1 <1>   0.0800 
 27 H       -4.7120    -2.1700    -1.6340 H     1 <1>   0.0800 
 28 H       -3.8490    -2.8920     0.5490 H     1 <1>   0.0800 
 29 H       -1.7400    -1.6940     0.6540 H     1 <1>   0.0800 
 30 H       -1.1030    -2.5770    -0.6940 H     1 <1>   0.0800 
 31 H       -2.7290    -4.4540    -1.7940 H     1 <1>   0.0800 
 32 H       -4.3020    -4.6300    -1.0840 H     1 <1>   0.0800 
 33 H       -1.8250    -3.6810     2.0290 H     1 <1>   0.0800 
 34 H       -0.2130    -3.4820     1.3810 H     1 <1>   0.0800 
 35 H       -2.7470    -6.3950    -0.3240 H     1 <1>   0.0800 
 36 H       -3.3460    -5.4280     1.0050 H     1 <1>   0.0800 
 37 H       -0.9440    -5.7580     1.1310 H     1 <1>   0.4500 
 38 H       -0.7500    -5.0540    -0.3530 H     1 <1>   0.4500 
@<TRIPOS>BOND
  1   1   2  1   
  2   1   3  1   
  3   2   4  ar  
  4   2   5  ar  
  5   3  17  1   
  6   3  18  1   
  7   3  19  1   
  8   4   6  ar  
  9   4   7  1   
 10   5   8  ar  
 11   5  20  1   
 12   6   9  ar  
 13   6  21  1   
 14   7  22  1   
 15   7  23  1   
 16   7  24  1   
 17   8   9  ar  
 18   8  25  1   
 19   9  10  1   
 20  10  11  1   
 21  10  26  1   
 22  10  27  1   
 23  11  12  1   
 24  11  13  1   
 25  11  28  1   
 26  12  14  1   
 27  12  29  1   
 28  12  30  1   
 29  13  15  1   
 30  13  31  1   
 31  13  32  1   
 32  14  16  1   
 33  14  33  1   
 34  14  34  1   
 35  15  16  1   
 36  15  35  1   
 37  15  36  1   
 38  16  37  1   
 39  16  38  1   
@<TRIPOS>SUBSTRUCTURE
  1 ****   9 GROUP 4 **** **** 0

# MOE 2024.06 (io_trps.svl 2023.06)
