@<TRIPOS>MOLECULE
NONAME
49 50 1 0 0 
SMALL
USER_CHARGES


@<TRIPOS>ATOM
  1 S        0.4570    -0.4940     1.4530 S.o2  1 <1>   1.3330 
  2 O        1.5090    -0.6720     2.4310 O.2   1 <1>  -0.6500 
  3 O        0.7570     0.2630     0.2600 O.2   1 <1>  -0.6500 
  4 N       -0.0750    -2.0400     1.0090 N.am  1 <1>  -0.8490 
  5 C       -0.9340     0.2280     2.3000 C.3   1 <1>  -0.1350 
  6 C       -0.6740    -2.0790    -0.3320 C.3   1 <1>   0.3390 
  7 C        0.9930    -3.0690     1.1140 C.3   1 <1>   0.2570 
  8 C       -2.0070    -1.3480    -0.3430 C.ar  1 <1>  -0.1440 
  9 C        2.1890    -2.8830     0.1680 C.2   1 <1>   0.5690 
 10 C       -3.0860    -1.8540     0.3670 C.ar  1 <1>  -0.1500 
 11 C       -2.1570    -0.1690    -1.0580 C.ar  1 <1>  -0.1500 
 12 O        2.1980    -3.4920    -0.8760 O.2   1 <1>  -0.5700 
 13 N        3.1840    -2.0310     0.5220 N.am  1 <1>  -0.7300 
 14 C       -4.2990    -1.1880     0.3640 C.ar  1 <1>  -0.1500 
 15 C       -3.3700     0.4970    -1.0620 C.ar  1 <1>  -0.1500 
 16 C        4.3030    -1.6150    -0.3340 C.3   1 <1>   0.2200 
 17 C       -4.4420    -0.0120    -0.3500 C.ar  1 <1>  -0.1500 
 18 C        5.5960    -1.7570     0.4790 C.3   1 <1>  -0.1600 
 19 C        3.9990    -0.1940    -0.8230 C.3   1 <1>  -0.1600 
 20 C        6.8540    -1.6550    -0.3990 C.3   1 <1>  -0.1600 
 21 C        5.1070     0.4590    -1.6650 C.3   1 <1>  -0.1600 
 22 C        7.3750    -0.2270    -0.6200 C.3   1 <1>  -0.1600 
 23 C        6.3190     0.8720    -0.8190 C.3   1 <1>  -0.1600 
 24 H       -1.2520    -0.4130     3.0980 H     1 <1>   0.0800 
 25 H       -1.7560     0.3780     1.6300 H     1 <1>   0.0800 
 26 H       -0.6570     1.1790     2.7110 H     1 <1>   0.0800 
 27 H       -0.8570    -3.1020    -0.6160 H     1 <1>   0.0800 
 28 H       -0.0020    -1.6600    -1.0640 H     1 <1>   0.0800 
 29 H        0.5650    -4.0350     0.9140 H     1 <1>   0.0800 
 30 H        1.3600    -3.1010     2.1240 H     1 <1>   0.0800 
 31 H       -2.9790    -2.7660     0.9280 H     1 <1>   0.1500 
 32 H       -1.3260     0.2400    -1.6100 H     1 <1>   0.1500 
 33 H        3.0450    -1.4430     1.3560 H     1 <1>   0.3700 
 34 H       -5.1320    -1.5860     0.9170 H     1 <1>   0.1500 
 35 H       -3.4790     1.4120    -1.6180 H     1 <1>   0.1500 
 36 H        4.3530    -2.2730    -1.1870 H     1 <1>   0.0800 
 37 H       -5.3860     0.5050    -0.3540 H     1 <1>   0.1500 
 38 H        5.5940    -2.7380     0.9230 H     1 <1>   0.0800 
 39 H        5.6300    -1.0330     1.2730 H     1 <1>   0.0800 
 40 H        3.7780     0.4370     0.0200 H     1 <1>   0.0800 
 41 H        3.1090    -0.2420    -1.4260 H     1 <1>   0.0800 
 42 H        6.6600    -2.1170    -1.3530 H     1 <1>   0.0800 
 43 H        7.6430    -2.2240     0.0630 H     1 <1>   0.0800 
 44 H        4.6930     1.3500    -2.1050 H     1 <1>   0.0800 
 45 H        5.4050    -0.1860    -2.4740 H     1 <1>   0.0800 
 46 H        8.0230    -0.2420    -1.4790 H     1 <1>   0.0800 
 47 H        7.9840     0.0520     0.2240 H     1 <1>   0.0800 
 48 H        5.9810     1.2220     0.1420 H     1 <1>   0.0800 
 49 H        6.8030     1.7070    -1.2960 H     1 <1>   0.0800 
@<TRIPOS>BOND
  1   1   2  2   
  2   1   3  2   
  3   1   4  am  
  4   1   5  1   
  5   4   6  1   
  6   4   7  1   
  7   5  24  1   
  8   5  25  1   
  9   5  26  1   
 10   6   8  1   
 11   6  27  1   
 12   6  28  1   
 13   7   9  1   
 14   7  29  1   
 15   7  30  1   
 16   8  10  ar  
 17   8  11  ar  
 18   9  12  2   
 19   9  13  am  
 20  10  14  ar  
 21  10  31  1   
 22  11  15  ar  
 23  11  32  1   
 24  13  16  1   
 25  13  33  1   
 26  14  17  ar  
 27  14  34  1   
 28  15  17  ar  
 29  15  35  1   
 30  16  18  1   
 31  16  19  1   
 32  16  36  1   
 33  17  37  1   
 34  18  20  1   
 35  18  38  1   
 36  18  39  1   
 37  19  21  1   
 38  19  40  1   
 39  19  41  1   
 40  20  22  1   
 41  20  42  1   
 42  20  43  1   
 43  21  23  1   
 44  21  44  1   
 45  21  45  1   
 46  22  23  1   
 47  22  46  1   
 48  22  47  1   
 49  23  48  1   
 50  23  49  1   
@<TRIPOS>SUBSTRUCTURE
  1 ****   3 GROUP 4 **** **** 0

# MOE 2024.06 (io_trps.svl 2023.06)
