@<TRIPOS>MOLECULE
NONAME
42 44 1 0 0 
SMALL
USER_CHARGES


@<TRIPOS>ATOM
  1 O       -0.0730     0.5410     1.2720 O.2   1 <1>  -0.5700 
  2 C       -1.0330     1.0480     0.7160 C.2   1 <1>   0.5440 
  3 N       -1.9460     0.2210     0.0990 N.am  1 <1>  -0.6600 
  4 C       -1.1700     2.4900     0.6990 C.ar  1 <1>   0.0860 
  5 C       -1.9270    -1.2600     0.2890 C.3   1 <1>   0.1400 
  6 C       -2.8950     0.6570    -0.9690 C.3   1 <1>   0.1400 
  7 C       -0.1420     3.3080     0.2020 C.ar  1 <1>   0.1170 
  8 C       -2.3340     3.0920     1.1810 C.ar  1 <1>  -0.1500 
  9 C       -3.3590    -1.8050     0.4200 C.3   1 <1>   0.1200 
 10 C       -4.2750     0.0120    -0.7560 C.3   1 <1>   0.1200 
 11 N        1.0460     2.7090    -0.2430 N.am  1 <1>  -0.5470 
 12 C       -0.3270     4.6880     0.1800 C.ar  1 <1>  -0.1500 
 13 C       -2.5000     4.4620     1.1550 C.ar  1 <1>  -0.1500 
 14 O       -4.1580    -1.3790    -0.6480 O.3   1 <1>  -0.5600 
 15 C        2.1740     3.1560    -0.8750 C.2   1 <1>   0.5690 
 16 C       -1.4930     5.2620     0.6480 C.ar  1 <1>  -0.1500 
 17 O        2.3210     4.2880    -1.2730 O.2   1 <1>  -0.5700 
 18 C        3.3110     2.1410    -1.0590 C.3   1 <1>   0.2610 
 19 O        2.8370     0.8130    -0.9790 O.3   1 <1>  -0.5600 
 20 C        4.4050     2.2640     0.0070 C.3   1 <1>  -0.1600 
 21 C        3.3610     0.1450     0.1240 C.3   1 <1>   0.1200 
 22 C        4.6870     0.8280     0.4070 C.3   1 <1>  -0.1600 
 23 H       -1.3680    -1.5180     1.1720 H     1 <1>   0.0800 
 24 H       -1.4450    -1.7200    -0.5560 H     1 <1>   0.0800 
 25 H       -2.5100     0.3470    -1.9260 H     1 <1>   0.0800 
 26 H       -2.9970     1.7260    -0.9880 H     1 <1>   0.0800 
 27 H       -3.1140     2.4690     1.5820 H     1 <1>   0.1500 
 28 H       -3.8060    -1.4700     1.3400 H     1 <1>   0.0800 
 29 H       -3.3480    -2.8810     0.4140 H     1 <1>   0.0800 
 30 H       -4.9160     0.2230    -1.5940 H     1 <1>   0.0800 
 31 H       -4.7370     0.3900     0.1390 H     1 <1>   0.0800 
 32 H        1.1080     1.7010    -0.0330 H     1 <1>   0.3700 
 33 H        0.4460     5.3290    -0.2010 H     1 <1>   0.1500 
 34 H       -3.4060     4.9100     1.5280 H     1 <1>   0.1500 
 35 H       -1.6140     6.3320     0.6220 H     1 <1>   0.1500 
 36 H        3.7340     2.2640    -2.0400 H     1 <1>   0.0800 
 37 H        4.0290     2.8170     0.8520 H     1 <1>   0.0800 
 38 H        5.2750     2.7660    -0.3750 H     1 <1>   0.0800 
 39 H        3.4720    -0.8990    -0.1120 H     1 <1>   0.0800 
 40 H        2.6750     0.2680     0.9460 H     1 <1>   0.0800 
 41 H        4.9800     0.7310     1.4380 H     1 <1>   0.0800 
 42 H        5.4480     0.4020    -0.2240 H     1 <1>   0.0800 
@<TRIPOS>BOND
  1   1   2  2   
  2   2   3  am  
  3   2   4  1   
  4   3   5  1   
  5   3   6  1   
  6   4   7  ar  
  7   4   8  ar  
  8   5   9  1   
  9   5  23  1   
 10   5  24  1   
 11   6  10  1   
 12   6  25  1   
 13   6  26  1   
 14   7  11  1   
 15   7  12  ar  
 16   8  13  ar  
 17   8  27  1   
 18   9  14  1   
 19   9  28  1   
 20   9  29  1   
 21  10  14  1   
 22  10  30  1   
 23  10  31  1   
 24  11  15  am  
 25  11  32  1   
 26  12  16  ar  
 27  12  33  1   
 28  13  16  ar  
 29  13  34  1   
 30  15  17  2   
 31  15  18  1   
 32  16  35  1   
 33  18  19  1   
 34  18  20  1   
 35  18  36  1   
 36  19  21  1   
 37  20  22  1   
 38  20  37  1   
 39  20  38  1   
 40  21  22  1   
 41  21  39  1   
 42  21  40  1   
 43  22  41  1   
 44  22  42  1   
@<TRIPOS>SUBSTRUCTURE
  1 ****   2 GROUP 4 **** **** 0

# MOE 2024.06 (io_trps.svl 2023.06)
