@<TRIPOS>MOLECULE
NONAME
49 51 1 0 0 
SMALL
USER_CHARGES


@<TRIPOS>ATOM
  1 S       -0.8420     0.1380    -0.3920 S.o2  1 <1>   1.3330 
  2 O       -1.8020     0.8600     0.4110 O.2   1 <1>  -0.6500 
  3 O       -0.7880     0.3490    -1.8190 O.2   1 <1>  -0.6500 
  4 N       -1.0790    -1.5160    -0.1160 N.am  1 <1>  -0.8490 
  5 C        0.7910     0.4110     0.2600 C.3   1 <1>  -0.1350 
  6 C       -2.0030    -2.0960    -1.1160 C.3   1 <1>   0.1960 
  7 C       -1.5630    -1.7980     1.2550 C.3   1 <1>   0.1960 
  8 C       -2.2500    -3.6020    -0.8980 C.3   1 <1>   0.2090 
  9 C       -1.7950    -3.3010     1.5050 C.3   1 <1>   0.2090 
 10 N       -2.7350    -3.8620     0.4900 N.pl3 1 <1>  -0.8380 
 11 C       -3.2710    -5.1440     0.7250 C.ar  1 <1>   0.1000 
 12 C       -4.6540    -5.3520     0.6050 C.ar  1 <1>   0.1170 
 13 C       -2.4540    -6.2150     1.0670 C.ar  1 <1>  -0.1500 
 14 N       -5.4190    -4.2340     0.2430 N.am  1 <1>  -0.5470 
 15 C       -5.1810    -6.6150     0.8410 C.ar  1 <1>  -0.1500 
 16 C       -2.9900    -7.4700     1.2990 C.ar  1 <1>  -0.1500 
 17 C       -6.7490    -3.9790     0.0360 C.2   1 <1>   0.5440 
 18 C       -4.3540    -7.6690     1.1870 C.ar  1 <1>  -0.1500 
 19 O       -7.5750    -4.8590     0.1770 O.2   1 <1>  -0.5700 
 20 C       -7.1510    -2.6530    -0.4020 C.ar  1 <1>   0.0860 
 21 C       -6.7060    -1.4610     0.1940 C.ar  1 <1>  -0.1440 
 22 C       -8.0150    -2.5470    -1.4920 C.ar  1 <1>  -0.1500 
 23 C       -7.0960    -0.2350    -0.3230 C.ar  1 <1>  -0.1500 
 24 C       -5.8040    -1.4540     1.4240 C.3   1 <1>  -0.0970 
 25 C       -8.4070    -1.3230    -1.9980 C.ar  1 <1>  -0.1500 
 26 C       -7.9400    -0.1610    -1.4140 C.ar  1 <1>  -0.1500 
 27 H        0.8200     0.1880     1.3070 H     1 <1>   0.0800 
 28 H        1.0730     1.4360     0.1180 H     1 <1>   0.0800 
 29 H        1.4980    -0.2140    -0.2500 H     1 <1>   0.0800 
 30 H       -1.5930    -1.9650    -2.1030 H     1 <1>   0.0800 
 31 H       -2.9470    -1.5780    -1.0810 H     1 <1>   0.0800 
 32 H       -2.4920    -1.2830     1.4300 H     1 <1>   0.0800 
 33 H       -0.8470    -1.4350     1.9700 H     1 <1>   0.0800 
 34 H       -1.3350    -4.1420    -1.0680 H     1 <1>   0.0800 
 35 H       -2.9820    -3.9530    -1.6050 H     1 <1>   0.0800 
 36 H       -2.2080    -3.4440     2.4890 H     1 <1>   0.0800 
 37 H       -0.8520    -3.8160     1.4550 H     1 <1>   0.0800 
 38 H       -1.3940    -6.0710     1.1480 H     1 <1>   0.1500 
 39 H       -4.7980    -3.4290     0.1340 H     1 <1>   0.3700 
 40 H       -6.2380    -6.7830     0.7550 H     1 <1>   0.1500 
 41 H       -2.3470    -8.2910     1.5650 H     1 <1>   0.1500 
 42 H       -4.7760    -8.6430     1.3680 H     1 <1>   0.1500 
 43 H       -8.3830    -3.4510    -1.9480 H     1 <1>   0.1500 
 44 H       -6.7460     0.6790     0.1260 H     1 <1>   0.1500 
 45 H       -5.8610    -0.5100     1.9350 H     1 <1>   0.0800 
 46 H       -6.1030    -2.2210     2.1180 H     1 <1>   0.0800 
 47 H       -4.7830    -1.6210     1.1350 H     1 <1>   0.0800 
 48 H       -9.0720    -1.2740    -2.8430 H     1 <1>   0.1500 
 49 H       -8.2360     0.7970    -1.8050 H     1 <1>   0.1500 
@<TRIPOS>BOND
  1   1   2  2   
  2   1   3  2   
  3   1   4  am  
  4   1   5  1   
  5   4   6  1   
  6   4   7  1   
  7   5  27  1   
  8   5  28  1   
  9   5  29  1   
 10   6   8  1   
 11   6  30  1   
 12   6  31  1   
 13   7   9  1   
 14   7  32  1   
 15   7  33  1   
 16   8  10  1   
 17   8  34  1   
 18   8  35  1   
 19   9  10  1   
 20   9  36  1   
 21   9  37  1   
 22  10  11  1   
 23  11  12  ar  
 24  11  13  ar  
 25  12  14  1   
 26  12  15  ar  
 27  13  16  ar  
 28  13  38  1   
 29  14  17  am  
 30  14  39  1   
 31  15  18  ar  
 32  15  40  1   
 33  16  18  ar  
 34  16  41  1   
 35  17  19  2   
 36  17  20  1   
 37  18  42  1   
 38  20  21  ar  
 39  20  22  ar  
 40  21  23  ar  
 41  21  24  1   
 42  22  25  ar  
 43  22  43  1   
 44  23  26  ar  
 45  23  44  1   
 46  24  45  1   
 47  24  46  1   
 48  24  47  1   
 49  25  26  ar  
 50  25  48  1   
 51  26  49  1   
@<TRIPOS>SUBSTRUCTURE
  1 ****  10 GROUP 4 **** **** 0

# MOE 2024.06 (io_trps.svl 2023.06)
