@<TRIPOS>MOLECULE
NONAME
36 37 1 0 0 
SMALL
USER_CHARGES


@<TRIPOS>ATOM
  1 S        0.2470    -0.2300    -1.3110 S.o2  1 <1>   1.4470 
  2 O        0.5940    -0.7370    -2.6220 O.2   1 <1>  -0.6500 
  3 O        0.4410     1.1730    -1.0200 O.2   1 <1>  -0.6500 
  4 N        1.1500    -1.1260    -0.1860 N.am  1 <1>  -0.8490 
  5 C       -1.4700    -0.6670    -0.9120 C.ar  1 <1>  -0.0090 
  6 C        2.5350    -0.6440    -0.1040 C.3   1 <1>   0.1960 
  7 C        1.0660    -2.5640    -0.4670 C.3   1 <1>   0.1960 
  8 C       -1.9280    -0.6090     0.4030 C.ar  1 <1>  -0.1500 
  9 C       -2.3610    -1.0640    -1.9060 C.ar  1 <1>  -0.1500 
 10 C        3.1200    -0.9380     1.2810 C.3   1 <1>  -0.1600 
 11 C        1.6340    -3.4390     0.6580 C.3   1 <1>  -0.1600 
 12 C       -3.2330    -0.9400     0.7370 C.ar  1 <1>  -0.1430 
 13 C       -3.6700    -1.3990    -1.6010 C.ar  1 <1>  -0.1500 
 14 C        3.8150    -2.3010     1.4290 C.3   1 <1>  -0.1600 
 15 C        3.1690    -3.4720     0.6780 C.3   1 <1>  -0.1600 
 16 C       -4.0820    -1.3320    -0.2850 C.ar  1 <1>   0.1900 
 17 C       -3.7090    -0.8690     2.1810 C.3   1 <1>  -0.0970 
 18 F       -5.3180    -1.6530    -0.0090 F     1 <1>  -0.1900 
 19 H        2.5530     0.4260    -0.2230 H     1 <1>   0.0800 
 20 H        3.1410    -1.0640    -0.8900 H     1 <1>   0.0800 
 21 H        1.5650    -2.7890    -1.3960 H     1 <1>   0.0800 
 22 H        0.0300    -2.8330    -0.5870 H     1 <1>   0.0800 
 23 H       -1.2400    -0.2970     1.1710 H     1 <1>   0.1500 
 24 H       -2.0260    -1.1100    -2.9300 H     1 <1>   0.1500 
 25 H        2.3360    -0.8450     2.0130 H     1 <1>   0.0800 
 26 H        3.8450    -0.1770     1.5080 H     1 <1>   0.0800 
 27 H        1.2920    -4.4420     0.4780 H     1 <1>   0.0800 
 28 H        1.2350    -3.1340     1.6090 H     1 <1>   0.0800 
 29 H       -4.3600    -1.7070    -2.3660 H     1 <1>   0.1500 
 30 H        3.8520    -2.5390     2.4780 H     1 <1>   0.0800 
 31 H        4.8340    -2.2120     1.0930 H     1 <1>   0.0800 
 32 H        3.5370    -3.4960    -0.3340 H     1 <1>   0.0800 
 33 H        3.4910    -4.3850     1.1480 H     1 <1>   0.0800 
 34 H       -2.9150    -0.5560     2.8350 H     1 <1>   0.0800 
 35 H       -4.0560    -1.8360     2.5000 H     1 <1>   0.0800 
 36 H       -4.5190    -0.1670     2.2650 H     1 <1>   0.0800 
@<TRIPOS>BOND
  1   1   2  2   
  2   1   3  2   
  3   1   4  am  
  4   1   5  1   
  5   4   6  1   
  6   4   7  1   
  7   5   8  ar  
  8   5   9  ar  
  9   6  10  1   
 10   6  19  1   
 11   6  20  1   
 12   7  11  1   
 13   7  21  1   
 14   7  22  1   
 15   8  12  ar  
 16   8  23  1   
 17   9  13  ar  
 18   9  24  1   
 19  10  14  1   
 20  10  25  1   
 21  10  26  1   
 22  11  15  1   
 23  11  27  1   
 24  11  28  1   
 25  12  16  ar  
 26  12  17  1   
 27  13  16  ar  
 28  13  29  1   
 29  14  15  1   
 30  14  30  1   
 31  14  31  1   
 32  15  32  1   
 33  15  33  1   
 34  16  18  1   
 35  17  34  1   
 36  17  35  1   
 37  17  36  1   
@<TRIPOS>SUBSTRUCTURE
  1 ****   5 GROUP 4 **** **** 0

# MOE 2024.06 (io_trps.svl 2023.06)
