@<TRIPOS>MOLECULE
NONAME
43 44 1 0 0 
SMALL
USER_CHARGES


@<TRIPOS>ATOM
  1 S        0.1770     0.4720     0.5330 S.o2  1 <1>   1.4470 
  2 O       -0.4460     1.5080    -0.2570 O.2   1 <1>  -0.6500 
  3 O        0.7270     0.7790     1.8340 O.2   1 <1>  -0.6500 
  4 N        1.4400    -0.0610    -0.4310 N.am  1 <1>  -0.9140 
  5 C       -0.9070    -0.9790     0.6400 C.ar  1 <1>  -0.0090 
  6 C        2.6270     0.7600    -0.3010 C.3   1 <1>   0.1960 
  7 C       -2.0370    -1.0950    -0.1560 C.ar  1 <1>  -0.1500 
  8 C       -0.6210    -2.0230     1.5090 C.ar  1 <1>  -0.1500 
  9 C        3.6640     0.2830    -1.3170 C.3   1 <1>  -0.1600 
 10 C       -2.8820    -2.2020    -0.1080 C.ar  1 <1>   0.0860 
 11 C       -1.4370    -3.1360     1.5790 C.ar  1 <1>  -0.1500 
 12 C        4.9550     1.1050    -1.2260 C.3   1 <1>  -0.2400 
 13 C       -2.5630    -3.2330     0.7800 C.ar  1 <1>  -0.1430 
 14 C       -4.0530    -2.2420    -0.9640 C.2   1 <1>   0.5440 
 15 C       -3.4450    -4.4710     0.8760 C.3   1 <1>  -0.0970 
 16 O       -4.1040    -3.0220    -1.8960 O.2   1 <1>  -0.5700 
 17 N       -5.1140    -1.3970    -0.7450 N.am  1 <1>  -0.6600 
 18 C       -6.3320    -1.4080    -1.5810 C.3   1 <1>   0.1400 
 19 C       -5.2770    -0.5160     0.4310 C.3   1 <1>   0.1400 
 20 C       -7.2170    -0.3150    -0.9930 C.3   1 <1>  -0.1600 
 21 C       -6.7660    -0.1890     0.4600 C.3   1 <1>  -0.1600 
 22 H        1.0910     0.0750    -1.3780 H     1 <1>   0.4200 
 23 H        3.0250     0.6660     0.6970 H     1 <1>   0.0800 
 24 H        2.3830     1.7960    -0.4790 H     1 <1>   0.0800 
 25 H       -2.2800    -0.3030    -0.8450 H     1 <1>   0.1500 
 26 H        0.2540    -1.9620     2.1360 H     1 <1>   0.1500 
 27 H        3.2630     0.3710    -2.3120 H     1 <1>   0.0800 
 28 H        3.8930    -0.7520    -1.1290 H     1 <1>   0.0800 
 29 H       -1.1850    -3.9290     2.2630 H     1 <1>   0.1500 
 30 H        4.7570     2.1440    -1.4260 H     1 <1>   0.0800 
 31 H        5.6690     0.7490    -1.9470 H     1 <1>   0.0800 
 32 H        5.3890     1.0180    -0.2450 H     1 <1>   0.0800 
 33 H       -4.4600    -4.1880     1.0930 H     1 <1>   0.0800 
 34 H       -3.1050    -5.1350     1.6500 H     1 <1>   0.0800 
 35 H       -3.4310    -5.0030    -0.0590 H     1 <1>   0.0800 
 36 H       -6.8060    -2.3720    -1.4960 H     1 <1>   0.0800 
 37 H       -6.0880    -1.2170    -2.6120 H     1 <1>   0.0800 
 38 H       -4.7000     0.3810     0.2810 H     1 <1>   0.0800 
 39 H       -4.9620    -1.0070     1.3350 H     1 <1>   0.0800 
 40 H       -8.2620    -0.5560    -1.0810 H     1 <1>   0.0800 
 41 H       -7.0250     0.6060    -1.5170 H     1 <1>   0.0800 
 42 H       -6.9530     0.7890     0.8660 H     1 <1>   0.0800 
 43 H       -7.2710    -0.9220     1.0640 H     1 <1>   0.0800 
@<TRIPOS>BOND
  1   1   2  2   
  2   1   3  2   
  3   1   4  am  
  4   1   5  1   
  5   4   6  1   
  6   4  22  1   
  7   5   7  ar  
  8   5   8  ar  
  9   6   9  1   
 10   6  23  1   
 11   6  24  1   
 12   7  10  ar  
 13   7  25  1   
 14   8  11  ar  
 15   8  26  1   
 16   9  12  1   
 17   9  27  1   
 18   9  28  1   
 19  10  13  ar  
 20  10  14  1   
 21  11  13  ar  
 22  11  29  1   
 23  12  30  1   
 24  12  31  1   
 25  12  32  1   
 26  13  15  1   
 27  14  16  2   
 28  14  17  am  
 29  15  33  1   
 30  15  34  1   
 31  15  35  1   
 32  17  18  1   
 33  17  19  1   
 34  18  20  1   
 35  18  36  1   
 36  18  37  1   
 37  19  21  1   
 38  19  38  1   
 39  19  39  1   
 40  20  21  1   
 41  20  40  1   
 42  20  41  1   
 43  21  42  1   
 44  21  43  1   
@<TRIPOS>SUBSTRUCTURE
  1 ****   7 GROUP 4 **** **** 0

# MOE 2024.06 (io_trps.svl 2023.06)
