@<TRIPOS>MOLECULE
NONAME
43 44 1 0 0 
SMALL
USER_CHARGES


@<TRIPOS>ATOM
  1 S        0.0630    -0.5720    -0.4780 S.3   1 <1>  -0.3710 
  2 C       -1.3840     0.4240    -0.1320 C.2   1 <1>   0.6510 
  3 C        1.4220     0.6770    -0.2430 C.3   1 <1>   0.1310 
  4 N       -1.1530     1.6470     0.1570 N.2   1 <1>  -0.6210 
  5 N       -2.6170    -0.1780    -0.2060 N.am  1 <1>  -0.4200 
  6 C        2.8350     0.1320    -0.4230 C.2   1 <1>   0.5690 
  7 C       -2.2150     2.4550     0.4300 C.2   1 <1>   0.0210 
  8 C       -3.7170     0.6170     0.0780 C.2   1 <1>   0.6160 
  9 C       -2.8000    -1.6020    -0.5630 C.3   1 <1>   0.2780 
 10 O        3.0040    -0.9380    -0.9640 O.2   1 <1>  -0.5700 
 11 N        3.9030     0.8800     0.0170 N.am  1 <1>  -0.6600 
 12 O       -1.9340     3.6280     0.6980 O.3   1 <1>  -0.8500 
 13 C       -3.5130     1.9580     0.3980 C.2   1 <1>  -0.1240 
 14 O       -4.8470     0.0900     0.0300 O.2   1 <1>  -0.5700 
 15 C       -2.7660    -2.4510     0.6960 C.2   1 <1>  -0.2880 
 16 C        5.3080     0.3910    -0.1060 C.3   1 <1>   0.1400 
 17 C        3.8100     2.2510     0.6130 C.3   1 <1>   0.1400 
 18 C       -4.6890     2.8780     0.7100 C.3   1 <1>  -0.0220 
 19 C       -1.8610    -3.3970     0.9690 C.2   1 <1>  -0.3000 
 20 C        6.1980     1.4590    -0.7610 C.3   1 <1>   0.1200 
 21 C        4.7940     3.2110    -0.0770 C.3   1 <1>   0.1200 
 22 C       -5.2670     3.4730    -0.5770 C.3   1 <1>  -0.2400 
 23 O        6.0890     2.6790    -0.0820 O.3   1 <1>  -0.5600 
 24 H        1.3000     1.0550     0.7550 H     1 <1>   0.0800 
 25 H        1.2400     1.4650    -0.9500 H     1 <1>   0.0800 
 26 H       -2.0380    -1.9180    -1.2510 H     1 <1>   0.0800 
 27 H       -3.7450    -1.7360    -1.0610 H     1 <1>   0.0800 
 28 H       -3.5700    -2.2000     1.3680 H     1 <1>   0.1500 
 29 H        5.3480    -0.5100    -0.6930 H     1 <1>   0.0800 
 30 H        5.6890     0.1630     0.8740 H     1 <1>   0.0800 
 31 H        4.0490     2.1970     1.6610 H     1 <1>   0.0800 
 32 H        2.8180     2.6560     0.5220 H     1 <1>   0.0800 
 33 H       -4.3540     3.6740     1.3510 H     1 <1>   0.0800 
 34 H       -5.4510     2.3330     1.2380 H     1 <1>   0.0800 
 35 H       -1.8580    -3.9820     1.8720 H     1 <1>   0.1500 
 36 H       -1.0430    -3.6570     0.3190 H     1 <1>   0.1500 
 37 H        5.9120     1.6080    -1.7880 H     1 <1>   0.0800 
 38 H        7.2280     1.1550    -0.7280 H     1 <1>   0.0800 
 39 H        4.8240     4.1490     0.4470 H     1 <1>   0.0800 
 40 H        4.4920     3.3940    -1.0940 H     1 <1>   0.0800 
 41 H       -4.4950     4.0210    -1.0880 H     1 <1>   0.0800 
 42 H       -6.0760     4.1410    -0.3460 H     1 <1>   0.0800 
 43 H       -5.6250     2.6890    -1.2200 H     1 <1>   0.0800 
@<TRIPOS>BOND
  1   1   2  1   
  2   1   3  1   
  3   2   4  2   
  4   2   5  1   
  5   3   6  1   
  6   3  24  1   
  7   3  25  1   
  8   4   7  1   
  9   5   8  am  
 10   5   9  1   
 11   6  10  2   
 12   6  11  am  
 13   7  12  1   
 14   7  13  2   
 15   8  13  1   
 16   8  14  2   
 17   9  15  1   
 18   9  26  1   
 19   9  27  1   
 20  11  16  1   
 21  11  17  1   
 22  13  18  1   
 23  15  19  2   
 24  15  28  1   
 25  16  20  1   
 26  16  29  1   
 27  16  30  1   
 28  17  21  1   
 29  17  31  1   
 30  17  32  1   
 31  18  22  1   
 32  18  33  1   
 33  18  34  1   
 34  19  35  1   
 35  19  36  1   
 36  20  23  1   
 37  20  37  1   
 38  20  38  1   
 39  21  23  1   
 40  21  39  1   
 41  21  40  1   
 42  22  41  1   
 43  22  42  1   
 44  22  43  1   
@<TRIPOS>SUBSTRUCTURE
  1 ****   4 GROUP 4 **** **** 0

# MOE 2024.06 (io_trps.svl 2023.06)
