@<TRIPOS>MOLECULE
NONAME
48 51 1 0 0 
SMALL
USER_CHARGES


@<TRIPOS>ATOM
  1 CL       1.1260     0.2310    -3.3110 Cl    1 <1>  -0.1230 
  2 C        1.0960     1.1090    -1.7900 C.2   1 <1>   0.1230 
  3 C        2.1750     1.3720    -1.0130 C.2   1 <1>  -0.0260 
  4 C       -0.0280     1.6320    -1.1610 C.2   1 <1>   0.2030 
  5 N        3.5100     1.0740    -1.1690 N.2   1 <1>  -0.5760 
  6 N        1.6660     2.0470     0.0700 N.pl3 1 <1>   0.6010 
  7 N        0.3310     2.2020    -0.0110 N.2   1 <1>  -0.7070 
  8 C       -1.3750     1.5590    -1.7110 C.2   1 <1>   0.7160 
  9 C        4.3340     1.4600    -0.2370 C.2   1 <1>   0.3490 
 10 C        2.5250     2.4400     1.0690 C.2   1 <1>  -0.1690 
 11 O       -1.5480     1.8060    -2.8940 O.2   1 <1>  -0.5700 
 12 N       -2.4830     1.2270    -0.9460 N.am  1 <1>  -0.6600 
 13 C        5.7500     1.1820    -0.3570 C.ar  1 <1>   0.0860 
 14 C        3.8470     2.1490     0.9200 C.2   1 <1>  -0.1360 
 15 C        1.8880     3.1540     2.2410 C.3   1 <1>   1.1580 
 16 C       -3.8730     1.4760    -1.4200 C.3   1 <1>   0.1400 
 17 C       -2.4130     0.7180     0.4510 C.3   1 <1>   0.1400 
 18 C        6.1990    -0.0550    -0.8200 C.ar  1 <1>  -0.1500 
 19 C        6.7190     2.1300    -0.0200 C.ar  1 <1>  -0.1500 
 20 F        1.2930     4.2890     1.9020 F     1 <1>  -0.3400 
 21 F        0.9930     2.4120     2.8800 F     1 <1>  -0.3400 
 22 F        2.7960     3.4840     3.1510 F     1 <1>  -0.3400 
 23 C       -4.5440     2.5020    -0.4990 C.3   1 <1>  -0.1600 
 24 C       -3.0460     1.7470     1.3930 C.3   1 <1>  -0.1600 
 25 C        7.5470    -0.3410    -0.9210 C.ar  1 <1>  -0.1500 
 26 C        8.0700     1.8510    -0.1180 C.ar  1 <1>  -0.1500 
 27 C       -4.4880     2.0740     0.9750 C.3   1 <1>  -0.1600 
 28 C        8.4940     0.6050    -0.5680 C.ar  1 <1>   0.0830 
 29 O        9.7930     0.2480    -0.6900 O.3   1 <1>  -0.3630 
 30 C       10.8400     1.1390    -0.3780 C.3   1 <1>   0.0400 
 31 H        4.5720     2.4170     1.6700 H     1 <1>   0.1500 
 32 H       -4.4210     0.5490    -1.4030 H     1 <1>   0.0800 
 33 H       -3.8770     1.8450    -2.4320 H     1 <1>   0.0800 
 34 H       -1.4000     0.5180     0.7480 H     1 <1>   0.0800 
 35 H       -2.9590    -0.2080     0.5110 H     1 <1>   0.0800 
 36 H        5.4760    -0.8010    -1.1050 H     1 <1>   0.1500 
 37 H        6.4160     3.1050     0.3170 H     1 <1>   0.1500 
 38 H       -5.5690     2.6320    -0.8000 H     1 <1>   0.0800 
 39 H       -4.0460     3.4480    -0.6200 H     1 <1>   0.0800 
 40 H       -2.4470     2.6430     1.3780 H     1 <1>   0.0800 
 41 H       -3.0360     1.3640     2.3970 H     1 <1>   0.0800 
 42 H        7.8760    -1.3010    -1.2770 H     1 <1>   0.1500 
 43 H        8.7780     2.6110     0.1550 H     1 <1>   0.1500 
 44 H       -5.1040     1.2020     1.1160 H     1 <1>   0.0800 
 45 H       -4.8770     2.8610     1.5980 H     1 <1>   0.0800 
 46 H       11.7720     0.6350    -0.5590 H     1 <1>   0.0800 
 47 H       10.7680     1.4120     0.6600 H     1 <1>   0.0800 
 48 H       10.7620     2.0040    -1.0120 H     1 <1>   0.0800 
@<TRIPOS>BOND
  1   1   2  1   
  2   2   3  2   
  3   2   4  1   
  4   3   5  1   
  5   3   6  1   
  6   4   7  2   
  7   4   8  1   
  8   5   9  2   
  9   6   7  1   
 10   6  10  1   
 11   8  11  2   
 12   8  12  am  
 13   9  13  1   
 14   9  14  1   
 15  10  14  2   
 16  10  15  1   
 17  12  16  1   
 18  12  17  1   
 19  13  18  ar  
 20  13  19  ar  
 21  14  31  1   
 22  15  20  1   
 23  15  21  1   
 24  15  22  1   
 25  16  23  1   
 26  16  32  1   
 27  16  33  1   
 28  17  24  1   
 29  17  34  1   
 30  17  35  1   
 31  18  25  ar  
 32  18  36  1   
 33  19  26  ar  
 34  19  37  1   
 35  23  27  1   
 36  23  38  1   
 37  23  39  1   
 38  24  27  1   
 39  24  40  1   
 40  24  41  1   
 41  25  28  ar  
 42  25  42  1   
 43  26  28  ar  
 44  26  43  1   
 45  27  44  1   
 46  27  45  1   
 47  28  29  1   
 48  29  30  1   
 49  30  46  1   
 50  30  47  1   
 51  30  48  1   
@<TRIPOS>SUBSTRUCTURE
  1 ****   6 GROUP 4 **** **** 0

# MOE 2024.06 (io_trps.svl 2023.06)
