@<TRIPOS>MOLECULE
NONAME
44 46 1 0 0 
SMALL
USER_CHARGES


@<TRIPOS>ATOM
  1 BR       0.9390    -0.5310    -2.4270 Br    1 <1>  -0.1110 
  2 C        0.1830    -1.6140    -1.0210 C.ar  1 <1>   0.1110 
  3 C        0.7230    -1.5770     0.2570 C.ar  1 <1>   0.0820 
  4 C       -0.9050    -2.4060    -1.3330 C.ar  1 <1>  -0.1500 
  5 O        1.7730    -0.7870     0.5660 O.3   1 <1>  -0.3630 
  6 C        0.1450    -2.3560     1.2450 C.ar  1 <1>  -0.1500 
  7 C       -1.4850    -3.1810    -0.3350 C.ar  1 <1>  -0.1430 
  8 C        3.0540    -1.3270     0.3300 C.3   1 <1>   0.0400 
  9 C       -0.9490    -3.1560     0.9490 C.ar  1 <1>  -0.1500 
 10 C       -2.6990    -4.0370    -0.6440 C.3   1 <1>   0.4870 
 11 N       -3.9020    -3.3770    -0.0730 N.4   1 <1>  -0.9590 
 12 C       -5.1220    -4.2600    -0.1630 C.3   1 <1>   0.3430 
 13 C       -4.1650    -2.0310    -0.7100 C.3   1 <1>   0.3430 
 14 C       -6.3810    -3.5900     0.4280 C.3   1 <1>   0.2090 
 15 C       -5.4130    -1.3350    -0.1290 C.3   1 <1>   0.2090 
 16 N       -6.6020    -2.2410    -0.1720 N.pl3 1 <1>  -0.8380 
 17 C       -7.8400    -1.6430     0.0980 C.ar  1 <1>   0.1000 
 18 C       -8.2340    -1.1650     1.3550 C.ar  1 <1>   0.1770 
 19 C       -8.7450    -1.5120    -0.9480 C.ar  1 <1>  -0.1500 
 20 CL      -7.1570    -1.2870     2.7370 Cl    1 <1>  -0.1770 
 21 C       -9.4710    -0.5840     1.5580 C.ar  1 <1>  -0.1500 
 22 C       -9.9860    -0.9310    -0.7540 C.ar  1 <1>  -0.1500 
 23 C      -10.3530    -0.4660     0.4980 C.ar  1 <1>  -0.1500 
 24 H       -1.2780    -2.4010    -2.3420 H     1 <1>   0.1500 
 25 H        0.5570    -2.3300     2.2390 H     1 <1>   0.1500 
 26 H        3.7850    -0.5940     0.6200 H     1 <1>   0.0800 
 27 H        3.1550    -1.5510    -0.7170 H     1 <1>   0.0800 
 28 H        3.1720    -2.2190     0.9190 H     1 <1>   0.0800 
 29 H       -1.3710    -3.7560     1.7380 H     1 <1>   0.1500 
 30 H       -2.5650    -5.0130    -0.2050 H     1 <1>   0.0800 
 31 H       -2.8070    -4.1540    -1.7110 H     1 <1>   0.0800 
 32 H       -3.7080    -3.1960     0.9190 H     1 <1>   0.4500 
 33 H       -4.9460    -5.1880     0.3560 H     1 <1>   0.0800 
 34 H       -5.3250    -4.4910    -1.1960 H     1 <1>   0.0800 
 35 H       -4.3150    -2.1550    -1.7690 H     1 <1>   0.0800 
 36 H       -3.3130    -1.3850    -0.5700 H     1 <1>   0.0800 
 37 H       -6.2750    -3.5060     1.4950 H     1 <1>   0.0800 
 38 H       -7.2400    -4.2090     0.2310 H     1 <1>   0.0800 
 39 H       -5.6240    -0.4470    -0.7010 H     1 <1>   0.0800 
 40 H       -5.2160    -1.0330     0.8840 H     1 <1>   0.0800 
 41 H       -8.4680    -1.8700    -1.9230 H     1 <1>   0.1500 
 42 H       -9.7420    -0.2270     2.5360 H     1 <1>   0.1500 
 43 H      -10.6720    -0.8400    -1.5800 H     1 <1>   0.1500 
 44 H      -11.3200    -0.0150     0.6450 H     1 <1>   0.1500 
@<TRIPOS>BOND
  1   1   2  1   
  2   2   3  ar  
  3   2   4  ar  
  4   3   5  1   
  5   3   6  ar  
  6   4   7  ar  
  7   4  24  1   
  8   5   8  1   
  9   6   9  ar  
 10   6  25  1   
 11   7   9  ar  
 12   7  10  1   
 13   8  26  1   
 14   8  27  1   
 15   8  28  1   
 16   9  29  1   
 17  10  11  1   
 18  10  30  1   
 19  10  31  1   
 20  11  12  1   
 21  11  13  1   
 22  11  32  1   
 23  12  14  1   
 24  12  33  1   
 25  12  34  1   
 26  13  15  1   
 27  13  35  1   
 28  13  36  1   
 29  14  16  1   
 30  14  37  1   
 31  14  38  1   
 32  15  16  1   
 33  15  39  1   
 34  15  40  1   
 35  16  17  1   
 36  17  18  ar  
 37  17  19  ar  
 38  18  20  1   
 39  18  21  ar  
 40  19  22  ar  
 41  19  41  1   
 42  21  23  ar  
 43  21  42  1   
 44  22  23  ar  
 45  22  43  1   
 46  23  44  1   
@<TRIPOS>SUBSTRUCTURE
  1 ****  13 GROUP 4 **** **** 0

# MOE 2024.06 (io_trps.svl 2023.06)
