@<TRIPOS>MOLECULE
NONAME
46 49 1 0 0 
SMALL
USER_CHARGES


@<TRIPOS>ATOM
  1 O        0.8570    -1.2610    -0.5800 O.2   1 <1>  -0.5700 
  2 C        0.4750    -2.2100     0.0790 C.2   1 <1>   0.5440 
  3 N        1.4430    -2.9330     0.7340 N.am  1 <1>  -0.6600 
  4 C       -0.9280    -2.5930     0.1090 C.ar  1 <1>   0.0860 
  5 C        1.7990    -4.2740     0.1940 C.3   1 <1>   0.1400 
  6 C        2.6170    -2.1990     1.2940 C.3   1 <1>   0.1400 
  7 C       -1.8230    -2.1320    -0.8570 C.ar  1 <1>  -0.1500 
  8 C       -1.4470    -3.4290     1.1000 C.ar  1 <1>  -0.1500 
  9 C        2.8940    -4.1320    -0.8860 C.3   1 <1>   0.3430 
 10 C        3.7090    -2.0430     0.2180 C.3   1 <1>   0.3430 
 11 C       -3.1570    -2.4950    -0.8440 C.ar  1 <1>  -0.1500 
 12 C       -2.7810    -3.7940     1.1150 C.ar  1 <1>  -0.1500 
 13 N        4.0960    -3.3700    -0.3930 N.4   1 <1>  -0.9590 
 14 C       -3.6610    -3.3350     0.1420 C.ar  1 <1>   0.0730 
 15 C        5.0950    -3.1770    -1.4770 C.3   1 <1>   0.4860 
 16 C       -5.0460    -3.7130     0.1570 C.1   1 <1>   0.4840 
 17 C        6.3740    -2.6460    -0.8600 C.ar  1 <1>  -0.1430 
 18 N       -6.1440    -4.0180     0.1680 N.1   1 <1>  -0.5570 
 19 C        7.1920    -3.4990    -0.1220 C.ar  1 <1>  -0.1500 
 20 C        6.7290    -1.3060    -1.0240 C.ar  1 <1>  -0.1500 
 21 C        8.3370    -2.9750     0.4410 C.ar  1 <1>   0.0830 
 22 C        7.8890    -0.8010    -0.4500 C.ar  1 <1>  -0.1500 
 23 O        9.2520    -3.6030     1.1840 O.3   1 <1>  -0.3630 
 24 C        8.6780    -1.6640     0.2830 C.ar  1 <1>   0.0830 
 25 C       10.2510    -2.6350     1.5080 C.3   1 <1>   0.4000 
 26 O        9.8240    -1.4070     0.9200 O.3   1 <1>  -0.3620 
 27 H        0.9280    -4.7360    -0.2410 H     1 <1>   0.0800 
 28 H        2.1430    -4.9070     0.9940 H     1 <1>   0.0800 
 29 H        3.0050    -2.7260     2.1480 H     1 <1>   0.0800 
 30 H        2.3050    -1.2210     1.6240 H     1 <1>   0.0800 
 31 H       -1.4640    -1.4740    -1.6320 H     1 <1>   0.1500 
 32 H       -0.7970    -3.7950     1.8770 H     1 <1>   0.1500 
 33 H        2.4640    -3.6140    -1.7280 H     1 <1>   0.0800 
 34 H        3.1920    -5.1130    -1.2190 H     1 <1>   0.0800 
 35 H        4.5730    -1.5720     0.6590 H     1 <1>   0.0800 
 36 H        3.3290    -1.3870    -0.5480 H     1 <1>   0.0800 
 37 H       -3.8170    -2.1190    -1.6090 H     1 <1>   0.1500 
 38 H       -3.1480    -4.4420     1.8950 H     1 <1>   0.1500 
 39 H        4.5620    -3.9140     0.3430 H     1 <1>   0.4500 
 40 H        4.7210    -2.4820    -2.2120 H     1 <1>   0.0800 
 41 H        5.3020    -4.1150    -1.9670 H     1 <1>   0.0800 
 42 H        6.9730    -4.5420     0.0210 H     1 <1>   0.1500 
 43 H        6.1120    -0.6370    -1.6020 H     1 <1>   0.1500 
 44 H        8.1820     0.2290    -0.5650 H     1 <1>   0.1500 
 45 H       11.1930    -2.9310     1.0800 H     1 <1>   0.0800 
 46 H       10.3160    -2.5230     2.5760 H     1 <1>   0.0800 
@<TRIPOS>BOND
  1   1   2  2   
  2   2   3  am  
  3   2   4  1   
  4   3   5  1   
  5   3   6  1   
  6   4   7  ar  
  7   4   8  ar  
  8   5   9  1   
  9   5  27  1   
 10   5  28  1   
 11   6  10  1   
 12   6  29  1   
 13   6  30  1   
 14   7  11  ar  
 15   7  31  1   
 16   8  12  ar  
 17   8  32  1   
 18   9  13  1   
 19   9  33  1   
 20   9  34  1   
 21  10  13  1   
 22  10  35  1   
 23  10  36  1   
 24  11  14  ar  
 25  11  37  1   
 26  12  14  ar  
 27  12  38  1   
 28  13  15  1   
 29  13  39  1   
 30  14  16  1   
 31  15  17  1   
 32  15  40  1   
 33  15  41  1   
 34  16  18  3   
 35  17  19  ar  
 36  17  20  ar  
 37  19  21  ar  
 38  19  42  1   
 39  20  22  ar  
 40  20  43  1   
 41  21  23  1   
 42  21  24  ar  
 43  22  24  ar  
 44  22  44  1   
 45  23  25  1   
 46  24  26  1   
 47  25  26  1   
 48  25  45  1   
 49  25  46  1   
@<TRIPOS>SUBSTRUCTURE
  1 ****  10 GROUP 4 **** **** 0

# MOE 2024.06 (io_trps.svl 2023.06)
