@<TRIPOS>MOLECULE
NONAME
32 32 1 0 0 
SMALL
USER_CHARGES


@<TRIPOS>ATOM
  1 O        0.2390     1.3840     1.1760 O.2   1 <1>  -0.5700 
  2 C        0.8810     1.8520     0.2560 C.2   1 <1>   0.5440 
  3 N        0.2020     2.4140    -0.7900 N.am  1 <1>  -0.7300 
  4 C        2.3320     1.8070     0.2630 C.ar  1 <1>   0.0860 
  5 C       -1.2790     2.4510    -0.9200 C.3   1 <1>   0.1400 
  6 C        3.0130     0.7920     0.9370 C.ar  1 <1>  -0.1500 
  7 C        3.1080     2.7660    -0.3940 C.ar  1 <1>  -0.1500 
  8 C       -1.8820     3.4720     0.0450 C.3   1 <1>   0.1200 
  9 C        4.3930     0.7280     0.9450 C.ar  1 <1>  -0.1500 
 10 C        4.4900     2.7110    -0.3920 C.ar  1 <1>  -0.1500 
 11 O       -3.2260     3.6470    -0.2790 O.3   1 <1>  -0.5600 
 12 C        5.1450     1.6830     0.2800 C.ar  1 <1>   0.0830 
 13 C       -3.9060     4.4880     0.5950 C.3   1 <1>   0.0400 
 14 O        6.4880     1.5480     0.3350 O.3   1 <1>  -0.3630 
 15 C        7.3550     2.4730    -0.2800 C.3   1 <1>   0.3200 
 16 C        8.7620     2.0470    -0.0300 C.1   1 <1>  -0.2000 
 17 C        9.8840     1.7070     0.1700 C.1   1 <1>  -0.1770 
 18 H        0.7200     2.6890    -1.6250 H     1 <1>   0.3700 
 19 H       -1.6810     1.4770    -0.7000 H     1 <1>   0.0800 
 20 H       -1.5380     2.7170    -1.9300 H     1 <1>   0.0800 
 21 H        2.4430     0.0440     1.4620 H     1 <1>   0.1500 
 22 H        2.6210     3.5750    -0.9080 H     1 <1>   0.1500 
 23 H       -1.3840     4.4210    -0.0530 H     1 <1>   0.0800 
 24 H       -1.8070     3.1110     1.0560 H     1 <1>   0.0800 
 25 H        4.8990    -0.0630     1.4690 H     1 <1>   0.1500 
 26 H        5.0360     3.4730    -0.9140 H     1 <1>   0.1500 
 27 H       -4.9260     4.5630     0.2620 H     1 <1>   0.0800 
 28 H       -3.4470     5.4610     0.5830 H     1 <1>   0.0800 
 29 H       -3.8780     4.0670     1.5860 H     1 <1>   0.0800 
 30 H        7.1780     3.4440     0.1470 H     1 <1>   0.0800 
 31 H        7.1510     2.4820    -1.3360 H     1 <1>   0.0800 
 32 H       10.8960     1.3920     0.3560 H     1 <1>   0.1770 
@<TRIPOS>BOND
  1   1   2  2   
  2   2   3  am  
  3   2   4  1   
  4   3   5  1   
  5   3  18  1   
  6   4   6  ar  
  7   4   7  ar  
  8   5   8  1   
  9   5  19  1   
 10   5  20  1   
 11   6   9  ar  
 12   6  21  1   
 13   7  10  ar  
 14   7  22  1   
 15   8  11  1   
 16   8  23  1   
 17   8  24  1   
 18   9  12  ar  
 19   9  25  1   
 20  10  12  ar  
 21  10  26  1   
 22  11  13  1   
 23  12  14  1   
 24  13  27  1   
 25  13  28  1   
 26  13  29  1   
 27  14  15  1   
 28  15  16  1   
 29  15  30  1   
 30  15  31  1   
 31  16  17  3   
 32  17  32  1   
@<TRIPOS>SUBSTRUCTURE
  1 ****   4 GROUP 4 **** **** 0

# MOE 2024.06 (io_trps.svl 2023.06)
