@<TRIPOS>MOLECULE
NONAME
42 43 1 0 0 
SMALL
USER_CHARGES


@<TRIPOS>ATOM
  1 O       -0.3190     0.1100     0.8120 O.2   1 <1>  -0.5700 
  2 C       -0.7590     1.2350     0.6890 C.2   1 <1>   0.5440 
  3 N        0.1100     2.2550     0.4170 N.am  1 <1>  -0.7300 
  4 C       -2.1860     1.4850     0.8090 C.ar  1 <1>   0.0860 
  5 C        1.5720     2.1270     0.2940 C.3   1 <1>   0.2200 
  6 C       -3.1080     0.4670     0.5620 C.ar  1 <1>  -0.1500 
  7 C       -2.6920     2.7350     1.1780 C.ar  1 <1>  -0.1500 
  8 C        2.2370     3.1060     1.2670 C.3   1 <1>  -0.1600 
  9 C        1.9750     2.4230    -1.1540 C.3   1 <1>  -0.1600 
 10 C       -4.4790     0.6750     0.6630 C.ar  1 <1>   0.0830 
 11 C       -4.0520     2.9620     1.2750 C.ar  1 <1>  -0.1500 
 12 C        3.7640     3.0970     1.1070 C.3   1 <1>  -0.1600 
 13 C        3.5020     2.4130    -1.3190 C.3   1 <1>  -0.1600 
 14 O       -5.3880    -0.3160     0.4520 O.3   1 <1>  -0.3630 
 15 C       -4.9490     1.9430     1.0070 C.ar  1 <1>   0.0830 
 16 C        4.1720     3.3900    -0.3430 C.3   1 <1>  -0.1600 
 17 C       -4.9990    -1.6710     0.3840 C.3   1 <1>   0.0400 
 18 O       -6.2730     2.2190     1.1210 O.3   1 <1>  -0.2330 
 19 C       -7.1840     2.0450     0.1660 C.2   1 <1>   0.6590 
 20 O       -8.3520     1.9730     0.4380 O.2   1 <1>  -0.5700 
 21 C       -6.7380     2.0300    -1.2840 C.3   1 <1>  -0.1790 
 22 H       -0.2530     3.1810     0.2020 H     1 <1>   0.3700 
 23 H        1.8760     1.1230     0.5450 H     1 <1>   0.0800 
 24 H       -2.7170    -0.4960     0.2900 H     1 <1>   0.1500 
 25 H       -2.0140     3.5380     1.4030 H     1 <1>   0.1500 
 26 H        1.9840     2.8280     2.2760 H     1 <1>   0.0800 
 27 H        1.8730     4.1010     1.0850 H     1 <1>   0.0800 
 28 H        1.5980     3.3870    -1.4450 H     1 <1>   0.0800 
 29 H        1.5440     1.6770    -1.8000 H     1 <1>   0.0800 
 30 H       -4.4240     3.9300     1.5640 H     1 <1>   0.1500 
 31 H        4.1460     2.1320     1.3960 H     1 <1>   0.0800 
 32 H        4.2010     3.8320     1.7610 H     1 <1>   0.0800 
 33 H        3.7580     2.6790    -2.3300 H     1 <1>   0.0800 
 34 H        3.8720     1.4180    -1.1370 H     1 <1>   0.0800 
 35 H        5.2420     3.3170    -0.4380 H     1 <1>   0.0800 
 36 H        3.8880     4.3980    -0.5970 H     1 <1>   0.0800 
 37 H       -5.8890    -2.2720     0.3310 H     1 <1>   0.0800 
 38 H       -4.4420    -1.9210     1.2700 H     1 <1>   0.0800 
 39 H       -4.4050    -1.8220    -0.5000 H     1 <1>   0.0800 
 40 H       -6.3170     1.0750    -1.5310 H     1 <1>   0.0800 
 41 H       -6.0130     2.8010    -1.4560 H     1 <1>   0.0800 
 42 H       -7.5880     2.2030    -1.9180 H     1 <1>   0.0800 
@<TRIPOS>BOND
  1   1   2  2   
  2   2   3  am  
  3   2   4  1   
  4   3   5  1   
  5   3  22  1   
  6   4   6  ar  
  7   4   7  ar  
  8   5   8  1   
  9   5   9  1   
 10   5  23  1   
 11   6  10  ar  
 12   6  24  1   
 13   7  11  ar  
 14   7  25  1   
 15   8  12  1   
 16   8  26  1   
 17   8  27  1   
 18   9  13  1   
 19   9  28  1   
 20   9  29  1   
 21  10  14  1   
 22  10  15  ar  
 23  11  15  ar  
 24  11  30  1   
 25  12  16  1   
 26  12  31  1   
 27  12  32  1   
 28  13  16  1   
 29  13  33  1   
 30  13  34  1   
 31  14  17  1   
 32  15  18  1   
 33  16  35  1   
 34  16  36  1   
 35  17  37  1   
 36  17  38  1   
 37  17  39  1   
 38  18  19  1   
 39  19  20  2   
 40  19  21  1   
 41  21  40  1   
 42  21  41  1   
 43  21  42  1   
@<TRIPOS>SUBSTRUCTURE
  1 ****   4 GROUP 4 **** **** 0

# MOE 2024.06 (io_trps.svl 2023.06)
