@<TRIPOS>MOLECULE
NONAME
52 53 1 0 0 
SMALL
USER_CHARGES


@<TRIPOS>ATOM
  1 O       -0.6770     0.1990    -1.0310 O.2   1 <1>  -0.5700 
  2 C       -1.7010    -0.4230    -0.8080 C.2   1 <1>   0.7800 
  3 O       -1.6930    -1.7560    -0.7740 O.3   1 <1>  -0.4300 
  4 N       -2.9010     0.1930    -0.5910 N.am  1 <1>  -0.6600 
  5 C       -0.5880    -2.6000    -0.5680 C.3   1 <1>   0.2800 
  6 C       -4.0730    -0.6370    -0.0770 C.3   1 <1>   0.2580 
  7 C       -2.9720     1.6800    -0.4700 C.3   1 <1>   0.1400 
  8 C       -1.1870    -3.9970    -0.4040 C.3   1 <1>  -0.2400 
  9 C        0.3360    -2.5760    -1.7910 C.3   1 <1>  -0.2400 
 10 C        0.1330    -2.2050     0.7260 C.3   1 <1>  -0.2400 
 11 C       -5.3780     0.1710    -0.1140 C.ar  1 <1>  -0.1440 
 12 C       -3.8520    -1.3050     1.3090 C.2   1 <1>   0.9060 
 13 C       -4.0280     2.1430     0.5390 C.3   1 <1>  -0.0170 
 14 C       -5.3670     1.5230     0.1920 C.ar  1 <1>  -0.1440 
 15 C       -6.5770    -0.4430    -0.4350 C.ar  1 <1>  -0.1500 
 16 O       -3.2950    -0.6870     2.2340 O.co2 1 <1>  -0.9000 
 17 O       -4.2370    -2.4750     1.4720 O.co2 1 <1>  -0.9000 
 18 C       -6.5420     2.2590     0.1750 C.ar  1 <1>  -0.1500 
 19 C       -7.7560     0.2830    -0.4490 C.ar  1 <1>   0.0820 
 20 C       -7.7510     1.6480    -0.1490 C.ar  1 <1>   0.0820 
 21 O       -8.8990    -0.3720    -0.7600 O.3   1 <1>  -0.3630 
 22 O       -8.9370     2.3250    -0.1850 O.3   1 <1>  -0.3630 
 23 C       -9.7290    -0.6820     0.3320 C.3   1 <1>   0.1200 
 24 C       -9.0030     3.7070     0.0690 C.3   1 <1>   0.1200 
 25 C      -10.9140    -1.4920    -0.1870 C.3   1 <1>  -0.2400 
 26 C      -10.4580     4.1420    -0.0740 C.3   1 <1>  -0.2400 
 27 H       -4.1970    -1.4550    -0.7610 H     1 <1>   0.0800 
 28 H       -3.2120     2.0820    -1.4380 H     1 <1>   0.0800 
 29 H       -2.0130     2.0670    -0.1720 H     1 <1>   0.0800 
 30 H       -1.7210    -4.2810    -1.2920 H     1 <1>   0.0800 
 31 H       -1.8720    -4.0030     0.4280 H     1 <1>   0.0800 
 32 H       -0.4150    -4.7200    -0.2170 H     1 <1>   0.0800 
 33 H        1.1020    -3.3220    -1.6850 H     1 <1>   0.0800 
 34 H        0.8180    -1.6210    -1.8890 H     1 <1>   0.0800 
 35 H       -0.2260    -2.7830    -2.6830 H     1 <1>   0.0800 
 36 H        0.8810    -2.9340     0.9730 H     1 <1>   0.0800 
 37 H       -0.5750    -2.1500     1.5360 H     1 <1>   0.0800 
 38 H        0.6190    -1.2520     0.6230 H     1 <1>   0.0800 
 39 H       -4.0890     3.2150     0.5240 H     1 <1>   0.0800 
 40 H       -3.7330     1.8360     1.5280 H     1 <1>   0.0800 
 41 H       -6.6020    -1.4930    -0.6620 H     1 <1>   0.1500 
 42 H       -6.4930     3.3010     0.4190 H     1 <1>   0.1500 
 43 H      -10.0600     0.2370     0.7830 H     1 <1>   0.0800 
 44 H       -9.1530    -1.2500     1.0430 H     1 <1>   0.0800 
 45 H       -8.3810     4.2140    -0.6480 H     1 <1>   0.0800 
 46 H       -8.6470     3.8870     1.0690 H     1 <1>   0.0800 
 47 H      -11.4650    -0.9130    -0.9060 H     1 <1>   0.0800 
 48 H      -11.5660    -1.7430     0.6290 H     1 <1>   0.0800 
 49 H      -10.5650    -2.4000    -0.6440 H     1 <1>   0.0800 
 50 H      -10.8060     3.9390    -1.0700 H     1 <1>   0.0800 
 51 H      -10.5440     5.1970     0.1120 H     1 <1>   0.0800 
 52 H      -11.0710     3.6160     0.6350 H     1 <1>   0.0800 
@<TRIPOS>BOND
  1   1   2  2   
  2   2   3  1   
  3   2   4  am  
  4   3   5  1   
  5   4   6  1   
  6   4   7  1   
  7   5   8  1   
  8   5   9  1   
  9   5  10  1   
 10   6  11  1   
 11   6  12  1   
 12   6  27  1   
 13   7  13  1   
 14   7  28  1   
 15   7  29  1   
 16   8  30  1   
 17   8  31  1   
 18   8  32  1   
 19   9  33  1   
 20   9  34  1   
 21   9  35  1   
 22  10  36  1   
 23  10  37  1   
 24  10  38  1   
 25  11  14  ar  
 26  11  15  ar  
 27  12  16  ar  
 28  12  17  ar  
 29  13  14  1   
 30  13  39  1   
 31  13  40  1   
 32  14  18  ar  
 33  15  19  ar  
 34  15  41  1   
 35  18  20  ar  
 36  18  42  1   
 37  19  20  ar  
 38  19  21  1   
 39  20  22  1   
 40  21  23  1   
 41  22  24  1   
 42  23  25  1   
 43  23  43  1   
 44  23  44  1   
 45  24  26  1   
 46  24  45  1   
 47  24  46  1   
 48  25  47  1   
 49  25  48  1   
 50  25  49  1   
 51  26  50  1   
 52  26  51  1   
 53  26  52  1   
@<TRIPOS>SUBSTRUCTURE
  1 ****  11 GROUP 4 **** **** 0

# MOE 2024.06 (io_trps.svl 2023.06)
