@<TRIPOS>MOLECULE
NONAME
38 40 1 0 0 
SMALL
USER_CHARGES


@<TRIPOS>ATOM
  1 O        0.2060    -0.3630    -0.1500 O.3   1 <1>  -0.3630 
  2 C       -1.0160    -0.9480    -0.1360 C.ar  1 <1>   0.0830 
  3 C        1.3680    -1.0880     0.1650 C.3   1 <1>   0.1200 
  4 C       -1.2510    -2.2590     0.2080 C.ar  1 <1>  -0.1500 
  5 C       -2.0900    -0.1280    -0.5030 C.ar  1 <1>  -0.1500 
  6 C        2.5510    -0.1240     0.0380 C.3   1 <1>   0.3430 
  7 C       -2.5540    -2.7950     0.1950 C.ar  1 <1>   0.0000 
  8 C       -3.3640    -0.6230    -0.5230 C.ar  1 <1>  -0.1500 
  9 N        3.8670    -0.7770     0.3430 N.4   1 <1>  -0.9590 
 10 C       -3.6320    -1.9620    -0.1770 C.ar  1 <1>   0.0000 
 11 C       -2.8260    -4.1350     0.5420 C.ar  1 <1>  -0.1500 
 12 C        4.9840     0.2000     0.3660 C.3   1 <1>   0.3430 
 13 C        4.2710    -1.8210    -0.6340 C.3   1 <1>   0.3430 
 14 C       -4.9340    -2.5010    -0.1890 C.ar  1 <1>  -0.1500 
 15 C       -4.1000    -4.6310     0.5220 C.ar  1 <1>  -0.1500 
 16 C        6.2350    -0.6530     0.2140 C.3   1 <1>  -0.1600 
 17 C        5.7750    -1.9580    -0.4420 C.3   1 <1>  -0.1600 
 18 C       -5.1670    -3.8050     0.1510 C.ar  1 <1>  -0.1500 
 19 H        1.4490    -1.9020    -0.5330 H     1 <1>   0.0800 
 20 H        1.2730    -1.4500     1.1740 H     1 <1>   0.0800 
 21 H       -0.4600    -2.9210     0.4970 H     1 <1>   0.1500 
 22 H       -1.8900     0.8950    -0.7670 H     1 <1>   0.1500 
 23 H        2.3930     0.6940     0.7210 H     1 <1>   0.0800 
 24 H        2.5700     0.2710    -0.9650 H     1 <1>   0.0800 
 25 H       -4.1880     0.0080    -0.8050 H     1 <1>   0.1500 
 26 H        3.8310    -1.2120     1.2750 H     1 <1>   0.4500 
 27 H       -2.0070    -4.7700     0.8270 H     1 <1>   0.1500 
 28 H        4.9990     0.7730     1.2800 H     1 <1>   0.0800 
 29 H        4.9020     0.8700    -0.4760 H     1 <1>   0.0800 
 30 H        4.0680    -1.4810    -1.6370 H     1 <1>   0.0800 
 31 H        3.7600    -2.7550    -0.4600 H     1 <1>   0.0800 
 32 H       -5.7500    -1.8620    -0.4740 H     1 <1>   0.1500 
 33 H       -4.3010    -5.6550     0.7870 H     1 <1>   0.1500 
 34 H        6.6630    -0.8490     1.1820 H     1 <1>   0.0800 
 35 H        6.9690    -0.1410    -0.3850 H     1 <1>   0.0800 
 36 H        6.2600    -2.1220    -1.3890 H     1 <1>   0.0800 
 37 H        5.9880    -2.7970     0.1990 H     1 <1>   0.0800 
 38 H       -6.1630    -4.2100     0.1400 H     1 <1>   0.1500 
@<TRIPOS>BOND
  1   1   2  1   
  2   1   3  1   
  3   2   4  ar  
  4   2   5  ar  
  5   3   6  1   
  6   3  19  1   
  7   3  20  1   
  8   4   7  ar  
  9   4  21  1   
 10   5   8  ar  
 11   5  22  1   
 12   6   9  1   
 13   6  23  1   
 14   6  24  1   
 15   7  10  ar  
 16   7  11  ar  
 17   8  10  ar  
 18   8  25  1   
 19   9  12  1   
 20   9  13  1   
 21   9  26  1   
 22  10  14  ar  
 23  11  15  ar  
 24  11  27  1   
 25  12  16  1   
 26  12  28  1   
 27  12  29  1   
 28  13  17  1   
 29  13  30  1   
 30  13  31  1   
 31  14  18  ar  
 32  14  32  1   
 33  15  18  ar  
 34  15  33  1   
 35  16  17  1   
 36  16  34  1   
 37  16  35  1   
 38  17  36  1   
 39  17  37  1   
 40  18  38  1   
@<TRIPOS>SUBSTRUCTURE
  1 ****   2 GROUP 4 **** **** 0

# MOE 2024.06 (io_trps.svl 2023.06)
