@<TRIPOS>MOLECULE
NONAME
35 36 1 0 0 
SMALL
USER_CHARGES


@<TRIPOS>ATOM
  1 O       -1.2540     0.7460    -2.6200 O.3   1 <1>  -0.3370 
  2 N       -1.8960    -0.1800    -1.9320 N.2   1 <1>  -0.5130 
  3 C       -2.4870     0.1590    -0.8530 C.2   1 <1>   0.4750 
  4 C       -2.4960     1.4520    -0.1990 C.2   1 <1>  -0.0860 
  5 C       -3.3810    -0.8680    -0.1760 C.3   1 <1>  -0.0990 
  6 C       -3.6120     1.8630     0.5390 C.2   1 <1>   0.1080 
  7 C       -1.6280     2.5020    -0.0650 C.2   1 <1>  -0.3320 
  8 C       -4.8230    -0.3260    -0.0280 C.3   1 <1>   0.0000 
  9 N       -3.4960     3.0550     1.0220 N.2   1 <1>  -0.7070 
 10 C       -4.8190     0.9790     0.8090 C.3   1 <1>   0.0210 
 11 N       -2.2730     3.4530     0.6410 N.pl3 1 <1>   0.3000 
 12 C       -0.1790     2.6680    -0.5130 C.3   1 <1>   0.0200 
 13 C       -5.6930    -1.3850     0.6690 C.3   1 <1>  -0.2400 
 14 C       -5.4290    -0.0510    -1.4180 C.3   1 <1>  -0.2400 
 15 C        0.7060     3.2060     0.6190 C.3   1 <1>  -0.1600 
 16 C        2.1750     3.2870     0.1900 C.3   1 <1>  -0.2400 
 17 H       -1.3930     1.6620    -2.2980 H     1 <1>   0.4000 
 18 H       -3.3860    -1.7760    -0.7530 H     1 <1>   0.0800 
 19 H       -2.9680    -1.0930     0.7900 H     1 <1>   0.0800 
 20 H       -4.7920     0.7350     1.8550 H     1 <1>   0.0800 
 21 H       -5.7180     1.5430     0.6360 H     1 <1>   0.0800 
 22 H       -1.8930     4.3670     0.9130 H     1 <1>   0.2700 
 23 H        0.2160     1.7130    -0.8120 H     1 <1>   0.0800 
 24 H       -0.1330     3.3340    -1.3570 H     1 <1>   0.0800 
 25 H       -6.6980    -1.0240     0.7980 H     1 <1>   0.0800 
 26 H       -5.2940    -1.6290     1.6390 H     1 <1>   0.0800 
 27 H       -5.7310    -2.2880     0.0840 H     1 <1>   0.0800 
 28 H       -4.9010     0.7350    -1.9270 H     1 <1>   0.0800 
 29 H       -6.4590     0.2490    -1.3300 H     1 <1>   0.0800 
 30 H       -5.3880    -0.9340    -2.0310 H     1 <1>   0.0800 
 31 H        0.3770     4.1870     0.9130 H     1 <1>   0.0800 
 32 H        0.6230     2.5540     1.4730 H     1 <1>   0.0800 
 33 H        2.2880     3.9460    -0.6530 H     1 <1>   0.0800 
 34 H        2.5430     2.3120    -0.0800 H     1 <1>   0.0800 
 35 H        2.7750     3.6630     1.0010 H     1 <1>   0.0800 
@<TRIPOS>BOND
  1   1   2  1   
  2   1  17  1   
  3   2   3  2   
  4   3   4  1   
  5   3   5  1   
  6   4   6  1   
  7   4   7  2   
  8   5   8  1   
  9   5  18  1   
 10   5  19  1   
 11   6   9  2   
 12   6  10  1   
 13   7  11  1   
 14   7  12  1   
 15   8  10  1   
 16   8  13  1   
 17   8  14  1   
 18   9  11  1   
 19  10  20  1   
 20  10  21  1   
 21  11  22  1   
 22  12  15  1   
 23  12  23  1   
 24  12  24  1   
 25  13  25  1   
 26  13  26  1   
 27  13  27  1   
 28  14  28  1   
 29  14  29  1   
 30  14  30  1   
 31  15  16  1   
 32  15  31  1   
 33  15  32  1   
 34  16  33  1   
 35  16  34  1   
 36  16  35  1   
@<TRIPOS>SUBSTRUCTURE
  1 ****   4 GROUP 4 **** **** 0

# MOE 2024.06 (io_trps.svl 2023.06)
