@<TRIPOS>MOLECULE
NONAME
41 42 1 0 0 
SMALL
USER_CHARGES


@<TRIPOS>ATOM
  1 O        0.4080     0.0720    -0.0790 O.2   1 <1>  -0.5700 
  2 C        0.2700     1.1660     0.4170 C.2   1 <1>   0.5690 
  3 N        1.3490     1.9110     0.8350 N.am  1 <1>  -0.6600 
  4 C       -1.1570     1.6740     0.5250 C.3   1 <1>  -0.0990 
  5 C        2.7270     1.3920     0.6130 C.3   1 <1>   0.1400 
  6 C        1.2640     3.1250     1.6900 C.3   1 <1>   0.1400 
  7 C       -1.6800     2.1100    -0.8480 C.3   1 <1>  -0.0160 
  8 C        3.1870     1.6180    -0.8310 C.3   1 <1>  -0.1600 
  9 C        1.0050     4.3960     0.8740 C.3   1 <1>  -0.1600 
 10 C       -3.0600     2.7340    -0.7160 C.ar  1 <1>  -0.1440 
 11 C        3.5940     3.0590    -1.1770 C.3   1 <1>  -0.1600 
 12 C        2.1890     4.8760     0.0200 C.3   1 <1>  -0.1600 
 13 C       -3.2020     4.1100    -0.6230 C.ar  1 <1>  -0.1500 
 14 C       -4.1880     1.9290    -0.6810 C.ar  1 <1>  -0.1500 
 15 C        2.4310     4.0630    -1.2650 C.3   1 <1>  -0.1600 
 16 C       -4.4590     4.6760    -0.4960 C.ar  1 <1>  -0.1500 
 17 C       -5.4460     2.4940    -0.5540 C.ar  1 <1>  -0.1500 
 18 C       -5.5820     3.8680    -0.4610 C.ar  1 <1>  -0.1500 
 19 H       -1.2420     2.4890     1.2150 H     1 <1>   0.0800 
 20 H       -1.7710     0.8750     0.8980 H     1 <1>   0.0800 
 21 H        2.7290     0.3330     0.8130 H     1 <1>   0.0800 
 22 H        3.4250     1.8470     1.2940 H     1 <1>   0.0800 
 23 H        2.1730     3.2460     2.2540 H     1 <1>   0.0800 
 24 H        0.4750     2.9940     2.4100 H     1 <1>   0.0800 
 25 H       -1.7260     1.2570    -1.5030 H     1 <1>   0.0800 
 26 H       -1.0010     2.8180    -1.2900 H     1 <1>   0.0800 
 27 H        2.4290     1.2700    -1.5100 H     1 <1>   0.0800 
 28 H        4.0490     0.9950    -0.9860 H     1 <1>   0.0800 
 29 H        0.7820     5.1780     1.5780 H     1 <1>   0.0800 
 30 H        0.1310     4.2760     0.2620 H     1 <1>   0.0800 
 31 H        4.0560     3.0230    -2.1490 H     1 <1>   0.0800 
 32 H        4.3490     3.4060    -0.4930 H     1 <1>   0.0800 
 33 H        3.0820     4.9260     0.6190 H     1 <1>   0.0800 
 34 H        1.9660     5.8850    -0.2810 H     1 <1>   0.0800 
 35 H       -2.3360     4.7470    -0.6500 H     1 <1>   0.1500 
 36 H       -4.0910     0.8600    -0.7530 H     1 <1>   0.1500 
 37 H        1.5290     3.5700    -1.5870 H     1 <1>   0.0800 
 38 H        2.6850     4.7680    -2.0380 H     1 <1>   0.0800 
 39 H       -4.5630     5.7440    -0.4250 H     1 <1>   0.1500 
 40 H       -6.3170     1.8640    -0.5280 H     1 <1>   0.1500 
 41 H       -6.5590     4.3070    -0.3630 H     1 <1>   0.1500 
@<TRIPOS>BOND
  1   1   2  2   
  2   2   3  am  
  3   2   4  1   
  4   3   5  1   
  5   3   6  1   
  6   4   7  1   
  7   4  19  1   
  8   4  20  1   
  9   5   8  1   
 10   5  21  1   
 11   5  22  1   
 12   6   9  1   
 13   6  23  1   
 14   6  24  1   
 15   7  10  1   
 16   7  25  1   
 17   7  26  1   
 18   8  11  1   
 19   8  27  1   
 20   8  28  1   
 21   9  12  1   
 22   9  29  1   
 23   9  30  1   
 24  10  13  ar  
 25  10  14  ar  
 26  11  15  1   
 27  11  31  1   
 28  11  32  1   
 29  12  15  1   
 30  12  33  1   
 31  12  34  1   
 32  13  16  ar  
 33  13  35  1   
 34  14  17  ar  
 35  14  36  1   
 36  15  37  1   
 37  15  38  1   
 38  16  18  ar  
 39  16  39  1   
 40  17  18  ar  
 41  17  40  1   
 42  18  41  1   
@<TRIPOS>SUBSTRUCTURE
  1 ****   4 GROUP 4 **** **** 0

# MOE 2024.06 (io_trps.svl 2023.06)
