@<TRIPOS>MOLECULE
NONAME
36 36 1 0 0 
SMALL
USER_CHARGES


@<TRIPOS>ATOM
  1 S       -0.0050    -0.2580     0.0940 S.3   1 <1>  -0.0800 
  2 C        0.1760     1.4870     0.1340 C.2   1 <1>   0.1040 
  3 C       -1.7550    -0.1430     0.0630 C.2   1 <1>  -0.1400 
  4 N        1.4480     2.0450     0.0980 N.am  1 <1>  -0.4940 
  5 C       -1.0480     2.0950     0.1420 C.2   1 <1>  -0.0860 
  6 C       -2.1400     1.1480     0.0890 C.2   1 <1>  -0.1810 
  7 C       -2.4890    -1.4690     0.0110 C.3   1 <1>  -0.0600 
  8 C        2.6760     1.5160     0.4180 C.2   1 <1>   0.6160 
  9 C       -1.2200     3.5210     0.2180 C.2   1 <1>   0.7160 
 10 C       -3.5860     1.6260     0.0720 C.3   1 <1>  -0.0590 
 11 O        2.7660     0.5400     1.1310 O.2   1 <1>  -0.5700 
 12 C        3.8590     2.1660    -0.0630 C.2   1 <1>  -0.1360 
 13 O       -2.0180     4.1370    -0.4570 O.2   1 <1>  -0.5700 
 14 N       -0.4740     4.2570     1.0710 N.am  1 <1>  -0.8000 
 15 C        5.1410     1.8110     0.1910 C.2   1 <1>  -0.1360 
 16 C        6.3220     2.4600    -0.2880 C.2   1 <1>   0.7060 
 17 O        6.2910     3.4500    -0.9890 O.2   1 <1>  -0.5700 
 18 O        7.4930     1.9370     0.0680 O.3   1 <1>  -0.4300 
 19 C        8.7120     2.5070    -0.3550 C.3   1 <1>   0.1200 
 20 C        9.8500     1.6720     0.2240 C.3   1 <1>  -0.2400 
 21 H        1.4780     3.0110    -0.2220 H     1 <1>   0.3700 
 22 H       -3.5520    -1.3270    -0.0180 H     1 <1>   0.0800 
 23 H       -2.2420    -2.0530     0.8790 H     1 <1>   0.0800 
 24 H       -2.1910    -2.0130    -0.8680 H     1 <1>   0.0800 
 25 H       -3.7750     2.2650     0.9160 H     1 <1>   0.0800 
 26 H       -4.2730     0.8020     0.1150 H     1 <1>   0.0800 
 27 H       -3.7780     2.1780    -0.8300 H     1 <1>   0.0800 
 28 H        3.6740     3.0180    -0.6910 H     1 <1>   0.1500 
 29 H       -0.7230     5.2390     1.1880 H     1 <1>   0.3700 
 30 H        0.0050     3.8120     1.8540 H     1 <1>   0.3700 
 31 H        5.3440     0.9580     0.8120 H     1 <1>   0.1500 
 32 H        8.7370     2.5010    -1.4320 H     1 <1>   0.0800 
 33 H        8.7570     3.5220     0.0030 H     1 <1>   0.0800 
 34 H        9.7860     0.6600    -0.1340 H     1 <1>   0.0800 
 35 H        9.8060     1.6780     1.2980 H     1 <1>   0.0800 
 36 H       10.7940     2.0840    -0.0830 H     1 <1>   0.0800 
@<TRIPOS>BOND
  1   1   2  1   
  2   1   3  1   
  3   2   4  1   
  4   2   5  2   
  5   3   6  2   
  6   3   7  1   
  7   4   8  am  
  8   4  21  1   
  9   5   6  1   
 10   5   9  1   
 11   6  10  1   
 12   7  22  1   
 13   7  23  1   
 14   7  24  1   
 15   8  11  2   
 16   8  12  1   
 17   9  13  2   
 18   9  14  am  
 19  10  25  1   
 20  10  26  1   
 21  10  27  1   
 22  12  15  2   
 23  12  28  1   
 24  14  29  1   
 25  14  30  1   
 26  15  16  1   
 27  15  31  1   
 28  16  17  2   
 29  16  18  1   
 30  18  19  1   
 31  19  20  1   
 32  19  32  1   
 33  19  33  1   
 34  20  34  1   
 35  20  35  1   
 36  20  36  1   
@<TRIPOS>SUBSTRUCTURE
  1 ****   4 GROUP 4 **** **** 0

# MOE 2024.06 (io_trps.svl 2023.06)
