@<TRIPOS>MOLECULE
NONAME
41 42 1 0 0 
SMALL
USER_CHARGES


@<TRIPOS>ATOM
  1 O       -0.2150     0.0080    -1.1810 O.2   1 <1>  -0.5700 
  2 C       -0.2110     1.1750    -0.8770 C.2   1 <1>   0.6300 
  3 N        0.9010     1.8750    -0.5080 N.am  1 <1>  -0.5470 
  4 C       -1.5130     1.9670    -0.9440 C.3   1 <1>  -0.1000 
  5 C        2.2500     1.5250    -0.3230 C.ar  1 <1>   0.1170 
  6 C       -1.9910     2.8910     0.1600 C.3   1 <1>  -0.1900 
  7 C       -2.7370     1.6230    -0.1280 C.3   1 <1>  -0.1900 
  8 C        3.2170     2.5330    -0.2200 C.ar  1 <1>  -0.1430 
  9 C        2.6460     0.1960    -0.2170 C.ar  1 <1>  -0.1500 
 10 C       -1.2350     3.0360     1.4940 C.3   1 <1>  -0.1450 
 11 C       -2.5620     4.2550    -0.2600 C.3   1 <1>  -0.1450 
 12 C       -4.1040     1.6610    -0.8300 C.3   1 <1>  -0.1450 
 13 C       -2.6860     0.4250     0.8370 C.3   1 <1>  -0.1450 
 14 C        4.5530     2.1950    -0.0040 C.ar  1 <1>  -0.1430 
 15 C        2.7790     3.9960    -0.3490 C.3   1 <1>  -0.0970 
 16 C        3.9680    -0.1360    -0.0130 C.ar  1 <1>  -0.1500 
 17 C        4.9170     0.8610     0.0950 C.ar  1 <1>  -0.1500 
 18 C        5.6570     3.2370     0.1330 C.3   1 <1>  -0.0970 
 19 H        0.7000     2.8520    -0.3220 H     1 <1>   0.3700 
 20 H       -1.6960     2.2650    -1.9600 H     1 <1>   0.1000 
 21 H        1.9220    -0.5940    -0.2890 H     1 <1>   0.1500 
 22 H       -0.7120     2.1410     1.7720 H     1 <1>   0.0800 
 23 H       -1.9320     3.2720     2.2790 H     1 <1>   0.0800 
 24 H       -0.5130     3.8300     1.4340 H     1 <1>   0.0800 
 25 H       -2.9820     4.2280    -1.2480 H     1 <1>   0.0800 
 26 H       -1.7880     5.0010    -0.2590 H     1 <1>   0.0800 
 27 H       -3.3310     4.5570     0.4290 H     1 <1>   0.0800 
 28 H       -4.1320     2.3830    -1.6240 H     1 <1>   0.0800 
 29 H       -4.8750     1.9010    -0.1200 H     1 <1>   0.0800 
 30 H       -4.3230     0.7000    -1.2620 H     1 <1>   0.0800 
 31 H       -1.7090     0.2720     1.2530 H     1 <1>   0.0800 
 32 H       -2.9500    -0.4780     0.3150 H     1 <1>   0.0800 
 33 H       -3.3820     0.5710     1.6430 H     1 <1>   0.0800 
 34 H        2.1660     4.1220    -1.2230 H     1 <1>   0.0800 
 35 H        3.6060     4.6700    -0.4490 H     1 <1>   0.0800 
 36 H        2.2170     4.2840     0.5210 H     1 <1>   0.0800 
 37 H        4.2570    -1.1700     0.0640 H     1 <1>   0.1500 
 38 H        5.9440     0.5850     0.2570 H     1 <1>   0.1500 
 39 H        5.4130     3.9330     0.9150 H     1 <1>   0.0800 
 40 H        5.7760     3.7690    -0.7930 H     1 <1>   0.0800 
 41 H        6.5970     2.7770     0.3790 H     1 <1>   0.0800 
@<TRIPOS>BOND
  1   1   2  2   
  2   2   3  am  
  3   2   4  1   
  4   3   5  1   
  5   3  19  1   
  6   4   6  1   
  7   4   7  1   
  8   4  20  1   
  9   5   8  ar  
 10   5   9  ar  
 11   6   7  1   
 12   6  10  1   
 13   6  11  1   
 14   7  12  1   
 15   7  13  1   
 16   8  14  ar  
 17   8  15  1   
 18   9  16  ar  
 19   9  21  1   
 20  10  22  1   
 21  10  23  1   
 22  10  24  1   
 23  11  25  1   
 24  11  26  1   
 25  11  27  1   
 26  12  28  1   
 27  12  29  1   
 28  12  30  1   
 29  13  31  1   
 30  13  32  1   
 31  13  33  1   
 32  14  17  ar  
 33  14  18  1   
 34  15  34  1   
 35  15  35  1   
 36  15  36  1   
 37  16  17  ar  
 38  16  37  1   
 39  17  38  1   
 40  18  39  1   
 41  18  40  1   
 42  18  41  1   
@<TRIPOS>SUBSTRUCTURE
  1 ****   3 GROUP 4 **** **** 0

# MOE 2024.06 (io_trps.svl 2023.06)
