@<TRIPOS>MOLECULE
NONAME
38 39 1 0 0 
SMALL
USER_CHARGES


@<TRIPOS>ATOM
  1 P        0.0000    -0.0080     0.7180 P.3   1 <1>   0.9000 
  2 O        1.1740     0.9110     0.6320 O.co2 1 <1>  -0.9500 
  3 O       -0.0650    -0.9770     1.8620 O.co2 1 <1>  -0.9500 
  4 C        0.1640    -1.1500    -0.6660 C.3   1 <1>   0.3430 
  5 C       -1.5710     0.8250     0.3490 C.3   1 <1>   0.1100 
  6 N        1.1060    -2.2310    -0.2270 N.4   1 <1>  -0.9590 
  7 N       -2.7140    -0.0300    -0.0990 N.3   1 <1>  -0.8100 
  8 C        2.5180    -1.7330    -0.2100 C.3   1 <1>   0.3430 
  9 C        0.9430    -3.5610    -0.8680 C.3   1 <1>   0.3430 
 10 C       -3.8340     0.8080    -0.5690 C.3   1 <1>   0.1100 
 11 C       -3.1890    -0.8740     1.0220 C.3   1 <1>   0.1100 
 12 C        3.4780    -2.8320     0.2800 C.3   1 <1>   0.1200 
 13 C        1.9880    -4.5550    -0.3250 C.3   1 <1>   0.1200 
 14 C       -5.0530    -0.0550    -0.9400 C.3   1 <1>   0.1200 
 15 C       -4.4350    -1.6850     0.6230 C.3   1 <1>   0.1200 
 16 O        3.2810    -4.0250    -0.4350 O.3   1 <1>  -0.5600 
 17 O       -5.4460    -0.8430     0.1470 O.3   1 <1>  -0.5600 
 18 H        0.5220    -0.6760    -1.5610 H     1 <1>   0.0800 
 19 H       -0.7890    -1.6010    -0.8780 H     1 <1>   0.0800 
 20 H       -1.3920     1.5390    -0.4330 H     1 <1>   0.0800 
 21 H       -1.8890     1.3980     1.2020 H     1 <1>   0.0800 
 22 H        0.8380    -2.2670     0.7910 H     1 <1>   0.4500 
 23 H        2.5980    -0.8740     0.4400 H     1 <1>   0.0800 
 24 H        2.8110    -1.4270    -1.1990 H     1 <1>   0.0800 
 25 H        1.0750    -3.4690    -1.9330 H     1 <1>   0.0800 
 26 H       -0.0480    -3.9390    -0.6810 H     1 <1>   0.0800 
 27 H       -3.5250     1.3700    -1.4330 H     1 <1>   0.0800 
 28 H       -4.1240     1.5050     0.2000 H     1 <1>   0.0800 
 29 H       -3.4300    -0.2600     1.8730 H     1 <1>   0.0800 
 30 H       -2.4150    -1.5590     1.3230 H     1 <1>   0.0800 
 31 H        3.3250    -3.0250     1.3290 H     1 <1>   0.0800 
 32 H        4.4970    -2.5220     0.1340 H     1 <1>   0.0800 
 33 H        1.9590    -5.4700    -0.8900 H     1 <1>   0.0800 
 34 H        1.7950    -4.7830     0.7090 H     1 <1>   0.0800 
 35 H       -4.8200    -0.7020    -1.7680 H     1 <1>   0.0800 
 36 H       -5.8850     0.5700    -1.2090 H     1 <1>   0.0800 
 37 H       -4.8220    -2.2130     1.4750 H     1 <1>   0.0800 
 38 H       -4.1900    -2.3960    -0.1460 H     1 <1>   0.0800 
@<TRIPOS>BOND
  1   1   2  ar  
  2   1   3  ar  
  3   1   4  1   
  4   1   5  1   
  5   4   6  1   
  6   4  18  1   
  7   4  19  1   
  8   5   7  1   
  9   5  20  1   
 10   5  21  1   
 11   6   8  1   
 12   6   9  1   
 13   6  22  1   
 14   7  10  1   
 15   7  11  1   
 16   8  12  1   
 17   8  23  1   
 18   8  24  1   
 19   9  13  1   
 20   9  25  1   
 21   9  26  1   
 22  10  14  1   
 23  10  27  1   
 24  10  28  1   
 25  11  15  1   
 26  11  29  1   
 27  11  30  1   
 28  12  16  1   
 29  12  31  1   
 30  12  32  1   
 31  13  16  1   
 32  13  33  1   
 33  13  34  1   
 34  14  17  1   
 35  14  35  1   
 36  14  36  1   
 37  15  17  1   
 38  15  37  1   
 39  15  38  1   
@<TRIPOS>SUBSTRUCTURE
  1 ****   4 GROUP 4 **** **** 0

# MOE 2024.06 (io_trps.svl 2023.06)
