@<TRIPOS>MOLECULE
NONAME
39 41 1 0 0 
SMALL
USER_CHARGES


@<TRIPOS>ATOM
  1 F        7.5210    -2.9550    -0.9580 F     1 <1>  -0.3400 
  2 C        6.3340    -2.5790    -0.5050 C.3   1 <1>   1.3000 
  3 F        6.4650    -2.2810     0.7820 F     1 <1>  -0.3400 
  4 F        5.9810    -1.4760    -1.1550 F     1 <1>  -0.3400 
  5 O        5.3900    -3.6140    -0.7000 O.3   1 <1>  -0.3630 
  6 C        4.1230    -3.3870    -0.2940 C.ar  1 <1>   0.0830 
  7 C        3.2050    -2.8350    -1.1720 C.ar  1 <1>  -0.1500 
  8 C        3.7400    -3.7230     0.9940 C.ar  1 <1>  -0.1500 
  9 C        1.9040    -2.6100    -0.7580 C.ar  1 <1>  -0.1500 
 10 C        2.4390    -3.4970     1.4070 C.ar  1 <1>  -0.1500 
 11 C        1.5120    -2.9440     0.5330 C.ar  1 <1>  -0.1430 
 12 C        0.0820    -2.7100     0.9860 C.3   1 <1>   0.4870 
 13 N       -0.8000    -3.7130     0.3350 N.4   1 <1>  -0.9590 
 14 C       -2.2400    -3.4400     0.5920 C.3   1 <1>   0.4860 
 15 C       -0.4620    -5.1190     0.7120 C.3   1 <1>   0.3430 
 16 C       -3.1040    -4.4540    -0.1390 C.ar  1 <1>  -0.1430 
 17 C       -1.1670    -6.0960    -0.2320 C.3   1 <1>  -0.0170 
 18 C       -2.6090    -5.7000    -0.5140 C.ar  1 <1>  -0.1430 
 19 C       -4.4200    -4.1260    -0.4280 C.ar  1 <1>  -0.1500 
 20 C       -3.4360    -6.5990    -1.1690 C.ar  1 <1>  -0.1500 
 21 C       -5.2390    -5.0280    -1.0820 C.ar  1 <1>  -0.1500 
 22 C       -4.7470    -6.2650    -1.4530 C.ar  1 <1>  -0.1500 
 23 H        3.5100    -2.5820    -2.1730 H     1 <1>   0.1500 
 24 H        4.4590    -4.1560     1.6690 H     1 <1>   0.1500 
 25 H        1.2100    -2.1690    -1.4550 H     1 <1>   0.1500 
 26 H        2.1650    -3.7570     2.4160 H     1 <1>   0.1500 
 27 H       -0.2180    -1.7130     0.7060 H     1 <1>   0.0800 
 28 H        0.0190    -2.7960     2.0590 H     1 <1>   0.0800 
 29 H       -0.6620    -3.6420    -0.6810 H     1 <1>   0.4500 
 30 H       -2.4940    -2.4490     0.2520 H     1 <1>   0.0800 
 31 H       -2.4450    -3.5020     1.6480 H     1 <1>   0.0800 
 32 H       -0.7800    -5.3090     1.7240 H     1 <1>   0.0800 
 33 H        0.6030    -5.2820     0.6530 H     1 <1>   0.0800 
 34 H       -1.1380    -7.0800     0.2020 H     1 <1>   0.0800 
 35 H       -0.6270    -6.1380    -1.1620 H     1 <1>   0.0800 
 36 H       -4.8290    -3.1690    -0.1480 H     1 <1>   0.1500 
 37 H       -3.0670    -7.5660    -1.4670 H     1 <1>   0.1500 
 38 H       -6.2610    -4.7700    -1.3050 H     1 <1>   0.1500 
 39 H       -5.3850    -6.9670    -1.9620 H     1 <1>   0.1500 
@<TRIPOS>BOND
  1   1   2  1   
  2   2   3  1   
  3   2   4  1   
  4   2   5  1   
  5   5   6  1   
  6   6   7  ar  
  7   6   8  ar  
  8   7   9  ar  
  9   7  23  1   
 10   8  10  ar  
 11   8  24  1   
 12   9  11  ar  
 13   9  25  1   
 14  10  11  ar  
 15  10  26  1   
 16  11  12  1   
 17  12  13  1   
 18  12  27  1   
 19  12  28  1   
 20  13  14  1   
 21  13  15  1   
 22  13  29  1   
 23  14  16  1   
 24  14  30  1   
 25  14  31  1   
 26  15  17  1   
 27  15  32  1   
 28  15  33  1   
 29  16  18  ar  
 30  16  19  ar  
 31  17  18  1   
 32  17  34  1   
 33  17  35  1   
 34  18  20  ar  
 35  19  21  ar  
 36  19  36  1   
 37  20  22  ar  
 38  20  37  1   
 39  21  22  ar  
 40  21  38  1   
 41  22  39  1   
@<TRIPOS>SUBSTRUCTURE
  1 ****  11 GROUP 4 **** **** 0

# MOE 2024.06 (io_trps.svl 2023.06)
