@<TRIPOS>MOLECULE
NONAME
39 39 1 0 0 
SMALL
USER_CHARGES


@<TRIPOS>ATOM
  1 BR       0.6550     0.9060    -1.4260 Br    1 <1>  -0.1110 
  2 C       -0.6040     2.1560    -0.6710 C.ar  1 <1>   0.1110 
  3 C       -0.1850     3.0230     0.3280 C.ar  1 <1>  -0.1440 
  4 C       -1.8960     2.1480    -1.1610 C.ar  1 <1>  -0.1500 
  5 C       -1.1100     3.9240     0.8370 C.ar  1 <1>  -0.1500 
  6 C        1.2360     2.9900     0.8480 C.3   1 <1>   0.4870 
  7 C       -2.8140     3.0390    -0.6350 C.ar  1 <1>   0.0830 
  8 C       -2.4100     3.9480     0.3520 C.ar  1 <1>   0.0830 
  9 N        2.0910     3.6830    -0.1390 N.4   1 <1>  -0.9060 
 10 O       -4.0800     2.9910    -1.1150 O.3   1 <1>  -0.3620 
 11 O       -3.2510     4.8680     0.8770 O.3   1 <1>  -0.3620 
 12 C        3.5180     3.7180     0.2480 C.3   1 <1>   0.3430 
 13 C       -5.1100     2.6590    -0.1980 C.3   1 <1>   0.3200 
 14 C       -3.6580     5.9170     0.0240 C.3   1 <1>   0.1200 
 15 C        4.3070     4.4300    -0.8490 C.3   1 <1>  -0.1600 
 16 C       -6.4190     2.5850    -0.9090 C.1   1 <1>   0.3570 
 17 C       -4.6210     6.8090     0.8020 C.3   1 <1>  -0.2400 
 18 C        5.7980     4.4950    -0.5000 C.3   1 <1>  -0.2400 
 19 N       -7.4330     2.5230    -1.4240 N.1   1 <1>  -0.5570 
 20 H       -2.1890     1.4600    -1.9350 H     1 <1>   0.1500 
 21 H       -0.8480     4.6220     1.6150 H     1 <1>   0.1500 
 22 H        1.5560     1.9670     0.9720 H     1 <1>   0.0800 
 23 H        1.2880     3.4860     1.8040 H     1 <1>   0.0800 
 24 H        1.7360     4.6350    -0.2780 H     1 <1>   0.4500 
 25 H        1.9910     3.1990    -1.0410 H     1 <1>   0.4500 
 26 H        3.8970     2.7150     0.3700 H     1 <1>   0.0800 
 27 H        3.6400     4.2470     1.1800 H     1 <1>   0.0800 
 28 H       -5.1650     3.4100     0.5670 H     1 <1>   0.0800 
 29 H       -4.8780     1.7070     0.2430 H     1 <1>   0.0800 
 30 H       -4.1430     5.5040    -0.8430 H     1 <1>   0.0800 
 31 H       -2.7850     6.4690    -0.2780 H     1 <1>   0.0800 
 32 H        3.9410     5.4350    -0.9740 H     1 <1>   0.0800 
 33 H        4.1970     3.9020    -1.7820 H     1 <1>   0.0800 
 34 H       -5.4870     6.2480     1.1040 H     1 <1>   0.0800 
 35 H       -4.9430     7.6240     0.1790 H     1 <1>   0.0800 
 36 H       -4.1340     7.2150     1.6710 H     1 <1>   0.0800 
 37 H        5.9560     5.0380     0.4160 H     1 <1>   0.0800 
 38 H        6.3370     4.9990    -1.2850 H     1 <1>   0.0800 
 39 H        6.2120     3.5060    -0.3930 H     1 <1>   0.0800 
@<TRIPOS>BOND
  1   1   2  1   
  2   2   3  ar  
  3   2   4  ar  
  4   3   5  ar  
  5   3   6  1   
  6   4   7  ar  
  7   4  20  1   
  8   5   8  ar  
  9   5  21  1   
 10   6   9  1   
 11   6  22  1   
 12   6  23  1   
 13   7   8  ar  
 14   7  10  1   
 15   8  11  1   
 16   9  12  1   
 17   9  24  1   
 18   9  25  1   
 19  10  13  1   
 20  11  14  1   
 21  12  15  1   
 22  12  26  1   
 23  12  27  1   
 24  13  16  1   
 25  13  28  1   
 26  13  29  1   
 27  14  17  1   
 28  14  30  1   
 29  14  31  1   
 30  15  18  1   
 31  15  32  1   
 32  15  33  1   
 33  16  19  3   
 34  17  34  1   
 35  17  35  1   
 36  17  36  1   
 37  18  37  1   
 38  18  38  1   
 39  18  39  1   
@<TRIPOS>SUBSTRUCTURE
  1 ****   5 GROUP 4 **** **** 0

# MOE 2024.06 (io_trps.svl 2023.06)
