@<TRIPOS>MOLECULE
NONAME
36 37 1 0 0 
SMALL
USER_CHARGES


@<TRIPOS>ATOM
  1 F       -0.3990     0.2020     0.2050 F     1 <1>  -0.3400 
  2 C       -1.3210    -0.3760     0.9660 C.3   1 <1>   1.1640 
  3 F       -0.6610    -1.1290     1.8370 F     1 <1>  -0.3400 
  4 F       -1.8830     0.6010     1.6690 F     1 <1>  -0.3400 
  5 C       -2.3260    -1.1950     0.1440 C.ar  1 <1>  -0.1440 
  6 C       -3.6900    -1.1420     0.4100 C.ar  1 <1>  -0.1500 
  7 C       -1.8820    -2.0180    -0.8870 C.ar  1 <1>  -0.1500 
  8 C       -4.6010    -1.8820    -0.3300 C.ar  1 <1>   0.1000 
  9 C       -2.7820    -2.7620    -1.6330 C.ar  1 <1>  -0.1500 
 10 N       -5.9520    -1.7900    -0.0290 N.pl3 1 <1>  -0.8380 
 11 C       -4.1330    -2.6930    -1.3550 C.ar  1 <1>  -0.1500 
 12 C       -6.6090    -3.0310     0.4730 C.3   1 <1>   0.2090 
 13 C       -6.8060    -1.1080    -1.0430 C.3   1 <1>   0.2090 
 14 C       -8.0170    -2.7250     1.0180 C.3   1 <1>   0.1100 
 15 C       -8.2120    -0.8240    -0.4810 C.3   1 <1>   0.1100 
 16 N       -8.8780    -2.0510     0.0180 N.3   1 <1>  -0.8100 
 17 C      -10.2310    -1.7930     0.5870 C.3   1 <1>   0.1710 
 18 C      -11.2790    -1.2160    -0.3790 C.2   1 <1>   0.5690 
 19 O      -12.0910    -1.9400    -0.8970 O.2   1 <1>  -0.5700 
 20 N      -11.3310     0.1120    -0.6190 N.am  1 <1>  -0.8000 
 21 H       -4.0810    -0.5250     1.1990 H     1 <1>   0.1500 
 22 H       -0.8310    -2.0840    -1.1160 H     1 <1>   0.1500 
 23 H       -2.4280    -3.3940    -2.4290 H     1 <1>   0.1500 
 24 H       -4.8330    -3.2670    -1.9330 H     1 <1>   0.1500 
 25 H       -6.0060    -3.4610     1.2540 H     1 <1>   0.0800 
 26 H       -6.6890    -3.7480    -0.3250 H     1 <1>   0.0800 
 27 H       -6.8950    -1.7290    -1.9180 H     1 <1>   0.0800 
 28 H       -6.3410    -0.1820    -1.3340 H     1 <1>   0.0800 
 29 H       -7.9160    -2.1040     1.8910 H     1 <1>   0.0800 
 30 H       -8.4780    -3.6510     1.3160 H     1 <1>   0.0800 
 31 H       -8.8010    -0.3920    -1.2690 H     1 <1>   0.0800 
 32 H       -8.1240    -0.1060     0.3160 H     1 <1>   0.0800 
 33 H      -10.1440    -1.1280     1.4270 H     1 <1>   0.0800 
 34 H      -10.6280    -2.7240     0.9520 H     1 <1>   0.0800 
 35 H      -12.0410     0.4680    -1.2610 H     1 <1>   0.3700 
 36 H      -10.6830     0.7900    -0.2240 H     1 <1>   0.3700 
@<TRIPOS>BOND
  1   1   2  1   
  2   2   3  1   
  3   2   4  1   
  4   2   5  1   
  5   5   6  ar  
  6   5   7  ar  
  7   6   8  ar  
  8   6  21  1   
  9   7   9  ar  
 10   7  22  1   
 11   8  10  1   
 12   8  11  ar  
 13   9  11  ar  
 14   9  23  1   
 15  10  12  1   
 16  10  13  1   
 17  11  24  1   
 18  12  14  1   
 19  12  25  1   
 20  12  26  1   
 21  13  15  1   
 22  13  27  1   
 23  13  28  1   
 24  14  16  1   
 25  14  29  1   
 26  14  30  1   
 27  15  16  1   
 28  15  31  1   
 29  15  32  1   
 30  16  17  1   
 31  17  18  1   
 32  17  33  1   
 33  17  34  1   
 34  18  19  2   
 35  18  20  am  
 36  20  35  1   
 37  20  36  1   
@<TRIPOS>SUBSTRUCTURE
  1 ****  10 GROUP 4 **** **** 0

# MOE 2024.06 (io_trps.svl 2023.06)
