@<TRIPOS>MOLECULE
NONAME
35 36 1 0 0 
SMALL
USER_CHARGES


@<TRIPOS>ATOM
  1 F        1.1850    -0.1840     0.9750 F     1 <1>  -0.1900 
  2 C        2.1020    -0.9030     0.3790 C.ar  1 <1>   0.1900 
  3 C        1.7880    -2.1920    -0.0300 C.ar  1 <1>  -0.1440 
  4 C        3.3460    -0.3370     0.1830 C.ar  1 <1>  -0.1500 
  5 C        2.7820    -2.9260    -0.6600 C.ar  1 <1>  -0.1500 
  6 C        0.4070    -2.7860     0.2020 C.3   1 <1>  -0.0960 
  7 C        4.3360    -1.0790    -0.4490 C.ar  1 <1>   0.1170 
  8 C        4.0350    -2.3720    -0.8640 C.ar  1 <1>  -0.1500 
  9 N        5.6240    -0.5960    -0.7040 N.am  1 <1>  -0.5470 
 10 C        6.3650     0.4230    -0.1790 C.2   1 <1>   0.5690 
 11 O        5.9070     1.2010     0.6280 O.2   1 <1>  -0.5700 
 12 C        7.8080     0.5870    -0.6950 C.3   1 <1>  -0.0190 
 13 C        8.7360    -0.6250    -0.3860 C.3   1 <1>  -0.1860 
 14 C        8.4850     1.8810    -0.1830 C.3   1 <1>  -0.0220 
 15 C        8.3230    -1.9270    -1.0610 C.2   1 <1>   0.9060 
 16 C        8.9120    -0.8010     1.1360 C.3   1 <1>  -0.0220 
 17 C        9.0500     1.7160     1.2210 C.2   1 <1>  -0.2880 
 18 O        8.7140    -3.0030    -0.6060 O.co2 1 <1>  -0.9000 
 19 O        7.5870    -1.8770    -2.0550 O.co2 1 <1>  -0.9000 
 20 C        9.2260     0.5280     1.8080 C.2   1 <1>  -0.2880 
 21 H        3.5360     0.6640     0.5170 H     1 <1>   0.1500 
 22 H        2.5920    -3.9310    -0.9940 H     1 <1>   0.1500 
 23 H        0.1910    -2.8060     1.2560 H     1 <1>   0.0800 
 24 H        0.3490    -3.7890    -0.1800 H     1 <1>   0.0800 
 25 H       -0.3360    -2.1860    -0.2920 H     1 <1>   0.0800 
 26 H        4.8050    -2.9490    -1.3510 H     1 <1>   0.1500 
 27 H        6.1820    -1.1950    -1.3450 H     1 <1>   0.3700 
 28 H        7.7310     0.6800    -1.7640 H     1 <1>   0.0800 
 29 H        9.7040    -0.4020    -0.7920 H     1 <1>   0.0800 
 30 H        7.7780     2.6920    -0.1990 H     1 <1>   0.0800 
 31 H        9.2930     2.1420    -0.8430 H     1 <1>   0.0800 
 32 H        9.7150    -1.4950     1.3150 H     1 <1>   0.0800 
 33 H        8.0160    -1.2170     1.5650 H     1 <1>   0.0800 
 34 H        9.2890     2.6500     1.6980 H     1 <1>   0.1500 
 35 H        9.6020     0.4160     2.8100 H     1 <1>   0.1500 
@<TRIPOS>BOND
  1   1   2  1   
  2   2   3  ar  
  3   2   4  ar  
  4   3   5  ar  
  5   3   6  1   
  6   4   7  ar  
  7   4  21  1   
  8   5   8  ar  
  9   5  22  1   
 10   6  23  1   
 11   6  24  1   
 12   6  25  1   
 13   7   8  ar  
 14   7   9  1   
 15   8  26  1   
 16   9  10  am  
 17   9  27  1   
 18  10  11  2   
 19  10  12  1   
 20  12  13  1   
 21  12  14  1   
 22  12  28  1   
 23  13  15  1   
 24  13  16  1   
 25  13  29  1   
 26  14  17  1   
 27  14  30  1   
 28  14  31  1   
 29  15  18  ar  
 30  15  19  ar  
 31  16  20  1   
 32  16  32  1   
 33  16  33  1   
 34  17  20  2   
 35  17  34  1   
 36  20  35  1   
@<TRIPOS>SUBSTRUCTURE
  1 ****   9 GROUP 4 **** **** 0

# MOE 2024.06 (io_trps.svl 2023.06)
