@<TRIPOS>MOLECULE
NONAME
37 37 1 0 0 
SMALL
USER_CHARGES


@<TRIPOS>ATOM
  1 S       -0.1320     0.2640     0.5410 S.o2  1 <1>   1.4470 
  2 O       -0.4850     1.0430     1.7060 O.2   1 <1>  -0.6500 
  3 O       -0.6680    -1.0650     0.3540 O.2   1 <1>  -0.6500 
  4 N       -0.6100     1.1080    -0.8330 N.am  1 <1>  -0.9140 
  5 C        1.6730     0.2300     0.3710 C.ar  1 <1>  -0.0090 
  6 C       -1.9340     1.7320    -0.8580 C.3   1 <1>   0.2760 
  7 C        2.3690    -0.9700     0.2590 C.ar  1 <1>  -0.1500 
  8 C        2.4090     1.4100     0.3440 C.ar  1 <1>  -0.1500 
  9 C       -2.0560     2.9400     0.0900 C.3   1 <1>   0.1200 
 10 C       -3.0380     0.6950    -0.6390 C.3   1 <1>  -0.2400 
 11 C        3.7460    -0.9890     0.1240 C.ar  1 <1>  -0.1500 
 12 C        3.7870     1.4010     0.2090 C.ar  1 <1>  -0.1500 
 13 O       -3.1700     3.7000    -0.2770 O.3   1 <1>  -0.5600 
 14 C        4.4660     0.1920     0.0970 C.ar  1 <1>   0.0830 
 15 C       -3.3990     4.7930     0.5510 C.3   1 <1>   0.0400 
 16 O        5.8090     0.0870    -0.0390 O.3   1 <1>  -0.3630 
 17 C        6.6410     1.2240    -0.0560 C.3   1 <1>   0.1200 
 18 C        8.0840     0.7520    -0.2090 C.3   1 <1>  -0.2400 
 19 H       -0.6330     0.3840    -1.5470 H     1 <1>   0.4200 
 20 H       -2.0570     2.1270    -1.8520 H     1 <1>   0.0800 
 21 H        1.8280    -1.9010     0.2790 H     1 <1>   0.1500 
 22 H        1.8910     2.3500     0.4300 H     1 <1>   0.1500 
 23 H       -1.1820     3.5620     0.0090 H     1 <1>   0.0800 
 24 H       -2.1930     2.6190     1.1070 H     1 <1>   0.0800 
 25 H       -3.0400     0.3380     0.3750 H     1 <1>   0.0800 
 26 H       -2.9240    -0.1340    -1.3130 H     1 <1>   0.0800 
 27 H       -3.9940     1.1520    -0.8270 H     1 <1>   0.0800 
 28 H        4.2730    -1.9230     0.0390 H     1 <1>   0.1500 
 29 H        4.3110     2.3390     0.1930 H     1 <1>   0.1500 
 30 H       -4.2680     5.3130     0.1880 H     1 <1>   0.0800 
 31 H       -2.5450     5.4480     0.5200 H     1 <1>   0.0800 
 32 H       -3.5760     4.4480     1.5550 H     1 <1>   0.0800 
 33 H        6.5110     1.7550     0.8710 H     1 <1>   0.0800 
 34 H        6.3540     1.8440    -0.8870 H     1 <1>   0.0800 
 35 H        8.3560     0.1200     0.6170 H     1 <1>   0.0800 
 36 H        8.7450     1.5990    -0.2260 H     1 <1>   0.0800 
 37 H        8.1990     0.2080    -1.1300 H     1 <1>   0.0800 
@<TRIPOS>BOND
  1   1   2  2   
  2   1   3  2   
  3   1   4  am  
  4   1   5  1   
  5   4   6  1   
  6   4  19  1   
  7   5   7  ar  
  8   5   8  ar  
  9   6   9  1   
 10   6  10  1   
 11   6  20  1   
 12   7  11  ar  
 13   7  21  1   
 14   8  12  ar  
 15   8  22  1   
 16   9  13  1   
 17   9  23  1   
 18   9  24  1   
 19  10  25  1   
 20  10  26  1   
 21  10  27  1   
 22  11  14  ar  
 23  11  28  1   
 24  12  14  ar  
 25  12  29  1   
 26  13  15  1   
 27  14  16  1   
 28  15  30  1   
 29  15  31  1   
 30  15  32  1   
 31  16  17  1   
 32  17  18  1   
 33  17  33  1   
 34  17  34  1   
 35  18  35  1   
 36  18  36  1   
 37  18  37  1   
@<TRIPOS>SUBSTRUCTURE
  1 ****   5 GROUP 4 **** **** 0

# MOE 2024.06 (io_trps.svl 2023.06)
