@<TRIPOS>MOLECULE
NONAME
36 37 1 0 0 
SMALL
USER_CHARGES


@<TRIPOS>ATOM
  1 CL       1.9810     1.4270    -0.2060 Cl    1 <1>  -0.1770 
  2 C        0.6780     2.4640     0.3310 C.ar  1 <1>   0.1770 
  3 C       -0.4010     2.7370    -0.4990 C.ar  1 <1>  -0.1440 
  4 C        0.7760     2.9950     1.6050 C.ar  1 <1>  -0.1500 
  5 C       -1.4020     3.5880    -0.0250 C.ar  1 <1>   0.1000 
  6 C       -0.4870     2.1170    -1.8940 C.3   1 <1>  -0.0960 
  7 C       -0.2230     3.8300     2.0710 C.ar  1 <1>  -0.1500 
  8 N       -2.5030     3.9340    -0.8150 N.pl3 1 <1>  -0.6000 
  9 C       -1.3000     4.1220     1.2560 C.ar  1 <1>  -0.1500 
 10 C       -3.8310     3.6150    -0.6230 C.2   1 <1>  -0.0380 
 11 C       -4.8210     4.0810    -1.4230 C.2   1 <1>  -0.1360 
 12 C       -4.1770     2.6950     0.5490 C.3   1 <1>  -0.0220 
 13 C       -6.2000     3.7990    -1.2590 C.2   1 <1>   0.4950 
 14 C       -5.5230     1.9550     0.3610 C.3   1 <1>   0.0000 
 15 O       -7.0540     4.2160    -2.0030 O.2   1 <1>  -0.5700 
 16 C       -6.6230     2.9480    -0.0750 C.3   1 <1>  -0.0990 
 17 C       -5.9330     1.2910     1.6860 C.3   1 <1>  -0.2400 
 18 C       -5.3670     0.8480    -0.6990 C.3   1 <1>  -0.2400 
 19 H        1.6260     2.7570     2.2180 H     1 <1>   0.1500 
 20 H       -0.0560     1.1320    -1.9040 H     1 <1>   0.0800 
 21 H        0.0420     2.7320    -2.5990 H     1 <1>   0.0800 
 22 H       -1.5070     2.0170    -2.2150 H     1 <1>   0.0800 
 23 H       -0.1600     4.2520     3.0600 H     1 <1>   0.1500 
 24 H       -2.2610     4.4510    -1.6670 H     1 <1>   0.4000 
 25 H       -2.0760     4.7780     1.6070 H     1 <1>   0.1500 
 26 H       -4.5960     4.7190    -2.2550 H     1 <1>   0.1500 
 27 H       -4.2110     3.2950     1.4410 H     1 <1>   0.0800 
 28 H       -3.3980     1.9640     0.6810 H     1 <1>   0.0800 
 29 H       -7.5210     2.4150    -0.3310 H     1 <1>   0.0800 
 30 H       -6.8560     3.6150     0.7340 H     1 <1>   0.0800 
 31 H       -6.0580     2.0280     2.4600 H     1 <1>   0.0800 
 32 H       -5.1810     0.5900     2.0060 H     1 <1>   0.0800 
 33 H       -6.8620     0.7600     1.5710 H     1 <1>   0.0800 
 34 H       -6.2960     0.3250    -0.8420 H     1 <1>   0.0800 
 35 H       -5.0620     1.2530    -1.6480 H     1 <1>   0.0800 
 36 H       -4.6240     0.1330    -0.3920 H     1 <1>   0.0800 
@<TRIPOS>BOND
  1   1   2  1   
  2   2   3  ar  
  3   2   4  ar  
  4   3   5  ar  
  5   3   6  1   
  6   4   7  ar  
  7   4  19  1   
  8   5   8  1   
  9   5   9  ar  
 10   6  20  1   
 11   6  21  1   
 12   6  22  1   
 13   7   9  ar  
 14   7  23  1   
 15   8  10  1   
 16   8  24  1   
 17   9  25  1   
 18  10  11  2   
 19  10  12  1   
 20  11  13  1   
 21  11  26  1   
 22  12  14  1   
 23  12  27  1   
 24  12  28  1   
 25  13  15  2   
 26  13  16  1   
 27  14  16  1   
 28  14  17  1   
 29  14  18  1   
 30  16  29  1   
 31  16  30  1   
 32  17  31  1   
 33  17  32  1   
 34  17  33  1   
 35  18  34  1   
 36  18  35  1   
 37  18  36  1   
@<TRIPOS>SUBSTRUCTURE
  1 ****  10 GROUP 4 **** **** 0

# MOE 2024.06 (io_trps.svl 2023.06)
