@<TRIPOS>MOLECULE
NONAME
34 35 1 0 0 
SMALL
USER_CHARGES


@<TRIPOS>ATOM
  1 CL      -0.2710    -0.5760    -2.1510 Cl    1 <1>  -0.1770 
  2 C       -1.7640    -0.5430    -1.2410 C.ar  1 <1>   0.1770 
  3 C       -2.0170    -1.4390    -0.1980 C.ar  1 <1>   0.0860 
  4 C       -2.6780     0.4260    -1.6060 C.ar  1 <1>  -0.1500 
  5 C       -1.1100    -2.4940     0.2200 C.2   1 <1>   0.5440 
  6 C       -3.2370    -1.2850     0.4680 C.ar  1 <1>  -0.1500 
  7 C       -3.8780     0.5320    -0.9280 C.ar  1 <1>  -0.1500 
  8 O       -1.0990    -2.8510     1.3810 O.2   1 <1>  -0.5700 
  9 N       -0.2870    -3.1410    -0.6610 N.am  1 <1>  -0.7300 
 10 C       -4.1760    -0.3190     0.1280 C.ar  1 <1>  -0.0090 
 11 C        0.6540    -4.2410    -0.3250 C.3   1 <1>   0.0600 
 12 S       -5.7650    -0.1920     1.0020 S.o2  1 <1>   1.4470 
 13 O       -6.2300     1.1760     0.9400 O.2   1 <1>  -0.6500 
 14 O       -5.6910    -0.8610     2.2830 O.2   1 <1>  -0.6500 
 15 N       -6.8020    -1.1040     0.0230 N.am  1 <1>  -0.8490 
 16 C       -6.6350    -2.5450     0.1250 C.3   1 <1>   0.1960 
 17 C       -8.2040    -0.8590     0.3080 C.3   1 <1>   0.1960 
 18 C       -7.8920    -3.1130    -0.5210 C.3   1 <1>  -0.1600 
 19 C       -8.9420    -2.0140    -0.3600 C.3   1 <1>  -0.1600 
 20 H       -2.4510     1.0960    -2.4180 H     1 <1>   0.1500 
 21 H       -3.4570    -1.9500     1.2890 H     1 <1>   0.1500 
 22 H       -4.5940     1.2860    -1.2170 H     1 <1>   0.1500 
 23 H       -0.2090    -2.7730    -1.6140 H     1 <1>   0.3700 
 24 H        0.5080    -4.5670     0.6910 H     1 <1>   0.0800 
 25 H        1.6680    -3.8980    -0.4360 H     1 <1>   0.0800 
 26 H        0.4870    -5.0760    -0.9830 H     1 <1>   0.0800 
 27 H       -6.5980    -2.8490     1.1590 H     1 <1>   0.0800 
 28 H       -5.7420    -2.8730    -0.3800 H     1 <1>   0.0800 
 29 H       -8.5140     0.0980    -0.0790 H     1 <1>   0.0800 
 30 H       -8.3710    -0.8840     1.3740 H     1 <1>   0.0800 
 31 H       -8.1880    -4.0320    -0.0460 H     1 <1>   0.0800 
 32 H       -7.7070    -3.2990    -1.5650 H     1 <1>   0.0800 
 33 H       -9.3100    -1.7020    -1.3220 H     1 <1>   0.0800 
 34 H       -9.7720    -2.3320     0.2460 H     1 <1>   0.0800 
@<TRIPOS>BOND
  1   1   2  1   
  2   2   3  ar  
  3   2   4  ar  
  4   3   5  1   
  5   3   6  ar  
  6   4   7  ar  
  7   4  20  1   
  8   5   8  2   
  9   5   9  am  
 10   6  10  ar  
 11   6  21  1   
 12   7  10  ar  
 13   7  22  1   
 14   9  11  1   
 15   9  23  1   
 16  10  12  1   
 17  11  24  1   
 18  11  25  1   
 19  11  26  1   
 20  12  13  2   
 21  12  14  2   
 22  12  15  am  
 23  15  16  1   
 24  15  17  1   
 25  16  18  1   
 26  16  27  1   
 27  16  28  1   
 28  17  19  1   
 29  17  29  1   
 30  17  30  1   
 31  18  19  1   
 32  18  31  1   
 33  18  32  1   
 34  19  33  1   
 35  19  34  1   
@<TRIPOS>SUBSTRUCTURE
  1 ****   6 GROUP 4 **** **** 0

# MOE 2024.06 (io_trps.svl 2023.06)
