@<TRIPOS>MOLECULE
NONAME
55 57 1 0 0 
SMALL
USER_CHARGES


@<TRIPOS>ATOM
  1 S        0.4130     0.3380     1.2090 S.3   1 <1>  -0.0800 
  2 C        1.6400     1.0870     0.1990 C.2   1 <1>   0.1040 
  3 C       -0.8260     1.4430     0.6470 C.2   1 <1>  -0.1400 
  4 N        2.9390     0.5860     0.1990 N.am  1 <1>  -0.4940 
  5 C        1.1000     2.1290    -0.5060 C.2   1 <1>  -0.0860 
  6 C       -0.3130     2.3140    -0.2380 C.2   1 <1>  -0.1810 
  7 C       -2.2180     1.2530     1.2130 C.3   1 <1>   0.0200 
  8 C        3.5270    -0.4870     0.8230 C.2   1 <1>   0.5690 
  9 C        1.8610     2.9370    -1.4230 C.2   1 <1>   0.7160 
 10 C       -1.1440     3.4010    -0.9090 C.3   1 <1>   0.0210 
 11 C       -2.7810     2.5520     1.8010 C.3   1 <1>  -0.1600 
 12 O        2.9200    -1.2960     1.4810 O.2   1 <1>  -0.5700 
 13 C        5.0350    -0.6940     0.7080 C.3   1 <1>  -0.0990 
 14 O        1.5320     3.0520    -2.5930 O.2   1 <1>  -0.5700 
 15 N        2.9900     3.5870    -1.0140 N.am  1 <1>  -0.5470 
 16 C       -1.8910     4.2830     0.1030 C.3   1 <1>  -0.1600 
 17 C       -3.1190     3.6220     0.7510 C.3   1 <1>  -0.1600 
 18 C        5.6780    -0.3910    -0.6630 C.3   1 <1>  -0.2660 
 19 C        3.1520     4.2410     0.2170 C.ar  1 <1>   0.1170 
 20 C        5.8070     1.0880    -0.9020 C.2   1 <1>   0.9060 
 21 C        2.2480     5.1980     0.7050 C.ar  1 <1>   0.0820 
 22 C        4.2530     3.9220     1.0010 C.ar  1 <1>  -0.1500 
 23 O        4.8680     1.6720    -1.4500 O.co2 1 <1>  -0.9000 
 24 O        6.7760     1.6900    -0.4490 O.co2 1 <1>  -0.9000 
 25 O        1.1940     5.6500    -0.0220 O.3   1 <1>  -0.3620 
 26 C        2.4150     5.7430     1.9660 C.ar  1 <1>  -0.1500 
 27 C        4.4280     4.4830     2.2530 C.ar  1 <1>  -0.1500 
 28 C        1.5020     6.3600    -1.2010 C.3   1 <1>   0.1200 
 29 C        3.5040     5.3870     2.7440 C.ar  1 <1>  -0.1500 
 30 C        0.2790     7.1820    -1.5960 C.3   1 <1>  -0.2400 
 31 H        3.5970     1.0990    -0.4150 H     1 <1>   0.3700 
 32 H       -2.1780     0.5130     1.9920 H     1 <1>   0.0800 
 33 H       -2.8670     0.8800     0.4410 H     1 <1>   0.0800 
 34 H       -1.8390     2.9450    -1.5900 H     1 <1>   0.0800 
 35 H       -0.5110     4.0430    -1.4890 H     1 <1>   0.0800 
 36 H       -2.0810     2.9510     2.5150 H     1 <1>   0.0800 
 37 H       -3.6830     2.3090     2.3350 H     1 <1>   0.0800 
 38 H        5.2380    -1.7210     0.9500 H     1 <1>   0.0800 
 39 H        5.5120    -0.0920     1.4610 H     1 <1>   0.0800 
 40 H        3.8420     3.1120    -1.3760 H     1 <1>   0.3700 
 41 H       -2.2270     5.1610    -0.4180 H     1 <1>   0.0800 
 42 H       -1.2020     4.6090     0.8630 H     1 <1>   0.0800 
 43 H       -3.6820     4.3950     1.2440 H     1 <1>   0.0800 
 44 H       -3.7540     3.2030    -0.0100 H     1 <1>   0.0800 
 45 H        5.1010    -0.8270    -1.4570 H     1 <1>   0.0800 
 46 H        6.6680    -0.8040    -0.6950 H     1 <1>   0.0800 
 47 H        4.9830     3.2210     0.6320 H     1 <1>   0.1500 
 48 H        1.6950     6.4520     2.3310 H     1 <1>   0.1500 
 49 H        5.2870     4.2070     2.8410 H     1 <1>   0.1500 
 50 H        1.7550     5.6580    -1.9760 H     1 <1>   0.0800 
 51 H        2.3460     7.0000    -1.0050 H     1 <1>   0.0800 
 52 H        3.6330     5.8150     3.7230 H     1 <1>   0.1500 
 53 H       -0.5500     6.5320    -1.8060 H     1 <1>   0.0800 
 54 H        0.4980     7.7520    -2.4800 H     1 <1>   0.0800 
 55 H        0.0170     7.8600    -0.8040 H     1 <1>   0.0800 
@<TRIPOS>BOND
  1   1   2  1   
  2   1   3  1   
  3   2   4  1   
  4   2   5  2   
  5   3   6  2   
  6   3   7  1   
  7   4   8  am  
  8   4  31  1   
  9   5   6  1   
 10   5   9  1   
 11   6  10  1   
 12   7  11  1   
 13   7  32  1   
 14   7  33  1   
 15   8  12  2   
 16   8  13  1   
 17   9  14  2   
 18   9  15  am  
 19  10  16  1   
 20  10  34  1   
 21  10  35  1   
 22  11  17  1   
 23  11  36  1   
 24  11  37  1   
 25  13  18  1   
 26  13  38  1   
 27  13  39  1   
 28  15  19  1   
 29  15  40  1   
 30  16  17  1   
 31  16  41  1   
 32  16  42  1   
 33  17  43  1   
 34  17  44  1   
 35  18  20  1   
 36  18  45  1   
 37  18  46  1   
 38  19  21  ar  
 39  19  22  ar  
 40  20  23  ar  
 41  20  24  ar  
 42  21  25  1   
 43  21  26  ar  
 44  22  27  ar  
 45  22  47  1   
 46  25  28  1   
 47  26  29  ar  
 48  26  48  1   
 49  27  29  ar  
 50  27  49  1   
 51  28  30  1   
 52  28  50  1   
 53  28  51  1   
 54  29  52  1   
 55  30  53  1   
 56  30  54  1   
 57  30  55  1   
@<TRIPOS>SUBSTRUCTURE
  1 ****   5 GROUP 4 **** **** 0

# MOE 2024.06 (io_trps.svl 2023.06)
