@<TRIPOS>MOLECULE
NONAME
43 44 1 0 0 
SMALL
USER_CHARGES


@<TRIPOS>ATOM
  1 O       -0.0470     1.2250    -1.4550 O.2   1 <1>  -0.5700 
  2 C       -0.0390     2.4240    -1.2460 C.2   1 <1>   0.5440 
  3 N       -1.2410     3.1040    -1.2140 N.am  1 <1>  -0.6600 
  4 C        1.2290     3.0920    -1.0170 C.ar  1 <1>   0.0860 
  5 C       -2.4960     2.4900    -1.7270 C.3   1 <1>   0.1400 
  6 C       -1.4400     4.3800    -0.4760 C.3   1 <1>   0.1400 
  7 C        2.1370     2.5870    -0.0890 C.ar  1 <1>  -0.1500 
  8 C        1.5820     4.2470    -1.7150 C.ar  1 <1>  -0.1500 
  9 C       -3.4370     2.2110    -0.5530 C.3   1 <1>  -0.1600 
 10 C       -2.3740     4.1330     0.7130 C.3   1 <1>  -0.1600 
 11 C        3.3510     3.2210     0.1520 C.ar  1 <1>   0.0830 
 12 C        2.7870     4.8860    -1.4830 C.ar  1 <1>  -0.1500 
 13 C       -3.7020     3.4860     0.2720 C.3   1 <1>  -0.0190 
 14 O        4.2750     2.7840     1.0450 O.3   1 <1>  -0.3630 
 15 C        3.6660     4.3730    -0.5480 C.ar  1 <1>  -0.1500 
 16 C       -4.6170     3.2210     1.4640 C.2   1 <1>   0.5690 
 17 C        4.1730     1.5540     1.7280 C.3   1 <1>   0.2000 
 18 O       -5.6230     3.8670     1.5980 O.2   1 <1>  -0.5700 
 19 N       -4.3010     2.2740     2.3670 N.am  1 <1>  -0.8000 
 20 C        5.1290     1.6230     2.9160 C.3   1 <1>  -0.2400 
 21 C        4.5630     0.4210     0.7750 C.3   1 <1>  -0.2400 
 22 H       -2.2850     1.5740    -2.2530 H     1 <1>   0.0800 
 23 H       -2.9610     3.1690    -2.4200 H     1 <1>   0.0800 
 24 H       -1.8730     5.1080    -1.1410 H     1 <1>   0.0800 
 25 H       -0.5050     4.7700    -0.1130 H     1 <1>   0.0800 
 26 H        1.8630     1.6890     0.4290 H     1 <1>   0.1500 
 27 H        0.9020     4.6410    -2.4490 H     1 <1>   0.1500 
 28 H       -2.9910     1.4490     0.0610 H     1 <1>   0.0800 
 29 H       -4.3680     1.8260    -0.9310 H     1 <1>   0.0800 
 30 H       -2.5770     5.0680     1.2040 H     1 <1>   0.0800 
 31 H       -1.8700     3.4960     1.4190 H     1 <1>   0.0800 
 32 H        3.0430     5.7780    -2.0290 H     1 <1>   0.1500 
 33 H       -4.2120     4.1870    -0.3650 H     1 <1>   0.0800 
 34 H        4.6060     4.8600    -0.3570 H     1 <1>   0.1500 
 35 H        3.1680     1.4370     2.0920 H     1 <1>   0.0800 
 36 H       -4.9280     2.1070     3.1550 H     1 <1>   0.3700 
 37 H       -3.4690     1.6890     2.3050 H     1 <1>   0.3700 
 38 H        6.1380     1.7740     2.5770 H     1 <1>   0.0800 
 39 H        5.0860     0.7080     3.4780 H     1 <1>   0.0800 
 40 H        4.8470     2.4330     3.5650 H     1 <1>   0.0800 
 41 H        5.5620     0.5710     0.4070 H     1 <1>   0.0800 
 42 H        3.8850     0.3730    -0.0570 H     1 <1>   0.0800 
 43 H        4.5250    -0.5210     1.2920 H     1 <1>   0.0800 
@<TRIPOS>BOND
  1   1   2  2   
  2   2   3  am  
  3   2   4  1   
  4   3   5  1   
  5   3   6  1   
  6   4   7  ar  
  7   4   8  ar  
  8   5   9  1   
  9   5  22  1   
 10   5  23  1   
 11   6  10  1   
 12   6  24  1   
 13   6  25  1   
 14   7  11  ar  
 15   7  26  1   
 16   8  12  ar  
 17   8  27  1   
 18   9  13  1   
 19   9  28  1   
 20   9  29  1   
 21  10  13  1   
 22  10  30  1   
 23  10  31  1   
 24  11  14  1   
 25  11  15  ar  
 26  12  15  ar  
 27  12  32  1   
 28  13  16  1   
 29  13  33  1   
 30  14  17  1   
 31  15  34  1   
 32  16  18  2   
 33  16  19  am  
 34  17  20  1   
 35  17  21  1   
 36  17  35  1   
 37  19  36  1   
 38  19  37  1   
 39  20  38  1   
 40  20  39  1   
 41  20  40  1   
 42  21  41  1   
 43  21  42  1   
 44  21  43  1   
@<TRIPOS>SUBSTRUCTURE
  1 ****   2 GROUP 4 **** **** 0

# MOE 2024.06 (io_trps.svl 2023.06)
