@<TRIPOS>MOLECULE
NONAME
29 30 1 0 0 
SMALL
USER_CHARGES


@<TRIPOS>ATOM
  1 O       -1.8470    -0.1560     1.6240 O.2   1 <1>  -0.5700 
  2 C       -2.7090     0.0100     0.7920 C.2   1 <1>   0.6900 
  3 N       -3.1010     1.2660     0.3580 N.am  1 <1>  -0.4200 
  4 N       -3.2970    -1.0990     0.2940 N.am  1 <1>  -0.7300 
  5 C       -2.5140     2.4730     0.6750 C.2   1 <1>   0.5690 
  6 C       -4.3050     1.3350    -0.4940 C.3   1 <1>   0.5200 
  7 C       -4.4510    -1.0940    -0.5940 C.3   1 <1>   0.5200 
  8 O       -2.9920     3.5150     0.2970 O.2   1 <1>  -0.5700 
  9 C       -1.2400     2.5840     1.4890 C.3   1 <1>  -0.1790 
 10 N       -5.4660     1.2680     0.3820 N.am  1 <1>  -0.7300 
 11 C       -4.3740     0.1570    -1.4490 C.3   1 <1>  -0.1600 
 12 N       -5.6610    -1.0950     0.2520 N.am  1 <1>  -0.4200 
 13 C       -6.0570     0.1220     0.7830 C.2   1 <1>   0.6900 
 14 C       -6.2510    -2.3240     0.4650 C.2   1 <1>   0.5690 
 15 O       -6.9260     0.2200     1.6190 O.2   1 <1>  -0.5700 
 16 O       -5.7690    -3.3310     0.0070 O.2   1 <1>  -0.5700 
 17 C       -7.5300    -2.5000     1.2570 C.3   1 <1>  -0.1790 
 18 H       -3.0920    -1.9820     0.7650 H     1 <1>   0.3700 
 19 H       -4.3290     2.2510    -1.0620 H     1 <1>   0.0800 
 20 H       -4.4210    -1.9610    -1.2340 H     1 <1>   0.0800 
 21 H       -0.4650     1.9860     1.0490 H     1 <1>   0.0800 
 22 H       -1.4200     2.2550     2.4960 H     1 <1>   0.0800 
 23 H       -0.9100     3.6060     1.5180 H     1 <1>   0.0800 
 24 H       -5.6750     2.1090     0.9220 H     1 <1>   0.3700 
 25 H       -3.5040     0.1330    -2.0800 H     1 <1>   0.0800 
 26 H       -5.2390     0.2330    -2.0820 H     1 <1>   0.0800 
 27 H       -7.3590    -2.2540     2.2880 H     1 <1>   0.0800 
 28 H       -7.8610    -3.5210     1.1990 H     1 <1>   0.0800 
 29 H       -8.3030    -1.8680     0.8600 H     1 <1>   0.0800 
@<TRIPOS>BOND
  1   1   2  2   
  2   2   3  am  
  3   2   4  am  
  4   3   5  am  
  5   3   6  1   
  6   4   7  1   
  7   4  18  1   
  8   5   8  2   
  9   5   9  1   
 10   6  10  1   
 11   6  11  1   
 12   6  19  1   
 13   7  11  1   
 14   7  12  1   
 15   7  20  1   
 16   9  21  1   
 17   9  22  1   
 18   9  23  1   
 19  10  13  am  
 20  10  24  1   
 21  11  25  1   
 22  11  26  1   
 23  12  13  am  
 24  12  14  am  
 25  13  15  2   
 26  14  16  2   
 27  14  17  1   
 28  17  27  1   
 29  17  28  1   
 30  17  29  1   
@<TRIPOS>SUBSTRUCTURE
  1 ****   7 GROUP 4 **** **** 0

# MOE 2024.06 (io_trps.svl 2023.06)
