@<TRIPOS>MOLECULE
NONAME
43 44 1 0 0 
SMALL
USER_CHARGES


@<TRIPOS>ATOM
  1 S        0.1530    -0.2980    -0.0220 S.3   1 <1>  -0.3710 
  2 C        1.9180    -0.0570    -0.1110 C.2   1 <1>   0.6250 
  3 C       -0.5640     1.3510    -0.4520 C.3   1 <1>   0.0700 
  4 O        2.2890     1.0520    -0.4120 O.2   1 <1>  -0.5700 
  5 C        2.7850    -1.1850     0.1770 C.ar  1 <1>   0.0860 
  6 C       -2.0820     1.2840    -0.2750 C.3   1 <1>  -0.0990 
  7 C        2.3110    -2.4440     0.5660 C.ar  1 <1>  -0.1500 
  8 C        4.1710    -1.0400     0.0720 C.ar  1 <1>  -0.1500 
  9 C       -2.7290     2.6280    -0.5620 C.2   1 <1>   0.5690 
 10 C        3.1720    -3.4930     0.8320 C.ar  1 <1>  -0.1500 
 11 C        5.0380    -2.0850     0.3370 C.ar  1 <1>  -0.1500 
 12 O       -2.2950     3.2600    -1.5000 O.2   1 <1>  -0.5700 
 13 N       -3.7240     3.1160     0.2510 N.am  1 <1>  -0.6600 
 14 C        4.5390    -3.3160     0.7180 C.ar  1 <1>  -0.1500 
 15 C       -4.9940     2.3190     0.5330 C.3   1 <1>   0.1140 
 16 C       -3.9480     4.5660     0.5010 C.3   1 <1>   0.2200 
 17 C       -4.9230     0.7730     0.5820 C.2   1 <1>   0.9060 
 18 C       -6.0710     2.8040    -0.4640 C.3   1 <1>  -0.1600 
 19 C       -4.9670     5.0900    -0.5170 C.3   1 <1>  -0.1600 
 20 C       -2.6580     5.3920     0.5250 C.3   1 <1>  -0.2400 
 21 O       -4.7580     0.2270     1.6810 O.co2 1 <1>  -0.9000 
 22 O       -5.0410     0.1060    -0.4560 O.co2 1 <1>  -0.9000 
 23 C       -6.2960     4.3250    -0.4020 C.3   1 <1>  -0.1600 
 24 H       -0.2930     1.5670    -1.4700 H     1 <1>   0.0800 
 25 H       -0.1250     2.0790     0.2080 H     1 <1>   0.0800 
 26 H       -2.2960     0.9910     0.7360 H     1 <1>   0.0800 
 27 H       -2.4950     0.5520    -0.9440 H     1 <1>   0.0800 
 28 H        1.2540    -2.6180     0.6670 H     1 <1>   0.1500 
 29 H        4.5760    -0.0860    -0.2230 H     1 <1>   0.1500 
 30 H        2.7790    -4.4500     1.1290 H     1 <1>   0.1500 
 31 H        6.1010    -1.9410     0.2460 H     1 <1>   0.1500 
 32 H        5.2100    -4.1330     0.9240 H     1 <1>   0.1500 
 33 H       -5.3230     2.5920     1.5180 H     1 <1>   0.0800 
 34 H       -4.3830     4.6550     1.4820 H     1 <1>   0.0800 
 35 H       -6.9940     2.2930    -0.2570 H     1 <1>   0.0800 
 36 H       -5.7630     2.5200    -1.4560 H     1 <1>   0.0800 
 37 H       -4.5620     4.9710    -1.5080 H     1 <1>   0.0800 
 38 H       -5.1410     6.1370    -0.3510 H     1 <1>   0.0800 
 39 H       -2.2480     5.5030    -0.4610 H     1 <1>   0.0800 
 40 H       -1.9330     4.9220     1.1650 H     1 <1>   0.0800 
 41 H       -2.8660     6.3730     0.9080 H     1 <1>   0.0800 
 42 H       -6.7630     4.5690     0.5360 H     1 <1>   0.0800 
 43 H       -6.9590     4.6240    -1.1940 H     1 <1>   0.0800 
@<TRIPOS>BOND
  1   1   2  1   
  2   1   3  1   
  3   2   4  2   
  4   2   5  1   
  5   3   6  1   
  6   3  24  1   
  7   3  25  1   
  8   5   7  ar  
  9   5   8  ar  
 10   6   9  1   
 11   6  26  1   
 12   6  27  1   
 13   7  10  ar  
 14   7  28  1   
 15   8  11  ar  
 16   8  29  1   
 17   9  12  2   
 18   9  13  am  
 19  10  14  ar  
 20  10  30  1   
 21  11  14  ar  
 22  11  31  1   
 23  13  15  1   
 24  13  16  1   
 25  14  32  1   
 26  15  17  1   
 27  15  18  1   
 28  15  33  1   
 29  16  19  1   
 30  16  20  1   
 31  16  34  1   
 32  17  21  ar  
 33  17  22  ar  
 34  18  23  1   
 35  18  35  1   
 36  18  36  1   
 37  19  23  1   
 38  19  37  1   
 39  19  38  1   
 40  20  39  1   
 41  20  40  1   
 42  20  41  1   
 43  23  42  1   
 44  23  43  1   
@<TRIPOS>SUBSTRUCTURE
  1 ****   3 GROUP 4 **** **** 0

# MOE 2024.06 (io_trps.svl 2023.06)
