@<TRIPOS>MOLECULE
NONAME
48 51 1 0 0 
SMALL
USER_CHARGES


@<TRIPOS>ATOM
  1 CL       0.3720     1.9260    -0.2220 Cl    1 <1>  -0.1770 
  2 C       -1.3690     1.8020    -0.2760 C.ar  1 <1>   0.1770 
  3 C       -2.1410     2.9440    -0.2190 C.ar  1 <1>  -0.1500 
  4 C       -1.9430     0.5500    -0.3800 C.ar  1 <1>  -0.1500 
  5 C       -3.5280     2.8450    -0.2710 C.ar  1 <1>   0.1000 
  6 C       -3.3230     0.4430    -0.4290 C.ar  1 <1>  -0.1500 
  7 N       -4.3190     3.9930    -0.2360 N.pl3 1 <1>  -0.8380 
  8 C       -4.1150     1.5800    -0.3750 C.ar  1 <1>  -0.1430 
  9 C       -4.3660     4.7700    -1.5180 C.3   1 <1>   0.2090 
 10 C       -4.1630     4.8500     0.9930 C.3   1 <1>   0.2090 
 11 C       -5.6300     1.4440    -0.4250 C.3   1 <1>  -0.0970 
 12 C       -3.7920     6.1950    -1.3970 C.3   1 <1>   0.1400 
 13 C       -4.9200     6.1820     0.8640 C.3   1 <1>   0.1400 
 14 N       -4.4640     6.9830    -0.3150 N.am  1 <1>  -0.6600 
 15 C       -4.3450     8.3360    -0.1470 C.2   1 <1>   0.5690 
 16 O       -5.1970     8.9450     0.4610 O.2   1 <1>  -0.5700 
 17 C       -3.1590     9.0960    -0.7690 C.3   1 <1>  -0.0190 
 18 C       -1.6100     8.5820    -0.2310 C.3   1 <1>  -0.1860 
 19 C       -3.1830    10.7510    -0.5800 C.3   1 <1>   0.0580 
 20 C       -1.5970     7.4760     0.8170 C.2   1 <1>   0.9060 
 21 C       -0.8010     9.9390     0.2610 C.3   1 <1>   0.0580 
 22 C       -2.1850    11.9750    -0.2280 C.2   1 <1>  -0.2880 
 23 C       -2.0300    10.2310    -0.1670 C.3   1 <1>  -0.1600 
 24 O       -1.0630     6.4030     0.5140 O.co2 1 <1>  -0.9000 
 25 O       -2.1130     7.6560     1.9230 O.co2 1 <1>  -0.9000 
 26 C       -0.9390    11.5490     0.2130 C.2   1 <1>  -0.2880 
 27 H       -1.6680     3.9080    -0.1330 H     1 <1>   0.1500 
 28 H       -1.3180    -0.3220    -0.4220 H     1 <1>   0.1500 
 29 H       -3.7740    -0.5300    -0.5080 H     1 <1>   0.1500 
 30 H       -5.3900     4.8380    -1.8380 H     1 <1>   0.0800 
 31 H       -3.8200     4.2400    -2.2790 H     1 <1>   0.0800 
 32 H       -3.1240     5.0630     1.1770 H     1 <1>   0.0800 
 33 H       -4.5380     4.3110     1.8440 H     1 <1>   0.0800 
 34 H       -6.0600     1.9030     0.4470 H     1 <1>   0.0800 
 35 H       -5.9310     0.4140    -0.4580 H     1 <1>   0.0800 
 36 H       -6.0080     1.9470    -1.2960 H     1 <1>   0.0800 
 37 H       -3.9140     6.7030    -2.3350 H     1 <1>   0.0800 
 38 H       -2.7400     6.1150    -1.1960 H     1 <1>   0.0800 
 39 H       -4.7550     6.7530     1.7630 H     1 <1>   0.0800 
 40 H       -5.9730     5.9890     0.7760 H     1 <1>   0.0800 
 41 H       -3.2260     8.8980    -1.8270 H     1 <1>   0.0800 
 42 H       -1.0840     8.1660    -1.0760 H     1 <1>   0.0800 
 43 H       -3.9850    10.9390     0.1190 H     1 <1>   0.0800 
 44 H       -0.6140     9.7540     1.3120 H     1 <1>   0.0800 
 45 H       -2.5480    12.9810    -0.3500 H     1 <1>   0.1500 
 46 H       -2.4330    10.1820     0.9270 H     1 <1>   0.0800 
 47 H       -1.5980    10.3340    -1.3010 H     1 <1>   0.0800 
 48 H       -0.0930    12.1400     0.5200 H     1 <1>   0.1500 
@<TRIPOS>BOND
  1   1   2  1   
  2   2   3  ar  
  3   2   4  ar  
  4   3   5  ar  
  5   3  27  1   
  6   4   6  ar  
  7   4  28  1   
  8   5   7  1   
  9   5   8  ar  
 10   6   8  ar  
 11   6  29  1   
 12   7   9  1   
 13   7  10  1   
 14   8  11  1   
 15   9  12  1   
 16   9  30  1   
 17   9  31  1   
 18  10  13  1   
 19  10  32  1   
 20  10  33  1   
 21  11  34  1   
 22  11  35  1   
 23  11  36  1   
 24  12  14  1   
 25  12  37  1   
 26  12  38  1   
 27  13  14  1   
 28  13  39  1   
 29  13  40  1   
 30  14  15  am  
 31  15  16  2   
 32  15  17  1   
 33  17  18  1   
 34  17  19  1   
 35  17  41  1   
 36  18  20  1   
 37  18  21  1   
 38  18  42  1   
 39  19  22  1   
 40  19  23  1   
 41  19  43  1   
 42  20  24  ar  
 43  20  25  ar  
 44  21  23  1   
 45  21  26  1   
 46  21  44  1   
 47  22  26  2   
 48  22  45  1   
 49  23  46  1   
 50  23  47  1   
 51  26  48  1   
@<TRIPOS>SUBSTRUCTURE
  1 ****  12 GROUP 4 **** **** 0

# MOE 2024.06 (io_trps.svl 2023.06)
