@<TRIPOS>MOLECULE
NONAME
49 50 1 0 0 
SMALL
USER_CHARGES


@<TRIPOS>ATOM
  1 O       -0.0460     1.2020    -1.1430 O.3   1 <1>  -0.5600 
  2 C        0.5580     2.0660    -0.2200 C.3   1 <1>   0.1200 
  3 C       -0.9480     1.8270    -2.0210 C.3   1 <1>   0.1200 
  4 C       -0.4970     2.6830     0.7260 C.3   1 <1>   0.3430 
  5 C       -1.9600     2.7270    -1.2740 C.3   1 <1>   0.3430 
  6 N       -1.8940     2.4960     0.2070 N.4   1 <1>  -0.9590 
  7 C       -2.9560     3.2330     0.9670 C.3   1 <1>   0.3430 
  8 C       -4.2480     2.3990     1.1380 C.3   1 <1>   0.2000 
  9 O       -4.4860     1.6600    -0.0200 O.3   1 <1>  -0.6800 
 10 C       -5.4610     3.2930     1.4480 C.3   1 <1>   0.1200 
 11 O       -6.5510     2.5520     1.9730 O.3   1 <1>  -0.3630 
 12 C       -7.2250     1.7240     1.1460 C.ar  1 <1>   0.0830 
 13 C       -8.2090     2.1490     0.2380 C.ar  1 <1>  -0.1440 
 14 C       -6.8550     0.3880     1.2290 C.ar  1 <1>  -0.1500 
 15 C       -8.6680     1.1900    -0.6660 C.ar  1 <1>  -0.1500 
 16 C       -8.8500     3.5670     0.1610 C.3   1 <1>   0.1430 
 17 C       -7.3600    -0.5410     0.3440 C.ar  1 <1>  -0.1500 
 18 C       -8.2540    -0.1300    -0.6210 C.ar  1 <1>  -0.1500 
 19 C       -8.3120     4.3050    -1.0720 C.3   1 <1>  -0.2400 
 20 C      -10.3840     3.4510     0.0270 C.3   1 <1>  -0.2400 
 21 C       -8.6290     4.4520     1.4030 C.3   1 <1>  -0.2400 
 22 H        1.0820     2.8340    -0.7630 H     1 <1>   0.0800 
 23 H        1.2790     1.5000     0.3430 H     1 <1>   0.0800 
 24 H       -1.4710     1.0500    -2.5510 H     1 <1>   0.0800 
 25 H       -0.3880     2.4020    -2.7380 H     1 <1>   0.0800 
 26 H       -0.2820     3.7320     0.8480 H     1 <1>   0.0800 
 27 H       -0.4080     2.2190     1.6950 H     1 <1>   0.0800 
 28 H       -2.9520     2.5190    -1.6410 H     1 <1>   0.0800 
 29 H       -1.7420     3.7590    -1.4930 H     1 <1>   0.0800 
 30 H       -2.1110     1.4880     0.2890 H     1 <1>   0.4500 
 31 H       -3.1920     4.1510     0.4560 H     1 <1>   0.0800 
 32 H       -2.5930     3.4930     1.9480 H     1 <1>   0.0800 
 33 H       -4.1100     1.7060     1.9510 H     1 <1>   0.0800 
 34 H       -5.3840     1.2490     0.0310 H     1 <1>   0.4000 
 35 H       -5.7840     3.8140     0.5650 H     1 <1>   0.0800 
 36 H       -5.2030     4.0170     2.2000 H     1 <1>   0.0800 
 37 H       -6.1590     0.0770     1.9870 H     1 <1>   0.1500 
 38 H       -9.3740     1.4480    -1.4320 H     1 <1>   0.1500 
 39 H       -7.0610    -1.5740     0.4030 H     1 <1>   0.1500 
 40 H       -8.6430    -0.8390    -1.3320 H     1 <1>   0.1500 
 41 H       -8.5370     3.7550    -1.9680 H     1 <1>   0.0800 
 42 H       -7.2480     4.4220    -1.0100 H     1 <1>   0.0800 
 43 H       -8.7600     5.2800    -1.1540 H     1 <1>   0.0800 
 44 H      -10.8530     4.4160     0.0890 H     1 <1>   0.0800 
 45 H      -10.7750     2.8350     0.8180 H     1 <1>   0.0800 
 46 H      -10.6800     3.0270    -0.9130 H     1 <1>   0.0800 
 47 H       -9.2510     5.3280     1.3690 H     1 <1>   0.0800 
 48 H       -7.6190     4.7990     1.4710 H     1 <1>   0.0800 
 49 H       -8.8730     3.9030     2.2960 H     1 <1>   0.0800 
@<TRIPOS>BOND
  1   1   2  1   
  2   1   3  1   
  3   2   4  1   
  4   2  22  1   
  5   2  23  1   
  6   3   5  1   
  7   3  24  1   
  8   3  25  1   
  9   4   6  1   
 10   4  26  1   
 11   4  27  1   
 12   5   6  1   
 13   5  28  1   
 14   5  29  1   
 15   6   7  1   
 16   6  30  1   
 17   7   8  1   
 18   7  31  1   
 19   7  32  1   
 20   8   9  1   
 21   8  10  1   
 22   8  33  1   
 23   9  34  1   
 24  10  11  1   
 25  10  35  1   
 26  10  36  1   
 27  11  12  1   
 28  12  13  ar  
 29  12  14  ar  
 30  13  15  ar  
 31  13  16  1   
 32  14  17  ar  
 33  14  37  1   
 34  15  18  ar  
 35  15  38  1   
 36  16  19  1   
 37  16  20  1   
 38  16  21  1   
 39  17  18  ar  
 40  17  39  1   
 41  18  40  1   
 42  19  41  1   
 43  19  42  1   
 44  19  43  1   
 45  20  44  1   
 46  20  45  1   
 47  20  46  1   
 48  21  47  1   
 49  21  48  1   
 50  21  49  1   
@<TRIPOS>SUBSTRUCTURE
  1 ****   9 GROUP 4 **** **** 0

# MOE 2024.06 (io_trps.svl 2023.06)
