@<TRIPOS>MOLECULE
NONAME
44 45 1 0 0 
SMALL
USER_CHARGES


@<TRIPOS>ATOM
  1 O        0.8160    -1.5060    -1.8210 O.2   1 <1>  -0.5700 
  2 C        1.0170    -2.6760    -2.0520 C.2   1 <1>   0.5690 
  3 N        0.0180    -3.5080    -2.4510 N.am  1 <1>  -0.7300 
  4 C        2.4210    -3.2430    -1.7270 C.3   1 <1>   0.4840 
  5 C       -1.3830    -3.2240    -2.1180 C.3   1 <1>   0.3640 
  6 N        2.8090    -2.9790    -0.2890 N.4   1 <1>  -0.9590 
  7 C        3.4740    -2.6430    -2.6670 C.3   1 <1>  -0.2400 
  8 C       -1.5410    -3.5250    -0.6300 C.ar  1 <1>  -0.1440 
  9 C       -2.2890    -4.0680    -3.0090 C.3   1 <1>  -0.2400 
 10 C        4.1330    -3.5450     0.1070 C.3   1 <1>   0.3430 
 11 C        1.7170    -3.3960     0.6530 C.3   1 <1>   0.3430 
 12 C       -1.4780    -4.8210    -0.1290 C.ar  1 <1>  -0.1500 
 13 C       -1.7100    -2.4720     0.2580 C.ar  1 <1>  -0.1500 
 14 C        4.4960    -3.0890     1.5210 C.3   1 <1>  -0.1600 
 15 C        2.0460    -2.9420     2.0740 C.3   1 <1>  -0.1600 
 16 C       -1.5810    -5.0550     1.2320 C.ar  1 <1>  -0.1500 
 17 C       -1.8130    -2.7040     1.6180 C.ar  1 <1>  -0.1500 
 18 C        3.4110    -3.4620     2.5380 C.3   1 <1>  -0.1600 
 19 C       -1.7470    -3.9960     2.1060 C.ar  1 <1>  -0.1500 
 20 H        0.1800    -4.4870    -2.6850 H     1 <1>   0.3700 
 21 H        2.3840    -4.3060    -1.8880 H     1 <1>   0.0800 
 22 H       -1.5890    -2.1810    -2.3020 H     1 <1>   0.0800 
 23 H        2.8570    -1.9520    -0.2120 H     1 <1>   0.4500 
 24 H        3.6020    -1.5930    -2.4720 H     1 <1>   0.0800 
 25 H        3.1410    -2.7490    -3.6850 H     1 <1>   0.0800 
 26 H        4.4170    -3.1500    -2.5850 H     1 <1>   0.0800 
 27 H       -2.0780    -5.1160    -2.9140 H     1 <1>   0.0800 
 28 H       -2.1710    -3.7720    -4.0360 H     1 <1>   0.0800 
 29 H       -3.3140    -3.9020    -2.7290 H     1 <1>   0.0800 
 30 H        4.9010    -3.2150    -0.5720 H     1 <1>   0.0800 
 31 H        4.0920    -4.6220     0.0770 H     1 <1>   0.0800 
 32 H        1.6020    -4.4670     0.6350 H     1 <1>   0.0800 
 33 H        0.7780    -2.9520     0.3620 H     1 <1>   0.0800 
 34 H       -1.3540    -5.6600    -0.7900 H     1 <1>   0.1500 
 35 H       -1.7590    -1.4580    -0.1070 H     1 <1>   0.1500 
 36 H        4.6490    -2.0230     1.5230 H     1 <1>   0.0800 
 37 H        5.4260    -3.5460     1.8100 H     1 <1>   0.0800 
 38 H        1.2800    -3.3010     2.7400 H     1 <1>   0.0800 
 39 H        2.0270    -1.8660     2.1160 H     1 <1>   0.0800 
 40 H       -1.5420    -6.0620     1.6110 H     1 <1>   0.1500 
 41 H       -1.9510    -1.8790     2.2960 H     1 <1>   0.1500 
 42 H        3.6530    -3.0450     3.5020 H     1 <1>   0.0800 
 43 H        3.3700    -4.5340     2.6460 H     1 <1>   0.0800 
 44 H       -1.8350    -4.1780     3.1640 H     1 <1>   0.1500 
@<TRIPOS>BOND
  1   1   2  2   
  2   2   3  am  
  3   2   4  1   
  4   3   5  1   
  5   3  20  1   
  6   4   6  1   
  7   4   7  1   
  8   4  21  1   
  9   5   8  1   
 10   5   9  1   
 11   5  22  1   
 12   6  10  1   
 13   6  11  1   
 14   6  23  1   
 15   7  24  1   
 16   7  25  1   
 17   7  26  1   
 18   8  12  ar  
 19   8  13  ar  
 20   9  27  1   
 21   9  28  1   
 22   9  29  1   
 23  10  14  1   
 24  10  30  1   
 25  10  31  1   
 26  11  15  1   
 27  11  32  1   
 28  11  33  1   
 29  12  16  ar  
 30  12  34  1   
 31  13  17  ar  
 32  13  35  1   
 33  14  18  1   
 34  14  36  1   
 35  14  37  1   
 36  15  18  1   
 37  15  38  1   
 38  15  39  1   
 39  16  19  ar  
 40  16  40  1   
 41  17  19  ar  
 42  17  41  1   
 43  18  42  1   
 44  18  43  1   
 45  19  44  1   
@<TRIPOS>SUBSTRUCTURE
  1 ****  11 GROUP 4 **** **** 0

# MOE 2024.06 (io_trps.svl 2023.06)
