@<TRIPOS>MOLECULE
NONAME
40 41 1 0 0 
SMALL
USER_CHARGES


@<TRIPOS>ATOM
  1 O       -1.2420     1.7270    -2.1280 O.2   1 <1>  -0.5700 
  2 C       -0.7200     1.7620    -1.0430 C.2   1 <1>   0.5690 
  3 N       -1.3390     1.4140     0.1240 N.am  1 <1>  -0.5470 
  4 C        0.7090     2.2330    -0.9500 C.3   1 <1>  -0.1790 
  5 C       -2.6310     0.9200     0.3650 C.ar  1 <1>   0.1170 
  6 C       -3.1850     1.0850     1.6290 C.ar  1 <1>  -0.1500 
  7 C       -3.3800     0.2530    -0.5980 C.ar  1 <1>  -0.1500 
  8 C       -4.4490     0.6050     1.9230 C.ar  1 <1>  -0.1500 
  9 C       -4.6430    -0.2280    -0.3070 C.ar  1 <1>  -0.1500 
 10 C       -5.1900    -0.0550     0.9550 C.ar  1 <1>  -0.1430 
 11 C       -6.5840    -0.5830     1.2670 C.3   1 <1>   0.2530 
 12 N       -7.5920    -0.0050     0.3530 N.3   1 <1>  -0.8100 
 13 C       -7.6390     1.4720     0.4270 C.3   1 <1>   0.1100 
 14 C       -8.9210    -0.6070     0.5620 C.3   1 <1>   0.1100 
 15 C       -8.6590     2.0510    -0.5730 C.3   1 <1>   0.3430 
 16 C       -9.9510    -0.0470    -0.4410 C.3   1 <1>   0.3430 
 17 N      -10.0300     1.4550    -0.3840 N.4   1 <1>  -0.9590 
 18 C      -10.9940     1.9870    -1.3910 C.3   1 <1>   0.2630 
 19 H       -0.7830     1.5660     0.9610 H     1 <1>   0.3700 
 20 H        0.7580     3.1370    -0.3720 H     1 <1>   0.0800 
 21 H        1.0890     2.4310    -1.9350 H     1 <1>   0.0800 
 22 H        1.3150     1.4750    -0.4910 H     1 <1>   0.0800 
 23 H       -2.6260     1.5950     2.3920 H     1 <1>   0.1500 
 24 H       -2.9760     0.1020    -1.5830 H     1 <1>   0.1500 
 25 H       -4.8500     0.7480     2.9110 H     1 <1>   0.1500 
 26 H       -5.2060    -0.7390    -1.0700 H     1 <1>   0.1500 
 27 H       -6.8430    -0.3590     2.2880 H     1 <1>   0.0800 
 28 H       -6.5720    -1.6540     1.1540 H     1 <1>   0.0800 
 29 H       -6.6710     1.8770     0.1840 H     1 <1>   0.0800 
 30 H       -7.8860     1.7860     1.4260 H     1 <1>   0.0800 
 31 H       -9.2570    -0.4230     1.5690 H     1 <1>   0.0800 
 32 H       -8.8520    -1.6730     0.4250 H     1 <1>   0.0800 
 33 H       -8.3060     1.8410    -1.5700 H     1 <1>   0.0800 
 34 H       -8.7020     3.1210    -0.4540 H     1 <1>   0.0800 
 35 H      -10.9180    -0.4750    -0.2310 H     1 <1>   0.0800 
 36 H       -9.6580    -0.3570    -1.4310 H     1 <1>   0.0800 
 37 H      -10.3460     1.7120     0.5610 H     1 <1>   0.4500 
 38 H      -10.6740     1.7280    -2.3880 H     1 <1>   0.0800 
 39 H      -11.0580     3.0610    -1.3180 H     1 <1>   0.0800 
 40 H      -11.9760     1.5730    -1.2260 H     1 <1>   0.0800 
@<TRIPOS>BOND
  1   1   2  2   
  2   2   3  am  
  3   2   4  1   
  4   3   5  1   
  5   3  19  1   
  6   4  20  1   
  7   4  21  1   
  8   4  22  1   
  9   5   6  ar  
 10   5   7  ar  
 11   6   8  ar  
 12   6  23  1   
 13   7   9  ar  
 14   7  24  1   
 15   8  10  ar  
 16   8  25  1   
 17   9  10  ar  
 18   9  26  1   
 19  10  11  1   
 20  11  12  1   
 21  11  27  1   
 22  11  28  1   
 23  12  13  1   
 24  12  14  1   
 25  13  15  1   
 26  13  29  1   
 27  13  30  1   
 28  14  16  1   
 29  14  31  1   
 30  14  32  1   
 31  15  17  1   
 32  15  33  1   
 33  15  34  1   
 34  16  17  1   
 35  16  35  1   
 36  16  36  1   
 37  17  18  1   
 38  17  37  1   
 39  18  38  1   
 40  18  39  1   
 41  18  40  1   
@<TRIPOS>SUBSTRUCTURE
  1 ****   9 GROUP 4 **** **** 0

# MOE 2024.06 (io_trps.svl 2023.06)
