@<TRIPOS>MOLECULE
NONAME
44 45 1 0 0 
SMALL
USER_CHARGES


@<TRIPOS>ATOM
  1 O        0.1890     0.3150    -1.2900 O.2   1 <1>  -0.5700 
  2 C        0.0230     1.3370    -0.6670 C.2   1 <1>   0.5690 
  3 N       -1.2020     1.7500    -0.2080 N.am  1 <1>  -0.5470 
  4 C        1.2380     2.2360    -0.3590 C.3   1 <1>   0.1710 
  5 C       -2.4810     1.1700    -0.2900 C.ar  1 <1>   0.1170 
  6 N        2.5450     1.5340    -0.1850 N.3   1 <1>  -0.8100 
  7 C       -3.5770     1.9530     0.0490 C.ar  1 <1>  -0.1500 
  8 C       -2.7110    -0.1470    -0.6780 C.ar  1 <1>  -0.1500 
  9 C        3.6940     2.4510    -0.0230 C.3   1 <1>   0.1100 
 10 C        2.5240     0.5050     0.8860 C.3   1 <1>   0.1100 
 11 C       -4.8660     1.4520     0.0040 C.ar  1 <1>   0.0830 
 12 C       -3.9950    -0.6600    -0.7290 C.ar  1 <1>  -0.1500 
 13 C        5.0390     1.6830     0.0550 C.3   1 <1>   0.3430 
 14 C        3.8550    -0.2840     0.9570 C.3   1 <1>   0.3430 
 15 O       -5.8640     2.3020     0.3550 O.3   1 <1>  -0.3630 
 16 C       -5.0760     0.1340    -0.3900 C.ar  1 <1>  -0.1500 
 17 N        4.8290     0.2030    -0.0800 N.4   1 <1>  -0.9590 
 18 C       -7.2140     1.8950     0.3330 C.3   1 <1>   0.0400 
 19 C        6.0940    -0.5650    -0.1620 C.3   1 <1>   0.3430 
 20 C        5.8120    -1.9670    -0.6880 C.3   1 <1>  -0.2400 
 21 H       -1.2120     2.6630     0.2410 H     1 <1>   0.3700 
 22 H        1.0270     2.8050     0.5280 H     1 <1>   0.0800 
 23 H        1.3290     2.9260    -1.1790 H     1 <1>   0.0800 
 24 H       -3.4420     2.9730     0.3530 H     1 <1>   0.1500 
 25 H       -1.8920    -0.7890    -0.9450 H     1 <1>   0.1500 
 26 H        3.5700     3.0440     0.8680 H     1 <1>   0.0800 
 27 H        3.7300     3.1270    -0.8610 H     1 <1>   0.0800 
 28 H        1.7300    -0.1980     0.7010 H     1 <1>   0.0800 
 29 H        2.3310     0.9680     1.8390 H     1 <1>   0.0800 
 30 H       -4.1510    -1.6800    -1.0350 H     1 <1>   0.1500 
 31 H        5.5190     1.9020     0.9940 H     1 <1>   0.0800 
 32 H        5.6840     2.0340    -0.7330 H     1 <1>   0.0800 
 33 H        3.6400    -1.3280     0.7990 H     1 <1>   0.0800 
 34 H        4.2790    -0.1800     1.9410 H     1 <1>   0.0800 
 35 H       -6.0620    -0.2880    -0.4370 H     1 <1>   0.1500 
 36 H        4.3000     0.1090    -0.9640 H     1 <1>   0.4500 
 37 H       -7.8190     2.7280     0.6420 H     1 <1>   0.0800 
 38 H       -7.3440     1.0750     1.0170 H     1 <1>   0.0800 
 39 H       -7.4750     1.6070    -0.6700 H     1 <1>   0.0800 
 40 H        6.5620    -0.6180     0.8080 H     1 <1>   0.0800 
 41 H        6.7720    -0.0690    -0.8390 H     1 <1>   0.0800 
 42 H        5.2240    -2.5380     0.0070 H     1 <1>   0.0800 
 43 H        6.7450    -2.4840    -0.8270 H     1 <1>   0.0800 
 44 H        5.3120    -1.9250    -1.6390 H     1 <1>   0.0800 
@<TRIPOS>BOND
  1   1   2  2   
  2   2   3  am  
  3   2   4  1   
  4   3   5  1   
  5   3  21  1   
  6   4   6  1   
  7   4  22  1   
  8   4  23  1   
  9   5   7  ar  
 10   5   8  ar  
 11   6   9  1   
 12   6  10  1   
 13   7  11  ar  
 14   7  24  1   
 15   8  12  ar  
 16   8  25  1   
 17   9  13  1   
 18   9  26  1   
 19   9  27  1   
 20  10  14  1   
 21  10  28  1   
 22  10  29  1   
 23  11  15  1   
 24  11  16  ar  
 25  12  16  ar  
 26  12  30  1   
 27  13  17  1   
 28  13  31  1   
 29  13  32  1   
 30  14  17  1   
 31  14  33  1   
 32  14  34  1   
 33  15  18  1   
 34  16  35  1   
 35  17  19  1   
 36  17  36  1   
 37  18  37  1   
 38  18  38  1   
 39  18  39  1   
 40  19  20  1   
 41  19  40  1   
 42  19  41  1   
 43  20  42  1   
 44  20  43  1   
 45  20  44  1   
@<TRIPOS>SUBSTRUCTURE
  1 ****   2 GROUP 4 **** **** 0

# MOE 2024.06 (io_trps.svl 2023.06)
