@<TRIPOS>MOLECULE
NONAME
32 32 1 0 0 
SMALL
USER_CHARGES


@<TRIPOS>ATOM
  1 O        0.0120    -0.4750     0.8810 O.2   1 <1>  -0.5700 
  2 C       -0.0980    -1.6200     0.4820 C.2   1 <1>   0.5440 
  3 N        1.0320    -2.2820     0.0360 N.am  1 <1>  -0.6600 
  4 C       -1.4080    -2.2440     0.4770 C.ar  1 <1>   0.0860 
  5 C        2.3960    -1.7270     0.2620 C.3   1 <1>   0.0600 
  6 C        0.9910    -3.4800    -0.8460 C.3   1 <1>   0.0600 
  7 C       -2.5120    -1.5820    -0.0590 C.ar  1 <1>  -0.1500 
  8 C       -1.6200    -3.5160     1.0110 C.ar  1 <1>  -0.1500 
  9 C       -3.7670    -2.1630    -0.0840 C.ar  1 <1>  -0.1500 
 10 C       -2.8700    -4.1060     0.9890 C.ar  1 <1>  -0.1500 
 11 C       -3.9530    -3.4390     0.4400 C.ar  1 <1>   0.0820 
 12 O       -5.1400    -4.0840     0.4540 O.3   1 <1>  -0.3630 
 13 C       -6.3130    -3.4890    -0.0520 C.3   1 <1>   0.1200 
 14 C       -7.4670    -4.4760     0.1290 C.3   1 <1>  -0.1600 
 15 C       -8.7840    -3.8990    -0.4000 C.3   1 <1>  -0.2400 
 16 H        2.3810    -0.9980     1.0540 H     1 <1>   0.0800 
 17 H        2.7460    -1.2520    -0.6380 H     1 <1>   0.0800 
 18 H        3.0720    -2.5170     0.5370 H     1 <1>   0.0800 
 19 H        0.0000    -3.6380    -1.2350 H     1 <1>   0.0800 
 20 H        1.2950    -4.3500    -0.2910 H     1 <1>   0.0800 
 21 H        1.6600    -3.3430    -1.6780 H     1 <1>   0.0800 
 22 H       -2.3710    -0.5920    -0.4580 H     1 <1>   0.1500 
 23 H       -0.7900    -4.0410     1.4500 H     1 <1>   0.1500 
 24 H       -4.5830    -1.6110    -0.5110 H     1 <1>   0.1500 
 25 H       -3.0180    -5.0880     1.4010 H     1 <1>   0.1500 
 26 H       -6.1600    -3.2690    -1.0940 H     1 <1>   0.0800 
 27 H       -6.4980    -2.5830     0.4990 H     1 <1>   0.0800 
 28 H       -7.5740    -4.7060     1.1750 H     1 <1>   0.0800 
 29 H       -7.2390    -5.3850    -0.4010 H     1 <1>   0.0800 
 30 H       -9.0400    -2.9970     0.1280 H     1 <1>   0.0800 
 31 H       -9.5780    -4.6120    -0.2610 H     1 <1>   0.0800 
 32 H       -8.7050    -3.6780    -1.4500 H     1 <1>   0.0800 
@<TRIPOS>BOND
  1   1   2  2   
  2   2   3  am  
  3   2   4  1   
  4   3   5  1   
  5   3   6  1   
  6   4   7  ar  
  7   4   8  ar  
  8   5  16  1   
  9   5  17  1   
 10   5  18  1   
 11   6  19  1   
 12   6  20  1   
 13   6  21  1   
 14   7   9  ar  
 15   7  22  1   
 16   8  10  ar  
 17   8  23  1   
 18   9  11  ar  
 19   9  24  1   
 20  10  11  ar  
 21  10  25  1   
 22  11  12  1   
 23  12  13  1   
 24  13  14  1   
 25  13  26  1   
 26  13  27  1   
 27  14  15  1   
 28  14  28  1   
 29  14  29  1   
 30  15  30  1   
 31  15  31  1   
 32  15  32  1   
@<TRIPOS>SUBSTRUCTURE
  1 ****   7 GROUP 4 **** **** 0

# MOE 2024.06 (io_trps.svl 2023.06)
