@<TRIPOS>MOLECULE
NONAME
45 45 1 0 0 
SMALL
USER_CHARGES


@<TRIPOS>ATOM
  1 O        1.6560    -0.7670     2.8060 O.2   1 <1>  -0.5700 
  2 C        2.0430    -1.2690     1.7800 C.2   1 <1>   0.5690 
  3 N        2.5370    -0.4490     0.8150 N.am  1 <1>  -0.7300 
  4 C        1.9800    -2.7870     1.6590 C.3   1 <1>   0.1810 
  5 C        3.1670    -0.6570    -0.4930 C.3   1 <1>   0.3000 
  6 O        0.8430    -3.1900     0.9100 O.3   1 <1>  -0.3620 
  7 C        2.3320    -1.5840    -1.3770 C.3   1 <1>  -0.2400 
  8 C        3.2420     0.7230    -1.1450 C.3   1 <1>  -0.2400 
  9 C        4.5790    -1.2020    -0.2890 C.3   1 <1>  -0.2400 
 10 C        0.6430    -4.4740     0.5790 C.ar  1 <1>   0.7030 
 11 N        1.5080    -5.3610     0.9910 N.ar  1 <1>  -0.6200 
 12 N       -0.4130    -4.6890    -0.1450 N.ar  1 <1>  -0.6200 
 13 C        1.2240    -6.5840     0.6160 C.ar  1 <1>   0.7200 
 14 C       -0.5890    -5.9470    -0.4640 C.ar  1 <1>   0.7200 
 15 N        0.1950    -6.9320    -0.1110 N.ar  1 <1>  -0.6200 
 16 N        2.0850    -7.5830     1.0220 N.pl3 1 <1>  -0.8380 
 17 N       -1.6920    -6.2550    -1.2350 N.pl3 1 <1>  -0.8380 
 18 C        1.7140    -9.0250     0.9460 C.3   1 <1>   0.1290 
 19 C        3.4340    -7.3020     1.5880 C.3   1 <1>   0.1290 
 20 C       -1.8470    -7.5710    -1.9160 C.3   1 <1>   0.1290 
 21 C       -2.8040    -5.2860    -1.4530 C.3   1 <1>   0.1290 
 22 H        2.4790     0.5370     1.0670 H     1 <1>   0.3700 
 23 H        1.9020    -3.2210     2.6390 H     1 <1>   0.0800 
 24 H        2.8620    -3.1580     1.1760 H     1 <1>   0.0800 
 25 H        1.2970    -1.2880    -1.3640 H     1 <1>   0.0800 
 26 H        2.4120    -2.6060    -1.0620 H     1 <1>   0.0800 
 27 H        2.6820    -1.5400    -2.3920 H     1 <1>   0.0800 
 28 H        3.8200     1.4000    -0.5410 H     1 <1>   0.0800 
 29 H        2.2550     1.1260    -1.2830 H     1 <1>   0.0800 
 30 H        3.7120     0.6530    -2.1090 H     1 <1>   0.0800 
 31 H        5.1490    -0.5430     0.3420 H     1 <1>   0.0800 
 32 H        5.0820    -1.2820    -1.2360 H     1 <1>   0.0800 
 33 H        4.5580    -2.1780     0.1560 H     1 <1>   0.0800 
 34 H        0.6450    -9.1450     0.9980 H     1 <1>   0.0800 
 35 H        2.1530    -9.5640     1.7670 H     1 <1>   0.0800 
 36 H        2.0670    -9.4400     0.0180 H     1 <1>   0.0800 
 37 H        3.3720    -7.2560     2.6610 H     1 <1>   0.0800 
 38 H        3.8140    -6.3660     1.2180 H     1 <1>   0.0800 
 39 H        4.1230    -8.0800     1.3050 H     1 <1>   0.0800 
 40 H       -0.8860    -8.0170    -2.1050 H     1 <1>   0.0800 
 41 H       -2.3490    -7.4420    -2.8590 H     1 <1>   0.0800 
 42 H       -2.4230    -8.2320    -1.2940 H     1 <1>   0.0800 
 43 H       -2.8830    -4.6040    -0.6230 H     1 <1>   0.0800 
 44 H       -3.7390    -5.8100    -1.5480 H     1 <1>   0.0800 
 45 H       -2.6190    -4.7220    -2.3510 H     1 <1>   0.0800 
@<TRIPOS>BOND
  1   1   2  2   
  2   2   3  am  
  3   2   4  1   
  4   3   5  1   
  5   3  22  1   
  6   4   6  1   
  7   4  23  1   
  8   4  24  1   
  9   5   7  1   
 10   5   8  1   
 11   5   9  1   
 12   6  10  1   
 13   7  25  1   
 14   7  26  1   
 15   7  27  1   
 16   8  28  1   
 17   8  29  1   
 18   8  30  1   
 19   9  31  1   
 20   9  32  1   
 21   9  33  1   
 22  10  11  ar  
 23  10  12  ar  
 24  11  13  ar  
 25  12  14  ar  
 26  13  15  ar  
 27  13  16  1   
 28  14  15  ar  
 29  14  17  1   
 30  16  18  1   
 31  16  19  1   
 32  17  20  1   
 33  17  21  1   
 34  18  34  1   
 35  18  35  1   
 36  18  36  1   
 37  19  37  1   
 38  19  38  1   
 39  19  39  1   
 40  20  40  1   
 41  20  41  1   
 42  20  42  1   
 43  21  43  1   
 44  21  44  1   
 45  21  45  1   
@<TRIPOS>SUBSTRUCTURE
  1 ****  10 GROUP 4 **** **** 0

# MOE 2024.06 (io_trps.svl 2023.06)
