@<TRIPOS>MOLECULE
NONAME
45 48 1 0 0 
SMALL
USER_CHARGES


@<TRIPOS>ATOM
  1 S       -0.1200    -0.6670    -0.0190 S.o2  1 <1>   1.4970 
  2 O       -0.2240    -1.3870    -1.2760 O.2   1 <1>  -0.6500 
  3 O       -0.2180    -1.4060     1.2270 O.2   1 <1>  -0.6500 
  4 N        1.2490     0.2700    -0.0150 N.2   1 <1>  -0.6380 
  5 C       -1.4520     0.5760    -0.0060 C.ar  1 <1>  -0.0090 
  6 C        2.4170    -0.2650    -0.0090 C.2   1 <1>   0.5770 
  7 C       -2.7800     0.1630    -0.0690 C.ar  1 <1>  -0.1500 
  8 C       -1.2050     1.9480     0.0700 C.ar  1 <1>  -0.1500 
  9 S        2.6180    -2.0480    -0.0350 S.3   1 <1>  -0.2420 
 10 C        3.7110     0.3370     0.0030 C.2   1 <1>   0.0140 
 11 C       -3.8210     1.0730    -0.0560 C.ar  1 <1>   0.0820 
 12 C       -2.2390     2.8710     0.0780 C.ar  1 <1>  -0.1500 
 13 C        4.3700    -1.9320    -0.0070 C.2   1 <1>  -0.0370 
 14 C        4.7660    -0.6520     0.0350 C.2   1 <1>  -0.1380 
 15 C        3.9140     1.7350    -0.0290 C.2   1 <1>  -0.0730 
 16 O       -5.0970     0.6120    -0.1010 O.3   1 <1>  -0.3630 
 17 C       -3.5500     2.4400     0.0090 C.ar  1 <1>   0.0820 
 18 C        5.1930    -3.1990    -0.0200 C.3   1 <1>  -0.0220 
 19 C        6.2590    -0.3470     0.1180 C.3   1 <1>  -0.0220 
 20 O        3.0040     2.5650     0.0660 O.3   1 <1>  -0.8500 
 21 O        5.1520     2.2450    -0.1870 O.3   1 <1>  -0.3570 
 22 C       -6.1220     1.5290     0.2330 C.3   1 <1>   0.1200 
 23 O       -4.5500     3.3560    -0.0010 O.3   1 <1>  -0.3630 
 24 C        6.6590    -2.8400    -0.3150 C.3   1 <1>  -0.1600 
 25 C        7.0990    -1.5920     0.4720 C.3   1 <1>  -0.1600 
 26 C        5.3280     3.6430    -0.2340 C.3   1 <1>   0.0400 
 27 C       -5.8320     2.9020    -0.3910 C.3   1 <1>   0.1200 
 28 H       -3.0070    -0.8870    -0.1260 H     1 <1>   0.1500 
 29 H       -0.1890     2.3150     0.1240 H     1 <1>   0.1500 
 30 H       -2.0240     3.9230     0.1340 H     1 <1>   0.1500 
 31 H        4.8210    -3.8720    -0.7720 H     1 <1>   0.0800 
 32 H        5.1100    -3.6750     0.9400 H     1 <1>   0.0800 
 33 H        6.4280     0.4010     0.8730 H     1 <1>   0.0800 
 34 H        6.5760     0.0550    -0.8280 H     1 <1>   0.0800 
 35 H       -6.1660     1.6070     1.3050 H     1 <1>   0.0800 
 36 H       -7.0530     1.1320    -0.1310 H     1 <1>   0.0800 
 37 H        6.7640    -2.6380    -1.3670 H     1 <1>   0.0800 
 38 H        7.2920    -3.6750    -0.0700 H     1 <1>   0.0800 
 39 H        6.9910    -1.7900     1.5250 H     1 <1>   0.0800 
 40 H        8.1370    -1.3840     0.2810 H     1 <1>   0.0800 
 41 H        6.3710     3.8520    -0.3640 H     1 <1>   0.0800 
 42 H        4.9640     4.0560     0.6890 H     1 <1>   0.0800 
 43 H        4.7530     4.0250    -1.0580 H     1 <1>   0.0800 
 44 H       -6.5540     3.6290    -0.0670 H     1 <1>   0.0800 
 45 H       -5.8520     2.8360    -1.4640 H     1 <1>   0.0800 
@<TRIPOS>BOND
  1   1   2  2   
  2   1   3  2   
  3   1   4  1   
  4   1   5  1   
  5   4   6  2   
  6   5   7  ar  
  7   5   8  ar  
  8   6   9  1   
  9   6  10  1   
 10   7  11  ar  
 11   7  28  1   
 12   8  12  ar  
 13   8  29  1   
 14   9  13  1   
 15  10  14  1   
 16  10  15  2   
 17  11  16  1   
 18  11  17  ar  
 19  12  17  ar  
 20  12  30  1   
 21  13  14  2   
 22  13  18  1   
 23  14  19  1   
 24  15  20  1   
 25  15  21  1   
 26  16  22  1   
 27  17  23  1   
 28  18  24  1   
 29  18  31  1   
 30  18  32  1   
 31  19  25  1   
 32  19  33  1   
 33  19  34  1   
 34  21  26  1   
 35  22  27  1   
 36  22  35  1   
 37  22  36  1   
 38  23  27  1   
 39  24  25  1   
 40  24  37  1   
 41  24  38  1   
 42  25  39  1   
 43  25  40  1   
 44  26  41  1   
 45  26  42  1   
 46  26  43  1   
 47  27  44  1   
 48  27  45  1   
@<TRIPOS>SUBSTRUCTURE
  1 ****   4 GROUP 4 **** **** 0

# MOE 2024.06 (io_trps.svl 2023.06)
