@<TRIPOS>MOLECULE
NONAME
38 39 1 0 0 
SMALL
USER_CHARGES


@<TRIPOS>ATOM
  1 O       -0.6510     0.2150     0.7400 O.2   1 <1>  -0.5700 
  2 C       -1.1890     1.2850     0.5860 C.2   1 <1>   0.4950 
  3 C       -0.6170     2.5520     0.2760 C.2   1 <1>   0.0290 
  4 C       -2.6940     1.3540     0.7130 C.3   1 <1>  -0.0990 
  5 C       -1.7000     3.4710     0.1650 C.2   1 <1>   0.4950 
  6 C        0.7150     2.8830     0.0940 C.2   1 <1>  -0.0380 
  7 C       -3.0380     2.8140     0.4130 C.3   1 <1>  -0.0990 
  8 O       -1.6730     4.6540    -0.0900 O.2   1 <1>  -0.5700 
  9 N        1.0840     4.1420    -0.2620 N.pl3 1 <1>  -0.8690 
 10 C        1.8370     1.8580     0.2780 C.3   1 <1>  -0.0220 
 11 C        2.4230     4.7150    -0.5570 C.3   1 <1>   0.2090 
 12 C        2.1560     1.1480    -1.0420 C.3   1 <1>  -0.2400 
 13 C        2.9330     5.4790     0.6630 C.3   1 <1>  -0.0170 
 14 C        4.3150     6.0480     0.3870 C.ar  1 <1>  -0.1430 
 15 C        5.4470     5.2980     0.6650 C.ar  1 <1>  -0.1500 
 16 C        4.4550     7.3170    -0.1520 C.ar  1 <1>  -0.1500 
 17 C        6.7070     5.8110     0.4070 C.ar  1 <1>  -0.1500 
 18 C        5.7140     7.8320    -0.4100 C.ar  1 <1>  -0.1500 
 19 C        6.8410     7.0790    -0.1310 C.ar  1 <1>  -0.1500 
 20 H       -3.1520     0.6880     0.0030 H     1 <1>   0.0800 
 21 H       -2.9870     1.0780     1.7100 H     1 <1>   0.0800 
 22 H       -3.5270     3.2830     1.2480 H     1 <1>   0.0800 
 23 H       -3.6540     2.9000    -0.4640 H     1 <1>   0.0800 
 24 H        0.3210     4.8390    -0.3660 H     1 <1>   0.4000 
 25 H        2.7220     2.3370     0.6550 H     1 <1>   0.0800 
 26 H        1.5710     1.1290     1.0190 H     1 <1>   0.0800 
 27 H        3.1190     3.9400    -0.8210 H     1 <1>   0.0800 
 28 H        2.3430     5.3840    -1.3970 H     1 <1>   0.0800 
 29 H        2.4310     1.8640    -1.7960 H     1 <1>   0.0800 
 30 H        1.2930     0.6030    -1.3830 H     1 <1>   0.0800 
 31 H        2.9670     0.4570    -0.9030 H     1 <1>   0.0800 
 32 H        2.2500     6.2760     0.8980 H     1 <1>   0.0800 
 33 H        2.9760     4.8140     1.5070 H     1 <1>   0.0800 
 34 H        5.3540     4.3110     1.0840 H     1 <1>   0.1500 
 35 H        3.5860     7.9120    -0.3720 H     1 <1>   0.1500 
 36 H        7.5820     5.2240     0.6250 H     1 <1>   0.1500 
 37 H        5.8160     8.8180    -0.8280 H     1 <1>   0.1500 
 38 H        7.8200     7.4780    -0.3320 H     1 <1>   0.1500 
@<TRIPOS>BOND
  1   1   2  2   
  2   2   3  1   
  3   2   4  1   
  4   3   5  1   
  5   3   6  2   
  6   4   7  1   
  7   4  20  1   
  8   4  21  1   
  9   5   7  1   
 10   5   8  2   
 11   6   9  1   
 12   6  10  1   
 13   7  22  1   
 14   7  23  1   
 15   9  11  1   
 16   9  24  1   
 17  10  12  1   
 18  10  25  1   
 19  10  26  1   
 20  11  13  1   
 21  11  27  1   
 22  11  28  1   
 23  12  29  1   
 24  12  30  1   
 25  12  31  1   
 26  13  14  1   
 27  13  32  1   
 28  13  33  1   
 29  14  15  ar  
 30  14  16  ar  
 31  15  17  ar  
 32  15  34  1   
 33  16  18  ar  
 34  16  35  1   
 35  17  19  ar  
 36  17  36  1   
 37  18  19  ar  
 38  18  37  1   
 39  19  38  1   
@<TRIPOS>SUBSTRUCTURE
  1 ****   9 GROUP 4 **** **** 0

# MOE 2024.06 (io_trps.svl 2023.06)
