@<TRIPOS>MOLECULE
NONAME
32 32 1 0 0 
SMALL
USER_CHARGES


@<TRIPOS>ATOM
  1 S        0.0320     0.3080     1.8710 S.o2  1 <1>   1.3330 
  2 O        0.5810     1.6210     1.6380 O.2   1 <1>  -0.6500 
  3 O       -0.8000     0.0300     3.0140 O.2   1 <1>  -0.6500 
  4 N        1.3380    -0.7950     2.0270 N.am  1 <1>  -0.7570 
  5 C       -0.7890    -0.2860     0.3900 C.3   1 <1>  -0.0550 
  6 C        2.3390    -1.0700     1.0930 C.ar  1 <1>   0.1990 
  7 C       -2.0570     0.5070     0.0290 C.3   1 <1>  -0.1600 
  8 C        2.7960    -2.3720     0.8920 C.ar  1 <1>   0.1900 
  9 C        2.9260    -0.0730     0.3200 C.ar  1 <1>  -0.1500 
 10 C       -2.7130    -0.0420    -1.2440 C.3   1 <1>  -0.1600 
 11 F        2.2710    -3.3440     1.6010 F     1 <1>  -0.1900 
 12 C        3.7720    -2.6950    -0.0280 C.ar  1 <1>  -0.1500 
 13 C        3.9070    -0.3700    -0.6160 C.ar  1 <1>  -0.1430 
 14 C       -3.9730     0.7530    -1.5960 C.3   1 <1>  -0.2400 
 15 C        4.3280    -1.6810    -0.7890 C.ar  1 <1>  -0.1500 
 16 C        4.5330     0.7340    -1.4500 C.3   1 <1>  -0.0970 
 17 H        1.0920    -1.5390     2.6760 H     1 <1>   0.4200 
 18 H       -1.0540    -1.3160     0.5270 H     1 <1>   0.0800 
 19 H       -0.1040    -0.2310    -0.4340 H     1 <1>   0.0800 
 20 H       -1.7970     1.5420    -0.1160 H     1 <1>   0.0800 
 21 H       -2.7540     0.4510     0.8490 H     1 <1>   0.0800 
 22 H        2.6240     0.9490     0.4590 H     1 <1>   0.1500 
 23 H       -2.9780    -1.0770    -1.1010 H     1 <1>   0.0800 
 24 H       -2.0190     0.0150    -2.0660 H     1 <1>   0.0800 
 25 H        4.0900    -3.7160    -0.1470 H     1 <1>   0.1500 
 26 H       -4.6920     0.6920    -0.7980 H     1 <1>   0.0800 
 27 H       -4.4210     0.3560    -2.4900 H     1 <1>   0.0800 
 28 H       -3.7310     1.7870    -1.7660 H     1 <1>   0.0800 
 29 H        5.0910    -1.9130    -1.5130 H     1 <1>   0.1500 
 30 H        4.0020     1.6600    -1.3240 H     1 <1>   0.0800 
 31 H        4.5120     0.4680    -2.4910 H     1 <1>   0.0800 
 32 H        5.5550     0.8820    -1.1500 H     1 <1>   0.0800 
@<TRIPOS>BOND
  1   1   2  2   
  2   1   3  2   
  3   1   4  am  
  4   1   5  1   
  5   4   6  1   
  6   4  17  1   
  7   5   7  1   
  8   5  18  1   
  9   5  19  1   
 10   6   8  ar  
 11   6   9  ar  
 12   7  10  1   
 13   7  20  1   
 14   7  21  1   
 15   8  11  1   
 16   8  12  ar  
 17   9  13  ar  
 18   9  22  1   
 19  10  14  1   
 20  10  23  1   
 21  10  24  1   
 22  12  15  ar  
 23  12  25  1   
 24  13  15  ar  
 25  13  16  1   
 26  14  26  1   
 27  14  27  1   
 28  14  28  1   
 29  15  29  1   
 30  16  30  1   
 31  16  31  1   
 32  16  32  1   
@<TRIPOS>SUBSTRUCTURE
  1 ****   6 GROUP 4 **** **** 0

# MOE 2024.06 (io_trps.svl 2023.06)
