@<TRIPOS>MOLECULE
NONAME
38 39 1 0 0 
SMALL
USER_CHARGES


@<TRIPOS>ATOM
  1 O       -0.7610     0.4000    -0.2410 O.2   1 <1>  -0.5700 
  2 C       -1.2420     1.4840     0.0400 C.2   1 <1>   0.7150 
  3 N       -2.5940     1.5460     0.3210 N.am  1 <1>  -0.6600 
  4 C       -0.4100     2.6680     0.0820 C.2   1 <1>   0.0550 
  5 C       -3.3980     0.3070     0.5800 C.3   1 <1>   0.1400 
  6 C       -3.4230     2.7620     0.0540 C.3   1 <1>   0.1400 
  7 O        0.5400     2.8750    -0.8260 O.3   1 <1>  -0.2800 
  8 C       -0.4030     3.7190     0.9510 C.2   1 <1>  -0.1500 
  9 C       -4.4110     0.0620    -0.5470 C.3   1 <1>   0.1400 
 10 C       -4.4400     2.4940    -1.0680 C.3   1 <1>   0.1400 
 11 C        1.1430     4.0120    -0.5640 C.2   1 <1>  -0.0100 
 12 C        0.6030     4.5900     0.5300 C.2   1 <1>  -0.1500 
 13 N       -5.2530     1.2800    -0.7550 N.am  1 <1>  -0.6600 
 14 C       -6.6100     1.2530    -0.5410 C.2   1 <1>   0.5690 
 15 O       -7.1780     0.2190    -0.2780 O.2   1 <1>  -0.5700 
 16 C       -7.4140     2.5470    -0.6280 C.3   1 <1>  -0.0990 
 17 C       -8.8760     2.4530    -0.1610 C.3   1 <1>  -0.1600 
 18 C       -9.5610     3.8290    -0.2520 C.3   1 <1>  -0.2660 
 19 C      -10.9870     3.8090     0.2470 C.2   1 <1>   0.9060 
 20 O      -11.8900     3.5810    -0.5610 O.co2 1 <1>  -0.9000 
 21 O      -11.1940     4.0440     1.4410 O.co2 1 <1>  -0.9000 
 22 H       -3.9300     0.4180     1.5090 H     1 <1>   0.0800 
 23 H       -2.7570    -0.5530     0.6740 H     1 <1>   0.0800 
 24 H       -2.8040     3.5920    -0.2370 H     1 <1>   0.0800 
 25 H       -3.9490     3.0370     0.9520 H     1 <1>   0.0800 
 26 H       -1.0350     3.8660     1.8090 H     1 <1>   0.1500 
 27 H       -5.0210    -0.7880    -0.2960 H     1 <1>   0.0800 
 28 H       -3.8850    -0.1690    -1.4570 H     1 <1>   0.0800 
 29 H       -3.9090     2.3280    -1.9900 H     1 <1>   0.0800 
 30 H       -5.0590     3.3600    -1.2050 H     1 <1>   0.0800 
 31 H        1.9470     4.3370    -1.2020 H     1 <1>   0.1500 
 32 H        0.8750     5.5190     1.0010 H     1 <1>   0.1500 
 33 H       -7.4000     2.8810    -1.6480 H     1 <1>   0.0800 
 34 H       -6.9290     3.2840    -0.0180 H     1 <1>   0.0800 
 35 H       -8.9140     2.1080     0.8590 H     1 <1>   0.0800 
 36 H       -9.4160     1.7460    -0.7680 H     1 <1>   0.0800 
 37 H       -9.5810     4.1670    -1.2710 H     1 <1>   0.0800 
 38 H       -9.0280     4.5500     0.3370 H     1 <1>   0.0800 
@<TRIPOS>BOND
  1   1   2  2   
  2   2   3  am  
  3   2   4  1   
  4   3   5  1   
  5   3   6  1   
  6   4   7  1   
  7   4   8  2   
  8   5   9  1   
  9   5  22  1   
 10   5  23  1   
 11   6  10  1   
 12   6  24  1   
 13   6  25  1   
 14   7  11  1   
 15   8  12  1   
 16   8  26  1   
 17   9  13  1   
 18   9  27  1   
 19   9  28  1   
 20  10  13  1   
 21  10  29  1   
 22  10  30  1   
 23  11  12  2   
 24  11  31  1   
 25  12  32  1   
 26  13  14  am  
 27  14  15  2   
 28  14  16  1   
 29  16  17  1   
 30  16  33  1   
 31  16  34  1   
 32  17  18  1   
 33  17  35  1   
 34  17  36  1   
 35  18  19  1   
 36  18  37  1   
 37  18  38  1   
 38  19  20  ar  
 39  19  21  ar  
@<TRIPOS>SUBSTRUCTURE
  1 ****  10 GROUP 4 **** **** 0

# MOE 2024.06 (io_trps.svl 2023.06)
