@<TRIPOS>MOLECULE
NONAME
34 35 1 0 0 
SMALL
USER_CHARGES


@<TRIPOS>ATOM
  1 S       -1.0850     0.1920     1.0390 S.3   1 <1>  -0.0800 
  2 C       -1.8880     0.8250    -0.3600 C.2   1 <1>   0.4420 
  3 C        0.3030     1.1090     0.5650 C.2   1 <1>   0.1980 
  4 N       -1.1340     1.6130    -1.0370 N.2   1 <1>  -0.3380 
  5 N       -3.1870     0.4130    -0.5640 N.am  1 <1>  -0.4940 
  6 N        0.1160     1.7700    -0.5020 N.2   1 <1>  -0.3380 
  7 C        1.5390     1.0310     1.4320 C.3   1 <1>  -0.0600 
  8 C       -4.0830     0.7750    -1.5320 C.2   1 <1>   0.5690 
  9 O       -3.8490     1.6000    -2.3780 O.2   1 <1>  -0.5700 
 10 C       -5.4550     0.0940    -1.5500 C.3   1 <1>   0.2110 
 11 S       -5.8270    -0.6490     0.1180 S.3   1 <1>  -0.3320 
 12 C       -5.5360    -1.0410    -2.5800 C.3   1 <1>  -0.2400 
 13 C       -7.6110    -0.8960     0.2320 C.ar  1 <1>   0.1020 
 14 C       -8.4960    -0.4740    -0.7500 C.ar  1 <1>  -0.1500 
 15 C       -8.0730    -1.5360     1.3670 C.ar  1 <1>  -0.1500 
 16 C       -9.8510    -0.7030    -0.5850 C.ar  1 <1>  -0.1500 
 17 C       -9.4300    -1.7610     1.5240 C.ar  1 <1>  -0.1500 
 18 C      -10.3240    -1.3450     0.5500 C.ar  1 <1>  -0.1440 
 19 C      -11.8120    -1.5950     0.7240 C.3   1 <1>  -0.0970 
 20 H       -3.5520    -0.2410     0.1270 H     1 <1>   0.3700 
 21 H        1.8890     0.0170     1.4790 H     1 <1>   0.0800 
 22 H        1.3130     1.3770     2.4240 H     1 <1>   0.0800 
 23 H        2.3130     1.6490     1.0150 H     1 <1>   0.0800 
 24 H       -6.1980     0.8470    -1.7380 H     1 <1>   0.0800 
 25 H       -4.7910    -1.7880    -2.3710 H     1 <1>   0.0800 
 26 H       -5.3570    -0.6480    -3.5660 H     1 <1>   0.0800 
 27 H       -6.5050    -1.5040    -2.5660 H     1 <1>   0.0800 
 28 H       -8.1630     0.0260    -1.6360 H     1 <1>   0.1500 
 29 H       -7.3780    -1.8570     2.1210 H     1 <1>   0.1500 
 30 H      -10.5410    -0.3790    -1.3460 H     1 <1>   0.1500 
 31 H       -9.7860    -2.2610     2.4080 H     1 <1>   0.1500 
 32 H      -12.3840    -0.8360     0.2200 H     1 <1>   0.0800 
 33 H      -12.0760    -1.5800     1.7660 H     1 <1>   0.0800 
 34 H      -12.0700    -2.5540     0.3140 H     1 <1>   0.0800 
@<TRIPOS>BOND
  1   1   2  1   
  2   1   3  1   
  3   2   4  2   
  4   2   5  1   
  5   3   6  2   
  6   3   7  1   
  7   4   6  1   
  8   5   8  am  
  9   5  20  1   
 10   7  21  1   
 11   7  22  1   
 12   7  23  1   
 13   8   9  2   
 14   8  10  1   
 15  10  11  1   
 16  10  12  1   
 17  10  24  1   
 18  11  13  1   
 19  12  25  1   
 20  12  26  1   
 21  12  27  1   
 22  13  14  ar  
 23  13  15  ar  
 24  14  16  ar  
 25  14  28  1   
 26  15  17  ar  
 27  15  29  1   
 28  16  18  ar  
 29  16  30  1   
 30  17  18  ar  
 31  17  31  1   
 32  18  19  1   
 33  19  32  1   
 34  19  33  1   
 35  19  34  1   
@<TRIPOS>SUBSTRUCTURE
  1 ****  11 GROUP 4 **** **** 0

# MOE 2024.06 (io_trps.svl 2023.06)
