@<TRIPOS>MOLECULE
NONAME
52 54 1 0 0 
SMALL
USER_CHARGES


@<TRIPOS>ATOM
  1 S        0.4850     0.5970     2.0150 S.o2  1 <1>   1.4470 
  2 O        1.1670    -0.1350     3.0560 O.2   1 <1>  -0.6500 
  3 O       -0.6170     1.4760     2.3260 O.2   1 <1>  -0.6500 
  4 N        1.6330     1.6410     1.2790 N.am  1 <1>  -0.7570 
  5 C        0.0260    -0.5020     0.6460 C.ar  1 <1>  -0.0090 
  6 C        2.8190     1.2300     0.6960 C.ar  1 <1>   0.1990 
  7 C        0.9140    -1.4570     0.1640 C.ar  1 <1>  -0.1500 
  8 C       -1.2160    -0.4060     0.0270 C.ar  1 <1>  -0.1500 
  9 C        3.0850     1.5490    -0.6270 C.ar  1 <1>  -0.1500 
 10 C        3.7620     0.4940     1.4010 C.ar  1 <1>  -0.1500 
 11 C        0.5810    -2.2810    -0.8970 C.ar  1 <1>  -0.1500 
 12 C       -1.5560    -1.2290    -1.0330 C.ar  1 <1>  -0.1500 
 13 C        4.2500     1.1150    -1.2340 C.ar  1 <1>  -0.1500 
 14 C        4.9240     0.0650     0.7860 C.ar  1 <1>  -0.1500 
 15 C       -0.6570    -2.1690    -1.5030 C.ar  1 <1>  -0.1430 
 16 C        5.1900     0.3530    -0.5490 C.ar  1 <1>  -0.0090 
 17 C       -1.0220    -3.0740    -2.6670 C.3   1 <1>  -0.0970 
 18 S        6.7130    -0.2500    -1.3580 S.o2  1 <1>   1.4970 
 19 O        6.9780    -1.5370    -0.7280 O.2   1 <1>  -0.6500 
 20 O        6.5420    -0.2920    -2.8030 O.2   1 <1>  -0.6500 
 21 N        7.9740     0.7440    -0.8990 N.2   1 <1>  -0.6380 
 22 C        7.8280     2.0060    -1.0830 C.2   1 <1>   0.2500 
 23 O        6.8050     2.5150    -1.5680 O.3   1 <1>  -0.8610 
 24 C        8.9210     2.9950    -0.6860 C.3   1 <1>  -0.0190 
 25 C       10.3440     2.4540    -0.9260 C.3   1 <1>  -0.1600 
 26 C        8.7460     3.4240     0.7810 C.3   1 <1>  -0.1600 
 27 C       11.4140     3.4720    -0.5050 C.3   1 <1>  -0.1600 
 28 C        9.8190     4.4360     1.2100 C.3   1 <1>  -0.1600 
 29 C       11.2310     3.8880     0.9610 C.3   1 <1>  -0.1600 
 30 H        1.1530     2.4270     0.8580 H     1 <1>   0.4200 
 31 H        1.8830    -1.5600     0.6240 H     1 <1>   0.1500 
 32 H       -1.9300     0.3200     0.3780 H     1 <1>   0.1500 
 33 H        2.3880     2.1380    -1.1920 H     1 <1>   0.1500 
 34 H        3.5900     0.2600     2.4360 H     1 <1>   0.1500 
 35 H        1.2940    -3.0080    -1.2470 H     1 <1>   0.1500 
 36 H       -2.5270    -1.1330    -1.4900 H     1 <1>   0.1500 
 37 H        4.4630     1.3820    -2.2570 H     1 <1>   0.1500 
 38 H        5.6470    -0.5050     1.3450 H     1 <1>   0.1500 
 39 H       -0.1540    -3.2810    -3.2660 H     1 <1>   0.0800 
 40 H       -1.7620    -2.6070    -3.2920 H     1 <1>   0.0800 
 41 H       -1.4180    -4.0020    -2.2950 H     1 <1>   0.0800 
 42 H        8.7910     3.8640    -1.3070 H     1 <1>   0.0800 
 43 H       10.4540     2.2130    -1.9690 H     1 <1>   0.0800 
 44 H       10.4770     1.5460    -0.3640 H     1 <1>   0.0800 
 45 H        8.8000     2.5500     1.4050 H     1 <1>   0.0800 
 46 H        7.7670     3.8540     0.9000 H     1 <1>   0.0800 
 47 H       11.3400     4.3410    -1.1360 H     1 <1>   0.0800 
 48 H       12.3910     3.0420    -0.6420 H     1 <1>   0.0800 
 49 H        9.6970     4.6660     2.2540 H     1 <1>   0.0800 
 50 H        9.6850     5.3450     0.6510 H     1 <1>   0.0800 
 51 H       11.9600     4.6370     1.2180 H     1 <1>   0.0800 
 52 H       11.3950     3.0320     1.5930 H     1 <1>   0.0800 
@<TRIPOS>BOND
  1   1   2  2   
  2   1   3  2   
  3   1   4  am  
  4   1   5  1   
  5   4   6  1   
  6   4  30  1   
  7   5   7  ar  
  8   5   8  ar  
  9   6   9  ar  
 10   6  10  ar  
 11   7  11  ar  
 12   7  31  1   
 13   8  12  ar  
 14   8  32  1   
 15   9  13  ar  
 16   9  33  1   
 17  10  14  ar  
 18  10  34  1   
 19  11  15  ar  
 20  11  35  1   
 21  12  15  ar  
 22  12  36  1   
 23  13  16  ar  
 24  13  37  1   
 25  14  16  ar  
 26  14  38  1   
 27  15  17  1   
 28  16  18  1   
 29  17  39  1   
 30  17  40  1   
 31  17  41  1   
 32  18  19  2   
 33  18  20  2   
 34  18  21  1   
 35  21  22  2   
 36  22  23  1   
 37  22  24  1   
 38  24  25  1   
 39  24  26  1   
 40  24  42  1   
 41  25  27  1   
 42  25  43  1   
 43  25  44  1   
 44  26  28  1   
 45  26  45  1   
 46  26  46  1   
 47  27  29  1   
 48  27  47  1   
 49  27  48  1   
 50  28  29  1   
 51  28  49  1   
 52  28  50  1   
 53  29  51  1   
 54  29  52  1   
@<TRIPOS>SUBSTRUCTURE
  1 ****  16 GROUP 4 **** **** 0

# MOE 2024.06 (io_trps.svl 2023.06)
