@<TRIPOS>MOLECULE
Structure904
19 19 1 0 0 
SMALL
USER_CHARGES


@<TRIPOS>ATOM
  1 CL       0.2880    -1.0490     2.3860 Cl    1 <1>  -0.1770 
  2 C        1.0070    -1.8990     1.0500 C.ar  1 <1>   0.4870 
  3 N        0.1930    -2.5080     0.2220 N.ar  1 <1>  -0.6200 
  4 C        2.3720    -1.8970     0.9220 C.ar  1 <1>  -0.1500 
  5 C        0.8090    -3.1300    -0.7650 C.ar  1 <1>   0.4700 
  6 C        2.8970    -2.5810    -0.1480 C.ar  1 <1>   0.1660 
  7 N        2.1100    -3.2050    -1.0020 N.ar  1 <1>  -0.6200 
  8 C        4.4050    -2.6470    -0.3930 C.3   1 <1>   0.0640 
  9 C        5.1300    -3.3440     0.7660 C.3   1 <1>  -0.2400 
 10 C        4.9940    -1.2520    -0.6380 C.3   1 <1>  -0.2400 
 11 H        2.9850    -1.3800     1.6320 H     1 <1>   0.1500 
 12 H        0.1730    -3.6430    -1.4690 H     1 <1>   0.1500 
 13 H        4.5710    -3.2340    -1.2830 H     1 <1>   0.0800 
 14 H        5.0360    -2.7790     1.6760 H     1 <1>   0.0800 
 15 H        6.1750    -3.4550     0.5370 H     1 <1>   0.0800 
 16 H        4.7110    -4.3220     0.9220 H     1 <1>   0.0800 
 17 H        4.8960    -0.6320     0.2350 H     1 <1>   0.0800 
 18 H        4.4810    -0.7780    -1.4560 H     1 <1>   0.0800 
 19 H        6.0370    -1.3280    -0.8900 H     1 <1>   0.0800 
@<TRIPOS>BOND
  1   1   2  1   
  2   2   3  ar  
  3   2   4  ar  
  4   3   5  ar  
  5   4   6  ar  
  6   4  11  1   
  7   5   7  ar  
  8   5  12  1   
  9   6   7  ar  
 10   6   8  1   
 11   8   9  1   
 12   8  10  1   
 13   8  13  1   
 14   9  14  1   
 15   9  15  1   
 16   9  16  1   
 17  10  17  1   
 18  10  18  1   
 19  10  19  1   
@<TRIPOS>SUBSTRUCTURE
  1 ****   6 GROUP 4 **** **** 0

# MOE 2024.06 (io_trps.svl 2023.06)
