@<TRIPOS>MOLECULE
NONAME
30 31 1 0 0 
SMALL
USER_CHARGES


@<TRIPOS>ATOM
  1 S        0.0790    -0.1190    -0.8590 S.3   1 <1>  -0.0800 
  2 C        1.3980     0.9700    -0.4070 C.2   1 <1>  -0.0450 
  3 C       -1.1250     1.1380    -0.6960 C.2   1 <1>  -0.1100 
  4 C        2.7440     0.4460    -0.3630 C.2   1 <1>   0.6410 
  5 C        0.8670     2.2000    -0.1630 C.2   1 <1>  -0.1500 
  6 C       -0.5460     2.2940    -0.3250 C.2   1 <1>  -0.1500 
  7 O        2.9540    -0.7220    -0.6480 O.2   1 <1>  -0.5700 
  8 C        3.8360     1.2830     0.0110 C.2   1 <1>  -0.1360 
  9 C        5.1440     0.9300     0.0880 C.2   1 <1>  -0.0500 
 10 N        6.2180     1.7210     0.4470 N.pl3 1 <1>  -0.8380 
 11 C        6.1540     3.1610     0.8240 C.3   1 <1>   0.2090 
 12 C        7.5970     1.1620     0.4380 C.3   1 <1>   0.2090 
 13 C        7.0050     3.9800    -0.1520 C.3   1 <1>  -0.1600 
 14 C        8.4640     1.9600    -0.5400 C.3   1 <1>  -0.1600 
 15 C        8.4500     3.4620    -0.2180 C.3   1 <1>  -0.1600 
 16 H       -2.1480     0.8770    -0.8980 H     1 <1>   0.1500 
 17 H        1.4260     3.0700     0.1320 H     1 <1>   0.1500 
 18 H       -1.0660     3.2210    -0.1570 H     1 <1>   0.1500 
 19 H        3.5590     2.2850     0.2490 H     1 <1>   0.1500 
 20 H        5.3940    -0.0910    -0.1600 H     1 <1>   0.1500 
 21 H        5.1430     3.5230     0.8100 H     1 <1>   0.0800 
 22 H        6.5340     3.2770     1.8250 H     1 <1>   0.0800 
 23 H        8.0080     1.2230     1.4310 H     1 <1>   0.0800 
 24 H        7.5760     0.1260     0.1450 H     1 <1>   0.0800 
 25 H        6.5560     3.9220    -1.1280 H     1 <1>   0.0800 
 26 H        7.0030     5.0110     0.1520 H     1 <1>   0.0800 
 27 H        9.4730     1.5900    -0.5030 H     1 <1>   0.0800 
 28 H        8.0900     1.8000    -1.5360 H     1 <1>   0.0800 
 29 H        8.9330     3.6290     0.7290 H     1 <1>   0.0800 
 30 H        8.9970     4.0020    -0.9720 H     1 <1>   0.0800 
@<TRIPOS>BOND
  1   1   2  1   
  2   1   3  1   
  3   2   4  1   
  4   2   5  2   
  5   3   6  2   
  6   3  16  1   
  7   4   7  2   
  8   4   8  1   
  9   5   6  1   
 10   5  17  1   
 11   6  18  1   
 12   8   9  2   
 13   8  19  1   
 14   9  10  1   
 15   9  20  1   
 16  10  11  1   
 17  10  12  1   
 18  11  13  1   
 19  11  21  1   
 20  11  22  1   
 21  12  14  1   
 22  12  23  1   
 23  12  24  1   
 24  13  15  1   
 25  13  25  1   
 26  13  26  1   
 27  14  15  1   
 28  14  27  1   
 29  14  28  1   
 30  15  29  1   
 31  15  30  1   
@<TRIPOS>SUBSTRUCTURE
  1 ****   8 GROUP 4 **** **** 0

# MOE 2024.06 (io_trps.svl 2023.06)
