@<TRIPOS>MOLECULE
NONAME
45 47 1 0 0 
SMALL
USER_CHARGES


@<TRIPOS>ATOM
  1 CL       2.6830     0.9170    -3.7250 Cl    1 <1>  -0.1770 
  2 C        3.7830     0.6520    -2.3970 C.ar  1 <1>   0.1770 
  3 C        4.7490    -0.3310    -2.5030 C.ar  1 <1>  -0.1500 
  4 C        3.6730     1.4290    -1.2590 C.ar  1 <1>  -0.1500 
  5 C        5.6210    -0.5420    -1.4470 C.ar  1 <1>  -0.1500 
  6 C        4.5480     1.2130    -0.2070 C.ar  1 <1>  -0.1500 
  7 C        5.5220     0.2280    -0.2950 C.ar  1 <1>  -0.1430 
  8 C        6.4670     0.0010     0.8720 C.3   1 <1>   0.2840 
  9 N        7.4710     1.0760     0.8870 N.am  1 <1>  -0.7300 
 10 C        7.7510     1.8910     1.9340 C.2   1 <1>   0.5690 
 11 O        7.2080     1.7670     3.0060 O.2   1 <1>  -0.5700 
 12 C        8.7820     3.0070     1.7330 C.3   1 <1>   0.1710 
 13 N        9.8150     2.7170     0.6950 N.3   1 <1>  -0.8100 
 14 C       10.7600     1.6720     1.1680 C.3   1 <1>   0.1100 
 15 C       10.5690     3.9430     0.3480 C.3   1 <1>   0.1100 
 16 C       11.8640     1.3700     0.1370 C.3   1 <1>   0.2090 
 17 C       11.6670     3.6770    -0.7020 C.3   1 <1>   0.2090 
 18 N       12.6000     2.6120    -0.2410 N.pl3 1 <1>  -0.8380 
 19 C       13.7820     2.4800    -0.9440 C.ar  1 <1>   0.4100 
 20 N       13.8990     1.4380    -1.7600 N.ar  1 <1>  -0.6200 
 21 C       14.7820     3.4340    -0.7790 C.ar  1 <1>  -0.1500 
 22 C       15.0370     1.3510    -2.4280 C.ar  1 <1>   0.1600 
 23 C       15.9610     3.3330    -1.4800 C.ar  1 <1>  -0.1500 
 24 C       16.0820     2.2530    -2.3300 C.ar  1 <1>  -0.1500 
 25 H        4.8140    -0.9200    -3.4000 H     1 <1>   0.1500 
 26 H        2.9150     2.1880    -1.2010 H     1 <1>   0.1500 
 27 H        6.3740    -1.3060    -1.5280 H     1 <1>   0.1500 
 28 H        4.4730     1.8150     0.6840 H     1 <1>   0.1500 
 29 H        6.9650    -0.9490     0.7770 H     1 <1>   0.0800 
 30 H        5.9130    -0.0010     1.7960 H     1 <1>   0.0800 
 31 H        7.9770     1.2530     0.0150 H     1 <1>   0.3700 
 32 H        9.2580     3.2090     2.6760 H     1 <1>   0.0800 
 33 H        8.2350     3.8870     1.4470 H     1 <1>   0.0800 
 34 H       10.2230     0.7620     1.3710 H     1 <1>   0.0800 
 35 H       11.2290     1.9910     2.0830 H     1 <1>   0.0800 
 36 H       11.0310     4.3500     1.2310 H     1 <1>   0.0800 
 37 H        9.8890     4.6780    -0.0450 H     1 <1>   0.0800 
 38 H       11.4220     0.9340    -0.7420 H     1 <1>   0.0800 
 39 H       12.5580     0.6580     0.5500 H     1 <1>   0.0800 
 40 H       12.2140     4.5850    -0.8850 H     1 <1>   0.0800 
 41 H       11.2080     3.3710    -1.6260 H     1 <1>   0.0800 
 42 H       14.6150     4.2410    -0.0930 H     1 <1>   0.1500 
 43 H       15.1420     0.5120    -3.0920 H     1 <1>   0.1500 
 44 H       16.7500     4.0560    -1.3710 H     1 <1>   0.1500 
 45 H       16.9760     2.1100    -2.9090 H     1 <1>   0.1500 
@<TRIPOS>BOND
  1   1   2  1   
  2   2   3  ar  
  3   2   4  ar  
  4   3   5  ar  
  5   3  25  1   
  6   4   6  ar  
  7   4  26  1   
  8   5   7  ar  
  9   5  27  1   
 10   6   7  ar  
 11   6  28  1   
 12   7   8  1   
 13   8   9  1   
 14   8  29  1   
 15   8  30  1   
 16   9  10  am  
 17   9  31  1   
 18  10  11  2   
 19  10  12  1   
 20  12  13  1   
 21  12  32  1   
 22  12  33  1   
 23  13  14  1   
 24  13  15  1   
 25  14  16  1   
 26  14  34  1   
 27  14  35  1   
 28  15  17  1   
 29  15  36  1   
 30  15  37  1   
 31  16  18  1   
 32  16  38  1   
 33  16  39  1   
 34  17  18  1   
 35  17  40  1   
 36  17  41  1   
 37  18  19  1   
 38  19  20  ar  
 39  19  21  ar  
 40  20  22  ar  
 41  21  23  ar  
 42  21  42  1   
 43  22  24  ar  
 44  22  43  1   
 45  23  24  ar  
 46  23  44  1   
 47  24  45  1   
@<TRIPOS>SUBSTRUCTURE
  1 ****  13 GROUP 4 **** **** 0

# MOE 2024.06 (io_trps.svl 2023.06)
