@<TRIPOS>MOLECULE
NONAME
53 56 1 0 0 
SMALL
USER_CHARGES


@<TRIPOS>ATOM
  1 O       -0.6650    -0.4140     0.3130 O.3   1 <1>  -0.3630 
  2 C       -1.5370     0.4540    -0.2580 C.ar  1 <1>   0.0830 
  3 C       -0.9830    -0.8060     1.6310 C.3   1 <1>   0.0400 
  4 C       -2.6970    -0.0190    -0.8790 C.ar  1 <1>   0.1000 
  5 C       -1.2460     1.8060    -0.2170 C.ar  1 <1>  -0.1500 
  6 N       -2.9390    -1.4020    -0.9420 N.pl3 1 <1>  -0.6000 
  7 C       -3.5660     0.9060    -1.4430 C.ar  1 <1>  -0.1500 
  8 C       -2.1270     2.7200    -0.7860 C.ar  1 <1>   0.0830 
  9 C       -4.0600    -2.1370    -0.7020 C.ar  1 <1>   0.7200 
 10 C       -3.2850     2.2610    -1.3930 C.ar  1 <1>  -0.1500 
 11 O       -1.9250     4.0650    -0.7900 O.3   1 <1>  -0.3630 
 12 N       -5.1980    -1.5270    -0.5200 N.ar  1 <1>  -0.6200 
 13 N       -3.8530    -3.4210    -0.6560 N.ar  1 <1>  -0.6200 
 14 C       -0.7350     4.6160    -0.2720 C.3   1 <1>   0.0400 
 15 C       -6.1970    -2.3330    -0.2760 C.ar  1 <1>   0.7200 
 16 C       -4.9310    -4.1200    -0.4110 C.ar  1 <1>   0.7200 
 17 N       -6.1280    -3.6360    -0.2100 N.ar  1 <1>  -0.6200 
 18 N       -7.4280    -1.7570    -0.0750 N.pl3 1 <1>  -0.8380 
 19 N       -4.7880    -5.4860    -0.3500 N.pl3 1 <1>  -0.8380 
 20 C       -7.6330    -0.3020     0.0980 C.3   1 <1>   0.2090 
 21 C       -8.6300    -2.5210     0.3180 C.3   1 <1>   0.2090 
 22 C       -5.9260    -6.4110    -0.1700 C.3   1 <1>   0.2090 
 23 C       -3.5750    -6.2060    -0.7940 C.3   1 <1>   0.2090 
 24 C       -8.9590    -0.1860     0.8410 C.3   1 <1>  -0.1600 
 25 C       -9.7150    -1.4660     0.4910 C.3   1 <1>  -0.1600 
 26 C       -5.3060    -7.8010    -0.2470 C.3   1 <1>  -0.1600 
 27 C       -4.0560    -7.6190    -1.1030 C.3   1 <1>  -0.1600 
 28 H       -0.2290    -1.4910     1.9720 H     1 <1>   0.0800 
 29 H       -1.9470    -1.2860     1.6340 H     1 <1>   0.0800 
 30 H       -1.0010     0.0680     2.2580 H     1 <1>   0.0800 
 31 H       -0.3380     2.1150     0.2600 H     1 <1>   0.1500 
 32 H       -2.1020    -1.9770    -0.8780 H     1 <1>   0.4000 
 33 H       -4.4620     0.5630    -1.9280 H     1 <1>   0.1500 
 34 H       -3.9640     2.9700    -1.8310 H     1 <1>   0.1500 
 35 H       -0.7750     5.6820    -0.4070 H     1 <1>   0.0800 
 36 H        0.1020     4.2110    -0.8120 H     1 <1>   0.0800 
 37 H       -0.6690     4.3830     0.7760 H     1 <1>   0.0800 
 38 H       -7.6970     0.1590    -0.8730 H     1 <1>   0.0800 
 39 H       -6.8280     0.1440     0.6580 H     1 <1>   0.0800 
 40 H       -8.4380    -3.0260     1.2500 H     1 <1>   0.0800 
 41 H       -8.8890    -3.2410    -0.4390 H     1 <1>   0.0800 
 42 H       -6.6310    -6.2640    -0.9720 H     1 <1>   0.0800 
 43 H       -6.4110    -6.2410     0.7760 H     1 <1>   0.0800 
 44 H       -2.8600    -6.2140     0.0110 H     1 <1>   0.0800 
 45 H       -3.1380    -5.7420    -1.6630 H     1 <1>   0.0800 
 46 H       -9.4960     0.7020     0.5580 H     1 <1>   0.0800 
 47 H       -8.7600    -0.1560     1.8980 H     1 <1>   0.0800 
 48 H      -10.4260    -1.7450     1.2480 H     1 <1>   0.0800 
 49 H      -10.2290    -1.3420    -0.4460 H     1 <1>   0.0800 
 50 H       -5.9900    -8.5200    -0.6620 H     1 <1>   0.0800 
 51 H       -5.0290    -8.1100     0.7460 H     1 <1>   0.0800 
 52 H       -3.2990    -8.3530    -0.8890 H     1 <1>   0.0800 
 53 H       -4.3160    -7.6750    -2.1450 H     1 <1>   0.0800 
@<TRIPOS>BOND
  1   1   2  1   
  2   1   3  1   
  3   2   4  ar  
  4   2   5  ar  
  5   3  28  1   
  6   3  29  1   
  7   3  30  1   
  8   4   6  1   
  9   4   7  ar  
 10   5   8  ar  
 11   5  31  1   
 12   6   9  1   
 13   6  32  1   
 14   7  10  ar  
 15   7  33  1   
 16   8  10  ar  
 17   8  11  1   
 18   9  12  ar  
 19   9  13  ar  
 20  10  34  1   
 21  11  14  1   
 22  12  15  ar  
 23  13  16  ar  
 24  14  35  1   
 25  14  36  1   
 26  14  37  1   
 27  15  17  ar  
 28  15  18  1   
 29  16  17  ar  
 30  16  19  1   
 31  18  20  1   
 32  18  21  1   
 33  19  22  1   
 34  19  23  1   
 35  20  24  1   
 36  20  38  1   
 37  20  39  1   
 38  21  25  1   
 39  21  40  1   
 40  21  41  1   
 41  22  26  1   
 42  22  42  1   
 43  22  43  1   
 44  23  27  1   
 45  23  44  1   
 46  23  45  1   
 47  24  25  1   
 48  24  46  1   
 49  24  47  1   
 50  25  48  1   
 51  25  49  1   
 52  26  27  1   
 53  26  50  1   
 54  26  51  1   
 55  27  52  1   
 56  27  53  1   
@<TRIPOS>SUBSTRUCTURE
  1 ****   9 GROUP 4 **** **** 0

# MOE 2024.06 (io_trps.svl 2023.06)
