@<TRIPOS>MOLECULE
NONAME
54 56 1 0 0 
SMALL
USER_CHARGES


@<TRIPOS>ATOM
  1 S        0.0370     0.1790    -0.7090 S.o2  1 <1>   1.4470 
  2 O       -0.2020     0.7680    -2.0100 O.2   1 <1>  -0.6500 
  3 O       -0.8980    -0.7930    -0.1890 O.2   1 <1>  -0.6500 
  4 N        0.0910     1.4500     0.4100 N.am  1 <1>  -0.8490 
  5 C        1.7150    -0.5020    -0.6360 C.ar  1 <1>  -0.0090 
  6 C        0.8430     2.6150    -0.0250 C.3   1 <1>   0.1960 
  7 C       -1.2260     1.9470     0.7620 C.3   1 <1>   0.1960 
  8 C        2.3020    -0.8230     0.5810 C.ar  1 <1>  -0.1500 
  9 C        2.4530    -0.7280    -1.7920 C.ar  1 <1>  -0.1500 
 10 C        0.4250     3.7110     0.9470 C.3   1 <1>  -0.1600 
 11 C       -0.9640     3.2910     1.4320 C.3   1 <1>  -0.1600 
 12 C        3.5810    -1.3490     0.6590 C.ar  1 <1>  -0.1430 
 13 C        3.7310    -1.2510    -1.7370 C.ar  1 <1>  -0.1500 
 14 C        4.3050    -1.5640    -0.5080 C.ar  1 <1>   0.0830 
 15 C        4.1690    -1.6940     2.0200 C.3   1 <1>  -0.0970 
 16 O        5.5540    -2.0780    -0.3880 O.3   1 <1>  -0.3630 
 17 C        6.3040    -2.4820    -1.5240 C.3   1 <1>   0.1810 
 18 C        7.6350    -3.1110    -1.1170 C.2   1 <1>   0.5690 
 19 O        7.9430    -4.1400    -1.6690 O.2   1 <1>  -0.5700 
 20 N        8.4770    -2.5390    -0.1860 N.am  1 <1>  -0.6600 
 21 C        9.6480    -3.3060     0.3460 C.3   1 <1>   0.1400 
 22 C        8.2800    -1.1870     0.4280 C.3   1 <1>   0.1400 
 23 C       10.9310    -2.4580     0.3240 C.3   1 <1>   0.3430 
 24 C        9.5920    -0.3740     0.4390 C.3   1 <1>   0.3430 
 25 N       10.7450    -1.1410     1.0310 N.4   1 <1>  -0.9590 
 26 C       12.0030    -0.3350     1.0020 C.3   1 <1>   0.2630 
 27 H        0.5550     2.8970    -1.0250 H     1 <1>   0.0800 
 28 H        1.9030     2.4300     0.0080 H     1 <1>   0.0800 
 29 H       -1.7340     1.2590     1.4170 H     1 <1>   0.0800 
 30 H       -1.8130     2.0910    -0.1320 H     1 <1>   0.0800 
 31 H        1.7320    -0.6570     1.4810 H     1 <1>   0.1500 
 32 H        2.0160    -0.4910    -2.7480 H     1 <1>   0.1500 
 33 H        0.4150     4.6710     0.4630 H     1 <1>   0.0800 
 34 H        1.1130     3.7390     1.7730 H     1 <1>   0.0800 
 35 H       -0.9660     3.1710     2.5010 H     1 <1>   0.0800 
 36 H       -1.7200     4.0040     1.1570 H     1 <1>   0.0800 
 37 H        4.2540    -1.4060    -2.6610 H     1 <1>   0.1500 
 38 H        3.4560    -1.5240     2.8060 H     1 <1>   0.0800 
 39 H        5.0380    -1.0910     2.2070 H     1 <1>   0.0800 
 40 H        4.4540    -2.7310     2.0410 H     1 <1>   0.0800 
 41 H        6.4840    -1.6230    -2.1410 H     1 <1>   0.0800 
 42 H        5.7220    -3.2070    -2.0660 H     1 <1>   0.0800 
 43 H        9.8160    -4.1970    -0.2350 H     1 <1>   0.0800 
 44 H        9.4360    -3.6190     1.3530 H     1 <1>   0.0800 
 45 H        7.9160    -1.3070     1.4340 H     1 <1>   0.0800 
 46 H        7.5430    -0.6260    -0.1180 H     1 <1>   0.0800 
 47 H       11.2050    -2.2850    -0.7040 H     1 <1>   0.0800 
 48 H       11.7280    -3.0160     0.7880 H     1 <1>   0.0800 
 49 H        9.4340     0.5370     0.9930 H     1 <1>   0.0800 
 50 H        9.8270    -0.1020    -0.5770 H     1 <1>   0.0800 
 51 H       10.5080    -1.3500     2.0120 H     1 <1>   0.4500 
 52 H       12.2770    -0.1040    -0.0150 H     1 <1>   0.0800 
 53 H       12.8110    -0.8830     1.4600 H     1 <1>   0.0800 
 54 H       11.8690     0.5900     1.5400 H     1 <1>   0.0800 
@<TRIPOS>BOND
  1   1   2  2   
  2   1   3  2   
  3   1   4  am  
  4   1   5  1   
  5   4   6  1   
  6   4   7  1   
  7   5   8  ar  
  8   5   9  ar  
  9   6  10  1   
 10   6  27  1   
 11   6  28  1   
 12   7  11  1   
 13   7  29  1   
 14   7  30  1   
 15   8  12  ar  
 16   8  31  1   
 17   9  13  ar  
 18   9  32  1   
 19  10  11  1   
 20  10  33  1   
 21  10  34  1   
 22  11  35  1   
 23  11  36  1   
 24  12  14  ar  
 25  12  15  1   
 26  13  14  ar  
 27  13  37  1   
 28  14  16  1   
 29  15  38  1   
 30  15  39  1   
 31  15  40  1   
 32  16  17  1   
 33  17  18  1   
 34  17  41  1   
 35  17  42  1   
 36  18  19  2   
 37  18  20  am  
 38  20  21  1   
 39  20  22  1   
 40  21  23  1   
 41  21  43  1   
 42  21  44  1   
 43  22  24  1   
 44  22  45  1   
 45  22  46  1   
 46  23  25  1   
 47  23  47  1   
 48  23  48  1   
 49  24  25  1   
 50  24  49  1   
 51  24  50  1   
 52  25  26  1   
 53  25  51  1   
 54  26  52  1   
 55  26  53  1   
 56  26  54  1   
@<TRIPOS>SUBSTRUCTURE
  1 ****  14 GROUP 4 **** **** 0

# MOE 2024.06 (io_trps.svl 2023.06)
