@<TRIPOS>MOLECULE
NONAME
35 36 1 0 0 
SMALL
USER_CHARGES


@<TRIPOS>ATOM
  1 O        3.9270    -5.5390     0.3840 O.3   1 <1>  -0.3630 
  2 C        2.5810    -5.5360     0.1880 C.ar  1 <1>   0.0830 
  3 C        4.7920    -4.7940    -0.4420 C.3   1 <1>   0.1200 
  4 C        1.7990    -6.2790     1.0680 C.ar  1 <1>  -0.1440 
  5 C        1.9690    -4.8290    -0.8440 C.ar  1 <1>  -0.1500 
  6 C        6.2150    -4.9920     0.0670 C.3   1 <1>   0.0960 
  7 C        0.4220    -6.3030     0.9080 C.ar  1 <1>  -0.1500 
  8 C        2.4390    -7.0650     2.2030 C.3   1 <1>  -0.0960 
  9 C        0.5940    -4.8610    -0.9920 C.ar  1 <1>  -0.1500 
 10 N        7.1430    -4.1760    -0.7380 N.pl3 1 <1>   0.0480 
 11 C       -0.1870    -5.5970    -0.1170 C.ar  1 <1>  -0.1430 
 12 C        7.5340    -2.8910    -0.5460 C.2   1 <1>   0.0060 
 13 C        7.7650    -4.5580    -1.8670 C.2   1 <1>  -0.3020 
 14 C       -1.6950    -5.6350    -0.2780 C.3   1 <1>  -0.0970 
 15 N        8.3390    -2.4530    -1.4580 N.2   1 <1>  -0.5650 
 16 C        7.0780    -2.0360     0.6190 C.3   1 <1>  -0.0600 
 17 C        8.4880    -3.5000    -2.2890 C.2   1 <1>   0.0770 
 18 H        4.5070    -3.7590    -0.3810 H     1 <1>   0.0800 
 19 H        4.6960    -5.1580    -1.4500 H     1 <1>   0.0800 
 20 H        2.5380    -4.2480    -1.5430 H     1 <1>   0.1500 
 21 H        6.4970    -6.0250    -0.0200 H     1 <1>   0.0800 
 22 H        6.2850    -4.6900     1.0960 H     1 <1>   0.0800 
 23 H       -0.1850    -6.8760     1.5850 H     1 <1>   0.1500 
 24 H        3.1290    -7.7850     1.8020 H     1 <1>   0.0800 
 25 H        1.6990    -7.5840     2.7830 H     1 <1>   0.0800 
 26 H        2.9750    -6.3950     2.8510 H     1 <1>   0.0800 
 27 H        0.1330    -4.3120    -1.7940 H     1 <1>   0.1500 
 28 H        7.6660    -5.5360    -2.3010 H     1 <1>   0.1500 
 29 H       -2.1730    -5.6880     0.6840 H     1 <1>   0.0800 
 30 H       -1.9770    -6.4980    -0.8540 H     1 <1>   0.0800 
 31 H       -2.0450    -4.7520    -0.7810 H     1 <1>   0.0800 
 32 H        6.0080    -1.9420     0.6160 H     1 <1>   0.0800 
 33 H        7.5090    -1.0540     0.5380 H     1 <1>   0.0800 
 34 H        7.3980    -2.4740     1.5460 H     1 <1>   0.0800 
 35 H        9.1180    -3.4330    -3.1610 H     1 <1>   0.1500 
@<TRIPOS>BOND
  1   1   2  1   
  2   1   3  1   
  3   2   4  ar  
  4   2   5  ar  
  5   3   6  1   
  6   3  18  1   
  7   3  19  1   
  8   4   7  ar  
  9   4   8  1   
 10   5   9  ar  
 11   5  20  1   
 12   6  10  1   
 13   6  21  1   
 14   6  22  1   
 15   7  11  ar  
 16   7  23  1   
 17   8  24  1   
 18   8  25  1   
 19   8  26  1   
 20   9  11  ar  
 21   9  27  1   
 22  10  12  1   
 23  10  13  1   
 24  11  14  1   
 25  12  15  2   
 26  12  16  1   
 27  13  17  2   
 28  13  28  1   
 29  14  29  1   
 30  14  30  1   
 31  14  31  1   
 32  15  17  1   
 33  16  32  1   
 34  16  33  1   
 35  16  34  1   
 36  17  35  1   
@<TRIPOS>SUBSTRUCTURE
  1 ****   3 GROUP 4 **** **** 0

# MOE 2024.06 (io_trps.svl 2023.06)
