@<TRIPOS>MOLECULE
NONAME
48 50 1 0 0 
SMALL
USER_CHARGES


@<TRIPOS>ATOM
  1 O       -0.1510    -0.6380    -0.7390 O.3   1 <1>  -0.3630 
  2 C       -1.4750    -0.5490    -0.4500 C.ar  1 <1>   0.0820 
  3 C        0.6750    -1.2980     0.2030 C.3   1 <1>   0.2000 
  4 C       -2.0460    -1.3510     0.5400 C.ar  1 <1>   0.0820 
  5 C       -2.2570     0.3540    -1.1470 C.ar  1 <1>  -0.1500 
  6 C        2.0520    -1.5450    -0.4610 C.3   1 <1>   0.4230 
  7 C       -0.0370    -2.5780     0.6770 C.3   1 <1>   0.1200 
  8 O       -1.3000    -2.2600     1.2180 O.3   1 <1>  -0.3630 
  9 C       -3.3920    -1.2280     0.8380 C.ar  1 <1>  -0.1500 
 10 C       -3.6060     0.4690    -0.8500 C.ar  1 <1>  -0.1500 
 11 N        3.0290    -2.2410     0.4180 N.4   1 <1>  -0.9060 
 12 C        2.7250    -0.2350    -0.8710 C.3   1 <1>  -0.2400 
 13 C       -4.1710    -0.3180     0.1420 C.ar  1 <1>  -0.1500 
 14 C        3.0440    -3.7350     0.3550 C.3   1 <1>   0.3430 
 15 C        4.4640    -4.2470     0.6760 C.3   1 <1>   0.2000 
 16 O        5.3870    -3.3340     0.1630 O.3   1 <1>  -0.6800 
 17 C        4.7490    -5.6340     0.0850 C.3   1 <1>   0.1200 
 18 O        6.1180    -5.9210     0.2710 O.3   1 <1>  -0.3630 
 19 C        6.6560    -7.0950    -0.1450 C.ar  1 <1>   0.0820 
 20 C        8.0000    -7.2960     0.1280 C.ar  1 <1>  -0.1500 
 21 C        5.9390    -8.0820    -0.8160 C.ar  1 <1>  -0.1500 
 22 C        8.6280    -8.4660    -0.2600 C.ar  1 <1>  -0.1500 
 23 C        6.5700    -9.2520    -1.2040 C.ar  1 <1>  -0.1500 
 24 C        7.9120    -9.4450    -0.9270 C.ar  1 <1>  -0.1500 
 25 H        0.7930    -0.6270     1.0370 H     1 <1>   0.0800 
 26 H       -1.8150     0.9640    -1.9140 H     1 <1>   0.1500 
 27 H        1.8960    -2.1380    -1.3490 H     1 <1>   0.0800 
 28 H        0.5170    -3.0720     1.4530 H     1 <1>   0.0800 
 29 H       -0.1930    -3.2560    -0.1440 H     1 <1>   0.0800 
 30 H       -3.8260    -1.8430     1.6060 H     1 <1>   0.1500 
 31 H       -4.2170     1.1720    -1.3900 H     1 <1>   0.1500 
 32 H        3.0090    -1.8880     1.3810 H     1 <1>   0.4500 
 33 H        3.9830    -2.0000     0.0840 H     1 <1>   0.4500 
 34 H        2.8800     0.4060    -0.0220 H     1 <1>   0.0800 
 35 H        2.1020     0.2920    -1.5730 H     1 <1>   0.0800 
 36 H        3.6660    -0.4230    -1.3580 H     1 <1>   0.0800 
 37 H       -5.2190    -0.2230     0.3710 H     1 <1>   0.1500 
 38 H        2.7910    -4.0540    -0.6430 H     1 <1>   0.0800 
 39 H        2.3290    -4.1640     1.0380 H     1 <1>   0.0800 
 40 H        4.6030    -4.2890     1.7430 H     1 <1>   0.0800 
 41 H        6.2770    -3.7640     0.1570 H     1 <1>   0.4000 
 42 H        4.5410    -5.6530    -0.9710 H     1 <1>   0.0800 
 43 H        4.1730    -6.3920     0.5880 H     1 <1>   0.0800 
 44 H        8.5550    -6.5350     0.6470 H     1 <1>   0.1500 
 45 H        4.8990    -7.9680    -1.0490 H     1 <1>   0.1500 
 46 H        9.6720    -8.6150    -0.0450 H     1 <1>   0.1500 
 47 H        6.0180   -10.0160    -1.7230 H     1 <1>   0.1500 
 48 H        8.4000   -10.3550    -1.2300 H     1 <1>   0.1500 
@<TRIPOS>BOND
  1   1   2  1   
  2   1   3  1   
  3   2   4  ar  
  4   2   5  ar  
  5   3   6  1   
  6   3   7  1   
  7   3  25  1   
  8   4   8  1   
  9   4   9  ar  
 10   5  10  ar  
 11   5  26  1   
 12   6  11  1   
 13   6  12  1   
 14   6  27  1   
 15   7   8  1   
 16   7  28  1   
 17   7  29  1   
 18   9  13  ar  
 19   9  30  1   
 20  10  13  ar  
 21  10  31  1   
 22  11  14  1   
 23  11  32  1   
 24  11  33  1   
 25  12  34  1   
 26  12  35  1   
 27  12  36  1   
 28  13  37  1   
 29  14  15  1   
 30  14  38  1   
 31  14  39  1   
 32  15  16  1   
 33  15  17  1   
 34  15  40  1   
 35  16  41  1   
 36  17  18  1   
 37  17  42  1   
 38  17  43  1   
 39  18  19  1   
 40  19  20  ar  
 41  19  21  ar  
 42  20  22  ar  
 43  20  44  1   
 44  21  23  ar  
 45  21  45  1   
 46  22  24  ar  
 47  22  46  1   
 48  23  24  ar  
 49  23  47  1   
 50  24  48  1   
@<TRIPOS>SUBSTRUCTURE
  1 ****  14 GROUP 4 **** **** 0

# MOE 2024.06 (io_trps.svl 2023.06)
