@<TRIPOS>MOLECULE
NONAME
47 49 1 0 0 
SMALL
USER_CHARGES


@<TRIPOS>ATOM
  1 O       -2.2710     6.8390    -0.7090 O.3   1 <1>  -0.6800 
  2 C       -2.2580     7.0630     0.6690 C.3   1 <1>   0.2000 
  3 C       -3.3080     8.1230     1.0280 C.3   1 <1>   0.0960 
  4 C       -0.8490     7.4840     1.1230 C.3   1 <1>   0.2090 
  5 N       -4.6390     7.7220     0.5230 N.pl3 1 <1>   0.0480 
  6 N        0.1650     6.5390     0.6060 N.pl3 1 <1>  -0.8690 
  7 C       -5.4170     6.7380     1.0860 C.ar  1 <1>  -0.1520 
  8 C       -5.2340     8.1160    -0.6500 C.2   1 <1>  -0.3320 
  9 C        1.4370     7.0550     0.4040 C.ar  1 <1>   0.1000 
 10 C       -6.5080     6.5160     0.2540 C.ar  1 <1>   0.0000 
 11 C       -5.2610     6.0030     2.2670 C.ar  1 <1>  -0.1500 
 12 C       -6.3720     7.4010    -0.8360 C.2   1 <1>  -0.1810 
 13 C       -4.6390     9.2020    -1.5390 C.3   1 <1>  -0.0600 
 14 C        1.9440     7.2400    -0.8830 C.ar  1 <1>  -0.1430 
 15 C        2.2230     7.3980     1.4970 C.ar  1 <1>  -0.1500 
 16 C       -7.4580     5.5480     0.6000 C.ar  1 <1>  -0.1500 
 17 C       -6.2020     5.0540     2.5950 C.ar  1 <1>  -0.1500 
 18 C       -7.3850     7.4580    -1.9650 C.3   1 <1>  -0.0590 
 19 C        3.2140     7.7680    -1.0510 C.ar  1 <1>  -0.1500 
 20 C        1.1150     6.8730    -2.1070 C.3   1 <1>  -0.0970 
 21 C        3.4890     7.9240     1.3240 C.ar  1 <1>  -0.1500 
 22 C       -7.3020     4.8260     1.7600 C.ar  1 <1>  -0.1500 
 23 C        3.9860     8.1110     0.0470 C.ar  1 <1>  -0.1500 
 24 H       -3.1940     6.6440    -0.9920 H     1 <1>   0.4000 
 25 H       -2.5110     6.1330     1.1500 H     1 <1>   0.0800 
 26 H       -3.0320     9.0720     0.6070 H     1 <1>   0.0800 
 27 H       -3.3660     8.2350     2.0940 H     1 <1>   0.0800 
 28 H       -0.8000     7.5000     2.1970 H     1 <1>   0.0800 
 29 H       -0.6330     8.4740     0.7590 H     1 <1>   0.0800 
 30 H       -0.2230     6.1490    -0.2650 H     1 <1>   0.4000 
 31 H       -4.4190     6.1780     2.9100 H     1 <1>   0.1500 
 32 H       -3.6540     8.9210    -1.8670 H     1 <1>   0.0800 
 33 H       -4.5750    10.1270    -0.9950 H     1 <1>   0.0800 
 34 H       -5.2450     9.3680    -2.4090 H     1 <1>   0.0800 
 35 H        1.8340     7.2390     2.4850 H     1 <1>   0.1500 
 36 H       -8.2970     5.3840    -0.0490 H     1 <1>   0.1500 
 37 H       -6.1030     4.4770     3.4970 H     1 <1>   0.1500 
 38 H       -7.1140     8.1930    -2.6990 H     1 <1>   0.0800 
 39 H       -8.3510     7.7100    -1.5690 H     1 <1>   0.0800 
 40 H       -7.4450     6.4990    -2.4450 H     1 <1>   0.0800 
 41 H        3.6140     7.9150    -2.0380 H     1 <1>   0.1500 
 42 H        0.8940     5.8210    -2.0950 H     1 <1>   0.0800 
 43 H        1.6420     7.1010    -3.0150 H     1 <1>   0.0800 
 44 H        0.1910     7.4240    -2.1020 H     1 <1>   0.0800 
 45 H        4.0870     8.1850     2.1790 H     1 <1>   0.1500 
 46 H       -8.0250     4.0790     2.0370 H     1 <1>   0.1500 
 47 H        4.9710     8.5200    -0.0940 H     1 <1>   0.1500 
@<TRIPOS>BOND
  1   1   2  1   
  2   1  24  1   
  3   2   3  1   
  4   2   4  1   
  5   2  25  1   
  6   3   5  1   
  7   3  26  1   
  8   3  27  1   
  9   4   6  1   
 10   4  28  1   
 11   4  29  1   
 12   5   7  1   
 13   5   8  1   
 14   6   9  1   
 15   6  30  1   
 16   7  10  ar  
 17   7  11  ar  
 18   8  12  2   
 19   8  13  1   
 20   9  14  ar  
 21   9  15  ar  
 22  10  12  1   
 23  10  16  ar  
 24  11  17  ar  
 25  11  31  1   
 26  12  18  1   
 27  13  32  1   
 28  13  33  1   
 29  13  34  1   
 30  14  19  ar  
 31  14  20  1   
 32  15  21  ar  
 33  15  35  1   
 34  16  22  ar  
 35  16  36  1   
 36  17  22  ar  
 37  17  37  1   
 38  18  38  1   
 39  18  39  1   
 40  18  40  1   
 41  19  23  ar  
 42  19  41  1   
 43  20  42  1   
 44  20  43  1   
 45  20  44  1   
 46  21  23  ar  
 47  21  45  1   
 48  22  46  1   
 49  23  47  1   
@<TRIPOS>SUBSTRUCTURE
  1 ****   2 GROUP 4 **** **** 0

# MOE 2024.06 (io_trps.svl 2023.06)
