@<TRIPOS>MOLECULE
NONAME
36 36 1 0 0 
SMALL
USER_CHARGES


@<TRIPOS>ATOM
  1 CL      -0.2470    -0.5540     1.9440 Cl    1 <1>  -0.1770 
  2 C       -1.6840    -1.0810     1.1110 C.ar  1 <1>   0.1770 
  3 C       -2.3970    -2.1570     1.6030 C.ar  1 <1>  -0.1500 
  4 C       -2.0890    -0.4170    -0.0300 C.ar  1 <1>  -0.1500 
  5 C       -3.5410    -2.5740     0.9430 C.ar  1 <1>  -0.1500 
  6 C       -3.2340    -0.8340    -0.6890 C.ar  1 <1>  -0.1500 
  7 C       -3.9690    -1.9080    -0.2010 C.ar  1 <1>  -0.1430 
  8 C       -5.2330    -2.3530    -0.9130 C.3   1 <1>   0.4870 
  9 N       -6.4120    -1.8940    -0.1090 N.4   1 <1>  -0.9590 
 10 C       -7.6730    -2.6000    -0.5460 C.3   1 <1>   0.3430 
 11 C       -6.5060    -0.3930    -0.1600 C.3   1 <1>   0.2630 
 12 C       -8.9060    -2.3480     0.3730 C.3   1 <1>   0.3430 
 13 N      -10.1740    -3.0440    -0.0660 N.4   1 <1>  -0.9590 
 14 C      -11.3330    -2.5850     0.7750 C.3   1 <1>   0.2630 
 15 C      -10.0970    -4.5440     0.0040 C.3   1 <1>   0.2630 
 16 H       -2.0500    -2.6600     2.4900 H     1 <1>   0.1500 
 17 H       -1.5070     0.4130    -0.3940 H     1 <1>   0.1500 
 18 H       -4.0760    -3.4230     1.3340 H     1 <1>   0.1500 
 19 H       -3.5310    -0.3110    -1.5830 H     1 <1>   0.1500 
 20 H       -5.2250    -3.4280    -0.9940 H     1 <1>   0.0800 
 21 H       -5.2640    -1.9350    -1.9070 H     1 <1>   0.0800 
 22 H       -6.1610    -2.1500     0.8610 H     1 <1>   0.4500 
 23 H       -7.4820    -3.6610    -0.5700 H     1 <1>   0.0800 
 24 H       -7.9170    -2.2840    -1.5470 H     1 <1>   0.0800 
 25 H       -6.6880    -0.0570    -1.1680 H     1 <1>   0.0800 
 26 H       -5.5840     0.0520     0.1830 H     1 <1>   0.0800 
 27 H       -7.3010    -0.0350     0.4750 H     1 <1>   0.0800 
 28 H       -9.0930    -1.2870     0.4020 H     1 <1>   0.0800 
 29 H       -8.6640    -2.6690     1.3730 H     1 <1>   0.0800 
 30 H      -10.4080    -2.7820    -1.0400 H     1 <1>   0.4500 
 31 H      -11.1770    -2.8440     1.8100 H     1 <1>   0.0800 
 32 H      -12.2460    -3.0530     0.4420 H     1 <1>   0.0800 
 33 H      -11.4560    -1.5160     0.7020 H     1 <1>   0.0800 
 34 H       -9.8880    -4.8660     1.0120 H     1 <1>   0.0800 
 35 H       -9.3270    -4.9220    -0.6490 H     1 <1>   0.0800 
 36 H      -11.0370    -4.9800    -0.3000 H     1 <1>   0.0800 
@<TRIPOS>BOND
  1   1   2  1   
  2   2   3  ar  
  3   2   4  ar  
  4   3   5  ar  
  5   3  16  1   
  6   4   6  ar  
  7   4  17  1   
  8   5   7  ar  
  9   5  18  1   
 10   6   7  ar  
 11   6  19  1   
 12   7   8  1   
 13   8   9  1   
 14   8  20  1   
 15   8  21  1   
 16   9  10  1   
 17   9  11  1   
 18   9  22  1   
 19  10  12  1   
 20  10  23  1   
 21  10  24  1   
 22  11  25  1   
 23  11  26  1   
 24  11  27  1   
 25  12  13  1   
 26  12  28  1   
 27  12  29  1   
 28  13  14  1   
 29  13  15  1   
 30  13  30  1   
 31  14  31  1   
 32  14  32  1   
 33  14  33  1   
 34  15  34  1   
 35  15  35  1   
 36  15  36  1   
@<TRIPOS>SUBSTRUCTURE
  1 ****   9 GROUP 4 **** **** 0

# MOE 2024.06 (io_trps.svl 2023.06)
