@<TRIPOS>MOLECULE
NONAME
41 42 1 0 0 
SMALL
USER_CHARGES


@<TRIPOS>ATOM
  1 O       -2.3170     0.2490     2.2630 O.3   1 <1>  -0.3630 
  2 C       -2.5300     0.9130     1.1010 C.ar  1 <1>   0.0830 
  3 C       -3.0290    -0.9220     2.5970 C.3   1 <1>   0.0400 
  4 C       -3.5560     0.6100     0.2110 C.ar  1 <1>  -0.1500 
  5 C       -1.6590     1.9490     0.8100 C.ar  1 <1>  -0.1500 
  6 C       -3.7090     1.3460    -0.9560 C.ar  1 <1>  -0.1430 
  7 C       -1.8000     2.6770    -0.3560 C.ar  1 <1>  -0.1500 
  8 C       -2.8220     2.3760    -1.2390 C.ar  1 <1>  -0.1500 
  9 C       -4.8450     1.0430    -1.9130 C.3   1 <1>   0.4860 
 10 N       -6.1210     1.4820    -1.2910 N.4   1 <1>  -0.9590 
 11 C       -7.3470     1.1270    -2.0740 C.3   1 <1>   0.3430 
 12 C       -6.1440     2.9270    -0.8850 C.3   1 <1>   0.3430 
 13 C       -8.6340     1.5100    -1.2990 C.3   1 <1>   0.1100 
 14 C       -7.4390     3.2610    -0.1040 C.3   1 <1>   0.1100 
 15 N       -8.3420     2.0900     0.0380 N.3   1 <1>  -0.8100 
 16 C       -9.5730     2.4700     0.7640 C.3   1 <1>   0.1100 
 17 C      -10.3260     1.2420     1.2900 C.3   1 <1>   0.1200 
 18 O      -11.4500     1.6620     1.9820 O.3   1 <1>  -0.6800 
 19 H       -2.6370    -1.2950     3.5270 H     1 <1>   0.0800 
 20 H       -2.8840    -1.6540     1.8220 H     1 <1>   0.0800 
 21 H       -4.0700    -0.6790     2.7140 H     1 <1>   0.0800 
 22 H       -4.2330    -0.1940     0.4290 H     1 <1>   0.1500 
 23 H       -0.8680     2.1770     1.5030 H     1 <1>   0.1500 
 24 H       -1.1100     3.4760    -0.5730 H     1 <1>   0.1500 
 25 H       -2.9100     2.9540    -2.1440 H     1 <1>   0.1500 
 26 H       -4.8730    -0.0160    -2.1110 H     1 <1>   0.0800 
 27 H       -4.6880     1.5630    -2.8440 H     1 <1>   0.0800 
 28 H       -6.2370     0.9930    -0.3910 H     1 <1>   0.4500 
 29 H       -7.3640     0.0670    -2.2690 H     1 <1>   0.0800 
 30 H       -7.3420     1.6360    -3.0230 H     1 <1>   0.0800 
 31 H       -6.0790     3.5590    -1.7550 H     1 <1>   0.0800 
 32 H       -5.2960     3.1470    -0.2560 H     1 <1>   0.0800 
 33 H       -9.2380     0.6260    -1.1900 H     1 <1>   0.0800 
 34 H       -9.2010     2.2140    -1.8870 H     1 <1>   0.0800 
 35 H       -7.9540     4.0640    -0.6060 H     1 <1>   0.0800 
 36 H       -7.1650     3.6190     0.8750 H     1 <1>   0.0800 
 37 H      -10.2210     3.0420     0.1200 H     1 <1>   0.0800 
 38 H       -9.3080     3.0810     1.6100 H     1 <1>   0.0800 
 39 H       -9.7100     0.6670     1.9600 H     1 <1>   0.0800 
 40 H      -10.6660     0.6200     0.4810 H     1 <1>   0.0800 
 41 H      -11.2080     2.0670     2.8380 H     1 <1>   0.4000 
@<TRIPOS>BOND
  1   1   2  1   
  2   1   3  1   
  3   2   4  ar  
  4   2   5  ar  
  5   3  19  1   
  6   3  20  1   
  7   3  21  1   
  8   4   6  ar  
  9   4  22  1   
 10   5   7  ar  
 11   5  23  1   
 12   6   8  ar  
 13   6   9  1   
 14   7   8  ar  
 15   7  24  1   
 16   8  25  1   
 17   9  10  1   
 18   9  26  1   
 19   9  27  1   
 20  10  11  1   
 21  10  12  1   
 22  10  28  1   
 23  11  13  1   
 24  11  29  1   
 25  11  30  1   
 26  12  14  1   
 27  12  31  1   
 28  12  32  1   
 29  13  15  1   
 30  13  33  1   
 31  13  34  1   
 32  14  15  1   
 33  14  35  1   
 34  14  36  1   
 35  15  16  1   
 36  16  17  1   
 37  16  37  1   
 38  16  38  1   
 39  17  18  1   
 40  17  39  1   
 41  17  40  1   
 42  18  41  1   
@<TRIPOS>SUBSTRUCTURE
  1 ****  10 GROUP 4 **** **** 0

# MOE 2024.06 (io_trps.svl 2023.06)
