@<TRIPOS>MOLECULE
NONAME
49 50 1 0 0 
SMALL
USER_CHARGES


@<TRIPOS>ATOM
  1 O        3.7510    -6.0030     0.0230 O.3   1 <1>  -0.3630 
  2 C        5.1080    -5.9390    -0.0510 C.ar  1 <1>   0.0830 
  3 C        3.0670    -7.2310     0.0830 C.3   1 <1>   0.1200 
  4 C        5.6890    -4.6770    -0.1220 C.ar  1 <1>  -0.1440 
  5 C        5.9190    -7.0720    -0.0580 C.ar  1 <1>  -0.1500 
  6 C        1.5700    -6.9320     0.1360 C.3   1 <1>  -0.1600 
  7 C        7.0670    -4.5650    -0.2000 C.ar  1 <1>  -0.1500 
  8 C        4.8260    -3.4240    -0.1140 C.3   1 <1>  -0.0970 
  9 C        7.2990    -6.9600    -0.1360 C.ar  1 <1>  -0.1430 
 10 C        0.7540    -8.2270     0.1430 C.3   1 <1>   0.1100 
 11 C        7.8640    -5.6950    -0.2070 C.ar  1 <1>  -0.1500 
 12 C        8.1680    -8.2160    -0.1420 C.3   1 <1>   0.0630 
 13 N       -0.6710    -7.9460     0.3890 N.3   1 <1>  -0.8100 
 14 C        9.1010    -8.2410     1.0730 C.3   1 <1>  -0.2400 
 15 C        8.9680    -8.3220    -1.4450 C.3   1 <1>  -0.2400 
 16 C       -1.3450    -7.3250    -0.7730 C.3   1 <1>   0.1100 
 17 C       -1.3810    -9.1570     0.8460 C.3   1 <1>   0.1100 
 18 C       -2.8150    -6.9900    -0.4520 C.3   1 <1>   0.3430 
 19 C       -2.8520    -8.8470     1.1910 C.3   1 <1>   0.3430 
 20 N       -3.5610    -8.1960     0.0400 N.4   1 <1>  -0.9060 
 21 H        3.3870    -7.7540     0.9670 H     1 <1>   0.0800 
 22 H        3.3150    -7.7960    -0.7990 H     1 <1>   0.0800 
 23 H        5.4890    -8.0520    -0.0020 H     1 <1>   0.1500 
 24 H        1.3180    -6.3370    -0.7220 H     1 <1>   0.0800 
 25 H        1.3610    -6.3760     1.0330 H     1 <1>   0.0800 
 26 H        7.5290    -3.5960    -0.2560 H     1 <1>   0.1500 
 27 H        4.1530    -3.4420    -0.9520 H     1 <1>   0.0800 
 28 H        5.4270    -2.5360    -0.1750 H     1 <1>   0.0800 
 29 H        4.2480    -3.3880     0.7920 H     1 <1>   0.0800 
 30 H        1.1310    -8.8530     0.9350 H     1 <1>   0.0800 
 31 H        0.8780    -8.7560    -0.7890 H     1 <1>   0.0800 
 32 H        8.9320    -5.5820    -0.2690 H     1 <1>   0.1500 
 33 H        7.5290    -9.0800    -0.0810 H     1 <1>   0.0800 
 34 H        9.7990    -7.4250     1.0370 H     1 <1>   0.0800 
 35 H        9.6520    -9.1640     1.1010 H     1 <1>   0.0800 
 36 H        8.5240    -8.1580     1.9770 H     1 <1>   0.0800 
 37 H        9.6630    -7.5070    -1.5350 H     1 <1>   0.0800 
 38 H        8.2980    -8.2940    -2.2860 H     1 <1>   0.0800 
 39 H        9.5150    -9.2470    -1.4730 H     1 <1>   0.0800 
 40 H       -1.2940    -7.9810    -1.6250 H     1 <1>   0.0800 
 41 H       -0.8460    -6.4070    -1.0330 H     1 <1>   0.0800 
 42 H       -0.8970    -9.5380     1.7300 H     1 <1>   0.0800 
 43 H       -1.3350    -9.9220     0.0880 H     1 <1>   0.0800 
 44 H       -3.2920    -6.5930    -1.3330 H     1 <1>   0.0800 
 45 H       -2.8260    -6.2240     0.3060 H     1 <1>   0.0800 
 46 H       -2.8640    -8.1880     2.0440 H     1 <1>   0.0800 
 47 H       -3.3540    -9.7590     1.4680 H     1 <1>   0.0800 
 48 H       -3.6400    -8.8720    -0.7270 H     1 <1>   0.4500 
 49 H       -4.5120    -7.9280     0.3210 H     1 <1>   0.4500 
@<TRIPOS>BOND
  1   1   2  1   
  2   1   3  1   
  3   2   4  ar  
  4   2   5  ar  
  5   3   6  1   
  6   3  21  1   
  7   3  22  1   
  8   4   7  ar  
  9   4   8  1   
 10   5   9  ar  
 11   5  23  1   
 12   6  10  1   
 13   6  24  1   
 14   6  25  1   
 15   7  11  ar  
 16   7  26  1   
 17   8  27  1   
 18   8  28  1   
 19   8  29  1   
 20   9  11  ar  
 21   9  12  1   
 22  10  13  1   
 23  10  30  1   
 24  10  31  1   
 25  11  32  1   
 26  12  14  1   
 27  12  15  1   
 28  12  33  1   
 29  13  16  1   
 30  13  17  1   
 31  14  34  1   
 32  14  35  1   
 33  14  36  1   
 34  15  37  1   
 35  15  38  1   
 36  15  39  1   
 37  16  18  1   
 38  16  40  1   
 39  16  41  1   
 40  17  19  1   
 41  17  42  1   
 42  17  43  1   
 43  18  20  1   
 44  18  44  1   
 45  18  45  1   
 46  19  20  1   
 47  19  46  1   
 48  19  47  1   
 49  20  48  1   
 50  20  49  1   
@<TRIPOS>SUBSTRUCTURE
  1 ****   3 GROUP 4 **** **** 0

# MOE 2024.06 (io_trps.svl 2023.06)
