@<TRIPOS>MOLECULE
NONAME
35 35 1 0 0 
SMALL
USER_CHARGES


@<TRIPOS>ATOM
  1 F       -0.5500    -0.5140    -0.0530 F     1 <1>  -0.1900 
  2 C       -1.4880     0.4000    -0.0140 C.ar  1 <1>   0.1900 
  3 C       -1.1850     1.7670     0.0240 C.ar  1 <1>   0.0820 
  4 C       -2.7920    -0.0620    -0.0140 C.ar  1 <1>  -0.1500 
  5 O        0.0540     2.3370     0.0280 O.3   1 <1>  -0.3630 
  6 C       -2.2480     2.6580     0.0640 C.ar  1 <1>  -0.1500 
  7 C       -3.8330     0.8500     0.0260 C.ar  1 <1>  -0.1500 
  8 C        1.2400     1.5820    -0.0090 C.3   1 <1>   0.1200 
  9 C       -3.5580     2.2080     0.0650 C.ar  1 <1>  -0.1500 
 10 C        2.4130     2.5640     0.0090 C.3   1 <1>  -0.1600 
 11 C        3.7610     1.8310    -0.0280 C.3   1 <1>  -0.1600 
 12 C        4.9140     2.8310    -0.0100 C.3   1 <1>   0.3430 
 13 N        6.1970     2.0910    -0.0460 N.4   1 <1>  -0.9060 
 14 C        7.3680     3.0190    -0.0300 C.3   1 <1>   0.3430 
 15 C        8.7000     2.2590    -0.0680 C.3   1 <1>   0.1200 
 16 O        9.7110     3.2000    -0.0500 O.3   1 <1>  -0.6800 
 17 H       -2.9870    -1.1190    -0.0440 H     1 <1>   0.1500 
 18 H       -2.0420     3.7140     0.0940 H     1 <1>   0.1500 
 19 H       -4.8530     0.5060     0.0270 H     1 <1>   0.1500 
 20 H        1.2410     0.9960    -0.9120 H     1 <1>   0.0800 
 21 H        1.2600     0.9420     0.8570 H     1 <1>   0.0800 
 22 H       -4.3680     2.9170     0.0960 H     1 <1>   0.1500 
 23 H        2.3450     3.1600     0.9030 H     1 <1>   0.0800 
 24 H        2.3260     3.2140    -0.8460 H     1 <1>   0.0800 
 25 H        3.8080     1.2350    -0.9240 H     1 <1>   0.0800 
 26 H        3.8270     1.1810     0.8280 H     1 <1>   0.0800 
 27 H        4.8570     3.4320     0.8850 H     1 <1>   0.0800 
 28 H        4.8380     3.4850    -0.8650 H     1 <1>   0.0800 
 29 H        6.2260     1.5090    -0.8930 H     1 <1>   0.4500 
 30 H        6.2430     1.4580     0.7620 H     1 <1>   0.4500 
 31 H        7.3420     3.6210     0.8640 H     1 <1>   0.0800 
 32 H        7.3230     3.6750    -0.8850 H     1 <1>   0.0800 
 33 H        8.7980     1.6840    -0.9730 H     1 <1>   0.0800 
 34 H        8.8170     1.6290     0.7970 H     1 <1>   0.0800 
 35 H       10.6000     2.7850    -0.0720 H     1 <1>   0.4000 
@<TRIPOS>BOND
  1   1   2  1   
  2   2   3  ar  
  3   2   4  ar  
  4   3   5  1   
  5   3   6  ar  
  6   4   7  ar  
  7   4  17  1   
  8   5   8  1   
  9   6   9  ar  
 10   6  18  1   
 11   7   9  ar  
 12   7  19  1   
 13   8  10  1   
 14   8  20  1   
 15   8  21  1   
 16   9  22  1   
 17  10  11  1   
 18  10  23  1   
 19  10  24  1   
 20  11  12  1   
 21  11  25  1   
 22  11  26  1   
 23  12  13  1   
 24  12  27  1   
 25  12  28  1   
 26  13  14  1   
 27  13  29  1   
 28  13  30  1   
 29  14  15  1   
 30  14  31  1   
 31  14  32  1   
 32  15  16  1   
 33  15  33  1   
 34  15  34  1   
 35  16  35  1   
@<TRIPOS>SUBSTRUCTURE
  1 ****   8 GROUP 4 **** **** 0

# MOE 2024.06 (io_trps.svl 2023.06)
