@<TRIPOS>MOLECULE
NONAME
32 33 1 0 0 
SMALL
USER_CHARGES


@<TRIPOS>ATOM
  1 O        0.0520    -1.3120     0.2720 O.2   1 <1>  -0.5700 
  2 C        1.2320    -1.3900     0.0420 C.2   1 <1>   0.6900 
  3 N        2.0330    -0.3090     0.1530 N.am  1 <1>  -0.4900 
  4 N        1.7840    -2.5540    -0.3590 N.am  1 <1>  -0.4900 
  5 C        3.3680    -0.3080    -0.0770 C.2   1 <1>   0.5690 
  6 C        3.1010    -2.7320    -0.6270 C.2   1 <1>   0.5690 
  7 O        3.9690     0.7330    -0.0910 O.2   1 <1>  -0.5700 
  8 C        4.1020    -1.6270    -0.3060 C.3   1 <1>   0.0420 
  9 O        3.4810    -3.7670    -1.1060 O.2   1 <1>  -0.5700 
 10 C        4.9770    -2.0130     0.9200 C.3   1 <1>  -0.1600 
 11 C        6.5020    -1.8920     0.7220 C.3   1 <1>  -0.0800 
 12 C        6.9480    -0.4620     0.3660 C.3   1 <1>  -0.1600 
 13 C        7.0350    -2.9050    -0.3090 C.3   1 <1>  -0.1600 
 14 C        8.4750    -0.3750     0.2410 C.3   1 <1>  -0.1600 
 15 C        8.5620    -2.8140    -0.4370 C.3   1 <1>  -0.1600 
 16 C        9.0060    -1.3860    -0.7830 C.3   1 <1>  -0.1600 
 17 H        1.5840     0.5790     0.3610 H     1 <1>   0.3700 
 18 H        1.1520    -3.3320    -0.5290 H     1 <1>   0.3700 
 19 H        4.7130    -1.5040    -1.1790 H     1 <1>   0.0800 
 20 H        4.7690    -3.0310     1.2020 H     1 <1>   0.0800 
 21 H        4.6960    -1.4040     1.7630 H     1 <1>   0.0800 
 22 H        6.9550    -2.1390     1.6690 H     1 <1>   0.0800 
 23 H        6.6140     0.2240     1.1250 H     1 <1>   0.0800 
 24 H        6.5130    -0.1550    -0.5680 H     1 <1>   0.0800 
 25 H        6.5990    -2.7250    -1.2750 H     1 <1>   0.0800 
 26 H        6.7650    -3.9040    -0.0110 H     1 <1>   0.0800 
 27 H        8.9250    -0.5690     1.2000 H     1 <1>   0.0800 
 28 H        8.7550     0.6210    -0.0580 H     1 <1>   0.0800 
 29 H        8.9000    -3.4920    -1.2010 H     1 <1>   0.0800 
 30 H        9.0160    -3.1110     0.4930 H     1 <1>   0.0800 
 31 H       10.0810    -1.3400    -0.8120 H     1 <1>   0.0800 
 32 H        8.6380    -1.1270    -1.7620 H     1 <1>   0.0800 
@<TRIPOS>BOND
  1   1   2  2   
  2   2   3  am  
  3   2   4  am  
  4   3   5  am  
  5   3  17  1   
  6   4   6  am  
  7   4  18  1   
  8   5   7  2   
  9   5   8  1   
 10   6   8  1   
 11   6   9  2   
 12   8  10  1   
 13   8  19  1   
 14  10  11  1   
 15  10  20  1   
 16  10  21  1   
 17  11  12  1   
 18  11  13  1   
 19  11  22  1   
 20  12  14  1   
 21  12  23  1   
 22  12  24  1   
 23  13  15  1   
 24  13  25  1   
 25  13  26  1   
 26  14  16  1   
 27  14  27  1   
 28  14  28  1   
 29  15  16  1   
 30  15  29  1   
 31  15  30  1   
 32  16  31  1   
 33  16  32  1   
@<TRIPOS>SUBSTRUCTURE
  1 ****   8 GROUP 4 **** **** 0

# MOE 2024.06 (io_trps.svl 2023.06)
