@<TRIPOS>MOLECULE
NONAME
42 43 1 0 0 
SMALL
USER_CHARGES


@<TRIPOS>ATOM
  1 O        0.3020    -0.4440     0.0730 O.2   1 <1>  -0.5700 
  2 C        0.2570    -1.6160    -0.2430 C.2   1 <1>   0.7800 
  3 O       -0.7980    -2.3580     0.0860 O.3   1 <1>  -0.4300 
  4 N        1.2830    -2.2290    -0.9150 N.am  1 <1>  -0.6600 
  5 C       -1.8970    -1.7920     0.7660 C.3   1 <1>   0.1200 
  6 C        2.5110    -1.4780    -1.3060 C.3   1 <1>   0.1400 
  7 C        1.3320    -3.6980    -1.1700 C.3   1 <1>   0.1400 
  8 C       -2.9300    -2.8900     0.9940 C.3   1 <1>  -0.2400 
  9 C        3.7560    -2.1120    -0.6580 C.3   1 <1>   0.3430 
 10 C        2.5940    -4.3100    -0.5320 C.3   1 <1>   0.3430 
 11 N        3.8570    -3.5940    -0.9440 N.4   1 <1>  -0.9590 
 12 C        5.0400    -4.2210    -0.2750 C.3   1 <1>   0.3430 
 13 C        6.3670    -3.7380    -0.8650 C.3   1 <1>  -0.0170 
 14 C        7.4930    -4.5010    -0.1970 C.ar  1 <1>  -0.1440 
 15 C        8.0340    -4.0450     0.9960 C.ar  1 <1>  -0.1500 
 16 C        7.9840    -5.6670    -0.7670 C.ar  1 <1>  -0.1500 
 17 C        9.0490    -4.7520     1.6160 C.ar  1 <1>  -0.1500 
 18 C        9.0000    -6.3730    -0.1450 C.ar  1 <1>  -0.1500 
 19 C        9.5320    -5.9160     1.0470 C.ar  1 <1>  -0.1500 
 20 H       -2.3030    -1.0000     0.1580 H     1 <1>   0.0800 
 21 H       -1.5500    -1.3860     1.7020 H     1 <1>   0.0800 
 22 H        2.4420    -0.4480    -0.9980 H     1 <1>   0.0800 
 23 H        2.6080    -1.4880    -2.3770 H     1 <1>   0.0800 
 24 H        1.3350    -3.8730    -2.2320 H     1 <1>   0.0800 
 25 H        0.4630    -4.1870    -0.7650 H     1 <1>   0.0800 
 26 H       -3.2620    -3.2900     0.0530 H     1 <1>   0.0800 
 27 H       -3.7810    -2.4840     1.5100 H     1 <1>   0.0800 
 28 H       -2.5110    -3.6770     1.5950 H     1 <1>   0.0800 
 29 H        3.7000    -1.9520     0.4060 H     1 <1>   0.0800 
 30 H        4.6330    -1.6040    -1.0220 H     1 <1>   0.0800 
 31 H        2.6550    -5.3510    -0.8080 H     1 <1>   0.0800 
 32 H        2.4850    -4.2620     0.5400 H     1 <1>   0.0800 
 33 H        3.9580    -3.7120    -1.9620 H     1 <1>   0.4500 
 34 H        4.9940    -5.2920    -0.3920 H     1 <1>   0.0800 
 35 H        5.0240    -4.0070     0.7820 H     1 <1>   0.0800 
 36 H        6.5070    -2.6860    -0.6900 H     1 <1>   0.0800 
 37 H        6.3940    -3.9190    -1.9250 H     1 <1>   0.0800 
 38 H        7.6780    -3.1400     1.4550 H     1 <1>   0.1500 
 39 H        7.5900    -6.0390    -1.6960 H     1 <1>   0.1500 
 40 H        9.4690    -4.3960     2.5420 H     1 <1>   0.1500 
 41 H        9.3800    -7.2770    -0.5890 H     1 <1>   0.1500 
 42 H       10.3220    -6.4650     1.5290 H     1 <1>   0.1500 
@<TRIPOS>BOND
  1   1   2  2   
  2   2   3  1   
  3   2   4  am  
  4   3   5  1   
  5   4   6  1   
  6   4   7  1   
  7   5   8  1   
  8   5  20  1   
  9   5  21  1   
 10   6   9  1   
 11   6  22  1   
 12   6  23  1   
 13   7  10  1   
 14   7  24  1   
 15   7  25  1   
 16   8  26  1   
 17   8  27  1   
 18   8  28  1   
 19   9  11  1   
 20   9  29  1   
 21   9  30  1   
 22  10  11  1   
 23  10  31  1   
 24  10  32  1   
 25  11  12  1   
 26  11  33  1   
 27  12  13  1   
 28  12  34  1   
 29  12  35  1   
 30  13  14  1   
 31  13  36  1   
 32  13  37  1   
 33  14  15  ar  
 34  14  16  ar  
 35  15  17  ar  
 36  15  38  1   
 37  16  18  ar  
 38  16  39  1   
 39  17  19  ar  
 40  17  40  1   
 41  18  19  ar  
 42  18  41  1   
 43  19  42  1   
@<TRIPOS>SUBSTRUCTURE
  1 ****  11 GROUP 4 **** **** 0

# MOE 2024.06 (io_trps.svl 2023.06)
