@<TRIPOS>MOLECULE
NONAME
37 38 1 0 0 
SMALL
USER_CHARGES


@<TRIPOS>ATOM
  1 O       -0.2140     1.0480    -2.3080 O.2   1 <1>  -0.5700 
  2 C       -0.2020     1.7020    -1.2950 C.2   1 <1>   0.5690 
  3 N        0.9030     1.8650    -0.5060 N.am  1 <1>  -0.5470 
  4 C       -1.4740     2.4260    -0.8860 C.3   1 <1>  -0.0990 
  5 C        2.2060     1.3460    -0.6040 C.ar  1 <1>   0.1170 
  6 C       -2.3750     1.6700     0.1190 C.3   1 <1>   0.0000 
  7 C        3.2180     1.9690     0.1170 C.ar  1 <1>  -0.1500 
  8 C        2.5260     0.2290    -1.3730 C.ar  1 <1>  -0.1500 
  9 C       -2.8220     0.3200    -0.4610 C.3   1 <1>  -0.2400 
 10 C       -3.6230     2.5210     0.3930 C.3   1 <1>  -0.2400 
 11 C       -1.6520     1.4270     1.4530 C.3   1 <1>  -0.2400 
 12 C        4.5160     1.4940     0.0700 C.ar  1 <1>   0.0830 
 13 C        3.8250    -0.2480    -1.4330 C.ar  1 <1>  -0.1500 
 14 O        5.4710     2.1250     0.8020 O.3   1 <1>  -0.3630 
 15 C        4.8250     0.3840    -0.7180 C.ar  1 <1>   0.0830 
 16 C        6.7000     1.4440     0.9720 C.3   1 <1>   0.1200 
 17 O        6.0970    -0.0900    -0.8010 O.3   1 <1>  -0.3630 
 18 C        7.1230     0.7700    -0.3410 C.3   1 <1>   0.1200 
 19 H        0.7590     2.4790     0.2920 H     1 <1>   0.3700 
 20 H       -2.0360     2.6140    -1.7830 H     1 <1>   0.0800 
 21 H       -1.2060     3.3840    -0.4810 H     1 <1>   0.0800 
 22 H        3.0070     2.8290     0.7230 H     1 <1>   0.1500 
 23 H        1.7620    -0.2780    -1.9320 H     1 <1>   0.1500 
 24 H       -1.9780    -0.3270    -0.6260 H     1 <1>   0.0800 
 25 H       -3.4980    -0.1780     0.2120 H     1 <1>   0.0800 
 26 H       -3.3240     0.4610    -1.4020 H     1 <1>   0.0800 
 27 H       -3.3520     3.4720     0.8160 H     1 <1>   0.0800 
 28 H       -4.2790     2.0210     1.0840 H     1 <1>   0.0800 
 29 H       -4.1690     2.6970    -0.5170 H     1 <1>   0.0800 
 30 H       -1.2980     2.3520     1.8710 H     1 <1>   0.0800 
 31 H       -0.8160     0.7610     1.3240 H     1 <1>   0.0800 
 32 H       -2.3210     0.9730     2.1630 H     1 <1>   0.0800 
 33 H        4.0650    -1.1070    -2.0330 H     1 <1>   0.1500 
 34 H        6.5710     0.7070     1.7450 H     1 <1>   0.0800 
 35 H        7.4360     2.1620     1.2870 H     1 <1>   0.0800 
 36 H        8.0100     0.1800    -0.2000 H     1 <1>   0.0800 
 37 H        7.3060     1.5100    -1.1000 H     1 <1>   0.0800 
@<TRIPOS>BOND
  1   1   2  2   
  2   2   3  am  
  3   2   4  1   
  4   3   5  1   
  5   3  19  1   
  6   4   6  1   
  7   4  20  1   
  8   4  21  1   
  9   5   7  ar  
 10   5   8  ar  
 11   6   9  1   
 12   6  10  1   
 13   6  11  1   
 14   7  12  ar  
 15   7  22  1   
 16   8  13  ar  
 17   8  23  1   
 18   9  24  1   
 19   9  25  1   
 20   9  26  1   
 21  10  27  1   
 22  10  28  1   
 23  10  29  1   
 24  11  30  1   
 25  11  31  1   
 26  11  32  1   
 27  12  14  1   
 28  12  15  ar  
 29  13  15  ar  
 30  13  33  1   
 31  14  16  1   
 32  15  17  1   
 33  16  18  1   
 34  16  34  1   
 35  16  35  1   
 36  17  18  1   
 37  18  36  1   
 38  18  37  1   
@<TRIPOS>SUBSTRUCTURE
  1 ****   5 GROUP 4 **** **** 0

# MOE 2024.06 (io_trps.svl 2023.06)
