@<TRIPOS>MOLECULE
NONAME
39 41 1 0 0 
SMALL
USER_CHARGES


@<TRIPOS>ATOM
  1 CL       2.3750    -0.6590    -2.2560 Cl    1 <1>  -0.1770 
  2 C        2.0540    -2.0500    -1.2510 C.ar  1 <1>   0.1770 
  3 C        0.9780    -2.8670    -1.5550 C.ar  1 <1>  -0.1500 
  4 C        2.8820    -2.3070    -0.1680 C.ar  1 <1>  -0.1500 
  5 C        0.7370    -3.9600    -0.7400 C.ar  1 <1>  -0.1440 
  6 C        2.6360    -3.4100     0.6370 C.ar  1 <1>  -0.1500 
  7 C        1.5590    -4.2350     0.3410 C.ar  1 <1>   0.1170 
  8 C       -0.3610    -5.0110    -0.8230 C.3   1 <1>   0.4850 
  9 N        1.1370    -5.3870     0.9990 N.am  1 <1>  -0.4770 
 10 O       -0.2560    -5.6480    -2.0570 O.3   1 <1>  -0.6800 
 11 C        0.0400    -5.9120     0.3700 C.2   1 <1>   0.5690 
 12 C       -1.7510    -4.3880    -0.6830 C.3   1 <1>  -0.0990 
 13 C        1.8210    -5.9960     2.1640 C.3   1 <1>   0.0600 
 14 O       -0.5520    -6.9100     0.7180 O.2   1 <1>  -0.5700 
 15 C       -2.8320    -5.4460    -0.6080 C.2   1 <1>   0.5950 
 16 O       -2.8720    -6.2670    -1.4910 O.2   1 <1>  -0.5700 
 17 C       -3.7460    -5.4300     0.5020 C.2   1 <1>  -0.0860 
 18 C       -4.1290    -6.4680     1.2960 C.2   1 <1>  -0.0400 
 19 C       -4.4650    -4.3440     1.0280 C.2   1 <1>  -0.1810 
 20 O       -4.9790    -6.1440     2.2500 O.3   1 <1>  -0.2800 
 21 C       -3.6970    -7.9210     1.2340 C.3   1 <1>  -0.0600 
 22 C       -5.1680    -4.8480     2.0590 C.2   1 <1>  -0.0100 
 23 C       -4.4860    -2.9120     0.5230 C.3   1 <1>  -0.0590 
 24 H        0.3580    -2.6540    -2.4070 H     1 <1>   0.1500 
 25 H        3.7080    -1.6500     0.0360 H     1 <1>   0.1500 
 26 H        3.2710    -3.6250     1.4770 H     1 <1>   0.1500 
 27 H       -0.9940    -6.2980    -2.1240 H     1 <1>   0.4000 
 28 H       -1.9440    -3.7340    -1.5120 H     1 <1>   0.0800 
 29 H       -1.7610    -3.8070     0.2190 H     1 <1>   0.0800 
 30 H        1.8370    -5.2980     2.9810 H     1 <1>   0.0800 
 31 H        2.8280    -6.2580     1.8940 H     1 <1>   0.0800 
 32 H        1.3000    -6.8860     2.4740 H     1 <1>   0.0800 
 33 H       -3.0210    -8.0910     0.4170 H     1 <1>   0.0800 
 34 H       -4.5590    -8.5490     1.1050 H     1 <1>   0.0800 
 35 H       -3.2020    -8.1890     2.1490 H     1 <1>   0.0800 
 36 H       -5.8490    -4.3450     2.7230 H     1 <1>   0.1500 
 37 H       -3.5580    -2.4180     0.7450 H     1 <1>   0.0800 
 38 H       -5.2800    -2.3660     1.0010 H     1 <1>   0.0800 
 39 H       -4.6540    -2.8960    -0.5390 H     1 <1>   0.0800 
@<TRIPOS>BOND
  1   1   2  1   
  2   2   3  ar  
  3   2   4  ar  
  4   3   5  ar  
  5   3  24  1   
  6   4   6  ar  
  7   4  25  1   
  8   5   7  ar  
  9   5   8  1   
 10   6   7  ar  
 11   6  26  1   
 12   7   9  1   
 13   8  10  1   
 14   8  11  1   
 15   8  12  1   
 16   9  11  am  
 17   9  13  1   
 18  10  27  1   
 19  11  14  2   
 20  12  15  1   
 21  12  28  1   
 22  12  29  1   
 23  13  30  1   
 24  13  31  1   
 25  13  32  1   
 26  15  16  2   
 27  15  17  1   
 28  17  18  2   
 29  17  19  1   
 30  18  20  1   
 31  18  21  1   
 32  19  22  2   
 33  19  23  1   
 34  20  22  1   
 35  21  33  1   
 36  21  34  1   
 37  21  35  1   
 38  22  36  1   
 39  23  37  1   
 40  23  38  1   
 41  23  39  1   
@<TRIPOS>SUBSTRUCTURE
  1 ****  12 GROUP 4 **** **** 0

# MOE 2024.06 (io_trps.svl 2023.06)
