@<TRIPOS>MOLECULE
NONAME
42 44 1 0 0 
SMALL
USER_CHARGES


@<TRIPOS>ATOM
  1 O        0.2880    -0.4250    -0.7190 O.3   1 <1>  -0.3630 
  2 C        1.4890    -0.8650    -0.2710 C.ar  1 <1>   0.0830 
  3 C       -0.2810     0.7730    -0.2400 C.3   1 <1>   0.0400 
  4 C        1.9380    -2.0740    -0.7760 C.ar  1 <1>  -0.1500 
  5 C        2.2740    -0.1780     0.6500 C.ar  1 <1>  -0.1500 
  6 C        3.1550    -2.5950    -0.3760 C.ar  1 <1>  -0.1500 
  7 C        3.4920    -0.6990     1.0500 C.ar  1 <1>  -0.1500 
  8 C        3.9420    -1.9070     0.5360 C.ar  1 <1>  -0.1430 
  9 C        5.2870    -2.4640     0.9540 C.3   1 <1>  -0.0170 
 10 C        6.3400    -1.9630    -0.0320 C.3   1 <1>   0.3430 
 11 N        7.6910    -2.4780     0.3250 N.4   1 <1>  -0.9060 
 12 C        8.7450    -2.0040    -0.6060 C.3   1 <1>   0.4230 
 13 C       10.1850    -2.7200    -0.3020 C.3   1 <1>  -0.0800 
 14 C        8.9650    -0.3530    -0.4720 C.3   1 <1>  -0.1600 
 15 C       10.3770    -1.3950    -0.3250 C.3   1 <1>  -0.1600 
 16 C       11.7910    -2.4450    -0.1630 C.3   1 <1>  -0.1600 
 17 C       10.5690    -0.0730    -0.3050 C.3   1 <1>  -0.0800 
 18 C       12.0170    -0.7920    -0.0500 C.3   1 <1>  -0.1600 
 19 H       -1.2330     0.9050    -0.7220 H     1 <1>   0.0800 
 20 H        0.3700     1.5920    -0.4870 H     1 <1>   0.0800 
 21 H       -0.4180     0.6940     0.8240 H     1 <1>   0.0800 
 22 H        1.3220    -2.6010    -1.4820 H     1 <1>   0.1500 
 23 H        1.9500     0.7590     1.0640 H     1 <1>   0.1500 
 24 H        3.4720    -3.5390    -0.7840 H     1 <1>   0.1500 
 25 H        4.0790    -0.1510     1.7660 H     1 <1>   0.1500 
 26 H        5.2450    -3.5390     0.9470 H     1 <1>   0.0800 
 27 H        5.5170    -2.1330     1.9510 H     1 <1>   0.0800 
 28 H        6.3410    -0.8850    -0.0240 H     1 <1>   0.0800 
 29 H        6.0730    -2.2870    -1.0260 H     1 <1>   0.0800 
 30 H        7.6860    -3.5050     0.3170 H     1 <1>   0.4500 
 31 H        7.9450    -2.1790     1.2740 H     1 <1>   0.4500 
 32 H        8.4610    -2.2350    -1.6220 H     1 <1>   0.0800 
 33 H        9.9960    -3.2480     0.6230 H     1 <1>   0.0800 
 34 H        8.4410     0.0510     0.3800 H     1 <1>   0.0800 
 35 H        8.5910     0.1430    -1.3540 H     1 <1>   0.0800 
 36 H       10.5500    -1.4050    -1.4910 H     1 <1>   0.0800 
 37 H       10.2260    -1.3720     0.8450 H     1 <1>   0.0800 
 38 H       12.3140    -2.8300    -1.0280 H     1 <1>   0.0800 
 39 H       12.2020    -2.9400     0.7040 H     1 <1>   0.0800 
 40 H       10.7780     0.4870    -1.2080 H     1 <1>   0.0800 
 41 H       12.7490    -0.4610    -0.7720 H     1 <1>   0.0800 
 42 H       12.3940    -0.5330     0.9290 H     1 <1>   0.0800 
@<TRIPOS>BOND
  1   1   2  1   
  2   1   3  1   
  3   2   4  ar  
  4   2   5  ar  
  5   3  19  1   
  6   3  20  1   
  7   3  21  1   
  8   4   6  ar  
  9   4  22  1   
 10   5   7  ar  
 11   5  23  1   
 12   6   8  ar  
 13   6  24  1   
 14   7   8  ar  
 15   7  25  1   
 16   8   9  1   
 17   9  10  1   
 18   9  26  1   
 19   9  27  1   
 20  10  11  1   
 21  10  28  1   
 22  10  29  1   
 23  11  12  1   
 24  11  30  1   
 25  11  31  1   
 26  12  13  1   
 27  12  14  1   
 28  12  32  1   
 29  13  15  1   
 30  13  16  1   
 31  13  33  1   
 32  14  17  1   
 33  14  34  1   
 34  14  35  1   
 35  15  17  1   
 36  15  36  1   
 37  15  37  1   
 38  16  18  1   
 39  16  38  1   
 40  16  39  1   
 41  17  18  1   
 42  17  40  1   
 43  18  41  1   
 44  18  42  1   
@<TRIPOS>SUBSTRUCTURE
  1 ****  10 GROUP 4 **** **** 0

# MOE 2024.06 (io_trps.svl 2023.06)
