@<TRIPOS>MOLECULE
NONAME
48 49 1 0 0 
SMALL
USER_CHARGES


@<TRIPOS>ATOM
  1 O        2.1300     0.1170     0.3600 O.co2 1 <1>  -0.9000 
  2 C        1.6170    -0.5680    -0.5280 C.2   1 <1>   0.9060 
  3 O        1.1570    -0.0560    -1.5550 O.co2 1 <1>  -0.9000 
  4 C        1.4990    -2.0740    -0.3680 C.3   1 <1>  -0.1860 
  5 C        0.2370    -2.6470    -1.0680 C.3   1 <1>  -0.0190 
  6 C        1.5590    -2.5120     1.1080 C.3   1 <1>  -0.0220 
  7 C       -1.0830    -2.0850    -0.5100 C.2   1 <1>   0.5690 
  8 C        0.2940    -4.1940    -1.0570 C.3   1 <1>  -0.0220 
  9 C        1.3070    -4.0060     1.2440 C.2   1 <1>  -0.2880 
 10 O       -1.7990    -2.7980     0.1580 O.2   1 <1>  -0.5700 
 11 N       -1.4220    -0.7960    -0.8270 N.am  1 <1>  -0.5470 
 12 C        0.7580    -4.7530     0.2820 C.2   1 <1>  -0.2880 
 13 C       -2.5690    -0.0190    -0.5390 C.ar  1 <1>   0.1170 
 14 C       -2.5200     1.3780    -0.6150 C.ar  1 <1>   0.0830 
 15 C       -3.7890    -0.5960    -0.1950 C.ar  1 <1>  -0.1500 
 16 O       -1.3910     2.0340    -0.9730 O.3   1 <1>  -0.3630 
 17 C       -3.6420     2.1400    -0.3550 C.ar  1 <1>  -0.1500 
 18 C       -4.9310     0.1500     0.0830 C.ar  1 <1>  -0.1430 
 19 C       -0.3680     2.1190    -0.0010 C.3   1 <1>   0.0400 
 20 C       -4.8350     1.5360    -0.0040 C.ar  1 <1>  -0.1500 
 21 C       -6.2340    -0.5830     0.4680 C.3   1 <1>   0.1440 
 22 C       -5.9980    -1.4230     1.7320 C.3   1 <1>  -0.2400 
 23 C       -7.4030     0.3740     0.7590 C.3   1 <1>  -0.2400 
 24 C       -6.6650    -1.5040    -0.6840 C.3   1 <1>  -0.2400 
 25 H        2.3600    -2.4810    -0.8620 H     1 <1>   0.0800 
 26 H        0.2670    -2.3520    -2.1020 H     1 <1>   0.0800 
 27 H        0.8270    -1.9730     1.6840 H     1 <1>   0.0800 
 28 H        2.5310    -2.2700     1.5020 H     1 <1>   0.0800 
 29 H        0.9830    -4.5240    -1.8130 H     1 <1>   0.0800 
 30 H       -0.6750    -4.5920    -1.3020 H     1 <1>   0.0800 
 31 H        1.6090    -4.4010     2.1980 H     1 <1>   0.1500 
 32 H       -0.6360    -0.2540    -1.2450 H     1 <1>   0.3700 
 33 H        0.5930    -5.8120     0.3820 H     1 <1>   0.1500 
 34 H       -3.8450    -1.6640    -0.1490 H     1 <1>   0.1500 
 35 H       -3.5730     3.2090    -0.4300 H     1 <1>   0.1500 
 36 H       -0.6020     2.9130     0.6820 H     1 <1>   0.0800 
 37 H        0.5620     2.3190    -0.5050 H     1 <1>   0.0800 
 38 H       -0.2860     1.1870     0.5290 H     1 <1>   0.0800 
 39 H       -5.6760     2.1730     0.1920 H     1 <1>   0.1500 
 40 H       -5.6600    -0.7920     2.5340 H     1 <1>   0.0800 
 41 H       -5.2500    -2.1760     1.5630 H     1 <1>   0.0800 
 42 H       -6.9030    -1.9160     2.0390 H     1 <1>   0.0800 
 43 H       -8.2860    -0.1790     1.0260 H     1 <1>   0.0800 
 44 H       -7.1590     1.0280     1.5770 H     1 <1>   0.0800 
 45 H       -7.6310     0.9660    -0.1090 H     1 <1>   0.0800 
 46 H       -5.9230    -2.2580    -0.8740 H     1 <1>   0.0800 
 47 H       -6.7980    -0.9300    -1.5830 H     1 <1>   0.0800 
 48 H       -7.5910    -1.9980    -0.4510 H     1 <1>   0.0800 
@<TRIPOS>BOND
  1   1   2  ar  
  2   2   3  ar  
  3   2   4  1   
  4   4   5  1   
  5   4   6  1   
  6   4  25  1   
  7   5   7  1   
  8   5   8  1   
  9   5  26  1   
 10   6   9  1   
 11   6  27  1   
 12   6  28  1   
 13   7  10  2   
 14   7  11  am  
 15   8  12  1   
 16   8  29  1   
 17   8  30  1   
 18   9  12  2   
 19   9  31  1   
 20  11  13  1   
 21  11  32  1   
 22  12  33  1   
 23  13  14  ar  
 24  13  15  ar  
 25  14  16  1   
 26  14  17  ar  
 27  15  18  ar  
 28  15  34  1   
 29  16  19  1   
 30  17  20  ar  
 31  17  35  1   
 32  18  20  ar  
 33  18  21  1   
 34  19  36  1   
 35  19  37  1   
 36  19  38  1   
 37  20  39  1   
 38  21  22  1   
 39  21  23  1   
 40  21  24  1   
 41  22  40  1   
 42  22  41  1   
 43  22  42  1   
 44  23  43  1   
 45  23  44  1   
 46  23  45  1   
 47  24  46  1   
 48  24  47  1   
 49  24  48  1   
@<TRIPOS>SUBSTRUCTURE
  1 ****  11 GROUP 4 **** **** 0

# MOE 2024.06 (io_trps.svl 2023.06)
