@<TRIPOS>MOLECULE
NONAME
47 49 1 0 0 
SMALL
USER_CHARGES


@<TRIPOS>ATOM
  1 BR      -2.7170    -2.6680     2.1500 Br    1 <1>  -0.1110 
  2 C       -2.6790    -0.8390     1.5430 C.ar  1 <1>   0.1110 
  3 C       -2.6060    -0.5670     0.1840 C.ar  1 <1>  -0.1440 
  4 C       -2.7350     0.1570     2.4980 C.ar  1 <1>  -0.1500 
  5 C       -2.5790     0.7630    -0.2140 C.ar  1 <1>  -0.1500 
  6 C       -2.5590    -1.6850    -0.8370 C.3   1 <1>   0.4870 
  7 C       -2.7140     1.4770     2.0830 C.ar  1 <1>  -0.1500 
  8 C       -2.6350     1.7760     0.7320 C.ar  1 <1>  -0.1500 
  9 N       -3.8910    -2.3440    -0.8940 N.4   1 <1>  -0.9590 
 10 C       -3.9180    -3.5940    -1.7280 C.3   1 <1>   0.3430 
 11 C       -5.0250    -1.4200    -1.2460 C.3   1 <1>   0.3430 
 12 C       -5.3370    -4.2150    -1.8020 C.3   1 <1>   0.1960 
 13 C       -6.3950    -2.1330    -1.1320 C.3   1 <1>   0.1960 
 14 N       -6.2760    -3.5820    -0.8510 N.am  1 <1>  -0.8490 
 15 S       -7.8080    -4.3170    -0.8590 S.o2  1 <1>   1.4470 
 16 O       -8.1300    -4.4750    -2.2600 O.2   1 <1>  -0.6500 
 17 O       -8.6370    -3.4870    -0.0150 O.2   1 <1>  -0.6500 
 18 C       -7.5000    -5.9200    -0.0720 C.ar  1 <1>  -0.0090 
 19 C       -7.0830    -5.9960     1.2520 C.ar  1 <1>  -0.1500 
 20 C       -7.6500    -7.1110    -0.7760 C.ar  1 <1>  -0.1500 
 21 C       -6.8160    -7.2150     1.8490 C.ar  1 <1>  -0.1500 
 22 C       -7.3850    -8.3360    -0.1870 C.ar  1 <1>  -0.1500 
 23 C       -6.9620    -8.3930     1.1370 C.ar  1 <1>   0.0830 
 24 O       -6.6780    -9.5440     1.7910 O.3   1 <1>  -0.3620 
 25 C       -6.8560   -10.8030     1.1810 C.3   1 <1>   0.0400 
 26 H       -2.7920    -0.0900     3.5450 H     1 <1>   0.1500 
 27 H       -2.5100     1.0320    -1.2550 H     1 <1>   0.1500 
 28 H       -1.8050    -2.3990    -0.5460 H     1 <1>   0.0800 
 29 H       -2.2980    -1.2870    -1.8040 H     1 <1>   0.0800 
 30 H       -2.7550     2.2720     2.8090 H     1 <1>   0.1500 
 31 H       -2.6120     2.8070     0.4190 H     1 <1>   0.1500 
 32 H       -4.1130    -2.6570     0.0650 H     1 <1>   0.4500 
 33 H       -3.2450    -4.3220    -1.3060 H     1 <1>   0.0800 
 34 H       -3.5800    -3.3810    -2.7290 H     1 <1>   0.0800 
 35 H       -4.9020    -1.0560    -2.2530 H     1 <1>   0.0800 
 36 H       -5.0260    -0.5650    -0.5890 H     1 <1>   0.0800 
 37 H       -5.2620    -5.2700    -1.5970 H     1 <1>   0.0800 
 38 H       -5.7090    -4.1120    -2.8090 H     1 <1>   0.0800 
 39 H       -6.9490    -1.9780    -2.0450 H     1 <1>   0.0800 
 40 H       -6.9560    -1.6630    -0.3400 H     1 <1>   0.0800 
 41 H       -6.9710    -5.0910     1.8250 H     1 <1>   0.1500 
 42 H       -7.9820    -7.0830    -1.8010 H     1 <1>   0.1500 
 43 H       -6.4950    -7.2640     2.8760 H     1 <1>   0.1500 
 44 H       -7.5160    -9.2300    -0.7680 H     1 <1>   0.1500 
 45 H       -6.5900   -11.5600     1.8960 H     1 <1>   0.0800 
 46 H       -6.2120   -10.8700     0.3220 H     1 <1>   0.0800 
 47 H       -7.8880   -10.9120     0.9000 H     1 <1>   0.0800 
@<TRIPOS>BOND
  1   1   2  1   
  2   2   3  ar  
  3   2   4  ar  
  4   3   5  ar  
  5   3   6  1   
  6   4   7  ar  
  7   4  26  1   
  8   5   8  ar  
  9   5  27  1   
 10   6   9  1   
 11   6  28  1   
 12   6  29  1   
 13   7   8  ar  
 14   7  30  1   
 15   8  31  1   
 16   9  10  1   
 17   9  11  1   
 18   9  32  1   
 19  10  12  1   
 20  10  33  1   
 21  10  34  1   
 22  11  13  1   
 23  11  35  1   
 24  11  36  1   
 25  12  14  1   
 26  12  37  1   
 27  12  38  1   
 28  13  14  1   
 29  13  39  1   
 30  13  40  1   
 31  14  15  am  
 32  15  16  2   
 33  15  17  2   
 34  15  18  1   
 35  18  19  ar  
 36  18  20  ar  
 37  19  21  ar  
 38  19  41  1   
 39  20  22  ar  
 40  20  42  1   
 41  21  23  ar  
 42  21  43  1   
 43  22  23  ar  
 44  22  44  1   
 45  23  24  1   
 46  24  25  1   
 47  25  45  1   
 48  25  46  1   
 49  25  47  1   
@<TRIPOS>SUBSTRUCTURE
  1 ****  14 GROUP 4 **** **** 0

# MOE 2024.06 (io_trps.svl 2023.06)
