@<TRIPOS>MOLECULE
NONAME
47 48 1 0 0 
SMALL
USER_CHARGES


@<TRIPOS>ATOM
  1 O        3.4960    -6.1070    -0.3940 O.3   1 <1>  -0.3630 
  2 C        4.8550    -6.0730    -0.4320 C.ar  1 <1>   0.0830 
  3 C        2.7920    -7.2940    -0.1370 C.3   1 <1>   0.1200 
  4 C        5.4600    -4.8480    -0.6960 C.ar  1 <1>  -0.1440 
  5 C        5.6470    -7.2000    -0.2180 C.ar  1 <1>  -0.1500 
  6 C        1.3040    -6.9510    -0.1690 C.3   1 <1>  -0.1600 
  7 C        6.8410    -4.7670    -0.7430 C.ar  1 <1>  -0.1500 
  8 C        4.6220    -3.5990    -0.9340 C.3   1 <1>  -0.0970 
  9 C        7.0300    -7.1180    -0.2650 C.ar  1 <1>  -0.1430 
 10 C        0.4580    -8.1890     0.1130 C.3   1 <1>   0.3430 
 11 C        7.6190    -5.8900    -0.5300 C.ar  1 <1>  -0.1500 
 12 C        7.8790    -8.3660    -0.0290 C.3   1 <1>   0.0640 
 13 N       -0.9890    -7.8560     0.0030 N.4   1 <1>  -0.9590 
 14 C        8.7710    -8.1940     1.2050 C.3   1 <1>  -0.2400 
 15 C        8.7180    -8.6990    -1.2660 C.3   1 <1>  -0.2400 
 16 C       -1.4930    -6.9540     1.0710 C.3   1 <1>   0.3430 
 17 C       -1.8630    -9.0540     0.0440 C.3   1 <1>   0.3430 
 18 C       -3.0020    -7.1510     1.0550 C.3   1 <1>  -0.1600 
 19 C       -3.2420    -8.5030     0.3770 C.3   1 <1>  -0.1600 
 20 H        3.0900    -7.6570     0.8320 H     1 <1>   0.0800 
 21 H        3.0470    -8.0070    -0.9030 H     1 <1>   0.0800 
 22 H        5.2020    -8.1530    -0.0140 H     1 <1>   0.1500 
 23 H        1.0670    -6.5630    -1.1440 H     1 <1>   0.0800 
 24 H        1.1190    -6.1960     0.5740 H     1 <1>   0.0800 
 25 H        7.3220    -3.8270    -0.9460 H     1 <1>   0.1500 
 26 H        3.9750    -3.7520    -1.7780 H     1 <1>   0.0800 
 27 H        5.2450    -2.7450    -1.1290 H     1 <1>   0.0800 
 28 H        4.0210    -3.3950    -0.0670 H     1 <1>   0.0800 
 29 H        0.6760    -8.5660     1.1000 H     1 <1>   0.0800 
 30 H        0.7060    -8.9550    -0.6040 H     1 <1>   0.0800 
 31 H        8.6900    -5.8010    -0.5710 H     1 <1>   0.1500 
 32 H        7.2250    -9.2010     0.1560 H     1 <1>   0.0800 
 33 H       -1.1560    -7.3870    -0.8970 H     1 <1>   0.4500 
 34 H        9.4830    -7.4030     1.0550 H     1 <1>   0.0800 
 35 H        9.3060    -9.1040     1.4080 H     1 <1>   0.0800 
 36 H        8.1670    -7.9530     2.0610 H     1 <1>   0.0800 
 37 H        9.4300    -7.9190    -1.4680 H     1 <1>   0.0800 
 38 H        8.0780    -8.8080    -2.1230 H     1 <1>   0.0800 
 39 H        9.2520    -9.6210    -1.1180 H     1 <1>   0.0800 
 40 H       -1.2220    -5.9260     0.8880 H     1 <1>   0.0800 
 41 H       -1.0990    -7.2630     2.0260 H     1 <1>   0.0800 
 42 H       -1.5410    -9.7150     0.8330 H     1 <1>   0.0800 
 43 H       -1.8610    -9.5860    -0.8940 H     1 <1>   0.0800 
 44 H       -3.4690    -6.3600     0.4930 H     1 <1>   0.0800 
 45 H       -3.3930    -7.1320     2.0580 H     1 <1>   0.0800 
 46 H       -3.7750    -9.1840     1.0190 H     1 <1>   0.0800 
 47 H       -3.8110    -8.3740    -0.5280 H     1 <1>   0.0800 
@<TRIPOS>BOND
  1   1   2  1   
  2   1   3  1   
  3   2   4  ar  
  4   2   5  ar  
  5   3   6  1   
  6   3  20  1   
  7   3  21  1   
  8   4   7  ar  
  9   4   8  1   
 10   5   9  ar  
 11   5  22  1   
 12   6  10  1   
 13   6  23  1   
 14   6  24  1   
 15   7  11  ar  
 16   7  25  1   
 17   8  26  1   
 18   8  27  1   
 19   8  28  1   
 20   9  11  ar  
 21   9  12  1   
 22  10  13  1   
 23  10  29  1   
 24  10  30  1   
 25  11  31  1   
 26  12  14  1   
 27  12  15  1   
 28  12  32  1   
 29  13  16  1   
 30  13  17  1   
 31  13  33  1   
 32  14  34  1   
 33  14  35  1   
 34  14  36  1   
 35  15  37  1   
 36  15  38  1   
 37  15  39  1   
 38  16  18  1   
 39  16  40  1   
 40  16  41  1   
 41  17  19  1   
 42  17  42  1   
 43  17  43  1   
 44  18  19  1   
 45  18  44  1   
 46  18  45  1   
 47  19  46  1   
 48  19  47  1   
@<TRIPOS>SUBSTRUCTURE
  1 ****   3 GROUP 4 **** **** 0

# MOE 2024.06 (io_trps.svl 2023.06)
