@<TRIPOS>MOLECULE
NONAME
41 42 1 0 0 
SMALL
USER_CHARGES


@<TRIPOS>ATOM
  1 BR       0.7040    -0.2290    -1.5900 Br    1 <1>  -0.1110 
  2 C       -0.2610    -1.5310    -0.5440 C.ar  1 <1>   0.1110 
  3 C        0.0360    -1.7050     0.8010 C.ar  1 <1>   0.0830 
  4 C       -1.2480    -2.2620    -1.1750 C.ar  1 <1>  -0.1500 
  5 O        0.9850    -0.9750     1.4240 O.3   1 <1>  -0.3630 
  6 C       -0.6870    -2.6380     1.5260 C.ar  1 <1>  -0.1500 
  7 C       -1.9740    -3.1920    -0.4410 C.ar  1 <1>  -0.1430 
  8 C        2.3030    -1.4670     1.3440 C.3   1 <1>   0.0400 
  9 C       -1.6820    -3.3800     0.9070 C.ar  1 <1>  -0.1500 
 10 C       -3.0890    -3.9840    -1.0960 C.3   1 <1>   0.4870 
 11 N       -4.3820    -3.4250    -0.6230 N.4   1 <1>  -0.9590 
 12 C       -5.5330    -4.3210    -0.8530 C.3   1 <1>   0.3430 
 13 C       -4.6420    -2.0470    -1.0920 C.3   1 <1>   0.3430 
 14 C       -5.8730    -4.9960     0.4730 C.3   1 <1>  -0.1600 
 15 C       -4.9210    -1.1710     0.1290 C.3   1 <1>  -0.1600 
 16 C       -6.6150    -4.0970     1.4810 C.3   1 <1>  -0.1600 
 17 C       -6.1340    -1.5910     0.9840 C.3   1 <1>  -0.1600 
 18 C       -5.9130    -2.7970     1.9240 C.3   1 <1>  -0.1600 
 19 H       -1.4320    -2.0910    -2.2220 H     1 <1>   0.1500 
 20 H       -0.4650    -2.7760     2.5700 H     1 <1>   0.1500 
 21 H        2.9460    -0.7930     1.8800 H     1 <1>   0.0800 
 22 H        2.6000    -1.5140     0.3110 H     1 <1>   0.0800 
 23 H        2.3390    -2.4450     1.7900 H     1 <1>   0.0800 
 24 H       -2.2220    -4.1030     1.4950 H     1 <1>   0.1500 
 25 H       -3.0050    -5.0190    -0.8080 H     1 <1>   0.0800 
 26 H       -3.0200    -3.9170    -2.1700 H     1 <1>   0.0800 
 27 H       -4.3030    -3.3300     0.3970 H     1 <1>   0.4500 
 28 H       -5.2880    -5.0620    -1.5970 H     1 <1>   0.0800 
 29 H       -6.3900    -3.7620    -1.1950 H     1 <1>   0.0800 
 30 H       -5.4860    -2.0270    -1.7620 H     1 <1>   0.0800 
 31 H       -3.7840    -1.6580    -1.6150 H     1 <1>   0.0800 
 32 H       -4.9850    -5.4060     0.9220 H     1 <1>   0.0800 
 33 H       -6.5180    -5.8300     0.2540 H     1 <1>   0.0800 
 34 H       -5.1080    -0.1760    -0.2370 H     1 <1>   0.0800 
 35 H       -4.0370    -1.1050     0.7420 H     1 <1>   0.0800 
 36 H       -6.7800    -4.6910     2.3650 H     1 <1>   0.0800 
 37 H       -7.5950    -3.8610     1.0980 H     1 <1>   0.0800 
 38 H       -6.9970    -1.7430     0.3580 H     1 <1>   0.0800 
 39 H       -6.3700    -0.7470     1.6120 H     1 <1>   0.0800 
 40 H       -4.8710    -2.9620     2.1350 H     1 <1>   0.0800 
 41 H       -6.3580    -2.5280     2.8690 H     1 <1>   0.0800 
@<TRIPOS>BOND
  1   1   2  1   
  2   2   3  ar  
  3   2   4  ar  
  4   3   5  1   
  5   3   6  ar  
  6   4   7  ar  
  7   4  19  1   
  8   5   8  1   
  9   6   9  ar  
 10   6  20  1   
 11   7   9  ar  
 12   7  10  1   
 13   8  21  1   
 14   8  22  1   
 15   8  23  1   
 16   9  24  1   
 17  10  11  1   
 18  10  25  1   
 19  10  26  1   
 20  11  12  1   
 21  11  13  1   
 22  11  27  1   
 23  12  14  1   
 24  12  28  1   
 25  12  29  1   
 26  13  15  1   
 27  13  30  1   
 28  13  31  1   
 29  14  16  1   
 30  14  32  1   
 31  14  33  1   
 32  15  17  1   
 33  15  34  1   
 34  15  35  1   
 35  16  18  1   
 36  16  36  1   
 37  16  37  1   
 38  17  18  1   
 39  17  38  1   
 40  17  39  1   
 41  18  40  1   
 42  18  41  1   
@<TRIPOS>SUBSTRUCTURE
  1 ****   7 GROUP 4 **** **** 0

# MOE 2024.06 (io_trps.svl 2023.06)
