@<TRIPOS>MOLECULE
NONAME
53 55 1 0 0 
SMALL
USER_CHARGES


@<TRIPOS>ATOM
  1 O       -1.9490     0.8390     2.1040 O.2   1 <1>  -0.5700 
  2 C       -1.3660     1.3060     1.1550 C.2   1 <1>   0.5690 
  3 N       -1.5820     0.9590    -0.1470 N.am  1 <1>  -0.5470 
  4 C       -0.2880     2.3670     1.3890 C.3   1 <1>   0.1710 
  5 C       -2.4230     0.0430    -0.7970 C.ar  1 <1>   0.1170 
  6 N        0.7010     2.4680     0.2720 N.3   1 <1>  -0.8100 
  7 C       -2.2400    -0.1980    -2.1600 C.ar  1 <1>  -0.1430 
  8 C       -3.4400    -0.6330    -0.1290 C.ar  1 <1>  -0.1500 
  9 C        1.4690     3.7300     0.3590 C.3   1 <1>   0.1100 
 10 C        1.6480     1.3230     0.3010 C.3   1 <1>   0.1100 
 11 C       -3.0630    -1.0980    -2.8170 C.ar  1 <1>  -0.1500 
 12 C       -1.1450     0.5120    -2.9490 C.3   1 <1>  -0.0970 
 13 C       -4.2590    -1.5330    -0.7860 C.ar  1 <1>  -0.1430 
 14 C        2.4970     3.8730    -0.7830 C.3   1 <1>   0.2090 
 15 C        2.6660     1.3760    -0.8530 C.3   1 <1>   0.2090 
 16 C       -4.0670    -1.7630    -2.1370 C.ar  1 <1>  -0.1500 
 17 C       -5.3630    -2.2610    -0.0390 C.3   1 <1>  -0.0970 
 18 N        3.3910     2.6800    -0.8830 N.pl3 1 <1>  -0.8380 
 19 C        4.7090     2.7120    -0.4230 C.ar  1 <1>   0.1000 
 20 C        5.6890     2.0100    -1.1110 C.ar  1 <1>  -0.1500 
 21 C        5.0820     3.4200     0.7160 C.ar  1 <1>  -0.1500 
 22 C        7.0050     2.0000    -0.6840 C.ar  1 <1>   0.0820 
 23 C        6.3940     3.4240     1.1510 C.ar  1 <1>  -0.1500 
 24 O        7.8840     1.2770    -1.4250 O.3   1 <1>  -0.3630 
 25 C        7.3600     2.7150     0.4570 C.ar  1 <1>  -0.1500 
 26 C        9.2530     1.2310    -1.0930 C.3   1 <1>   0.0400 
 27 H       -0.9210     1.4470    -0.7570 H     1 <1>   0.3700 
 28 H        0.2180     2.1530     2.3140 H     1 <1>   0.0800 
 29 H       -0.7960     3.3070     1.5010 H     1 <1>   0.0800 
 30 H       -3.5960    -0.4530     0.9180 H     1 <1>   0.1500 
 31 H        1.9880     3.7750     1.3010 H     1 <1>   0.0800 
 32 H        0.7910     4.5640     0.3130 H     1 <1>   0.0800 
 33 H        1.1050     0.3960     0.2350 H     1 <1>   0.0800 
 34 H        2.1910     1.3200     1.2320 H     1 <1>   0.0800 
 35 H       -2.9310    -1.2910    -3.8670 H     1 <1>   0.1500 
 36 H       -1.3000     1.5760    -2.9190 H     1 <1>   0.0800 
 37 H       -1.1470     0.2010    -3.9780 H     1 <1>   0.0800 
 38 H       -0.1820     0.2840    -2.5300 H     1 <1>   0.0800 
 39 H        3.0890     4.7590    -0.6330 H     1 <1>   0.0800 
 40 H        1.9710     3.9870    -1.7140 H     1 <1>   0.0800 
 41 H        2.1540     1.2390    -1.7880 H     1 <1>   0.0800 
 42 H        3.3700     0.5700    -0.7390 H     1 <1>   0.0800 
 43 H       -4.6980    -2.4580    -2.6620 H     1 <1>   0.1500 
 44 H       -5.1910    -2.2240     1.0220 H     1 <1>   0.0800 
 45 H       -5.3980    -3.2910    -0.3420 H     1 <1>   0.0800 
 46 H       -6.3100    -1.8000    -0.2530 H     1 <1>   0.0800 
 47 H        5.4200     1.4670    -1.9960 H     1 <1>   0.1500 
 48 H        4.3420     3.9650     1.2680 H     1 <1>   0.1500 
 49 H        6.6670     3.9770     2.0330 H     1 <1>   0.1500 
 50 H        8.3700     2.7320     0.8150 H     1 <1>   0.1500 
 51 H        9.7520     0.6150    -1.8190 H     1 <1>   0.0800 
 52 H        9.3600     0.8010    -0.1130 H     1 <1>   0.0800 
 53 H        9.6530     2.2290    -1.1230 H     1 <1>   0.0800 
@<TRIPOS>BOND
  1   1   2  2   
  2   2   3  am  
  3   2   4  1   
  4   3   5  1   
  5   3  27  1   
  6   4   6  1   
  7   4  28  1   
  8   4  29  1   
  9   5   7  ar  
 10   5   8  ar  
 11   6   9  1   
 12   6  10  1   
 13   7  11  ar  
 14   7  12  1   
 15   8  13  ar  
 16   8  30  1   
 17   9  14  1   
 18   9  31  1   
 19   9  32  1   
 20  10  15  1   
 21  10  33  1   
 22  10  34  1   
 23  11  16  ar  
 24  11  35  1   
 25  12  36  1   
 26  12  37  1   
 27  12  38  1   
 28  13  16  ar  
 29  13  17  1   
 30  14  18  1   
 31  14  39  1   
 32  14  40  1   
 33  15  18  1   
 34  15  41  1   
 35  15  42  1   
 36  16  43  1   
 37  17  44  1   
 38  17  45  1   
 39  17  46  1   
 40  18  19  1   
 41  19  20  ar  
 42  19  21  ar  
 43  20  22  ar  
 44  20  47  1   
 45  21  23  ar  
 46  21  48  1   
 47  22  24  1   
 48  22  25  ar  
 49  23  25  ar  
 50  23  49  1   
 51  24  26  1   
 52  25  50  1   
 53  26  51  1   
 54  26  52  1   
 55  26  53  1   
@<TRIPOS>SUBSTRUCTURE
  1 ****  10 GROUP 4 **** **** 0

# MOE 2024.06 (io_trps.svl 2023.06)
