@<TRIPOS>MOLECULE
NONAME
35 36 1 0 0 
SMALL
USER_CHARGES


@<TRIPOS>ATOM
  1 CL      -1.1280     2.8950    -2.9160 Cl    1 <1>  -0.1770 
  2 C       -1.5360     2.7050    -1.2250 C.ar  1 <1>   0.1770 
  3 C       -0.5810     2.9340    -0.2410 C.ar  1 <1>   0.0830 
  4 C       -2.8250     2.3250    -0.9060 C.ar  1 <1>  -0.1500 
  5 O        0.6690     3.3040    -0.6250 O.3   1 <1>  -0.3630 
  6 C       -0.9560     2.7710     1.0890 C.ar  1 <1>  -0.1500 
  7 C       -3.2090     2.1650     0.4210 C.ar  1 <1>  -0.0090 
  8 C        1.7070     3.5060     0.3060 C.3   1 <1>   0.1200 
  9 C       -2.2510     2.3910     1.4050 C.ar  1 <1>  -0.1500 
 10 S       -4.8980     1.6600     0.8510 S.o2  1 <1>   1.4470 
 11 C        2.9660     3.8820    -0.4690 C.3   1 <1>  -0.2400 
 12 O       -5.2160     2.0850     2.1970 O.2   1 <1>  -0.6500 
 13 O       -5.0920     0.2760     0.4800 O.2   1 <1>  -0.6500 
 14 N       -5.8600     2.5890    -0.1870 N.am  1 <1>  -0.8490 
 15 C       -7.1880     1.9830    -0.4050 C.3   1 <1>   0.1960 
 16 C       -5.9870     3.9930     0.2190 C.3   1 <1>   0.1960 
 17 C       -8.2720     2.9920    -0.8490 C.3   1 <1>   0.1200 
 18 C       -6.7650     4.8160    -0.8350 C.3   1 <1>   0.1200 
 19 O       -7.7140     4.0650    -1.5500 O.3   1 <1>  -0.5600 
 20 H       -3.5360     2.1540    -1.6960 H     1 <1>   0.1500 
 21 H       -0.2580     2.9330     1.8890 H     1 <1>   0.1500 
 22 H        1.8570     2.5920     0.8540 H     1 <1>   0.0800 
 23 H        1.4190     4.3010     0.9720 H     1 <1>   0.0800 
 24 H       -2.5260     2.2670     2.4400 H     1 <1>   0.1500 
 25 H        3.2350     3.0900    -1.1440 H     1 <1>   0.0800 
 26 H        3.7810     4.0430     0.2140 H     1 <1>   0.0800 
 27 H        2.8010     4.7870    -1.0260 H     1 <1>   0.0800 
 28 H       -7.5290     1.5020     0.4970 H     1 <1>   0.0800 
 29 H       -7.0930     1.2170    -1.1560 H     1 <1>   0.0800 
 30 H       -5.0130     4.4310     0.3560 H     1 <1>   0.0800 
 31 H       -6.5050     4.0520     1.1630 H     1 <1>   0.0800 
 32 H       -8.7920     3.3850     0.0070 H     1 <1>   0.0800 
 33 H       -8.9890     2.5110    -1.4900 H     1 <1>   0.0800 
 34 H       -6.0770     5.2180    -1.5570 H     1 <1>   0.0800 
 35 H       -7.2730     5.6360    -0.3600 H     1 <1>   0.0800 
@<TRIPOS>BOND
  1   1   2  1   
  2   2   3  ar  
  3   2   4  ar  
  4   3   5  1   
  5   3   6  ar  
  6   4   7  ar  
  7   4  20  1   
  8   5   8  1   
  9   6   9  ar  
 10   6  21  1   
 11   7   9  ar  
 12   7  10  1   
 13   8  11  1   
 14   8  22  1   
 15   8  23  1   
 16   9  24  1   
 17  10  12  2   
 18  10  13  2   
 19  10  14  am  
 20  11  25  1   
 21  11  26  1   
 22  11  27  1   
 23  14  15  1   
 24  14  16  1   
 25  15  17  1   
 26  15  28  1   
 27  15  29  1   
 28  16  18  1   
 29  16  30  1   
 30  16  31  1   
 31  17  19  1   
 32  17  32  1   
 33  17  33  1   
 34  18  19  1   
 35  18  34  1   
 36  18  35  1   
@<TRIPOS>SUBSTRUCTURE
  1 ****   7 GROUP 4 **** **** 0

# MOE 2024.06 (io_trps.svl 2023.06)
