@<TRIPOS>MOLECULE
NONAME
57 58 1 0 0 
SMALL
USER_CHARGES


@<TRIPOS>ATOM
  1 O       -6.5860     2.2890    -0.2950 O.3   1 <1>  -0.3630 
  2 C       -7.7230     1.8840     0.3120 C.ar  1 <1>   0.0830 
  3 C       -5.4090     2.3070     0.4850 C.3   1 <1>   0.1200 
  4 C       -8.8290     2.7340     0.4790 C.ar  1 <1>  -0.1440 
  5 C       -7.7580     0.5680     0.7600 C.ar  1 <1>  -0.1500 
  6 C       -4.3020     2.9950    -0.3220 C.3   1 <1>   0.2000 
  7 C       -9.9310     2.1970     1.1460 C.ar  1 <1>  -0.1500 
  8 C       -8.9570     4.2090    -0.0020 C.3   1 <1>   0.1440 
  9 C       -8.8670     0.0720     1.4130 C.ar  1 <1>  -0.1500 
 10 O       -4.2400     2.4180    -1.5930 O.3   1 <1>  -0.6800 
 11 C       -2.9190     2.8930     0.3600 C.3   1 <1>   0.3430 
 12 C       -9.9560     0.8940     1.6100 C.ar  1 <1>  -0.1500 
 13 C       -7.7510     4.7830    -0.7650 C.3   1 <1>  -0.2400 
 14 C      -10.1630     4.3330    -0.9500 C.3   1 <1>  -0.2400 
 15 C       -9.1780     5.1230     1.2150 C.3   1 <1>  -0.2400 
 16 N       -1.8240     2.9140    -0.6660 N.4   1 <1>  -0.9590 
 17 C       -0.9040     1.7580    -0.4990 C.3   1 <1>   0.4230 
 18 C       -1.1120     4.2100    -0.8170 C.3   1 <1>   0.4230 
 19 C        0.4600     2.1650     0.0930 C.3   1 <1>  -0.1600 
 20 C       -0.7420     1.0970    -1.8610 C.3   1 <1>  -0.2400 
 21 C       -0.3260     4.5420     0.4640 C.3   1 <1>  -0.1600 
 22 C       -2.0720     5.3280    -1.2110 C.3   1 <1>  -0.2400 
 23 C        0.3350     3.3090     1.1100 C.3   1 <1>  -0.1600 
 24 H       -5.1340     1.2950     0.7220 H     1 <1>   0.0800 
 25 H       -5.6150     2.8460     1.3940 H     1 <1>   0.0800 
 26 H       -6.9200    -0.0820     0.5930 H     1 <1>   0.1500 
 27 H       -4.5630     4.0310    -0.4500 H     1 <1>   0.0800 
 28 H      -10.8070     2.7930     1.3190 H     1 <1>   0.1500 
 29 H       -8.8860    -0.9460     1.7610 H     1 <1>   0.1500 
 30 H       -5.1650     2.2800    -1.9110 H     1 <1>   0.4000 
 31 H       -2.8820     1.9650     0.9040 H     1 <1>   0.0800 
 32 H       -2.7950     3.6920     1.0720 H     1 <1>   0.0800 
 33 H      -10.8270     0.5210     2.1190 H     1 <1>   0.1500 
 34 H       -7.5470     4.1940    -1.6420 H     1 <1>   0.0800 
 35 H       -6.8830     4.8040    -0.1350 H     1 <1>   0.0800 
 36 H       -7.9470     5.7900    -1.0850 H     1 <1>   0.0800 
 37 H      -11.0850     4.0880    -0.4570 H     1 <1>   0.0800 
 38 H      -10.0410     3.6650    -1.7840 H     1 <1>   0.0800 
 39 H      -10.2530     5.3360    -1.3270 H     1 <1>   0.0800 
 40 H      -10.0870     4.8780     1.7320 H     1 <1>   0.0800 
 41 H       -9.2420     6.1530     0.9130 H     1 <1>   0.0800 
 42 H       -8.3610     5.0190     1.9060 H     1 <1>   0.0800 
 43 H       -2.3480     2.7360    -1.5440 H     1 <1>   0.4500 
 44 H       -1.3610     1.0430     0.1660 H     1 <1>   0.0800 
 45 H       -0.3970     4.0960    -1.6180 H     1 <1>   0.0800 
 46 H        1.1290     2.4680    -0.6950 H     1 <1>   0.0800 
 47 H        0.9060     1.3060     0.5640 H     1 <1>   0.0800 
 48 H       -0.3040     1.7730    -2.5730 H     1 <1>   0.0800 
 49 H       -1.6940     0.7570    -2.2300 H     1 <1>   0.0800 
 50 H       -0.0990     0.2390    -1.7730 H     1 <1>   0.0800 
 51 H       -0.9600     5.0260     1.1850 H     1 <1>   0.0800 
 52 H        0.4400     5.2510     0.2000 H     1 <1>   0.0800 
 53 H       -2.7450     5.5770    -0.4120 H     1 <1>   0.0800 
 54 H       -2.6330     5.0520    -2.0860 H     1 <1>   0.0800 
 55 H       -1.5070     6.2120    -1.4480 H     1 <1>   0.0800 
 56 H        1.3070     3.5720     1.4950 H     1 <1>   0.0800 
 57 H       -0.2620     2.9750     1.9420 H     1 <1>   0.0800 
@<TRIPOS>BOND
  1   1   2  1   
  2   1   3  1   
  3   2   4  ar  
  4   2   5  ar  
  5   3   6  1   
  6   3  24  1   
  7   3  25  1   
  8   4   7  ar  
  9   4   8  1   
 10   5   9  ar  
 11   5  26  1   
 12   6  10  1   
 13   6  11  1   
 14   6  27  1   
 15   7  12  ar  
 16   7  28  1   
 17   8  13  1   
 18   8  14  1   
 19   8  15  1   
 20   9  12  ar  
 21   9  29  1   
 22  10  30  1   
 23  11  16  1   
 24  11  31  1   
 25  11  32  1   
 26  12  33  1   
 27  13  34  1   
 28  13  35  1   
 29  13  36  1   
 30  14  37  1   
 31  14  38  1   
 32  14  39  1   
 33  15  40  1   
 34  15  41  1   
 35  15  42  1   
 36  16  17  1   
 37  16  18  1   
 38  16  43  1   
 39  17  19  1   
 40  17  20  1   
 41  17  44  1   
 42  18  21  1   
 43  18  22  1   
 44  18  45  1   
 45  19  23  1   
 46  19  46  1   
 47  19  47  1   
 48  20  48  1   
 49  20  49  1   
 50  20  50  1   
 51  21  23  1   
 52  21  51  1   
 53  21  52  1   
 54  22  53  1   
 55  22  54  1   
 56  22  55  1   
 57  23  56  1   
 58  23  57  1   
@<TRIPOS>SUBSTRUCTURE
  1 ****   3 GROUP 4 **** **** 0

# MOE 2024.06 (io_trps.svl 2023.06)
