@<TRIPOS>MOLECULE
NONAME
55 57 1 0 0 
SMALL
USER_CHARGES


@<TRIPOS>ATOM
  1 O       -1.4470     0.3900     1.0500 O.3   1 <1>  -0.3630 
  2 C       -2.1760     0.6320    -0.0770 C.ar  1 <1>   0.0830 
  3 C       -0.3030    -0.4320     0.9170 C.3   1 <1>   0.0400 
  4 C       -3.5200     0.2300    -0.1640 C.ar  1 <1>   0.0830 
  5 C       -1.5990     1.3150    -1.1540 C.ar  1 <1>   0.0820 
  6 O       -4.2190    -0.4160     0.8220 O.3   1 <1>  -0.3630 
  7 C       -4.2440     0.5020    -1.3240 C.ar  1 <1>  -0.1430 
  8 O       -0.3270     1.7810    -1.1350 O.3   1 <1>  -0.3630 
  9 C       -2.3260     1.5500    -2.3070 C.ar  1 <1>  -0.1500 
 10 C       -3.5880    -1.2340     1.7880 C.3   1 <1>   0.0400 
 11 C       -3.6440     1.1480    -2.3940 C.ar  1 <1>  -0.1500 
 12 C       -5.7020     0.0960    -1.4280 C.3   1 <1>   0.4860 
 13 C       -0.0810     2.9000    -0.3110 C.3   1 <1>   0.0400 
 14 N       -6.4620     0.7980    -0.3650 N.4   1 <1>  -0.9590 
 15 C       -7.8670     0.2850    -0.2110 C.3   1 <1>   0.3430 
 16 C       -6.4230     2.2980    -0.5160 C.3   1 <1>   0.3430 
 17 C       -8.6250     0.9760     0.9420 C.3   1 <1>   0.2090 
 18 C       -7.1600     3.0270     0.6270 C.3   1 <1>   0.2090 
 19 N       -8.5220     2.4610     0.8610 N.pl3 1 <1>  -0.8380 
 20 C       -9.6170     3.1620     0.3580 C.ar  1 <1>   0.1000 
 21 C      -10.4850     3.8410     1.2140 C.ar  1 <1>  -0.1430 
 22 C       -9.8620     3.1920    -1.0110 C.ar  1 <1>  -0.1500 
 23 C      -11.5690     4.5280     0.6940 C.ar  1 <1>  -0.1500 
 24 C      -10.2520     3.8380     2.7190 C.3   1 <1>  -0.0970 
 25 C      -10.9460     3.8790    -1.5240 C.ar  1 <1>  -0.1500 
 26 C      -11.8020     4.5490    -0.6700 C.ar  1 <1>  -0.1500 
 27 H       -0.0110    -0.7620     1.8980 H     1 <1>   0.0800 
 28 H        0.4970     0.1340     0.4760 H     1 <1>   0.0800 
 29 H       -0.5460    -1.2790     0.3000 H     1 <1>   0.0800 
 30 H       -1.8500     2.0540    -3.1310 H     1 <1>   0.1500 
 31 H       -3.1200    -0.6090     2.5280 H     1 <1>   0.0800 
 32 H       -2.8610    -1.8590     1.3010 H     1 <1>   0.0800 
 33 H       -4.3370    -1.8460     2.2580 H     1 <1>   0.0800 
 34 H       -4.1870     1.3480    -3.3030 H     1 <1>   0.1500 
 35 H       -5.7770    -0.9710    -1.2900 H     1 <1>   0.0800 
 36 H       -6.0940     0.3490    -2.3990 H     1 <1>   0.0800 
 37 H        0.9540     3.1740    -0.4160 H     1 <1>   0.0800 
 38 H       -0.2900     2.6440     0.7120 H     1 <1>   0.0800 
 39 H       -0.7100     3.7120    -0.6300 H     1 <1>   0.0800 
 40 H       -5.9360     0.5740     0.4980 H     1 <1>   0.4500 
 41 H       -7.8530    -0.7770    -0.0310 H     1 <1>   0.0800 
 42 H       -8.4150     0.4590    -1.1210 H     1 <1>   0.0800 
 43 H       -6.8870     2.5790    -1.4460 H     1 <1>   0.0800 
 44 H       -5.4010     2.6380    -0.5410 H     1 <1>   0.0800 
 45 H       -8.2280     0.6480     1.8860 H     1 <1>   0.0800 
 46 H       -9.6630     0.6890     0.9090 H     1 <1>   0.0800 
 47 H       -7.2440     4.0740     0.3880 H     1 <1>   0.0800 
 48 H       -6.5870     2.9470     1.5350 H     1 <1>   0.0800 
 49 H       -9.2060     2.6760    -1.6820 H     1 <1>   0.1500 
 50 H      -12.2430     5.0540     1.3480 H     1 <1>   0.1500 
 51 H      -10.2980     2.8310     3.0910 H     1 <1>   0.0800 
 52 H      -10.9930     4.4260     3.2290 H     1 <1>   0.0800 
 53 H       -9.2820     4.2440     2.9380 H     1 <1>   0.0800 
 54 H      -11.1280     3.8970    -2.5850 H     1 <1>   0.1500 
 55 H      -12.6470     5.0870    -1.0630 H     1 <1>   0.1500 
@<TRIPOS>BOND
  1   1   2  1   
  2   1   3  1   
  3   2   4  ar  
  4   2   5  ar  
  5   3  27  1   
  6   3  28  1   
  7   3  29  1   
  8   4   6  1   
  9   4   7  ar  
 10   5   8  1   
 11   5   9  ar  
 12   6  10  1   
 13   7  11  ar  
 14   7  12  1   
 15   8  13  1   
 16   9  11  ar  
 17   9  30  1   
 18  10  31  1   
 19  10  32  1   
 20  10  33  1   
 21  11  34  1   
 22  12  14  1   
 23  12  35  1   
 24  12  36  1   
 25  13  37  1   
 26  13  38  1   
 27  13  39  1   
 28  14  15  1   
 29  14  16  1   
 30  14  40  1   
 31  15  17  1   
 32  15  41  1   
 33  15  42  1   
 34  16  18  1   
 35  16  43  1   
 36  16  44  1   
 37  17  19  1   
 38  17  45  1   
 39  17  46  1   
 40  18  19  1   
 41  18  47  1   
 42  18  48  1   
 43  19  20  1   
 44  20  21  ar  
 45  20  22  ar  
 46  21  23  ar  
 47  21  24  1   
 48  22  25  ar  
 49  22  49  1   
 50  23  26  ar  
 51  23  50  1   
 52  24  51  1   
 53  24  52  1   
 54  24  53  1   
 55  25  26  ar  
 56  25  54  1   
 57  26  55  1   
@<TRIPOS>SUBSTRUCTURE
  1 ****  16 GROUP 4 **** **** 0

# MOE 2024.06 (io_trps.svl 2023.06)
