@<TRIPOS>MOLECULE
NONAME
48 50 1 0 0 
SMALL
USER_CHARGES


@<TRIPOS>ATOM
  1 CL       0.3770    -0.3700     0.4740 Cl    1 <1>  -0.1770 
  2 C        1.8660    -1.2810     0.5570 C.ar  1 <1>   0.1770 
  3 C        1.9220    -2.4220     1.3350 C.ar  1 <1>  -0.1500 
  4 C        2.9670    -0.8480    -0.1580 C.ar  1 <1>  -0.1500 
  5 C        3.1040    -3.1380     1.3960 C.ar  1 <1>  -0.1500 
  6 C        4.1450    -1.5720    -0.0920 C.ar  1 <1>  -0.1500 
  7 C        4.2270    -2.7260     0.6850 C.ar  1 <1>   0.1000 
  8 N        5.3990    -3.4750     0.7600 N.pl3 1 <1>  -0.8380 
  9 C        5.4100    -4.8590     0.1990 C.3   1 <1>   0.2090 
 10 C        6.7260    -2.8130     0.9560 C.3   1 <1>   0.2090 
 11 C        6.3320    -4.9570    -1.0360 C.3   1 <1>   0.3430 
 12 C        7.6240    -2.9650    -0.2900 C.3   1 <1>   0.3430 
 13 N        7.7050    -4.3930    -0.7780 N.4   1 <1>  -0.9590 
 14 C        8.5980    -4.5250    -1.9620 C.3   1 <1>   0.4860 
 15 C        9.9900    -4.0750    -1.5630 C.ar  1 <1>  -0.1430 
 16 C       10.7000    -4.7850    -0.6070 C.ar  1 <1>  -0.1500 
 17 C       10.5620    -2.9490    -2.1350 C.ar  1 <1>  -0.1500 
 18 C       11.9580    -4.3830    -0.1920 C.ar  1 <1>   0.0830 
 19 C       11.8240    -2.5360    -1.7420 C.ar  1 <1>  -0.1500 
 20 O       12.5010    -5.1810     0.7700 O.3   1 <1>  -0.3630 
 21 C       12.5260    -3.2370    -0.7740 C.ar  1 <1>   0.0830 
 22 C       13.8160    -5.0250     1.2510 C.3   1 <1>   0.1200 
 23 O       13.7440    -2.7600    -0.4390 O.3   1 <1>  -0.5330 
 24 C       14.0920    -6.1500     2.2430 C.3   1 <1>  -0.2400 
 25 H        1.0530    -2.7360     1.8850 H     1 <1>   0.1500 
 26 H        2.8940     0.0440    -0.7550 H     1 <1>   0.1500 
 27 H        3.1640    -4.0210     2.0070 H     1 <1>   0.1500 
 28 H        4.9970    -1.2380    -0.6510 H     1 <1>   0.1500 
 29 H        4.4100    -5.1440    -0.0830 H     1 <1>   0.0800 
 30 H        5.7420    -5.5450     0.9590 H     1 <1>   0.0800 
 31 H        7.2140    -3.2550     1.8080 H     1 <1>   0.0800 
 32 H        6.5840    -1.7690     1.1760 H     1 <1>   0.0800 
 33 H        5.8650    -4.4150    -1.8410 H     1 <1>   0.0800 
 34 H        6.4060    -5.9900    -1.3320 H     1 <1>   0.0800 
 35 H        8.6100    -2.6000    -0.0520 H     1 <1>   0.0800 
 36 H        7.2220    -2.3410    -1.0710 H     1 <1>   0.0800 
 37 H        8.1380    -4.9320    -0.0180 H     1 <1>   0.4500 
 38 H        8.2330    -3.9190    -2.7750 H     1 <1>   0.0800 
 39 H        8.6360    -5.5520    -2.2880 H     1 <1>   0.0800 
 40 H       10.2950    -5.6750    -0.1580 H     1 <1>   0.1500 
 41 H       10.0420    -2.3830    -2.8900 H     1 <1>   0.1500 
 42 H       12.2560    -1.6620    -2.1960 H     1 <1>   0.1500 
 43 H       13.8910    -4.0660     1.7330 H     1 <1>   0.0800 
 44 H       14.4940    -5.0770     0.4160 H     1 <1>   0.0800 
 45 H       14.0120    -1.9800    -0.9560 H     1 <1>   0.4500 
 46 H       13.3990    -6.0990     3.0640 H     1 <1>   0.0800 
 47 H       15.0900    -6.0540     2.6300 H     1 <1>   0.0800 
 48 H       14.0040    -7.1040     1.7550 H     1 <1>   0.0800 
@<TRIPOS>BOND
  1   1   2  1   
  2   2   3  ar  
  3   2   4  ar  
  4   3   5  ar  
  5   3  25  1   
  6   4   6  ar  
  7   4  26  1   
  8   5   7  ar  
  9   5  27  1   
 10   6   7  ar  
 11   6  28  1   
 12   7   8  1   
 13   8   9  1   
 14   8  10  1   
 15   9  11  1   
 16   9  29  1   
 17   9  30  1   
 18  10  12  1   
 19  10  31  1   
 20  10  32  1   
 21  11  13  1   
 22  11  33  1   
 23  11  34  1   
 24  12  13  1   
 25  12  35  1   
 26  12  36  1   
 27  13  14  1   
 28  13  37  1   
 29  14  15  1   
 30  14  38  1   
 31  14  39  1   
 32  15  16  ar  
 33  15  17  ar  
 34  16  18  ar  
 35  16  40  1   
 36  17  19  ar  
 37  17  41  1   
 38  18  20  1   
 39  18  21  ar  
 40  19  21  ar  
 41  19  42  1   
 42  20  22  1   
 43  21  23  1   
 44  22  24  1   
 45  22  43  1   
 46  22  44  1   
 47  23  45  1   
 48  24  46  1   
 49  24  47  1   
 50  24  48  1   
@<TRIPOS>SUBSTRUCTURE
  1 ****  12 GROUP 4 **** **** 0

# MOE 2024.06 (io_trps.svl 2023.06)
