@<TRIPOS>MOLECULE
NONAME
43 44 1 0 0 
SMALL
USER_CHARGES


@<TRIPOS>ATOM
  1 S        0.5400     0.4920     0.4010 S.o2  1 <1>   1.3330 
  2 O        0.1340     1.7680     0.9360 O.2   1 <1>  -0.6500 
  3 O        1.5960     0.3890    -0.5730 O.2   1 <1>  -0.6500 
  4 N       -0.8120    -0.1980    -0.4010 N.am  1 <1>  -0.7570 
  5 C        0.8410    -0.6840     1.7270 C.3   1 <1>  -0.0550 
  6 C       -2.1410    -0.2710    -0.0220 C.ar  1 <1>   0.1990 
  7 C        2.0540    -0.3470     2.6110 C.3   1 <1>  -0.2400 
  8 C       -3.0370    -0.9450    -0.8450 C.ar  1 <1>  -0.1500 
  9 C       -2.6350     0.2870     1.1550 C.ar  1 <1>  -0.1500 
 10 C       -4.3710    -1.0610    -0.5060 C.ar  1 <1>  -0.1500 
 11 C       -3.9690     0.1690     1.4920 C.ar  1 <1>  -0.1500 
 12 C       -4.8740    -0.5010     0.6690 C.ar  1 <1>   0.0860 
 13 C       -6.2700    -0.6140     1.0330 C.2   1 <1>   0.5440 
 14 O       -6.5570    -1.1110     2.1080 O.2   1 <1>  -0.5700 
 15 N       -7.2840    -0.1770     0.2000 N.am  1 <1>  -0.6600 
 16 C       -7.0180     0.6860    -0.9880 C.3   1 <1>   0.1400 
 17 C       -8.7010    -0.5290     0.4990 C.3   1 <1>   0.1400 
 18 C       -8.1010     1.7380    -1.2690 C.3   1 <1>  -0.1600 
 19 C       -9.3330     0.5270     1.4130 C.3   1 <1>  -0.1600 
 20 C       -8.5640     2.5250    -0.0320 C.3   1 <1>  -0.1600 
 21 C       -9.7200     1.8350     0.7070 C.3   1 <1>  -0.1600 
 22 H       -0.5420    -0.4860    -1.3370 H     1 <1>   0.4200 
 23 H        0.9900    -1.6570     1.3000 H     1 <1>   0.0800 
 24 H       -0.0310    -0.7370     2.3510 H     1 <1>   0.0800 
 25 H        2.9500    -0.3170     2.0150 H     1 <1>   0.0800 
 26 H        2.1740    -1.0900     3.3800 H     1 <1>   0.0800 
 27 H        1.9190     0.6150     3.0760 H     1 <1>   0.0800 
 28 H       -2.6820    -1.3880    -1.7570 H     1 <1>   0.1500 
 29 H       -1.9830     0.8260     1.8170 H     1 <1>   0.1500 
 30 H       -5.0450    -1.5970    -1.1520 H     1 <1>   0.1500 
 31 H       -4.3340     0.6010     2.4090 H     1 <1>   0.1500 
 32 H       -6.9050     0.0590    -1.8550 H     1 <1>   0.0800 
 33 H       -6.0890     1.2090    -0.8380 H     1 <1>   0.0800 
 34 H       -8.7230    -1.4810     1.0020 H     1 <1>   0.0800 
 35 H       -9.2620    -0.6340    -0.4120 H     1 <1>   0.0800 
 36 H       -8.9420     1.2760    -1.7550 H     1 <1>   0.0800 
 37 H       -7.6870     2.4350    -1.9770 H     1 <1>   0.0800 
 38 H       -8.6590     0.7330     2.2270 H     1 <1>   0.0800 
 39 H      -10.2240     0.1050     1.8410 H     1 <1>   0.0800 
 40 H       -8.9130     3.4900    -0.3570 H     1 <1>   0.0800 
 41 H       -7.7380     2.6900     0.6400 H     1 <1>   0.0800 
 42 H      -10.1020     2.5140     1.4500 H     1 <1>   0.0800 
 43 H      -10.5210     1.6420     0.0140 H     1 <1>   0.0800 
@<TRIPOS>BOND
  1   1   2  2   
  2   1   3  2   
  3   1   4  am  
  4   1   5  1   
  5   4   6  1   
  6   4  22  1   
  7   5   7  1   
  8   5  23  1   
  9   5  24  1   
 10   6   8  ar  
 11   6   9  ar  
 12   7  25  1   
 13   7  26  1   
 14   7  27  1   
 15   8  10  ar  
 16   8  28  1   
 17   9  11  ar  
 18   9  29  1   
 19  10  12  ar  
 20  10  30  1   
 21  11  12  ar  
 22  11  31  1   
 23  12  13  1   
 24  13  14  2   
 25  13  15  am  
 26  15  16  1   
 27  15  17  1   
 28  16  18  1   
 29  16  32  1   
 30  16  33  1   
 31  17  19  1   
 32  17  34  1   
 33  17  35  1   
 34  18  20  1   
 35  18  36  1   
 36  18  37  1   
 37  19  21  1   
 38  19  38  1   
 39  19  39  1   
 40  20  21  1   
 41  20  40  1   
 42  20  41  1   
 43  21  42  1   
 44  21  43  1   
@<TRIPOS>SUBSTRUCTURE
  1 ****  12 GROUP 4 **** **** 0

# MOE 2024.06 (io_trps.svl 2023.06)
