@<TRIPOS>MOLECULE
NONAME
48 50 1 0 0 
SMALL
USER_CHARGES


@<TRIPOS>ATOM
  1 CL      -0.2600     0.3350    -0.6570 Cl    1 <1>  -0.1770 
  2 C       -1.9430     0.1470    -0.2370 C.ar  1 <1>   0.1770 
  3 C       -2.8970     0.8870    -0.9100 C.ar  1 <1>  -0.1500 
  4 C       -2.2980    -0.7400     0.7620 C.ar  1 <1>  -0.1500 
  5 C       -4.2320     0.7350    -0.5750 C.ar  1 <1>  -0.1500 
  6 C       -3.6350    -0.8880     1.0930 C.ar  1 <1>  -0.1500 
  7 C       -4.6050    -0.1510     0.4260 C.ar  1 <1>  -0.1430 
  8 C       -6.0750    -0.3110     0.7820 C.3   1 <1>  -0.0160 
  9 C       -6.7520    -1.2800    -0.1880 C.3   1 <1>   0.1400 
 10 N       -8.1850    -1.4390     0.1660 N.am  1 <1>  -0.7300 
 11 C       -9.1970    -0.6550    -0.3180 C.2   1 <1>   0.5440 
 12 O       -8.9080     0.2610    -1.0620 O.2   1 <1>  -0.5700 
 13 C      -10.5850    -0.9140     0.0320 C.ar  1 <1>   0.0860 
 14 C      -11.6230    -0.4720    -0.7890 C.ar  1 <1>  -0.1500 
 15 C      -10.9520    -1.6060     1.1870 C.ar  1 <1>  -0.1500 
 16 C      -12.9490    -0.7210    -0.4830 C.ar  1 <1>  -0.1500 
 17 C      -12.2800    -1.8570     1.4910 C.ar  1 <1>  -0.1500 
 18 C      -13.3060    -1.4260     0.6590 C.ar  1 <1>  -0.0090 
 19 S      -15.0490    -1.7680     1.0420 S.o2  1 <1>   1.4470 
 20 O      -15.7510    -0.5190     1.2390 O.2   1 <1>  -0.6500 
 21 O      -15.1380    -2.8030     2.0490 O.2   1 <1>  -0.6500 
 22 N      -15.6290    -2.4360    -0.4020 N.am  1 <1>  -0.8490 
 23 C      -15.1060    -3.7890    -0.6540 C.3   1 <1>   0.1960 
 24 C      -17.1000    -2.4750    -0.4240 C.3   1 <1>   0.1960 
 25 C      -15.6620    -4.3550    -1.9730 C.3   1 <1>   0.1200 
 26 C      -17.6190    -3.0870    -1.7390 C.3   1 <1>   0.1200 
 27 O      -17.0610    -4.3540    -1.9520 O.3   1 <1>  -0.5600 
 28 H       -2.5960     1.5710    -1.6840 H     1 <1>   0.1500 
 29 H       -1.5370    -1.3030     1.2700 H     1 <1>   0.1500 
 30 H       -4.9810     1.3090    -1.0950 H     1 <1>   0.1500 
 31 H       -3.9130    -1.5770     1.8710 H     1 <1>   0.1500 
 32 H       -6.5610     0.6470     0.7230 H     1 <1>   0.0800 
 33 H       -6.1700    -0.6780     1.7880 H     1 <1>   0.0800 
 34 H       -6.2630    -2.2380    -0.1540 H     1 <1>   0.0800 
 35 H       -6.6690    -0.8970    -1.1920 H     1 <1>   0.0800 
 36 H       -8.4100    -2.2500     0.7420 H     1 <1>   0.3700 
 37 H      -11.3790     0.0790    -1.6830 H     1 <1>   0.1500 
 38 H      -10.1930    -1.9480     1.8670 H     1 <1>   0.1500 
 39 H      -13.7230    -0.3630    -1.1420 H     1 <1>   0.1500 
 40 H      -12.5260    -2.3950     2.3920 H     1 <1>   0.1500 
 41 H      -15.3790    -4.4530     0.1490 H     1 <1>   0.0800 
 42 H      -14.0320    -3.7580    -0.7130 H     1 <1>   0.0800 
 43 H      -17.4900    -1.4760    -0.3290 H     1 <1>   0.0800 
 44 H      -17.4670    -3.0560     0.4060 H     1 <1>   0.0800 
 45 H      -15.3370    -5.3700    -2.1100 H     1 <1>   0.0800 
 46 H      -15.3290    -3.7650    -2.8090 H     1 <1>   0.0800 
 47 H      -17.3680    -2.4550    -2.5730 H     1 <1>   0.0800 
 48 H      -18.6880    -3.2010    -1.6990 H     1 <1>   0.0800 
@<TRIPOS>BOND
  1   1   2  1   
  2   2   3  ar  
  3   2   4  ar  
  4   3   5  ar  
  5   3  28  1   
  6   4   6  ar  
  7   4  29  1   
  8   5   7  ar  
  9   5  30  1   
 10   6   7  ar  
 11   6  31  1   
 12   7   8  1   
 13   8   9  1   
 14   8  32  1   
 15   8  33  1   
 16   9  10  1   
 17   9  34  1   
 18   9  35  1   
 19  10  11  am  
 20  10  36  1   
 21  11  12  2   
 22  11  13  1   
 23  13  14  ar  
 24  13  15  ar  
 25  14  16  ar  
 26  14  37  1   
 27  15  17  ar  
 28  15  38  1   
 29  16  18  ar  
 30  16  39  1   
 31  17  18  ar  
 32  17  40  1   
 33  18  19  1   
 34  19  20  2   
 35  19  21  2   
 36  19  22  am  
 37  22  23  1   
 38  22  24  1   
 39  23  25  1   
 40  23  41  1   
 41  23  42  1   
 42  24  26  1   
 43  24  43  1   
 44  24  44  1   
 45  25  27  1   
 46  25  45  1   
 47  25  46  1   
 48  26  27  1   
 49  26  47  1   
 50  26  48  1   
@<TRIPOS>SUBSTRUCTURE
  1 ****  13 GROUP 4 **** **** 0

# MOE 2024.06 (io_trps.svl 2023.06)
