@<TRIPOS>MOLECULE
NONAME
33 33 1 0 0 
SMALL
USER_CHARGES


@<TRIPOS>ATOM
  1 CL      -0.3160     0.9440     0.1450 Cl    1 <1>  -0.1770 
  2 C       -1.2190    -0.5220     0.4720 C.ar  1 <1>   0.1770 
  3 C       -0.5970    -1.7240     0.8330 C.ar  1 <1>   0.0820 
  4 C       -2.5960    -0.4350     0.3800 C.ar  1 <1>  -0.1500 
  5 O        0.7440    -1.9050     0.9420 O.3   1 <1>  -0.3630 
  6 C       -1.3870    -2.8290     1.1210 C.ar  1 <1>  -0.1500 
  7 C       -3.3550    -1.5540     0.6610 C.ar  1 <1>   0.1770 
  8 C        1.6070    -1.4470    -0.0750 C.3   1 <1>   0.1200 
  9 C       -2.7670    -2.7490     1.0330 C.ar  1 <1>  -0.1500 
 10 CL      -5.0940    -1.4560     0.5470 Cl    1 <1>  -0.1770 
 11 C        2.8340    -2.3590    -0.1000 C.3   1 <1>  -0.1600 
 12 C        3.8620    -1.8840    -1.1400 C.3   1 <1>  -0.0990 
 13 C        5.0790    -2.7860    -1.1930 C.2   1 <1>   0.5690 
 14 O        5.1950    -3.5630    -2.1080 O.2   1 <1>  -0.5700 
 15 N        5.9990    -2.6910    -0.2060 N.am  1 <1>  -0.7300 
 16 C        7.2280    -3.4880    -0.1320 C.3   1 <1>   0.2780 
 17 C        8.2930    -2.6110     0.4890 C.2   1 <1>  -0.2880 
 18 C        8.8810    -2.8230     1.6710 C.2   1 <1>  -0.3000 
 19 H       -3.0690     0.4880     0.1000 H     1 <1>   0.1500 
 20 H       -0.9130    -3.7510     1.4110 H     1 <1>   0.1500 
 21 H        1.8960    -0.4380     0.1580 H     1 <1>   0.0800 
 22 H        1.0870    -1.4790    -1.0170 H     1 <1>   0.0800 
 23 H       -3.3840    -3.6030     1.2520 H     1 <1>   0.1500 
 24 H        2.5250    -3.3620    -0.3410 H     1 <1>   0.0800 
 25 H        3.2880    -2.3650     0.8760 H     1 <1>   0.0800 
 26 H        4.1840    -0.8840    -0.9140 H     1 <1>   0.0800 
 27 H        3.4080    -1.8720    -2.1160 H     1 <1>   0.0800 
 28 H        5.8680    -2.0450     0.5720 H     1 <1>   0.3700 
 29 H        7.5290    -3.8060    -1.1170 H     1 <1>   0.0800 
 30 H        7.0530    -4.3590     0.4750 H     1 <1>   0.0800 
 31 H        8.5380    -1.7700    -0.1380 H     1 <1>   0.1500 
 32 H        9.6390    -2.1810     2.0880 H     1 <1>   0.1500 
 33 H        8.6600    -3.6530     2.3210 H     1 <1>   0.1500 
@<TRIPOS>BOND
  1   1   2  1   
  2   2   3  ar  
  3   2   4  ar  
  4   3   5  1   
  5   3   6  ar  
  6   4   7  ar  
  7   4  19  1   
  8   5   8  1   
  9   6   9  ar  
 10   6  20  1   
 11   7   9  ar  
 12   7  10  1   
 13   8  11  1   
 14   8  21  1   
 15   8  22  1   
 16   9  23  1   
 17  11  12  1   
 18  11  24  1   
 19  11  25  1   
 20  12  13  1   
 21  12  26  1   
 22  12  27  1   
 23  13  14  2   
 24  13  15  am  
 25  15  16  1   
 26  15  28  1   
 27  16  17  1   
 28  16  29  1   
 29  16  30  1   
 30  17  18  2   
 31  17  31  1   
 32  18  32  1   
 33  18  33  1   
@<TRIPOS>SUBSTRUCTURE
  1 ****   8 GROUP 4 **** **** 0

# MOE 2024.06 (io_trps.svl 2023.06)
