@<TRIPOS>MOLECULE
NONAME
51 53 1 0 0 
SMALL
USER_CHARGES


@<TRIPOS>ATOM
  1 O        0.3680    -0.5680     0.8130 O.2   1 <1>  -0.5700 
  2 C        0.7400    -1.5810     0.2720 C.2   1 <1>   0.5690 
  3 N        1.9400    -1.6880    -0.3770 N.am  1 <1>  -0.5470 
  4 C       -0.1560    -2.8210     0.3150 C.3   1 <1>  -0.0190 
  5 C        2.9420    -0.7330    -0.6110 C.ar  1 <1>   0.1170 
  6 C       -1.5210    -2.5530    -0.3470 C.3   1 <1>  -0.1600 
  7 C       -0.3450    -3.3250     1.7590 C.3   1 <1>  -0.1600 
  8 C        4.2430    -1.1680    -0.8230 C.ar  1 <1>  -0.1500 
  9 C        2.6860     0.6340    -0.6600 C.ar  1 <1>  -0.1500 
 10 C       -2.4260    -3.7920    -0.2980 C.3   1 <1>  -0.1600 
 11 C       -1.2490    -4.5650     1.8100 C.3   1 <1>  -0.1600 
 12 C        5.2690    -0.2730    -1.0710 C.ar  1 <1>   0.0830 
 13 C        3.7030     1.5380    -0.9110 C.ar  1 <1>  -0.1500 
 14 C       -2.6030    -4.2900     1.1430 C.3   1 <1>  -0.1600 
 15 O        6.5040    -0.8020    -1.2520 O.3   1 <1>  -0.3630 
 16 C        4.9960     1.0910    -1.1180 C.ar  1 <1>  -0.1500 
 17 C        7.6440     0.0310    -1.4170 C.3   1 <1>   0.1810 
 18 C        8.9300    -0.7880    -1.4930 C.2   1 <1>   0.5690 
 19 O        9.6250    -0.6270    -2.4700 O.2   1 <1>  -0.5700 
 20 N        9.3030    -1.6470    -0.4850 N.am  1 <1>  -0.6600 
 21 C        8.5340    -1.8890     0.7750 C.3   1 <1>   0.1400 
 22 C       10.5240    -2.5000    -0.5980 C.3   1 <1>   0.1400 
 23 C        9.4710    -1.8900     1.9960 C.3   1 <1>   0.1200 
 24 C       11.3430    -2.4580     0.7020 C.3   1 <1>   0.1200 
 25 O       10.5390    -2.7730     1.8050 O.3   1 <1>  -0.5600 
 26 H        2.1630    -2.6210    -0.7140 H     1 <1>   0.3700 
 27 H        0.3270    -3.6030    -0.2430 H     1 <1>   0.0800 
 28 H       -1.3750    -2.2540    -1.3710 H     1 <1>   0.0800 
 29 H       -2.0090    -1.7390     0.1640 H     1 <1>   0.0800 
 30 H       -0.7860    -2.5400     2.3520 H     1 <1>   0.0800 
 31 H        0.6130    -3.5600     2.1900 H     1 <1>   0.0800 
 32 H        4.4720    -2.2160    -0.7940 H     1 <1>   0.1500 
 33 H        1.6870     0.9990    -0.5060 H     1 <1>   0.1500 
 34 H       -1.9940    -4.5760    -0.8960 H     1 <1>   0.0800 
 35 H       -3.3880    -3.5510    -0.7150 H     1 <1>   0.0800 
 36 H       -1.4070    -4.8520     2.8360 H     1 <1>   0.0800 
 37 H       -0.7640    -5.3850     1.3090 H     1 <1>   0.0800 
 38 H        3.4830     2.5910    -0.9450 H     1 <1>   0.1500 
 39 H       -3.1950    -5.1890     1.1440 H     1 <1>   0.0800 
 40 H       -3.1350    -3.5460     1.7120 H     1 <1>   0.0800 
 41 H        5.7630     1.8160    -1.3150 H     1 <1>   0.1500 
 42 H        7.7010     0.7050    -0.5840 H     1 <1>   0.0800 
 43 H        7.5210     0.5860    -2.3290 H     1 <1>   0.0800 
 44 H        8.0420    -2.8440     0.7080 H     1 <1>   0.0800 
 45 H        7.7800    -1.1380     0.9190 H     1 <1>   0.0800 
 46 H       11.1430    -2.1710    -1.4140 H     1 <1>   0.0800 
 47 H       10.2270    -3.5150    -0.7970 H     1 <1>   0.0800 
 48 H        8.9360    -2.2090     2.8730 H     1 <1>   0.0800 
 49 H        9.8660    -0.9050     2.1710 H     1 <1>   0.0800 
 50 H       11.7680    -1.4810     0.8500 H     1 <1>   0.0800 
 51 H       12.1400    -3.1790     0.6610 H     1 <1>   0.0800 
@<TRIPOS>BOND
  1   1   2  2   
  2   2   3  am  
  3   2   4  1   
  4   3   5  1   
  5   3  26  1   
  6   4   6  1   
  7   4   7  1   
  8   4  27  1   
  9   5   8  ar  
 10   5   9  ar  
 11   6  10  1   
 12   6  28  1   
 13   6  29  1   
 14   7  11  1   
 15   7  30  1   
 16   7  31  1   
 17   8  12  ar  
 18   8  32  1   
 19   9  13  ar  
 20   9  33  1   
 21  10  14  1   
 22  10  34  1   
 23  10  35  1   
 24  11  14  1   
 25  11  36  1   
 26  11  37  1   
 27  12  15  1   
 28  12  16  ar  
 29  13  16  ar  
 30  13  38  1   
 31  14  39  1   
 32  14  40  1   
 33  15  17  1   
 34  16  41  1   
 35  17  18  1   
 36  17  42  1   
 37  17  43  1   
 38  18  19  2   
 39  18  20  am  
 40  20  21  1   
 41  20  22  1   
 42  21  23  1   
 43  21  44  1   
 44  21  45  1   
 45  22  24  1   
 46  22  46  1   
 47  22  47  1   
 48  23  25  1   
 49  23  48  1   
 50  23  49  1   
 51  24  25  1   
 52  24  50  1   
 53  24  51  1   
@<TRIPOS>SUBSTRUCTURE
  1 ****   8 GROUP 4 **** **** 0

# MOE 2024.06 (io_trps.svl 2023.06)
