@<TRIPOS>MOLECULE
NONAME
52 54 1 0 0 
SMALL
USER_CHARGES


@<TRIPOS>ATOM
  1 F        0.8950    -0.1590     1.7610 F     1 <1>  -0.1900 
  2 C        1.7750    -0.1520     0.7900 C.ar  1 <1>   0.1900 
  3 C        1.7920    -1.2060    -0.1330 C.ar  1 <1>   0.1170 
  4 C        2.6700     0.9040     0.7490 C.ar  1 <1>  -0.1500 
  5 N        0.8780    -2.2710    -0.0980 N.am  1 <1>  -0.5470 
  6 C        2.7740    -1.1780    -1.1170 C.ar  1 <1>  -0.1500 
  7 C        3.6380     0.9210    -0.2430 C.ar  1 <1>  -0.1500 
  8 C       -0.4790    -2.1730    -0.1750 C.2   1 <1>   0.6900 
  9 C        3.6680    -0.1230    -1.1510 C.ar  1 <1>   0.1900 
 10 O       -1.0070    -1.1300    -0.5040 O.2   1 <1>  -0.5700 
 11 N       -1.2090    -3.2890     0.1170 N.am  1 <1>  -0.5470 
 12 F        4.5830    -0.1130    -2.0830 F     1 <1>  -0.1900 
 13 C       -2.5880    -3.4840    -0.0160 C.ar  1 <1>   0.1170 
 14 C       -3.2740    -4.2300     0.9350 C.ar  1 <1>  -0.1500 
 15 C       -3.3020    -2.9470    -1.0800 C.ar  1 <1>  -0.1500 
 16 C       -4.6440    -4.4020     0.8470 C.ar  1 <1>  -0.1500 
 17 C       -4.6690    -3.1200    -1.1720 C.ar  1 <1>  -0.1500 
 18 C       -5.3540    -3.8330    -0.1990 C.ar  1 <1>  -0.1430 
 19 C       -6.8690    -3.9360    -0.2700 C.3   1 <1>   0.2530 
 20 N       -7.4460    -2.5770    -0.2280 N.3   1 <1>  -0.8100 
 21 C       -8.9050    -2.5510    -0.4620 C.3   1 <1>   0.1100 
 22 C       -7.0980    -1.8450     1.0200 C.3   1 <1>   0.1100 
 23 C       -9.4460    -1.0980    -0.5190 C.3   1 <1>   0.3430 
 24 C       -7.6590    -0.4040     1.0300 C.3   1 <1>   0.3430 
 25 N       -8.3550    -0.0960    -0.2640 N.4   1 <1>  -0.9590 
 26 C       -8.7980     1.3100    -0.4200 C.3   1 <1>   0.3430 
 27 C       -7.5820     2.2200    -0.5490 C.3   1 <1>  -0.2400 
 28 H        2.6080     1.6900     1.4800 H     1 <1>   0.1500 
 29 H        1.2520    -3.2030    -0.2530 H     1 <1>   0.3700 
 30 H        2.8380    -1.9560    -1.8530 H     1 <1>   0.1500 
 31 H        4.3540     1.7210    -0.3130 H     1 <1>   0.1500 
 32 H       -0.7300    -3.9630     0.7050 H     1 <1>   0.3700 
 33 H       -2.7370    -4.6670     1.7560 H     1 <1>   0.1500 
 34 H       -2.7860    -2.3820    -1.8360 H     1 <1>   0.1500 
 35 H       -5.1540    -4.9720     1.6050 H     1 <1>   0.1500 
 36 H       -5.2060    -2.6840    -1.9960 H     1 <1>   0.1500 
 37 H       -7.2470    -4.5260     0.5480 H     1 <1>   0.0800 
 38 H       -7.1420    -4.4180    -1.1930 H     1 <1>   0.0800 
 39 H       -9.4120    -3.0910     0.3200 H     1 <1>   0.0800 
 40 H       -9.1280    -3.0410    -1.3950 H     1 <1>   0.0800 
 41 H       -6.0270    -1.7810     1.1200 H     1 <1>   0.0800 
 42 H       -7.4680    -2.3800     1.8780 H     1 <1>   0.0800 
 43 H      -10.2300    -0.9840     0.2100 H     1 <1>   0.0800 
 44 H       -9.8760    -0.9280    -1.4920 H     1 <1>   0.0800 
 45 H       -6.8410     0.2800     1.1840 H     1 <1>   0.0800 
 46 H       -8.3430    -0.2920     1.8540 H     1 <1>   0.0800 
 47 H       -7.6410    -0.3230    -0.9760 H     1 <1>   0.4500 
 48 H       -9.3980     1.6080     0.4240 H     1 <1>   0.0800 
 49 H       -9.3970     1.4020    -1.3120 H     1 <1>   0.0800 
 50 H       -7.0070     2.2410     0.3580 H     1 <1>   0.0800 
 51 H       -7.9130     3.2230    -0.7490 H     1 <1>   0.0800 
 52 H       -6.9570     1.9080    -1.3670 H     1 <1>   0.0800 
@<TRIPOS>BOND
  1   1   2  1   
  2   2   3  ar  
  3   2   4  ar  
  4   3   5  1   
  5   3   6  ar  
  6   4   7  ar  
  7   4  28  1   
  8   5   8  am  
  9   5  29  1   
 10   6   9  ar  
 11   6  30  1   
 12   7   9  ar  
 13   7  31  1   
 14   8  10  2   
 15   8  11  am  
 16   9  12  1   
 17  11  13  1   
 18  11  32  1   
 19  13  14  ar  
 20  13  15  ar  
 21  14  16  ar  
 22  14  33  1   
 23  15  17  ar  
 24  15  34  1   
 25  16  18  ar  
 26  16  35  1   
 27  17  18  ar  
 28  17  36  1   
 29  18  19  1   
 30  19  20  1   
 31  19  37  1   
 32  19  38  1   
 33  20  21  1   
 34  20  22  1   
 35  21  23  1   
 36  21  39  1   
 37  21  40  1   
 38  22  24  1   
 39  22  41  1   
 40  22  42  1   
 41  23  25  1   
 42  23  43  1   
 43  23  44  1   
 44  24  25  1   
 45  24  45  1   
 46  24  46  1   
 47  25  26  1   
 48  25  47  1   
 49  26  27  1   
 50  26  48  1   
 51  26  49  1   
 52  27  50  1   
 53  27  51  1   
 54  27  52  1   
@<TRIPOS>SUBSTRUCTURE
  1 ****  15 GROUP 4 **** **** 0

# MOE 2024.06 (io_trps.svl 2023.06)
