@<TRIPOS>MOLECULE
NONAME
39 40 1 0 0 
SMALL
USER_CHARGES


@<TRIPOS>ATOM
  1 O       -0.0080     0.3550    -0.4210 O.2   1 <1>  -0.5700 
  2 C       -0.1330     1.5310    -0.1370 C.2   1 <1>   0.5440 
  3 N        0.9680     2.2230     0.2860 N.am  1 <1>  -0.7300 
  4 C       -1.4250     2.1840    -0.2280 C.ar  1 <1>   0.0860 
  5 C        2.3410     1.6770     0.3890 C.3   1 <1>   0.1400 
  6 C       -2.6090     1.4660    -0.0540 C.ar  1 <1>  -0.1500 
  7 C       -1.5500     3.5490    -0.4950 C.ar  1 <1>  -0.1500 
  8 C        3.3670     2.6930    -0.1390 C.3   1 <1>  -0.0800 
  9 C       -3.8470     2.0760    -0.1240 C.ar  1 <1>  -0.1500 
 10 C       -2.7870     4.1620    -0.5650 C.ar  1 <1>  -0.1500 
 11 C        4.7730     2.0800    -0.1050 C.3   1 <1>  -0.2400 
 12 C        3.3600     4.0030     0.6650 C.3   1 <1>  -0.2400 
 13 C       -3.9600     3.4400    -0.3760 C.ar  1 <1>   0.1170 
 14 N       -5.1840     4.1120    -0.4620 N.am  1 <1>  -0.5470 
 15 C       -6.4440     3.7680    -0.0590 C.2   1 <1>   0.6300 
 16 O       -6.7240     2.7360     0.4950 O.2   1 <1>  -0.5700 
 17 C       -7.5500     4.7750    -0.3370 C.3   1 <1>  -0.1000 
 18 C       -7.3820     6.2380    -0.0340 C.3   1 <1>  -0.2000 
 19 C       -8.3110     5.4050     0.7930 C.3   1 <1>  -0.2000 
 20 H        0.8510     3.1630     0.6610 H     1 <1>   0.3700 
 21 H        2.4090     0.7660    -0.1830 H     1 <1>   0.0800 
 22 H        2.5490     1.4400     1.4180 H     1 <1>   0.0800 
 23 H       -2.5490     0.4080     0.1400 H     1 <1>   0.1500 
 24 H       -0.6650     4.1370    -0.6570 H     1 <1>   0.1500 
 25 H        3.1250     2.9090    -1.1660 H     1 <1>   0.0800 
 26 H       -4.7290     1.4770     0.0150 H     1 <1>   0.1500 
 27 H       -2.8410     5.2160    -0.7690 H     1 <1>   0.1500 
 28 H        5.0610     1.8440     0.9050 H     1 <1>   0.0800 
 29 H        5.4910     2.7680    -0.5150 H     1 <1>   0.0800 
 30 H        4.8010     1.1780    -0.6900 H     1 <1>   0.0800 
 31 H        3.5510     3.8100     1.7060 H     1 <1>   0.0800 
 32 H        2.4140     4.5050     0.5740 H     1 <1>   0.0800 
 33 H        4.1210     4.6680     0.2960 H     1 <1>   0.0800 
 34 H       -5.1340     5.0440    -0.8670 H     1 <1>   0.3700 
 35 H       -8.1210     4.4970    -1.2040 H     1 <1>   0.1000 
 36 H       -7.8080     6.9610    -0.7080 H     1 <1>   0.1000 
 37 H       -6.4860     6.5960     0.4430 H     1 <1>   0.1000 
 38 H       -8.0310     5.1440     1.8000 H     1 <1>   0.1000 
 39 H       -9.3730     5.5360     0.6830 H     1 <1>   0.1000 
@<TRIPOS>BOND
  1   1   2  2   
  2   2   3  am  
  3   2   4  1   
  4   3   5  1   
  5   3  20  1   
  6   4   6  ar  
  7   4   7  ar  
  8   5   8  1   
  9   5  21  1   
 10   5  22  1   
 11   6   9  ar  
 12   6  23  1   
 13   7  10  ar  
 14   7  24  1   
 15   8  11  1   
 16   8  12  1   
 17   8  25  1   
 18   9  13  ar  
 19   9  26  1   
 20  10  13  ar  
 21  10  27  1   
 22  11  28  1   
 23  11  29  1   
 24  11  30  1   
 25  12  31  1   
 26  12  32  1   
 27  12  33  1   
 28  13  14  1   
 29  14  15  am  
 30  14  34  1   
 31  15  16  2   
 32  15  17  1   
 33  17  18  1   
 34  17  19  1   
 35  17  35  1   
 36  18  19  1   
 37  18  36  1   
 38  18  37  1   
 39  19  38  1   
 40  19  39  1   
@<TRIPOS>SUBSTRUCTURE
  1 ****   7 GROUP 4 **** **** 0

# MOE 2024.06 (io_trps.svl 2023.06)
