@<TRIPOS>MOLECULE
NONAME
52 54 1 0 0 
SMALL
USER_CHARGES


@<TRIPOS>ATOM
  1 S       -0.5090     0.5000    -2.4470 S.3   1 <1>  -0.0800 
  2 C        0.4860    -0.5060    -1.4040 C.2   1 <1>   0.1040 
  3 C       -1.9030     0.3340    -1.3940 C.2   1 <1>  -0.1400 
  4 N        1.8030    -0.7730    -1.7420 N.am  1 <1>  -0.4940 
  5 C       -0.2330    -0.9270    -0.3200 C.2   1 <1>  -0.0860 
  6 C       -1.5890    -0.4370    -0.3390 C.2   1 <1>  -0.1500 
  7 C       -3.1640     1.0560    -1.8350 C.3   1 <1>   0.0200 
  8 C        2.6410    -0.3290    -2.7310 C.2   1 <1>   0.5690 
  9 C        0.2790    -1.7580     0.7320 C.2   1 <1>   0.8060 
 10 C       -4.3210     0.8510    -0.8530 C.3   1 <1>  -0.2400 
 11 O        2.3470     0.4910    -3.5660 O.2   1 <1>  -0.5700 
 12 C        4.0460    -0.9330    -2.7470 C.3   1 <1>   0.1710 
 13 O        1.4310    -2.1510     0.7740 O.2   1 <1>  -0.5700 
 14 O       -0.5540    -2.1130     1.7170 O.3   1 <1>  -0.4300 
 15 N        4.4340    -1.5900    -1.4630 N.3   1 <1>  -0.8100 
 16 C       -0.1250    -2.9310     2.7840 C.3   1 <1>   0.1200 
 17 C        5.5490    -2.5280    -1.6710 C.3   1 <1>   0.1100 
 18 C        4.7740    -0.5880    -0.4350 C.3   1 <1>   0.1100 
 19 C       -1.3100    -3.1450     3.7200 C.3   1 <1>  -0.2400 
 20 C        5.8160    -3.3010    -0.3800 C.3   1 <1>  -0.1600 
 21 C        5.0090    -1.2850     0.9050 C.3   1 <1>  -0.1600 
 22 C        6.1060    -2.3410     0.7650 C.3   1 <1>   0.5600 
 23 O        6.2530    -3.0600     1.9420 O.3   1 <1>  -0.5600 
 24 O        7.3400    -1.7320     0.5510 O.3   1 <1>  -0.5600 
 25 C        7.1980    -2.4370     2.7310 C.3   1 <1>   0.1200 
 26 C        7.9880    -1.5790     1.7620 C.3   1 <1>   0.1200 
 27 H        2.3050    -1.4140    -1.1080 H     1 <1>   0.3700 
 28 H       -2.2710    -0.6930     0.4540 H     1 <1>   0.1500 
 29 H       -3.4510     0.6930    -2.8070 H     1 <1>   0.0800 
 30 H       -2.9510     2.1070    -1.9230 H     1 <1>   0.0800 
 31 H       -4.5590    -0.1950    -0.7710 H     1 <1>   0.0800 
 32 H       -5.1940     1.3760    -1.1990 H     1 <1>   0.0800 
 33 H       -4.0560     1.2270     0.1180 H     1 <1>   0.0800 
 34 H        4.7560    -0.1650    -2.9980 H     1 <1>   0.0800 
 35 H        4.0570    -1.6620    -3.5370 H     1 <1>   0.0800 
 36 H        0.6850    -2.4340     3.2930 H     1 <1>   0.0800 
 37 H        0.2220    -3.8680     2.3800 H     1 <1>   0.0800 
 38 H        6.4350    -1.9900    -1.9680 H     1 <1>   0.0800 
 39 H        5.2960    -3.2280    -2.4490 H     1 <1>   0.0800 
 40 H        3.9700     0.1190    -0.3230 H     1 <1>   0.0800 
 41 H        5.6610    -0.0490    -0.7260 H     1 <1>   0.0800 
 42 H       -1.6520    -2.2030     4.1080 H     1 <1>   0.0800 
 43 H       -1.0110    -3.7670     4.5450 H     1 <1>   0.0800 
 44 H       -2.1120    -3.6330     3.1970 H     1 <1>   0.0800 
 45 H        6.6500    -3.9640    -0.5110 H     1 <1>   0.0800 
 46 H        4.9460    -3.8840    -0.1410 H     1 <1>   0.0800 
 47 H        4.0970    -1.7650     1.2070 H     1 <1>   0.0800 
 48 H        5.2770    -0.5620     1.6500 H     1 <1>   0.0800 
 49 H        7.8090    -3.1840     3.2070 H     1 <1>   0.0800 
 50 H        6.6960    -1.8380     3.4710 H     1 <1>   0.0800 
 51 H        7.9710    -0.5410     2.0440 H     1 <1>   0.0800 
 52 H        9.0030    -1.9210     1.6580 H     1 <1>   0.0800 
@<TRIPOS>BOND
  1   1   2  1   
  2   1   3  1   
  3   2   4  1   
  4   2   5  2   
  5   3   6  2   
  6   3   7  1   
  7   4   8  am  
  8   4  27  1   
  9   5   6  1   
 10   5   9  1   
 11   6  28  1   
 12   7  10  1   
 13   7  29  1   
 14   7  30  1   
 15   8  11  2   
 16   8  12  1   
 17   9  13  2   
 18   9  14  1   
 19  10  31  1   
 20  10  32  1   
 21  10  33  1   
 22  12  15  1   
 23  12  34  1   
 24  12  35  1   
 25  14  16  1   
 26  15  17  1   
 27  15  18  1   
 28  16  19  1   
 29  16  36  1   
 30  16  37  1   
 31  17  20  1   
 32  17  38  1   
 33  17  39  1   
 34  18  21  1   
 35  18  40  1   
 36  18  41  1   
 37  19  42  1   
 38  19  43  1   
 39  19  44  1   
 40  20  22  1   
 41  20  45  1   
 42  20  46  1   
 43  21  22  1   
 44  21  47  1   
 45  21  48  1   
 46  22  23  1   
 47  22  24  1   
 48  23  25  1   
 49  24  26  1   
 50  25  26  1   
 51  25  49  1   
 52  25  50  1   
 53  26  51  1   
 54  26  52  1   
@<TRIPOS>SUBSTRUCTURE
  1 ****  13 GROUP 4 **** **** 0

# MOE 2024.06 (io_trps.svl 2023.06)
