@<TRIPOS>MOLECULE
NONAME
33 34 1 0 0 
SMALL
USER_CHARGES


@<TRIPOS>ATOM
  1 S        0.0530    -0.6950    -1.6090 S.3   1 <1>  -0.0800 
  2 C       -0.9330    -0.9700    -0.1880 C.2   1 <1>   0.3020 
  3 C        1.5070    -0.6530    -0.6330 C.2   1 <1>  -0.0450 
  4 N       -0.2290    -1.0220     0.8920 N.2   1 <1>  -0.5650 
  5 N       -2.3430    -1.1010    -0.3710 N.pl3 1 <1>   0.6460 
  6 C        1.1120    -0.8490     0.6510 C.2   1 <1>   0.0460 
  7 C        2.7590    -0.4380    -1.3080 C.2   1 <1>   0.8050 
  8 N       -2.9550    -1.0220    -1.5940 N.2   1 <1>  -0.7070 
  9 C       -3.3060    -1.3180     0.5840 C.2   1 <1>  -0.3320 
 10 C        1.9790    -0.9030     1.8960 C.3   1 <1>  -0.0590 
 11 O        2.8600    -0.2850    -2.5090 O.2   1 <1>  -0.5700 
 12 O        3.8730    -0.4040    -0.5710 O.3   1 <1>  -0.4300 
 13 C       -4.2170    -1.1840    -1.3810 C.2   1 <1>   0.1080 
 14 C       -4.5020    -1.3740    -0.0360 C.2   1 <1>  -0.1500 
 15 C       -3.0420    -1.4670     2.0760 C.3   1 <1>  -0.0600 
 16 C        5.1410    -0.1980    -1.1520 C.3   1 <1>   0.1200 
 17 C       -5.2380    -1.1620    -2.4950 C.3   1 <1>  -0.0590 
 18 C        6.1800    -0.2160    -0.0350 C.3   1 <1>  -0.2400 
 19 H        3.0200    -0.7650     1.6800 H     1 <1>   0.0800 
 20 H        1.8550    -1.8570     2.3760 H     1 <1>   0.0800 
 21 H        1.6700    -0.1340     2.5810 H     1 <1>   0.0800 
 22 H       -5.4790    -1.5300     0.3860 H     1 <1>   0.1500 
 23 H       -2.3910    -2.3040     2.2570 H     1 <1>   0.0800 
 24 H       -3.9640    -1.6290     2.6050 H     1 <1>   0.0800 
 25 H       -2.5780    -0.5760     2.4620 H     1 <1>   0.0800 
 26 H        5.1360     0.7530    -1.6580 H     1 <1>   0.0800 
 27 H        5.3250    -0.9850    -1.8630 H     1 <1>   0.0800 
 28 H       -6.2260    -1.3160    -2.1030 H     1 <1>   0.0800 
 29 H       -5.0130    -1.9390    -3.2020 H     1 <1>   0.0800 
 30 H       -5.2000    -0.2130    -2.9960 H     1 <1>   0.0800 
 31 H        5.9810     0.5690     0.6720 H     1 <1>   0.0800 
 32 H        7.1590    -0.0610    -0.4500 H     1 <1>   0.0800 
 33 H        6.1690    -1.1670     0.4680 H     1 <1>   0.0800 
@<TRIPOS>BOND
  1   1   2  1   
  2   1   3  1   
  3   2   4  2   
  4   2   5  1   
  5   3   6  2   
  6   3   7  1   
  7   4   6  1   
  8   5   8  1   
  9   5   9  1   
 10   6  10  1   
 11   7  11  2   
 12   7  12  1   
 13   8  13  2   
 14   9  14  2   
 15   9  15  1   
 16  10  19  1   
 17  10  20  1   
 18  10  21  1   
 19  12  16  1   
 20  13  14  1   
 21  13  17  1   
 22  14  22  1   
 23  15  23  1   
 24  15  24  1   
 25  15  25  1   
 26  16  18  1   
 27  16  26  1   
 28  16  27  1   
 29  17  28  1   
 30  17  29  1   
 31  17  30  1   
 32  18  31  1   
 33  18  32  1   
 34  18  33  1   
@<TRIPOS>SUBSTRUCTURE
  1 ****   2 GROUP 4 **** **** 0

# MOE 2024.06 (io_trps.svl 2023.06)
