@<TRIPOS>MOLECULE
NONAME
48 48 1 0 0 
SMALL
USER_CHARGES


@<TRIPOS>ATOM
  1 S       -5.8460    -2.4400    -1.3180 S.o2  1 <1>   1.4470 
  2 O       -6.1770    -1.3390    -2.1990 O.2   1 <1>  -0.6500 
  3 O       -6.2590    -3.7740    -1.6970 O.2   1 <1>  -0.6500 
  4 N       -6.4960    -2.0900     0.2190 N.am  1 <1>  -0.8490 
  5 C       -4.0480    -2.4940    -1.0430 C.ar  1 <1>  -0.0090 
  6 C       -6.5290    -0.6500     0.5310 C.3   1 <1>   0.1960 
  7 C       -7.8210    -2.6980     0.4110 C.3   1 <1>   0.1960 
  8 C       -3.1610    -1.8760    -1.9160 C.ar  1 <1>  -0.1500 
  9 C       -3.5070    -3.1660     0.0450 C.ar  1 <1>  -0.1500 
 10 C       -5.1290    -0.0970     0.7870 C.3   1 <1>  -0.2400 
 11 C       -8.1350    -2.8630     1.8990 C.3   1 <1>  -0.2400 
 12 C       -1.7940    -1.9190    -1.7060 C.ar  1 <1>  -0.1500 
 13 C       -2.1410    -3.2110     0.2580 C.ar  1 <1>  -0.1500 
 14 C       -1.2460    -2.5910    -0.6130 C.ar  1 <1>   0.0860 
 15 C        0.1880    -2.6490    -0.3760 C.2   1 <1>   0.5440 
 16 O        0.6330    -2.7750     0.7470 O.2   1 <1>  -0.5700 
 17 N        1.0840    -2.5700    -1.4090 N.am  1 <1>  -0.7300 
 18 C        2.5600    -2.7360    -1.2830 C.3   1 <1>   0.1400 
 19 C        3.1730    -1.6970    -0.3160 C.3   1 <1>   0.3430 
 20 N        4.1040    -2.2990     0.7010 N.4   1 <1>  -0.9590 
 21 C        3.3420    -3.1350     1.6880 C.3   1 <1>   0.2630 
 22 C        4.8420    -1.2210     1.4250 C.3   1 <1>   0.2630 
 23 H       -7.0970    -0.4820     1.4280 H     1 <1>   0.0800 
 24 H       -7.0130    -0.0990    -0.2600 H     1 <1>   0.0800 
 25 H       -7.8440    -3.6870    -0.0130 H     1 <1>   0.0800 
 26 H       -8.5800    -2.1120    -0.0830 H     1 <1>   0.0800 
 27 H       -3.5530    -1.3490    -2.7710 H     1 <1>   0.1500 
 28 H       -4.1710    -3.6590     0.7370 H     1 <1>   0.1500 
 29 H       -4.6000    -0.7210     1.4840 H     1 <1>   0.0800 
 30 H       -5.2120     0.8880     1.2100 H     1 <1>   0.0800 
 31 H       -4.5740    -0.0080    -0.1270 H     1 <1>   0.0800 
 32 H       -7.3210    -3.3620     2.3930 H     1 <1>   0.0800 
 33 H       -9.0170    -3.4670     2.0070 H     1 <1>   0.0800 
 34 H       -8.3250    -1.9210     2.3760 H     1 <1>   0.0800 
 35 H       -1.1500    -1.4120    -2.4020 H     1 <1>   0.1500 
 36 H       -1.7580    -3.7370     1.1160 H     1 <1>   0.1500 
 37 H        0.7120    -2.6390    -2.3610 H     1 <1>   0.3700 
 38 H        3.0070    -2.6160    -2.2550 H     1 <1>   0.0800 
 39 H        2.7600    -3.7370    -0.9430 H     1 <1>   0.0800 
 40 H        2.3720    -1.1920     0.1990 H     1 <1>   0.0800 
 41 H        3.7040    -0.9640    -0.8990 H     1 <1>   0.0800 
 42 H        4.7860    -2.9010     0.2180 H     1 <1>   0.4500 
 43 H        2.6110    -2.5310     2.2030 H     1 <1>   0.0800 
 44 H        4.0100    -3.5670     2.4160 H     1 <1>   0.0800 
 45 H        2.8180    -3.9310     1.1860 H     1 <1>   0.0800 
 46 H        4.1500    -0.5790     1.9450 H     1 <1>   0.0800 
 47 H        5.4120    -0.6250     0.7300 H     1 <1>   0.0800 
 48 H        5.5200    -1.6500     2.1450 H     1 <1>   0.0800 
@<TRIPOS>BOND
  1   1   2  2   
  2   1   3  2   
  3   1   4  am  
  4   1   5  1   
  5   4   6  1   
  6   4   7  1   
  7   5   8  ar  
  8   5   9  ar  
  9   6  10  1   
 10   6  23  1   
 11   6  24  1   
 12   7  11  1   
 13   7  25  1   
 14   7  26  1   
 15   8  12  ar  
 16   8  27  1   
 17   9  13  ar  
 18   9  28  1   
 19  10  29  1   
 20  10  30  1   
 21  10  31  1   
 22  11  32  1   
 23  11  33  1   
 24  11  34  1   
 25  12  14  ar  
 26  12  35  1   
 27  13  14  ar  
 28  13  36  1   
 29  14  15  1   
 30  15  16  2   
 31  15  17  am  
 32  17  18  1   
 33  17  37  1   
 34  18  19  1   
 35  18  38  1   
 36  18  39  1   
 37  19  20  1   
 38  19  40  1   
 39  19  41  1   
 40  20  21  1   
 41  20  22  1   
 42  20  42  1   
 43  21  43  1   
 44  21  44  1   
 45  21  45  1   
 46  22  46  1   
 47  22  47  1   
 48  22  48  1   
@<TRIPOS>SUBSTRUCTURE
  1 ****  13 GROUP 4 **** **** 0

# MOE 2024.06 (io_trps.svl 2023.06)
