@<TRIPOS>MOLECULE
NONAME
43 44 1 0 0 
SMALL
USER_CHARGES


@<TRIPOS>ATOM
  1 S       -0.0880    -0.0590     0.0750 S.o2  1 <1>   1.4470 
  2 O        0.6480    -0.5380    -1.0740 O.2   1 <1>  -0.6500 
  3 O        0.1860    -0.6240     1.3800 O.2   1 <1>  -0.6500 
  4 N        0.2020     1.6130     0.1960 N.am  1 <1>  -0.8490 
  5 C       -1.8690    -0.1540    -0.2760 C.ar  1 <1>  -0.0090 
  6 C        1.6280     1.9300     0.0800 C.3   1 <1>   0.1160 
  7 C       -0.3440     2.2030     1.4220 C.3   1 <1>   0.1160 
  8 C       -2.4440     0.6050    -1.2870 C.ar  1 <1>  -0.1500 
  9 C       -2.7060    -0.9960     0.4460 C.ar  1 <1>  -0.1500 
 10 C       -3.7990     0.5340    -1.5570 C.ar  1 <1>  -0.1500 
 11 C       -4.0620    -1.0690     0.1760 C.ar  1 <1>  -0.1500 
 12 C       -4.6480    -0.2990    -0.8290 C.ar  1 <1>   0.0860 
 13 C       -6.0730    -0.3540    -1.1190 C.2   1 <1>   0.5440 
 14 O       -6.4880    -0.0740    -2.2260 O.2   1 <1>  -0.5700 
 15 N       -6.9700    -0.7040    -0.1490 N.am  1 <1>  -0.7300 
 16 C       -8.4300    -0.8030    -0.3250 C.3   1 <1>   0.2200 
 17 C       -9.1030     0.2980     0.5010 C.3   1 <1>  -0.1600 
 18 C       -8.8890    -2.1940     0.1230 C.3   1 <1>  -0.1600 
 19 C      -10.6330     0.1770     0.4430 C.3   1 <1>  -0.1600 
 20 C      -10.4180    -2.3200     0.0640 C.3   1 <1>  -0.1600 
 21 C      -11.0980    -1.2170     0.8870 C.3   1 <1>  -0.1600 
 22 H        2.0060     1.5860    -0.8690 H     1 <1>   0.0800 
 23 H        2.1850     1.4510     0.8680 H     1 <1>   0.0800 
 24 H        1.7790     2.9950     0.1350 H     1 <1>   0.0800 
 25 H       -1.4010     2.0060     1.4890 H     1 <1>   0.0800 
 26 H       -0.2010     3.2700     1.4130 H     1 <1>   0.0800 
 27 H        0.1420     1.7910     2.2910 H     1 <1>   0.0800 
 28 H       -1.8180     1.2590    -1.8710 H     1 <1>   0.1500 
 29 H       -2.2870    -1.6060     1.2300 H     1 <1>   0.1500 
 30 H       -4.2160     1.1330    -2.3500 H     1 <1>   0.1500 
 31 H       -4.6700    -1.7450     0.7510 H     1 <1>   0.1500 
 32 H       -6.6490    -0.8330     0.8080 H     1 <1>   0.3700 
 33 H       -8.6850    -0.6680    -1.3640 H     1 <1>   0.0800 
 34 H       -8.8090     1.2580     0.1150 H     1 <1>   0.0800 
 35 H       -8.7870     0.2270     1.5260 H     1 <1>   0.0800 
 36 H       -8.5630    -2.3760     1.1320 H     1 <1>   0.0800 
 37 H       -8.4480    -2.9360    -0.5190 H     1 <1>   0.0800 
 38 H      -10.9650     0.3580    -0.5660 H     1 <1>   0.0800 
 39 H      -11.0790     0.9260     1.0750 H     1 <1>   0.0800 
 40 H      -10.7170    -3.2850     0.4360 H     1 <1>   0.0800 
 41 H      -10.7410    -2.2480    -0.9610 H     1 <1>   0.0800 
 42 H      -12.1660    -1.2920     0.7770 H     1 <1>   0.0800 
 43 H      -10.8650    -1.3550     1.9290 H     1 <1>   0.0800 
@<TRIPOS>BOND
  1   1   2  2   
  2   1   3  2   
  3   1   4  am  
  4   1   5  1   
  5   4   6  1   
  6   4   7  1   
  7   5   8  ar  
  8   5   9  ar  
  9   6  22  1   
 10   6  23  1   
 11   6  24  1   
 12   7  25  1   
 13   7  26  1   
 14   7  27  1   
 15   8  10  ar  
 16   8  28  1   
 17   9  11  ar  
 18   9  29  1   
 19  10  12  ar  
 20  10  30  1   
 21  11  12  ar  
 22  11  31  1   
 23  12  13  1   
 24  13  14  2   
 25  13  15  am  
 26  15  16  1   
 27  15  32  1   
 28  16  17  1   
 29  16  18  1   
 30  16  33  1   
 31  17  19  1   
 32  17  34  1   
 33  17  35  1   
 34  18  20  1   
 35  18  36  1   
 36  18  37  1   
 37  19  21  1   
 38  19  38  1   
 39  19  39  1   
 40  20  21  1   
 41  20  40  1   
 42  20  41  1   
 43  21  42  1   
 44  21  43  1   
@<TRIPOS>SUBSTRUCTURE
  1 ****  12 GROUP 4 **** **** 0

# MOE 2024.06 (io_trps.svl 2023.06)
