@<TRIPOS>MOLECULE
NONAME
42 43 1 0 0 
SMALL
USER_CHARGES


@<TRIPOS>ATOM
  1 O        0.4270     0.7950    -0.6320 O.2   1 <1>  -0.5700 
  2 C        1.5430     1.2520    -0.5410 C.2   1 <1>   0.6900 
  3 N        2.4370     0.7140     0.3220 N.am  1 <1>  -0.5390 
  4 N        1.9160     2.3090    -1.2770 N.am  1 <1>  -0.7300 
  5 C        3.7100     1.2020     0.5350 C.2   1 <1>  -0.0290 
  6 C        3.1810     3.0400    -1.0730 C.3   1 <1>   0.5020 
  7 C        4.1350     2.3280    -0.1060 C.2   1 <1>  -0.1240 
  8 C        4.5170     0.3600     1.5130 C.3   1 <1>  -0.1020 
  9 C        2.8180     4.4360    -0.5740 C.ar  1 <1>  -0.1440 
 10 C        5.4040     2.9840     0.0090 C.2   1 <1>   0.7060 
 11 C        3.1000     5.5550    -1.3470 C.ar  1 <1>  -0.1500 
 12 C        2.2020     4.6090     0.6580 C.ar  1 <1>  -0.1500 
 13 O        6.1540     2.8530     0.9570 O.2   1 <1>  -0.5700 
 14 O        5.7950     3.7870    -0.9910 O.3   1 <1>  -0.4300 
 15 C        2.7740     6.8230    -0.9000 C.ar  1 <1>  -0.1500 
 16 C        1.8760     5.8750     1.1070 C.ar  1 <1>  -0.1500 
 17 C        7.0110     4.5090    -0.9330 C.3   1 <1>   0.0400 
 18 C        2.1570     6.9910     0.3370 C.ar  1 <1>   0.0830 
 19 O        1.8010     8.1920     0.8600 O.3   1 <1>  -0.3630 
 20 C        1.9660     9.4160     0.1790 C.3   1 <1>   0.2000 
 21 C        1.9390    10.5200     1.2320 C.3   1 <1>  -0.2400 
 22 C        0.8220     9.5840    -0.8230 C.3   1 <1>  -0.2400 
 23 H        2.0840    -0.1020     0.8210 H     1 <1>   0.3700 
 24 H        1.1730     2.8180    -1.7500 H     1 <1>   0.3700 
 25 H        3.6590     3.1160    -2.0350 H     1 <1>   0.0800 
 26 H        4.3790    -0.6850     1.3020 H     1 <1>   0.0800 
 27 H        4.1880     0.5560     2.5180 H     1 <1>   0.0800 
 28 H        5.5690     0.5600     1.4530 H     1 <1>   0.0800 
 29 H        3.5800     5.4460    -2.3050 H     1 <1>   0.1500 
 30 H        1.9720     3.7550     1.2740 H     1 <1>   0.1500 
 31 H        3.0070     7.6630    -1.5250 H     1 <1>   0.1500 
 32 H        1.4000     6.0070     2.0620 H     1 <1>   0.1500 
 33 H        7.8270     3.8120    -0.8440 H     1 <1>   0.0800 
 34 H        6.9870     5.1620    -0.0780 H     1 <1>   0.0800 
 35 H        7.1110     5.0840    -1.8360 H     1 <1>   0.0800 
 36 H        2.9250     9.4180    -0.3080 H     1 <1>   0.0800 
 37 H        1.0010    10.5150     1.7580 H     1 <1>   0.0800 
 38 H        2.0680    11.4800     0.7650 H     1 <1>   0.0800 
 39 H        2.7400    10.3740     1.9350 H     1 <1>   0.0800 
 40 H       -0.1240     9.5710    -0.3120 H     1 <1>   0.0800 
 41 H        0.8360     8.7960    -1.5530 H     1 <1>   0.0800 
 42 H        0.9200    10.5220    -1.3370 H     1 <1>   0.0800 
@<TRIPOS>BOND
  1   1   2  2   
  2   2   3  am  
  3   2   4  am  
  4   3   5  1   
  5   3  23  1   
  6   4   6  1   
  7   4  24  1   
  8   5   7  2   
  9   5   8  1   
 10   6   7  1   
 11   6   9  1   
 12   6  25  1   
 13   7  10  1   
 14   8  26  1   
 15   8  27  1   
 16   8  28  1   
 17   9  11  ar  
 18   9  12  ar  
 19  10  13  2   
 20  10  14  1   
 21  11  15  ar  
 22  11  29  1   
 23  12  16  ar  
 24  12  30  1   
 25  14  17  1   
 26  15  18  ar  
 27  15  31  1   
 28  16  18  ar  
 29  16  32  1   
 30  17  33  1   
 31  17  34  1   
 32  17  35  1   
 33  18  19  1   
 34  19  20  1   
 35  20  21  1   
 36  20  22  1   
 37  20  36  1   
 38  21  37  1   
 39  21  38  1   
 40  21  39  1   
 41  22  40  1   
 42  22  41  1   
 43  22  42  1   
@<TRIPOS>SUBSTRUCTURE
  1 ****   9 GROUP 4 **** **** 0

# MOE 2024.06 (io_trps.svl 2023.06)
