@<TRIPOS>MOLECULE
NONAME
49 51 1 0 0 
SMALL
USER_CHARGES


@<TRIPOS>ATOM
  1 O       -0.2160    -0.1040     1.4320 O.2   1 <1>  -0.5700 
  2 C        0.5300    -1.0020     1.0870 C.2   1 <1>   0.5440 
  3 N        1.8710    -0.7600     0.9540 N.am  1 <1>  -0.5470 
  4 C        0.0080    -2.3340     0.8380 C.ar  1 <1>   0.0860 
  5 C        2.7250     0.3400     1.1310 C.ar  1 <1>   0.1170 
  6 C        0.6000    -3.2520    -0.0480 C.ar  1 <1>   0.0830 
  7 C       -1.1370    -2.7630     1.5150 C.ar  1 <1>  -0.1500 
  8 C        4.0870     0.1160     0.8750 C.ar  1 <1>   0.1000 
  9 C        2.3000     1.6010     1.5270 C.ar  1 <1>  -0.1500 
 10 O        1.6850    -2.9410    -0.7860 O.3   1 <1>  -0.3630 
 11 C        0.0900    -4.5320    -0.2020 C.ar  1 <1>  -0.1500 
 12 C       -1.6540    -4.0340     1.3500 C.ar  1 <1>  -0.1500 
 13 N        4.5220    -1.1640     0.4840 N.pl3 1 <1>  -0.8380 
 14 C        4.9850     1.1650     1.0270 C.ar  1 <1>  -0.1500 
 15 C        3.2080     2.6370     1.6700 C.ar  1 <1>  -0.1500 
 16 C        1.4650    -2.1600    -1.9420 C.3   1 <1>   0.0400 
 17 C       -1.0360    -4.9270     0.4930 C.ar  1 <1>  -0.1500 
 18 C        5.4250    -1.2890    -0.6960 C.3   1 <1>   0.2090 
 19 C        4.8910    -2.0980     1.5920 C.3   1 <1>   0.2090 
 20 C        4.5510     2.4190     1.4200 C.ar  1 <1>  -0.1500 
 21 C        5.4530    -2.7410    -1.2090 C.3   1 <1>   0.1400 
 22 C        4.9140    -3.5520     1.0930 C.3   1 <1>   0.1400 
 23 N        5.7980    -3.6990    -0.1090 N.am  1 <1>  -0.6600 
 24 C        6.8300    -4.5990    -0.1250 C.2   1 <1>   0.5690 
 25 O        7.0920    -5.2930     0.8270 O.2   1 <1>  -0.5700 
 26 C        7.6920    -4.7570    -1.3550 C.3   1 <1>  -0.1790 
 27 H        2.4090    -1.5500     0.5760 H     1 <1>   0.3700 
 28 H       -1.6270    -2.0800     2.1890 H     1 <1>   0.1500 
 29 H        1.2600     1.7820     1.7250 H     1 <1>   0.1500 
 30 H        0.5790    -5.2160    -0.8730 H     1 <1>   0.1500 
 31 H       -2.5370    -4.3320     1.8900 H     1 <1>   0.1500 
 32 H        6.0290     0.9990     0.8450 H     1 <1>   0.1500 
 33 H        2.8640     3.6090     1.9770 H     1 <1>   0.1500 
 34 H        2.4150    -1.9720    -2.4090 H     1 <1>   0.0800 
 35 H        1.0080    -1.2270    -1.6620 H     1 <1>   0.0800 
 36 H        0.8230    -2.7040    -2.6120 H     1 <1>   0.0800 
 37 H       -1.4320    -5.9200     0.3680 H     1 <1>   0.1500 
 38 H        6.4220    -0.9910    -0.4230 H     1 <1>   0.0800 
 39 H        5.0780    -0.6360    -1.4790 H     1 <1>   0.0800 
 40 H        4.1790    -2.0050     2.3940 H     1 <1>   0.0800 
 41 H        5.8620    -1.8370     1.9760 H     1 <1>   0.0800 
 42 H        5.2560     3.2230     1.5340 H     1 <1>   0.1500 
 43 H        6.1540    -2.8110    -2.0190 H     1 <1>   0.0800 
 44 H        4.4790    -2.9920    -1.5910 H     1 <1>   0.0800 
 45 H        3.9140    -3.8490     0.8300 H     1 <1>   0.0800 
 46 H        5.2470    -4.1920     1.8910 H     1 <1>   0.0800 
 47 H        8.2350    -3.8500    -1.5400 H     1 <1>   0.0800 
 48 H        7.0800    -5.0010    -2.2030 H     1 <1>   0.0800 
 49 H        8.3970    -5.5540    -1.2010 H     1 <1>   0.0800 
@<TRIPOS>BOND
  1   1   2  2   
  2   2   3  am  
  3   2   4  1   
  4   3   5  1   
  5   3  27  1   
  6   4   6  ar  
  7   4   7  ar  
  8   5   8  ar  
  9   5   9  ar  
 10   6  10  1   
 11   6  11  ar  
 12   7  12  ar  
 13   7  28  1   
 14   8  13  1   
 15   8  14  ar  
 16   9  15  ar  
 17   9  29  1   
 18  10  16  1   
 19  11  17  ar  
 20  11  30  1   
 21  12  17  ar  
 22  12  31  1   
 23  13  18  1   
 24  13  19  1   
 25  14  20  ar  
 26  14  32  1   
 27  15  20  ar  
 28  15  33  1   
 29  16  34  1   
 30  16  35  1   
 31  16  36  1   
 32  17  37  1   
 33  18  21  1   
 34  18  38  1   
 35  18  39  1   
 36  19  22  1   
 37  19  40  1   
 38  19  41  1   
 39  20  42  1   
 40  21  23  1   
 41  21  43  1   
 42  21  44  1   
 43  22  23  1   
 44  22  45  1   
 45  22  46  1   
 46  23  24  am  
 47  24  25  2   
 48  24  26  1   
 49  26  47  1   
 50  26  48  1   
 51  26  49  1   
@<TRIPOS>SUBSTRUCTURE
  1 ****   3 GROUP 4 **** **** 0

# MOE 2024.06 (io_trps.svl 2023.06)
