@<TRIPOS>MOLECULE
NONAME
45 46 1 0 0 
SMALL
USER_CHARGES


@<TRIPOS>ATOM
  1 O        4.4330     1.7870    -1.5480 O.2   1 <1>  -0.5700 
  2 C        3.2490     2.0250    -1.7150 C.2   1 <1>   0.5440 
  3 N        2.6700     1.3780    -2.7530 N.am  1 <1>  -0.8000 
  4 C        2.4990     2.9230    -0.8460 C.ar  1 <1>   0.0860 
  5 C        2.9070     3.2020     0.4750 C.ar  1 <1>   0.1170 
  6 C        1.3370     3.5480    -1.3120 C.ar  1 <1>  -0.1500 
  7 N        4.0770     2.6170     0.9760 N.am  1 <1>  -0.5470 
  8 C        2.1450     4.0530     1.2700 C.ar  1 <1>  -0.1500 
  9 C        0.5950     4.3950    -0.5130 C.ar  1 <1>  -0.1500 
 10 C        5.0620     3.1520     1.7600 C.2   1 <1>   0.5690 
 11 C        0.9990     4.6460     0.7850 C.ar  1 <1>  -0.1500 
 12 O        4.9370     4.1610     2.4070 O.2   1 <1>  -0.5700 
 13 C        6.4480     2.4960     1.7290 C.3   1 <1>   0.4040 
 14 N        7.4110     3.1910     0.7950 N.4   1 <1>  -0.9590 
 15 C        6.9350     3.2070    -0.6220 C.3   1 <1>   0.3430 
 16 C        8.8070     2.6590     0.9170 C.3   1 <1>   0.3430 
 17 C        7.7500     4.2320    -1.4310 C.3   1 <1>  -0.0800 
 18 C        9.7210     3.0940    -0.2510 C.3   1 <1>  -0.0800 
 19 C        9.2070     4.3740    -0.9340 C.3   1 <1>  -0.1600 
 20 C        7.0530     5.6010    -1.4280 C.3   1 <1>  -0.2400 
 21 C        9.9150     1.9560    -1.2690 C.3   1 <1>  -0.2400 
 22 H        3.2270     0.7440    -3.3290 H     1 <1>   0.3700 
 23 H        1.6690     1.3930    -2.9500 H     1 <1>   0.3700 
 24 H        1.0040     3.3790    -2.3200 H     1 <1>   0.1500 
 25 H        4.3660     1.8220     0.3920 H     1 <1>   0.3700 
 26 H        2.4480     4.2570     2.2820 H     1 <1>   0.1500 
 27 H       -0.2980     4.8630    -0.8950 H     1 <1>   0.1500 
 28 H        0.4210     5.3040     1.4130 H     1 <1>   0.1500 
 29 H        6.3390     1.4660     1.4390 H     1 <1>   0.0800 
 30 H        6.8400     2.5230     2.7310 H     1 <1>   0.0800 
 31 H        7.4300     4.1830     1.0770 H     1 <1>   0.4500 
 32 H        5.8920     3.4730    -0.6760 H     1 <1>   0.0800 
 33 H        7.0500     2.2260    -1.0550 H     1 <1>   0.0800 
 34 H        8.7880     1.5820     0.9540 H     1 <1>   0.0800 
 35 H        9.2340     3.0100     1.8430 H     1 <1>   0.0800 
 36 H        7.7680     3.8810    -2.4490 H     1 <1>   0.0800 
 37 H       10.6940     3.3030     0.1630 H     1 <1>   0.0800 
 38 H        9.2680     5.1780    -0.2190 H     1 <1>   0.0800 
 39 H        9.8470     4.6430    -1.7590 H     1 <1>   0.0800 
 40 H        6.9720     5.9990    -0.4320 H     1 <1>   0.0800 
 41 H        6.0630     5.5190    -1.8440 H     1 <1>   0.0800 
 42 H        7.6080     6.3010    -2.0300 H     1 <1>   0.0800 
 43 H        8.9910     1.6560    -1.7270 H     1 <1>   0.0800 
 44 H       10.3500     1.0950    -0.7910 H     1 <1>   0.0800 
 45 H       10.5880     2.2700    -2.0490 H     1 <1>   0.0800 
@<TRIPOS>BOND
  1   1   2  2   
  2   2   3  am  
  3   2   4  1   
  4   3  22  1   
  5   3  23  1   
  6   4   5  ar  
  7   4   6  ar  
  8   5   7  1   
  9   5   8  ar  
 10   6   9  ar  
 11   6  24  1   
 12   7  10  am  
 13   7  25  1   
 14   8  11  ar  
 15   8  26  1   
 16   9  11  ar  
 17   9  27  1   
 18  10  12  2   
 19  10  13  1   
 20  11  28  1   
 21  13  14  1   
 22  13  29  1   
 23  13  30  1   
 24  14  15  1   
 25  14  16  1   
 26  14  31  1   
 27  15  17  1   
 28  15  32  1   
 29  15  33  1   
 30  16  18  1   
 31  16  34  1   
 32  16  35  1   
 33  17  19  1   
 34  17  20  1   
 35  17  36  1   
 36  18  19  1   
 37  18  21  1   
 38  18  37  1   
 39  19  38  1   
 40  19  39  1   
 41  20  40  1   
 42  20  41  1   
 43  20  42  1   
 44  21  43  1   
 45  21  44  1   
 46  21  45  1   
@<TRIPOS>SUBSTRUCTURE
  1 ****   7 GROUP 4 **** **** 0

# MOE 2024.06 (io_trps.svl 2023.06)
