@<TRIPOS>MOLECULE
NONAME
43 44 1 0 0 
SMALL
USER_CHARGES


@<TRIPOS>ATOM
  1 S       -0.5410    -0.1210    -0.0120 S.o2  1 <1>   1.3330 
  2 O        0.0260     0.5330     1.1470 O.2   1 <1>  -0.6500 
  3 O       -0.0450    -1.4160    -0.4190 O.2   1 <1>  -0.6500 
  4 N       -2.2130    -0.2500     0.2440 N.am  1 <1>  -0.8490 
  5 C       -0.4410     0.9810    -1.4320 C.3   1 <1>  -0.0550 
  6 C       -2.7390     0.8740     1.0280 C.3   1 <1>   0.1960 
  7 C       -2.5640    -1.5280     0.8720 C.3   1 <1>   0.1960 
  8 C        0.9920     1.2800    -1.9060 C.3   1 <1>  -0.2400 
  9 C       -4.2660     0.8180     1.0600 C.3   1 <1>  -0.1600 
 10 C       -4.0850    -1.6910     0.9190 C.3   1 <1>  -0.1600 
 11 C       -4.7560    -0.5150     1.6520 C.3   1 <1>  -0.0190 
 12 C       -6.2770    -0.6200     1.6270 C.2   1 <1>   0.5690 
 13 O       -6.8750    -0.6950     2.6730 O.2   1 <1>  -0.5700 
 14 N       -6.9120    -0.6210     0.4290 N.am  1 <1>  -0.7300 
 15 C       -8.3650    -0.7050     0.2250 C.3   1 <1>   0.2200 
 16 C       -8.6580    -1.8760    -0.7030 C.3   1 <1>  -0.1600 
 17 C       -8.8110     0.5050    -0.5850 C.3   1 <1>  -0.1600 
 18 C       -8.3910    -1.3590    -2.1220 C.3   1 <1>  -0.1600 
 19 C       -8.4910     0.1700    -2.0460 C.3   1 <1>  -0.1600 
 20 H       -0.9190     1.9090    -1.1890 H     1 <1>   0.0800 
 21 H       -0.9840     0.5400    -2.2450 H     1 <1>   0.0800 
 22 H       -2.4320     1.8060     0.5850 H     1 <1>   0.0800 
 23 H       -2.3480     0.8380     2.0330 H     1 <1>   0.0800 
 24 H       -2.1480    -1.5760     1.8660 H     1 <1>   0.0800 
 25 H       -2.1560    -2.3450     0.2990 H     1 <1>   0.0800 
 26 H        1.5550     1.7460    -1.1140 H     1 <1>   0.0800 
 27 H        0.9750     1.9400    -2.7550 H     1 <1>   0.0800 
 28 H        1.4870     0.3660    -2.1860 H     1 <1>   0.0800 
 29 H       -4.6370     0.9440     0.0590 H     1 <1>   0.0800 
 30 H       -4.6410     1.6310     1.6560 H     1 <1>   0.0800 
 31 H       -4.3280    -2.6110     1.4200 H     1 <1>   0.0800 
 32 H       -4.4490    -1.7610    -0.0900 H     1 <1>   0.0800 
 33 H       -4.4500    -0.5520     2.6830 H     1 <1>   0.0800 
 34 H       -6.3720    -0.5610    -0.4320 H     1 <1>   0.3700 
 35 H       -8.8820    -0.7850     1.1690 H     1 <1>   0.0800 
 36 H       -9.7010    -2.1260    -0.6140 H     1 <1>   0.0800 
 37 H       -8.0750    -2.7460    -0.4580 H     1 <1>   0.0800 
 38 H       -8.3420     1.4140    -0.2500 H     1 <1>   0.0800 
 39 H       -9.8770     0.6100    -0.4760 H     1 <1>   0.0800 
 40 H       -9.1050    -1.7660    -2.8180 H     1 <1>   0.0800 
 41 H       -7.4010    -1.6430    -2.4360 H     1 <1>   0.0800 
 42 H       -7.5490     0.6100    -2.3260 H     1 <1>   0.0800 
 43 H       -9.2580     0.5470    -2.7020 H     1 <1>   0.0800 
@<TRIPOS>BOND
  1   1   2  2   
  2   1   3  2   
  3   1   4  am  
  4   1   5  1   
  5   4   6  1   
  6   4   7  1   
  7   5   8  1   
  8   5  20  1   
  9   5  21  1   
 10   6   9  1   
 11   6  22  1   
 12   6  23  1   
 13   7  10  1   
 14   7  24  1   
 15   7  25  1   
 16   8  26  1   
 17   8  27  1   
 18   8  28  1   
 19   9  11  1   
 20   9  29  1   
 21   9  30  1   
 22  10  11  1   
 23  10  31  1   
 24  10  32  1   
 25  11  12  1   
 26  11  33  1   
 27  12  13  2   
 28  12  14  am  
 29  14  15  1   
 30  14  34  1   
 31  15  16  1   
 32  15  17  1   
 33  15  35  1   
 34  16  18  1   
 35  16  36  1   
 36  16  37  1   
 37  17  19  1   
 38  17  38  1   
 39  17  39  1   
 40  18  19  1   
 41  18  40  1   
 42  18  41  1   
 43  19  42  1   
 44  19  43  1   
@<TRIPOS>SUBSTRUCTURE
  1 ****   9 GROUP 4 **** **** 0

# MOE 2024.06 (io_trps.svl 2023.06)
