@<TRIPOS>MOLECULE
NONAME
45 45 1 0 0 
SMALL
USER_CHARGES


@<TRIPOS>ATOM
  1 CL      -2.8360     0.8210     1.5340 Cl    1 <1>  -0.1770 
  2 C       -1.5210     1.8190     0.9390 C.ar  1 <1>   0.1770 
  3 C       -0.3480     1.9320     1.6680 C.ar  1 <1>   0.1770 
  4 C       -1.6820     2.5030    -0.2590 C.ar  1 <1>  -0.1440 
  5 CL      -0.1590     1.0780     3.1800 Cl    1 <1>  -0.1770 
  6 C        0.6850     2.7280     1.2100 C.ar  1 <1>  -0.1500 
  7 C       -0.6400     3.3020    -0.7160 C.ar  1 <1>  -0.1500 
  8 C       -2.9670     2.3650    -1.0500 C.3   1 <1>   0.4870 
  9 C        0.5340     3.4130     0.0150 C.ar  1 <1>  -0.1500 
 10 N       -4.0770     2.9910    -0.2640 N.4   1 <1>  -0.9590 
 11 C       -5.4060     2.3590    -0.6030 C.3   1 <1>   0.3430 
 12 C       -4.0180     4.4770    -0.4170 C.3   1 <1>   0.3430 
 13 C       -6.3200     2.1210     0.6360 C.3   1 <1>   0.3430 
 14 C       -4.9190     5.1570     0.6050 C.3   1 <1>  -0.2400 
 15 N       -7.5880     1.3400     0.3700 N.4   1 <1>  -0.9590 
 16 C       -7.3760    -0.0520    -0.1430 C.3   1 <1>   0.3430 
 17 C       -8.5670     2.0970    -0.4670 C.3   1 <1>   0.3430 
 18 C       -6.6020    -0.8770     0.8780 C.3   1 <1>  -0.2400 
 19 C       -9.9740     1.5720    -0.2100 C.3   1 <1>  -0.2400 
 20 H        1.5940     2.8090     1.7830 H     1 <1>   0.1500 
 21 H       -0.7180     3.8430    -1.6460 H     1 <1>   0.1500 
 22 H       -3.1610     1.3160    -1.2020 H     1 <1>   0.0800 
 23 H       -2.8700     2.8370    -2.0150 H     1 <1>   0.0800 
 24 H        1.3390     4.0330    -0.3470 H     1 <1>   0.1500 
 25 H       -3.8270     2.7790     0.7160 H     1 <1>   0.4500 
 26 H       -5.2240     1.4000    -1.0590 H     1 <1>   0.0800 
 27 H       -5.9230     2.9760    -1.3200 H     1 <1>   0.0800 
 28 H       -4.3090     4.7670    -1.4150 H     1 <1>   0.0800 
 29 H       -3.0050     4.8160    -0.2560 H     1 <1>   0.0800 
 30 H       -6.5870     3.0750     1.0590 H     1 <1>   0.0800 
 31 H       -5.7460     1.5890     1.3780 H     1 <1>   0.0800 
 32 H       -5.9590     5.0030     0.3840 H     1 <1>   0.0800 
 33 H       -4.7430     6.2190     0.5660 H     1 <1>   0.0800 
 34 H       -4.6920     4.8290     1.6050 H     1 <1>   0.0800 
 35 H       -8.0580     1.2190     1.2830 H     1 <1>   0.4500 
 36 H       -6.8490    -0.0370    -1.0840 H     1 <1>   0.0800 
 37 H       -8.3300    -0.5280    -0.3090 H     1 <1>   0.0800 
 38 H       -8.3260     2.0050    -1.5140 H     1 <1>   0.0800 
 39 H       -8.5430     3.1430    -0.2030 H     1 <1>   0.0800 
 40 H       -5.5900    -0.5340     0.9940 H     1 <1>   0.0800 
 41 H       -6.5560    -1.8980     0.5390 H     1 <1>   0.0800 
 42 H       -7.1000    -0.8750     1.8320 H     1 <1>   0.0800 
 43 H      -10.0910     0.5580    -0.5450 H     1 <1>   0.0800 
 44 H      -10.6780     2.1740    -0.7600 H     1 <1>   0.0800 
 45 H      -10.2300     1.6430     0.8320 H     1 <1>   0.0800 
@<TRIPOS>BOND
  1   1   2  1   
  2   2   3  ar  
  3   2   4  ar  
  4   3   5  1   
  5   3   6  ar  
  6   4   7  ar  
  7   4   8  1   
  8   6   9  ar  
  9   6  20  1   
 10   7   9  ar  
 11   7  21  1   
 12   8  10  1   
 13   8  22  1   
 14   8  23  1   
 15   9  24  1   
 16  10  11  1   
 17  10  12  1   
 18  10  25  1   
 19  11  13  1   
 20  11  26  1   
 21  11  27  1   
 22  12  14  1   
 23  12  28  1   
 24  12  29  1   
 25  13  15  1   
 26  13  30  1   
 27  13  31  1   
 28  14  32  1   
 29  14  33  1   
 30  14  34  1   
 31  15  16  1   
 32  15  17  1   
 33  15  35  1   
 34  16  18  1   
 35  16  36  1   
 36  16  37  1   
 37  17  19  1   
 38  17  38  1   
 39  17  39  1   
 40  18  40  1   
 41  18  41  1   
 42  18  42  1   
 43  19  43  1   
 44  19  44  1   
 45  19  45  1   
@<TRIPOS>SUBSTRUCTURE
  1 ****  10 GROUP 4 **** **** 0

# MOE 2024.06 (io_trps.svl 2023.06)
