@<TRIPOS>MOLECULE
NONAME
38 39 1 0 0 
SMALL
USER_CHARGES


@<TRIPOS>ATOM
  1 O       -0.4920    -0.5960     0.2060 O.3   1 <1>  -0.3630 
  2 C       -1.6760    -1.2090    -0.0360 C.ar  1 <1>   0.0830 
  3 C        0.1860    -0.7560     1.4330 C.3   1 <1>   0.0400 
  4 C       -2.3480    -1.9960     0.8950 C.ar  1 <1>  -0.1500 
  5 C       -2.2250    -1.0270    -1.2930 C.ar  1 <1>  -0.1500 
  6 C       -3.5570    -2.5810     0.5630 C.ar  1 <1>  -0.1500 
  7 C       -3.4330    -1.6120    -1.6260 C.ar  1 <1>  -0.1500 
  8 C       -4.1110    -2.3870    -0.6960 C.ar  1 <1>  -0.1430 
  9 C       -5.4480    -3.0090    -1.0510 C.3   1 <1>   0.4860 
 10 N       -6.5150    -2.2840    -0.3120 N.4   1 <1>  -0.9590 
 11 C       -7.8250    -2.9800    -0.3970 C.3   1 <1>   0.3430 
 12 C       -6.6350    -0.8690    -0.7510 C.3   1 <1>   0.3430 
 13 C       -8.6980    -2.6600     0.8200 C.3   1 <1>  -0.1600 
 14 C       -6.7560     0.0490     0.4650 C.3   1 <1>  -0.1600 
 15 C       -8.9460    -1.1670     1.1080 C.3   1 <1>  -0.1600 
 16 C       -7.6880    -0.4310     1.5940 C.3   1 <1>  -0.1600 
 17 H        1.1020    -0.1950     1.3830 H     1 <1>   0.0800 
 18 H        0.4060    -1.7990     1.5780 H     1 <1>   0.0800 
 19 H       -0.4310    -0.3760     2.2270 H     1 <1>   0.0800 
 20 H       -1.9410    -2.1610     1.8750 H     1 <1>   0.1500 
 21 H       -1.6930    -0.4230    -2.0080 H     1 <1>   0.1500 
 22 H       -4.0530    -3.1910     1.2990 H     1 <1>   0.1500 
 23 H       -3.8280    -1.4530    -2.6150 H     1 <1>   0.1500 
 24 H       -5.4390    -4.0480    -0.7670 H     1 <1>   0.0800 
 25 H       -5.6170    -2.9450    -2.1130 H     1 <1>   0.0800 
 26 H       -6.2270    -2.2510     0.6730 H     1 <1>   0.4500 
 27 H       -7.6710    -4.0460    -0.4330 H     1 <1>   0.0800 
 28 H       -8.3370    -2.6870    -1.3000 H     1 <1>   0.0800 
 29 H       -7.5050    -0.7540    -1.3780 H     1 <1>   0.0800 
 30 H       -5.7710    -0.5720    -1.3220 H     1 <1>   0.0800 
 31 H       -8.2740    -3.1300     1.6910 H     1 <1>   0.0800 
 32 H       -9.6540    -3.1290     0.6590 H     1 <1>   0.0800 
 33 H       -7.1120     1.0000     0.1090 H     1 <1>   0.0800 
 34 H       -5.7740     0.2240     0.8700 H     1 <1>   0.0800 
 35 H       -9.6810    -1.1090     1.8950 H     1 <1>   0.0800 
 36 H       -9.3700    -0.6730     0.2500 H     1 <1>   0.0800 
 37 H       -7.9940     0.4360     2.1570 H     1 <1>   0.0800 
 38 H       -7.1440    -1.0590     2.2790 H     1 <1>   0.0800 
@<TRIPOS>BOND
  1   1   2  1   
  2   1   3  1   
  3   2   4  ar  
  4   2   5  ar  
  5   3  17  1   
  6   3  18  1   
  7   3  19  1   
  8   4   6  ar  
  9   4  20  1   
 10   5   7  ar  
 11   5  21  1   
 12   6   8  ar  
 13   6  22  1   
 14   7   8  ar  
 15   7  23  1   
 16   8   9  1   
 17   9  10  1   
 18   9  24  1   
 19   9  25  1   
 20  10  11  1   
 21  10  12  1   
 22  10  26  1   
 23  11  13  1   
 24  11  27  1   
 25  11  28  1   
 26  12  14  1   
 27  12  29  1   
 28  12  30  1   
 29  13  15  1   
 30  13  31  1   
 31  13  32  1   
 32  14  16  1   
 33  14  33  1   
 34  14  34  1   
 35  15  16  1   
 36  15  35  1   
 37  15  36  1   
 38  16  37  1   
 39  16  38  1   
@<TRIPOS>SUBSTRUCTURE
  1 ****   8 GROUP 4 **** **** 0

# MOE 2024.06 (io_trps.svl 2023.06)
