@<TRIPOS>MOLECULE
NONAME
43 45 1 0 0 
SMALL
USER_CHARGES


@<TRIPOS>ATOM
  1 CL       0.0350     0.2080    -0.3650 Cl    1 <1>  -0.1770 
  2 C        1.5580     1.0480    -0.1960 C.ar  1 <1>   0.1770 
  3 C        2.0010     1.8620    -1.2220 C.ar  1 <1>  -0.1500 
  4 C        2.2970     0.8880     0.9620 C.ar  1 <1>  -0.1500 
  5 C        3.2080     2.5260    -1.0850 C.ar  1 <1>  -0.1500 
  6 C        3.5020     1.5560     1.0900 C.ar  1 <1>  -0.1500 
  7 C        3.9690     2.3790     0.0720 C.ar  1 <1>   0.1000 
  8 N        5.1830     3.0370     0.2300 N.pl3 1 <1>  -0.8380 
  9 C        5.1210     4.5160     0.3980 C.3   1 <1>   0.2090 
 10 C        6.3120     2.5580    -0.6190 C.3   1 <1>   0.2090 
 11 C        6.4780     5.0700     0.8800 C.3   1 <1>   0.3430 
 12 C        7.6530     3.1390    -0.1230 C.3   1 <1>   0.3430 
 13 N        7.6350     4.6500    -0.0040 N.4   1 <1>  -0.9590 
 14 C        8.9330     5.1910     0.4890 C.3   1 <1>   0.4230 
 15 C        8.9610     6.7280     0.4500 C.3   1 <1>  -0.1600 
 16 C       10.1010     4.7360    -0.3990 C.3   1 <1>  -0.1600 
 17 C       10.0450     7.1260    -0.5550 C.3   1 <1>  -0.0800 
 18 C       11.0130     5.9520    -0.5440 C.3   1 <1>  -0.1600 
 19 C       10.7210     8.4560    -0.2130 C.3   1 <1>  -0.2400 
 20 H        1.4050     1.9680    -2.1110 H     1 <1>   0.1500 
 21 H        1.9310     0.2490     1.7450 H     1 <1>   0.1500 
 22 H        3.5580     3.1600    -1.8780 H     1 <1>   0.1500 
 23 H        4.0900     1.4430     1.9820 H     1 <1>   0.1500 
 24 H        4.3600     4.7560     1.1230 H     1 <1>   0.0800 
 25 H        4.8460     4.9780    -0.5340 H     1 <1>   0.0800 
 26 H        6.1440     2.8430    -1.6430 H     1 <1>   0.0800 
 27 H        6.3520     1.4830    -0.5770 H     1 <1>   0.0800 
 28 H        6.6450     4.7100     1.8820 H     1 <1>   0.0800 
 29 H        6.4130     6.1440     0.9260 H     1 <1>   0.0800 
 30 H        8.4310     2.8300    -0.8000 H     1 <1>   0.0800 
 31 H        7.8660     2.7070     0.8400 H     1 <1>   0.0800 
 32 H        7.4800     5.0410    -0.9400 H     1 <1>   0.4500 
 33 H        9.1080     4.8650     1.5020 H     1 <1>   0.0800 
 34 H        9.2410     7.0780     1.4280 H     1 <1>   0.0800 
 35 H        8.0260     7.1820     0.1790 H     1 <1>   0.0800 
 36 H        9.7580     4.4640    -1.3820 H     1 <1>   0.0800 
 37 H       10.6350     3.9110     0.0400 H     1 <1>   0.0800 
 38 H        9.6040     7.1990    -1.5370 H     1 <1>   0.0800 
 39 H       11.6080     5.9110    -1.4420 H     1 <1>   0.0800 
 40 H       11.6700     6.0190     0.3080 H     1 <1>   0.0800 
 41 H       11.1850     8.4180     0.7580 H     1 <1>   0.0800 
 42 H       10.0000     9.2550    -0.2170 H     1 <1>   0.0800 
 43 H       11.4790     8.6840    -0.9420 H     1 <1>   0.0800 
@<TRIPOS>BOND
  1   1   2  1   
  2   2   3  ar  
  3   2   4  ar  
  4   3   5  ar  
  5   3  20  1   
  6   4   6  ar  
  7   4  21  1   
  8   5   7  ar  
  9   5  22  1   
 10   6   7  ar  
 11   6  23  1   
 12   7   8  1   
 13   8   9  1   
 14   8  10  1   
 15   9  11  1   
 16   9  24  1   
 17   9  25  1   
 18  10  12  1   
 19  10  26  1   
 20  10  27  1   
 21  11  13  1   
 22  11  28  1   
 23  11  29  1   
 24  12  13  1   
 25  12  30  1   
 26  12  31  1   
 27  13  14  1   
 28  13  32  1   
 29  14  15  1   
 30  14  16  1   
 31  14  33  1   
 32  15  17  1   
 33  15  34  1   
 34  15  35  1   
 35  16  18  1   
 36  16  36  1   
 37  16  37  1   
 38  17  18  1   
 39  17  19  1   
 40  17  38  1   
 41  18  39  1   
 42  18  40  1   
 43  19  41  1   
 44  19  42  1   
 45  19  43  1   
@<TRIPOS>SUBSTRUCTURE
  1 ****   8 GROUP 4 **** **** 0

# MOE 2024.06 (io_trps.svl 2023.06)
