@<TRIPOS>MOLECULE
NONAME
38 38 1 0 0 
SMALL
USER_CHARGES


@<TRIPOS>ATOM
  1 O        7.9080    -2.2680    -1.8050 O.3   1 <1>  -0.3630 
  2 C        8.4450    -1.1940    -1.1670 C.ar  1 <1>   0.0830 
  3 C        7.5210    -3.3830    -1.0390 C.3   1 <1>   0.1200 
  4 C        7.8510    -0.5630    -0.0630 C.ar  1 <1>   0.0830 
  5 C        9.6430    -0.7210    -1.6750 C.ar  1 <1>  -0.1500 
  6 C        5.9980    -3.4900    -1.1170 C.3   1 <1>   0.3430 
  7 O        6.6410    -1.0010     0.4010 O.3   1 <1>  -0.3630 
  8 C        8.5110     0.5140     0.5270 C.ar  1 <1>  -0.1500 
  9 C       10.2800     0.3560    -1.0860 C.ar  1 <1>  -0.1500 
 10 N        5.4590    -4.3510    -0.0180 N.4   1 <1>  -0.9060 
 11 C        5.8150    -0.1210     1.1400 C.3   1 <1>   0.0400 
 12 C        9.7150     0.9690     0.0180 C.ar  1 <1>  -0.1500 
 13 C        4.0060    -4.5220     0.0240 C.3   1 <1>   0.5030 
 14 C        3.7190    -5.4550     1.1950 C.3   1 <1>  -0.2400 
 15 C        3.3370    -3.1700     0.2630 C.3   1 <1>  -0.2400 
 16 C        3.5180    -5.1570    -1.2780 C.3   1 <1>  -0.2400 
 17 H        7.8660    -3.2480    -0.0290 H     1 <1>   0.0800 
 18 H        7.9910    -4.2490    -1.4690 H     1 <1>   0.0800 
 19 H       10.0800    -1.2000    -2.5330 H     1 <1>   0.1500 
 20 H        5.7240    -3.8920    -2.0780 H     1 <1>   0.0800 
 21 H        5.5850    -2.4990    -1.0300 H     1 <1>   0.0800 
 22 H        8.1090     1.0170     1.3860 H     1 <1>   0.1500 
 23 H       11.2130     0.7160    -1.4850 H     1 <1>   0.1500 
 24 H        5.7410    -3.9370     0.8770 H     1 <1>   0.4500 
 25 H        5.8800    -5.2830    -0.0680 H     1 <1>   0.4500 
 26 H        4.8380    -0.5600     1.2270 H     1 <1>   0.0800 
 27 H        5.7440     0.8170     0.6160 H     1 <1>   0.0800 
 28 H        6.2380     0.0210     2.1190 H     1 <1>   0.0800 
 29 H       10.2150     1.8030     0.4800 H     1 <1>   0.1500 
 30 H        4.0620    -5.0320     2.1230 H     1 <1>   0.0800 
 31 H        4.1820    -6.4160     1.0510 H     1 <1>   0.0800 
 32 H        2.6580    -5.6160     1.2830 H     1 <1>   0.0800 
 33 H        3.7020    -2.7120     1.1640 H     1 <1>   0.0800 
 34 H        2.2750    -3.3060     0.3720 H     1 <1>   0.0800 
 35 H        3.4870    -2.4990    -0.5640 H     1 <1>   0.0800 
 36 H        4.0300    -6.0820    -1.4750 H     1 <1>   0.0800 
 37 H        3.6430    -4.4940    -2.1150 H     1 <1>   0.0800 
 38 H        2.4670    -5.3750    -1.2010 H     1 <1>   0.0800 
@<TRIPOS>BOND
  1   1   2  1   
  2   1   3  1   
  3   2   4  ar  
  4   2   5  ar  
  5   3   6  1   
  6   3  17  1   
  7   3  18  1   
  8   4   7  1   
  9   4   8  ar  
 10   5   9  ar  
 11   5  19  1   
 12   6  10  1   
 13   6  20  1   
 14   6  21  1   
 15   7  11  1   
 16   8  12  ar  
 17   8  22  1   
 18   9  12  ar  
 19   9  23  1   
 20  10  13  1   
 21  10  24  1   
 22  10  25  1   
 23  11  26  1   
 24  11  27  1   
 25  11  28  1   
 26  12  29  1   
 27  13  14  1   
 28  13  15  1   
 29  13  16  1   
 30  14  30  1   
 31  14  31  1   
 32  14  32  1   
 33  15  33  1   
 34  15  34  1   
 35  15  35  1   
 36  16  36  1   
 37  16  37  1   
 38  16  38  1   
@<TRIPOS>SUBSTRUCTURE
  1 ****   7 GROUP 4 **** **** 0

# MOE 2024.06 (io_trps.svl 2023.06)
