@<TRIPOS>MOLECULE
NONAME
36 37 1 0 0 
SMALL
USER_CHARGES


@<TRIPOS>ATOM
  1 S        0.0140    -0.1440     0.0600 S.o2  1 <1>   1.3330 
  2 O        1.2330    -0.6370    -0.5410 O.2   1 <1>  -0.6500 
  3 O       -1.1830    -0.9460     0.0390 O.2   1 <1>  -0.6500 
  4 N       -0.3300     1.3840    -0.6780 N.am  1 <1>  -0.6930 
  5 C        0.3620     0.3380     1.7380 C.3   1 <1>  -0.1350 
  6 C       -1.4770     2.1190    -0.3740 C.ar  1 <1>   0.1990 
  7 C        0.7380     2.0050    -1.5230 C.3   1 <1>   0.2570 
  8 C       -2.7420     1.6080    -0.6400 C.ar  1 <1>  -0.1500 
  9 C       -1.3730     3.3860     0.1980 C.ar  1 <1>  -0.1500 
 10 C        1.9720     2.4740    -0.7420 C.2   1 <1>   0.5690 
 11 C       -3.8750     2.3400    -0.3400 C.ar  1 <1>   0.0820 
 12 C       -2.5030     4.1240     0.5060 C.ar  1 <1>  -0.1500 
 13 O        2.0590     3.6380    -0.4300 O.2   1 <1>  -0.5700 
 14 N        2.9400     1.5730    -0.4140 N.am  1 <1>  -0.7300 
 15 O       -5.0930     1.8140    -0.6300 O.3   1 <1>  -0.3630 
 16 C       -3.7570     3.6020     0.2450 C.ar  1 <1>   0.0820 
 17 C        4.2100     1.8740     0.2920 C.3   1 <1>   0.0600 
 18 C       -6.1980     2.6970    -0.6010 C.3   1 <1>   0.1200 
 19 O       -4.8560     4.3360     0.5710 O.3   1 <1>  -0.3630 
 20 C       -6.0900     3.6440     0.6020 C.3   1 <1>   0.1200 
 21 H        0.6190    -0.5240     2.3220 H     1 <1>   0.0800 
 22 H       -0.5010     0.8020     2.1740 H     1 <1>   0.0800 
 23 H        1.1790     1.0320     1.7670 H     1 <1>   0.0800 
 24 H        0.3280     2.8540    -2.0400 H     1 <1>   0.0800 
 25 H        1.0500     1.2960    -2.2690 H     1 <1>   0.0800 
 26 H       -2.8480     0.6370    -1.0870 H     1 <1>   0.1500 
 27 H       -0.4030     3.8000     0.4080 H     1 <1>   0.1500 
 28 H       -2.4180     5.1000     0.9490 H     1 <1>   0.1500 
 29 H        2.7600     0.5760    -0.6240 H     1 <1>   0.3700 
 30 H        5.0440     1.5670    -0.3150 H     1 <1>   0.0800 
 31 H        4.2400     1.3460     1.2290 H     1 <1>   0.0800 
 32 H        4.2910     2.9310     0.4840 H     1 <1>   0.0800 
 33 H       -7.0930     2.1050    -0.5430 H     1 <1>   0.0800 
 34 H       -6.2020     3.2570    -1.5190 H     1 <1>   0.0800 
 35 H       -6.1390     3.0870     1.5210 H     1 <1>   0.0800 
 36 H       -6.8800     4.3730     0.5880 H     1 <1>   0.0800 
@<TRIPOS>BOND
  1   1   2  2   
  2   1   3  2   
  3   1   4  am  
  4   1   5  1   
  5   4   6  1   
  6   4   7  1   
  7   5  21  1   
  8   5  22  1   
  9   5  23  1   
 10   6   8  ar  
 11   6   9  ar  
 12   7  10  1   
 13   7  24  1   
 14   7  25  1   
 15   8  11  ar  
 16   8  26  1   
 17   9  12  ar  
 18   9  27  1   
 19  10  13  2   
 20  10  14  am  
 21  11  15  1   
 22  11  16  ar  
 23  12  16  ar  
 24  12  28  1   
 25  14  17  1   
 26  14  29  1   
 27  15  18  1   
 28  16  19  1   
 29  17  30  1   
 30  17  31  1   
 31  17  32  1   
 32  18  20  1   
 33  18  33  1   
 34  18  34  1   
 35  19  20  1   
 36  20  35  1   
 37  20  36  1   
@<TRIPOS>SUBSTRUCTURE
  1 ****   6 GROUP 4 **** **** 0

# MOE 2024.06 (io_trps.svl 2023.06)
