@<TRIPOS>MOLECULE
NONAME
43 44 1 0 0 
SMALL
USER_CHARGES


@<TRIPOS>ATOM
  1 BR       2.0780    -3.8010     2.7380 Br    1 <1>  -0.1110 
  2 C        3.2120    -2.7850     1.5600 C.ar  1 <1>   0.1110 
  3 C        3.6830    -3.3860     0.4080 C.ar  1 <1>  -0.1500 
  4 C        3.5260    -1.4830     1.8970 C.ar  1 <1>  -0.1500 
  5 C        4.5000    -2.6550    -0.4390 C.ar  1 <1>  -0.1500 
  6 C        4.3440    -0.7610     1.0460 C.ar  1 <1>  -0.1500 
  7 C        4.8350    -1.3370    -0.1190 C.ar  1 <1>   0.0830 
  8 O        5.6350    -0.5500    -0.8850 O.3   1 <1>  -0.3630 
  9 C        6.1940    -1.0010    -2.1130 C.3   1 <1>   0.2610 
 10 C        7.2890    -2.0540    -1.8800 C.2   1 <1>   0.5690 
 11 C        6.7350     0.2370    -2.8350 C.3   1 <1>  -0.2400 
 12 O        7.4820    -2.8880    -2.7330 O.2   1 <1>  -0.5700 
 13 N        8.0070    -2.0300    -0.7230 N.am  1 <1>  -0.7300 
 14 C        9.0700    -2.9880    -0.3410 C.3   1 <1>   0.1400 
 15 C       10.3690    -2.2350    -0.0440 C.3   1 <1>  -0.0220 
 16 C       11.5150    -3.1290     0.4300 C.2   1 <1>  -0.2760 
 17 C       11.4640    -4.4630     0.5500 C.2   1 <1>  -0.2880 
 18 C       12.7720    -2.3330     0.7690 C.3   1 <1>  -0.0220 
 19 C       12.6110    -5.3270     1.0510 C.3   1 <1>  -0.0220 
 20 C       14.0110    -3.2310     0.9000 C.3   1 <1>  -0.1600 
 21 C       13.6990    -4.4830     1.7270 C.3   1 <1>  -0.1600 
 22 H        3.4160    -4.4020     0.1800 H     1 <1>   0.1500 
 23 H        3.1400    -1.0480     2.8020 H     1 <1>   0.1500 
 24 H        4.8620    -3.1320    -1.3310 H     1 <1>   0.1500 
 25 H        4.6060     0.2560     1.2790 H     1 <1>   0.1500 
 26 H        5.4030    -1.4310    -2.7020 H     1 <1>   0.0800 
 27 H        7.5140     0.6960    -2.2530 H     1 <1>   0.0800 
 28 H        5.9430     0.9440    -3.0010 H     1 <1>   0.0800 
 29 H        7.1440    -0.0510    -3.7870 H     1 <1>   0.0800 
 30 H        7.7220    -1.3590    -0.0050 H     1 <1>   0.3700 
 31 H        9.2360    -3.6910    -1.1410 H     1 <1>   0.0800 
 32 H        8.7540    -3.5330     0.5320 H     1 <1>   0.0800 
 33 H       10.1730    -1.5020     0.7180 H     1 <1>   0.0800 
 34 H       10.6760    -1.7240    -0.9390 H     1 <1>   0.0800 
 35 H       10.6030    -5.0570     0.3000 H     1 <1>   0.1500 
 36 H       12.6090    -1.8090     1.6950 H     1 <1>   0.0800 
 37 H       12.9630    -1.6020     0.0020 H     1 <1>   0.0800 
 38 H       13.0310    -5.8610     0.2160 H     1 <1>   0.0800 
 39 H       12.2390    -6.0490     1.7560 H     1 <1>   0.0800 
 40 H       14.8110    -2.6760     1.3580 H     1 <1>   0.0800 
 41 H       14.3320    -3.5310    -0.0820 H     1 <1>   0.0800 
 42 H       14.5890    -5.0750     1.8530 H     1 <1>   0.0800 
 43 H       13.3570    -4.1830     2.7030 H     1 <1>   0.0800 
@<TRIPOS>BOND
  1   1   2  1   
  2   2   3  ar  
  3   2   4  ar  
  4   3   5  ar  
  5   3  22  1   
  6   4   6  ar  
  7   4  23  1   
  8   5   7  ar  
  9   5  24  1   
 10   6   7  ar  
 11   6  25  1   
 12   7   8  1   
 13   8   9  1   
 14   9  10  1   
 15   9  11  1   
 16   9  26  1   
 17  10  12  2   
 18  10  13  am  
 19  11  27  1   
 20  11  28  1   
 21  11  29  1   
 22  13  14  1   
 23  13  30  1   
 24  14  15  1   
 25  14  31  1   
 26  14  32  1   
 27  15  16  1   
 28  15  33  1   
 29  15  34  1   
 30  16  17  2   
 31  16  18  1   
 32  17  19  1   
 33  17  35  1   
 34  18  20  1   
 35  18  36  1   
 36  18  37  1   
 37  19  21  1   
 38  19  38  1   
 39  19  39  1   
 40  20  21  1   
 41  20  40  1   
 42  20  41  1   
 43  21  42  1   
 44  21  43  1   
@<TRIPOS>SUBSTRUCTURE
  1 ****  13 GROUP 4 **** **** 0

# MOE 2024.06 (io_trps.svl 2023.06)
