@<TRIPOS>MOLECULE
NONAME
32 32 1 0 0 
SMALL
USER_CHARGES


@<TRIPOS>ATOM
  1 O        0.4020     0.6100    -1.3110 O.2   1 <1>  -0.5700 
  2 C        0.8700     1.4290    -0.5430 C.2   1 <1>   0.5440 
  3 N        0.0110     2.2030     0.1880 N.am  1 <1>  -0.7300 
  4 C        2.3070     1.5660    -0.3900 C.ar  1 <1>   0.0860 
  5 C       -1.4610     2.1620     0.0960 C.3   1 <1>   0.1400 
  6 C        3.1640     0.5000    -0.6670 C.ar  1 <1>  -0.1500 
  7 C        2.9010     2.7560     0.0370 C.ar  1 <1>  -0.1500 
  8 C       -1.9970     3.5790     0.2560 C.3   1 <1>  -0.2400 
  9 C        4.5330     0.6090    -0.5120 C.ar  1 <1>  -0.1500 
 10 C        4.2690     2.8680     0.1920 C.ar  1 <1>  -0.1500 
 11 C        5.1130     1.7940    -0.0730 C.ar  1 <1>   0.1170 
 12 N        6.5040     1.8520     0.0620 N.am  1 <1>  -0.5470 
 13 C        7.3140     2.7280     0.7330 C.2   1 <1>   0.5690 
 14 O        6.9110     3.6510     1.3940 O.2   1 <1>  -0.5700 
 15 C        8.8130     2.5020     0.6430 C.3   1 <1>  -0.0990 
 16 C        9.3710     2.7360    -0.7700 C.3   1 <1>  -0.2400 
 17 H        0.3870     2.7910     0.9320 H     1 <1>   0.3700 
 18 H       -1.8490     1.5240     0.8720 H     1 <1>   0.0800 
 19 H       -1.7580     1.7600    -0.8590 H     1 <1>   0.0800 
 20 H        2.7380    -0.4280    -1.0090 H     1 <1>   0.1500 
 21 H        2.2860     3.6130     0.2410 H     1 <1>   0.1500 
 22 H       -1.7290     3.9790     1.2170 H     1 <1>   0.0800 
 23 H       -3.0690     3.5680     0.1790 H     1 <1>   0.0800 
 24 H       -1.6080     4.2120    -0.5220 H     1 <1>   0.0800 
 25 H        5.1550    -0.2390    -0.7330 H     1 <1>   0.1500 
 26 H        4.6810     3.8060     0.5180 H     1 <1>   0.1500 
 27 H        7.0060     1.1030    -0.4070 H     1 <1>   0.3700 
 28 H        9.0340     1.5000     0.9630 H     1 <1>   0.0800 
 29 H        9.3000     3.1740     1.3280 H     1 <1>   0.0800 
 30 H        8.9320     2.0530    -1.4760 H     1 <1>   0.0800 
 31 H       10.4380     2.5940    -0.7740 H     1 <1>   0.0800 
 32 H        9.1600     3.7430    -1.0870 H     1 <1>   0.0800 
@<TRIPOS>BOND
  1   1   2  2   
  2   2   3  am  
  3   2   4  1   
  4   3   5  1   
  5   3  17  1   
  6   4   6  ar  
  7   4   7  ar  
  8   5   8  1   
  9   5  18  1   
 10   5  19  1   
 11   6   9  ar  
 12   6  20  1   
 13   7  10  ar  
 14   7  21  1   
 15   8  22  1   
 16   8  23  1   
 17   8  24  1   
 18   9  11  ar  
 19   9  25  1   
 20  10  11  ar  
 21  10  26  1   
 22  11  12  1   
 23  12  13  am  
 24  12  27  1   
 25  13  14  2   
 26  13  15  1   
 27  15  16  1   
 28  15  28  1   
 29  15  29  1   
 30  16  30  1   
 31  16  31  1   
 32  16  32  1   
@<TRIPOS>SUBSTRUCTURE
  1 ****  10 GROUP 4 **** **** 0

# MOE 2024.06 (io_trps.svl 2023.06)
