@<TRIPOS>MOLECULE
NONAME
34 35 1 0 0 
SMALL
USER_CHARGES


@<TRIPOS>ATOM
  1 O        1.8640    -6.6180     1.0670 O.2   1 <1>  -0.5700 
  2 C        2.0240    -5.5980     0.4460 C.2   1 <1>   0.4230 
  3 C        3.3330    -5.0630     0.1200 C.ar  1 <1>   0.0860 
  4 C        0.7610    -4.8740     0.0030 C.3   1 <1>  -0.0990 
  5 C        3.5220    -3.8290    -0.5140 C.ar  1 <1>  -0.1500 
  6 C        4.4830    -5.7880     0.4430 C.ar  1 <1>  -0.1500 
  7 C       -0.4700    -5.7360     0.3030 C.3   1 <1>   0.3430 
  8 C        4.7870    -3.3540    -0.8110 C.ar  1 <1>  -0.1500 
  9 C        5.7490    -5.3180     0.1500 C.ar  1 <1>  -0.1500 
 10 N       -1.7340    -5.0800    -0.1400 N.4   1 <1>  -0.9590 
 11 C        5.9040    -4.0970    -0.4800 C.ar  1 <1>  -0.1500 
 12 C       -2.1160    -3.8660     0.6650 C.3   1 <1>   0.3430 
 13 C       -2.8800    -6.0510    -0.1720 C.3   1 <1>   0.3430 
 14 C       -3.4910    -3.3050     0.2310 C.3   1 <1>   0.1200 
 15 C       -4.1800    -5.3710    -0.6620 C.3   1 <1>   0.1200 
 16 O       -3.9890    -3.9980    -0.8810 O.3   1 <1>  -0.5600 
 17 H        0.8190    -4.6900    -1.0540 H     1 <1>   0.0800 
 18 H        0.7040    -3.9440     0.5360 H     1 <1>   0.0800 
 19 H        2.6850    -3.2160    -0.7870 H     1 <1>   0.1500 
 20 H        4.3840    -6.7410     0.9350 H     1 <1>   0.1500 
 21 H       -0.5110    -5.9450     1.3610 H     1 <1>   0.0800 
 22 H       -0.3530    -6.6800    -0.2070 H     1 <1>   0.0800 
 23 H        4.9090    -2.4020    -1.3000 H     1 <1>   0.1500 
 24 H        6.6150    -5.9010     0.4110 H     1 <1>   0.1500 
 25 H       -1.6460    -4.7510    -1.1140 H     1 <1>   0.4500 
 26 H        6.8890    -3.7290    -0.7100 H     1 <1>   0.1500 
 27 H       -1.3740    -3.0950     0.5430 H     1 <1>   0.0800 
 28 H       -2.1560    -4.1140     1.7120 H     1 <1>   0.0800 
 29 H       -3.0470    -6.4530     0.8140 H     1 <1>   0.0800 
 30 H       -2.6490    -6.8770    -0.8230 H     1 <1>   0.0800 
 31 H       -3.4010    -2.2670    -0.0400 H     1 <1>   0.0800 
 32 H       -4.2060    -3.3810     1.0330 H     1 <1>   0.0800 
 33 H       -4.9720    -5.5000     0.0560 H     1 <1>   0.0800 
 34 H       -4.4980    -5.8080    -1.5930 H     1 <1>   0.0800 
@<TRIPOS>BOND
  1   1   2  2   
  2   2   3  1   
  3   2   4  1   
  4   3   5  ar  
  5   3   6  ar  
  6   4   7  1   
  7   4  17  1   
  8   4  18  1   
  9   5   8  ar  
 10   5  19  1   
 11   6   9  ar  
 12   6  20  1   
 13   7  10  1   
 14   7  21  1   
 15   7  22  1   
 16   8  11  ar  
 17   8  23  1   
 18   9  11  ar  
 19   9  24  1   
 20  10  12  1   
 21  10  13  1   
 22  10  25  1   
 23  11  26  1   
 24  12  14  1   
 25  12  27  1   
 26  12  28  1   
 27  13  15  1   
 28  13  29  1   
 29  13  30  1   
 30  14  16  1   
 31  14  31  1   
 32  14  32  1   
 33  15  16  1   
 34  15  33  1   
 35  15  34  1   
@<TRIPOS>SUBSTRUCTURE
  1 ****   4 GROUP 4 **** **** 0

# MOE 2024.06 (io_trps.svl 2023.06)
