@<TRIPOS>MOLECULE
NONAME
45 48 1 0 0 
SMALL
USER_CHARGES


@<TRIPOS>ATOM
  1 F        2.4020    -0.7410    -2.0910 F     1 <1>  -0.1900 
  2 C        1.5080    -1.3930    -1.3850 C.ar  1 <1>   0.1900 
  3 C        1.7800    -1.7280    -0.0520 C.ar  1 <1>   0.1000 
  4 C        0.3200    -1.7190    -2.0110 C.ar  1 <1>  -0.1500 
  5 N        2.9650    -1.4220     0.6290 N.pl3 1 <1>  -0.8380 
  6 C        0.7890    -2.4170     0.6350 C.ar  1 <1>  -0.1500 
  7 C       -0.6470    -2.4070    -1.2960 C.ar  1 <1>  -0.1500 
  8 C        4.1930    -2.1070     0.1270 C.3   1 <1>   0.2090 
  9 C        3.2060     0.0280     0.8880 C.3   1 <1>   0.2090 
 10 C       -0.4090    -2.7540     0.0250 C.ar  1 <1>  -0.1500 
 11 C        5.3890    -1.8510     1.0610 C.3   1 <1>   0.1100 
 12 C        4.4280     0.2350     1.8050 C.3   1 <1>   0.1100 
 13 N        5.6450    -0.4000     1.2530 N.3   1 <1>  -0.8100 
 14 C        6.8070    -0.1910     2.1400 C.3   1 <1>   0.2900 
 15 C        8.0860    -0.5480     1.4030 C.2   1 <1>   0.0070 
 16 N        8.2030    -0.2920     0.0770 N.pl3 1 <1>   0.0330 
 17 N        9.1270    -1.1150     1.9160 N.2   1 <1>  -0.5650 
 18 C        9.4150    -0.7470    -0.2660 C.2   1 <1>  -0.0880 
 19 C        9.9920    -1.2520     0.8630 C.2   1 <1>   0.1410 
 20 N       10.0590    -0.7690    -1.5100 N.am  1 <1>  -0.4240 
 21 C       11.3130    -1.8200     0.7760 C.2   1 <1>   0.7160 
 22 C       11.3300    -1.3290    -1.5860 C.2   1 <1>   0.6900 
 23 C        9.3840    -0.2100    -2.7110 C.3   1 <1>   0.0600 
 24 O       11.9450    -2.3010     1.6990 O.2   1 <1>  -0.5700 
 25 N       11.9080    -1.8230    -0.4550 N.am  1 <1>  -0.4900 
 26 O       11.9480    -1.3970    -2.6290 O.2   1 <1>  -0.5700 
 27 H        0.1570    -1.4400    -3.0350 H     1 <1>   0.1500 
 28 H        0.9710    -2.6880     1.6590 H     1 <1>   0.1500 
 29 H       -1.5800    -2.6710    -1.7650 H     1 <1>   0.1500 
 30 H        4.4320    -1.7490    -0.8590 H     1 <1>   0.0800 
 31 H        4.0060    -3.1650     0.0650 H     1 <1>   0.0800 
 32 H        2.3340     0.4530     1.3530 H     1 <1>   0.0800 
 33 H        3.3730     0.5410    -0.0430 H     1 <1>   0.0800 
 34 H       -1.1600    -3.2880     0.5810 H     1 <1>   0.1500 
 35 H        6.2580    -2.3260     0.6400 H     1 <1>   0.0800 
 36 H        5.1870    -2.3170     2.0110 H     1 <1>   0.0800 
 37 H        4.2040    -0.1780     2.7740 H     1 <1>   0.0800 
 38 H        4.5960     1.2920     1.9200 H     1 <1>   0.0800 
 39 H        6.7170    -0.7870     3.0320 H     1 <1>   0.0800 
 40 H        6.8620     0.8450     2.4270 H     1 <1>   0.0800 
 41 H        7.4560     0.1030    -0.5010 H     1 <1>   0.2700 
 42 H        8.4860    -0.7680    -2.9110 H     1 <1>   0.0800 
 43 H       10.0250    -0.2680    -3.5730 H     1 <1>   0.0800 
 44 H        9.1350     0.8210    -2.5370 H     1 <1>   0.0800 
 45 H       12.8360    -2.2210    -0.5290 H     1 <1>   0.3700 
@<TRIPOS>BOND
  1   1   2  1   
  2   2   3  ar  
  3   2   4  ar  
  4   3   5  1   
  5   3   6  ar  
  6   4   7  ar  
  7   4  27  1   
  8   5   8  1   
  9   5   9  1   
 10   6  10  ar  
 11   6  28  1   
 12   7  10  ar  
 13   7  29  1   
 14   8  11  1   
 15   8  30  1   
 16   8  31  1   
 17   9  12  1   
 18   9  32  1   
 19   9  33  1   
 20  10  34  1   
 21  11  13  1   
 22  11  35  1   
 23  11  36  1   
 24  12  13  1   
 25  12  37  1   
 26  12  38  1   
 27  13  14  1   
 28  14  15  1   
 29  14  39  1   
 30  14  40  1   
 31  15  16  1   
 32  15  17  2   
 33  16  18  1   
 34  16  41  1   
 35  17  19  1   
 36  18  19  2   
 37  18  20  1   
 38  19  21  1   
 39  20  22  am  
 40  20  23  1   
 41  21  24  2   
 42  21  25  am  
 43  22  25  am  
 44  22  26  2   
 45  23  42  1   
 46  23  43  1   
 47  23  44  1   
 48  25  45  1   
@<TRIPOS>SUBSTRUCTURE
  1 ****  11 GROUP 4 **** **** 0

# MOE 2024.06 (io_trps.svl 2023.06)
