@<TRIPOS>MOLECULE
NONAME
40 41 1 0 0 
SMALL
USER_CHARGES


@<TRIPOS>ATOM
  1 CL       0.4300    -0.4530     0.8720 Cl    1 <1>  -0.1770 
  2 C        2.0610    -0.9520     0.5010 C.ar  1 <1>   0.1770 
  3 C        2.9630    -1.1440     1.5320 C.ar  1 <1>  -0.1500 
  4 C        2.4260    -1.1500    -0.8180 C.ar  1 <1>  -0.1500 
  5 C        4.2550    -1.5400     1.2320 C.ar  1 <1>  -0.1500 
  6 C        3.7200    -1.5450    -1.1150 C.ar  1 <1>  -0.1500 
  7 C        4.6410    -1.7400    -0.0860 C.ar  1 <1>   0.0830 
  8 O        5.9270    -2.1210    -0.2880 O.3   1 <1>  -0.3630 
  9 C        6.4210    -2.3820    -1.5950 C.3   1 <1>   0.1810 
 10 C        7.8870    -2.8190    -1.5680 C.2   1 <1>   0.5690 
 11 O        8.1860    -3.7660    -2.2550 O.2   1 <1>  -0.5700 
 12 N        8.8500    -2.1640    -0.8280 N.am  1 <1>  -0.6600 
 13 C       10.2050    -2.7760    -0.6410 C.3   1 <1>   0.1400 
 14 C        8.6330    -0.8830    -0.0850 C.3   1 <1>   0.1400 
 15 C       11.3220    -1.7530    -0.9050 C.3   1 <1>   0.3430 
 16 C        9.7880     0.1120    -0.3230 C.3   1 <1>   0.3430 
 17 N       11.1410    -0.5040    -0.0860 N.4   1 <1>  -0.9590 
 18 C       12.2450     0.4530    -0.3160 C.3   1 <1>   0.4810 
 19 C       12.2290     1.4330     0.8330 C.2   1 <1>  -0.2880 
 20 C       13.0820     1.4240     1.8630 C.2   1 <1>  -0.3000 
 21 H        2.6530    -0.9870     2.5490 H     1 <1>   0.1500 
 22 H        1.7010    -0.9950    -1.5970 H     1 <1>   0.1500 
 23 H        4.9680    -1.6980     2.0220 H     1 <1>   0.1500 
 24 H        3.9810    -1.6970    -2.1460 H     1 <1>   0.1500 
 25 H        6.3220    -1.4910    -2.1850 H     1 <1>   0.0800 
 26 H        5.8280    -3.1700    -2.0230 H     1 <1>   0.0800 
 27 H       10.3410    -3.6120    -1.3060 H     1 <1>   0.0800 
 28 H       10.2850    -3.1520     0.3640 H     1 <1>   0.0800 
 29 H        8.5460    -1.0960     0.9670 H     1 <1>   0.0800 
 30 H        7.7180    -0.4130    -0.3980 H     1 <1>   0.0800 
 31 H       11.3150    -1.5070    -1.9540 H     1 <1>   0.0800 
 32 H       12.2730    -2.2080    -0.6780 H     1 <1>   0.0800 
 33 H        9.6530     0.9610     0.3270 H     1 <1>   0.0800 
 34 H        9.7270     0.4650    -1.3390 H     1 <1>   0.0800 
 35 H       11.1980    -0.7590     0.9090 H     1 <1>   0.4500 
 36 H       12.1330     0.9620    -1.2610 H     1 <1>   0.0800 
 37 H       13.1880    -0.0710    -0.3150 H     1 <1>   0.0800 
 38 H       11.4520     2.1740     0.7490 H     1 <1>   0.1500 
 39 H       13.0540     2.1410     2.6700 H     1 <1>   0.1500 
 40 H       13.8840     0.7170     2.0010 H     1 <1>   0.1500 
@<TRIPOS>BOND
  1   1   2  1   
  2   2   3  ar  
  3   2   4  ar  
  4   3   5  ar  
  5   3  21  1   
  6   4   6  ar  
  7   4  22  1   
  8   5   7  ar  
  9   5  23  1   
 10   6   7  ar  
 11   6  24  1   
 12   7   8  1   
 13   8   9  1   
 14   9  10  1   
 15   9  25  1   
 16   9  26  1   
 17  10  11  2   
 18  10  12  am  
 19  12  13  1   
 20  12  14  1   
 21  13  15  1   
 22  13  27  1   
 23  13  28  1   
 24  14  16  1   
 25  14  29  1   
 26  14  30  1   
 27  15  17  1   
 28  15  31  1   
 29  15  32  1   
 30  16  17  1   
 31  16  33  1   
 32  16  34  1   
 33  17  18  1   
 34  17  35  1   
 35  18  19  1   
 36  18  36  1   
 37  18  37  1   
 38  19  20  2   
 39  19  38  1   
 40  20  39  1   
 41  20  40  1   
@<TRIPOS>SUBSTRUCTURE
  1 ****  14 GROUP 4 **** **** 0

# MOE 2024.06 (io_trps.svl 2023.06)
