@<TRIPOS>MOLECULE
NONAME
54 57 1 0 0 
SMALL
USER_CHARGES


@<TRIPOS>ATOM
  1 N       -0.0370     0.0610     0.5090 N.4   1 <1>  -0.9590 
  2 C       -0.3270    -0.7340    -0.7220 C.3   1 <1>   0.3430 
  3 C       -1.1230     1.0080     0.8790 C.3   1 <1>   0.3430 
  4 C        1.2770     0.7690     0.3870 C.3   1 <1>   0.4860 
  5 C       -1.6310    -1.5110    -0.5420 C.3   1 <1>  -0.1600 
  6 C       -2.4390     0.2460     1.0660 C.3   1 <1>  -0.1600 
  7 C        2.3630    -0.2820     0.2840 C.ar  1 <1>  -0.1430 
  8 C       -2.7880    -0.5790    -0.1780 C.3   1 <1>   0.4230 
  9 C        2.7390    -1.0120     1.4030 C.ar  1 <1>  -0.1500 
 10 C        2.9820    -0.5300    -0.9340 C.ar  1 <1>  -0.1500 
 11 N       -3.9950    -1.4020     0.0630 N.4   1 <1>  -0.9060 
 12 C        3.7100    -1.9920     1.3000 C.ar  1 <1>  -0.1500 
 13 C        3.9520    -1.5110    -1.0330 C.ar  1 <1>  -0.1500 
 14 C       -5.2840    -0.6920     0.1870 C.3   1 <1>   0.5660 
 15 C        4.3140    -2.2450     0.0820 C.ar  1 <1>  -0.1500 
 16 C       -6.2670    -1.7320     0.7080 C.ar  1 <1>  -0.1430 
 17 C       -5.6480    -0.0860    -1.1810 C.3   1 <1>  -0.1600 
 18 C       -7.4060    -2.0870    -0.0100 C.ar  1 <1>  -0.1430 
 19 C       -6.0260    -2.3370     1.9390 C.ar  1 <1>  -0.1500 
 20 C       -7.1620    -0.0110    -1.4050 C.3   1 <1>  -0.1600 
 21 C       -8.2520    -3.0670     0.4830 C.ar  1 <1>  -0.1500 
 22 C       -7.7710    -1.4120    -1.3240 C.3   1 <1>  -0.0170 
 23 C       -6.8790    -3.3100     2.4240 C.ar  1 <1>  -0.1500 
 24 C       -7.9890    -3.6810     1.6920 C.ar  1 <1>  -0.1500 
 25 H        0.1180    -0.6090     1.2770 H     1 <1>   0.4500 
 26 H        0.4790    -1.4290    -0.9110 H     1 <1>   0.0800 
 27 H       -0.4040    -0.0760    -1.5730 H     1 <1>   0.0800 
 28 H       -1.2380     1.7500     0.1040 H     1 <1>   0.0800 
 29 H       -0.8700     1.5200     1.7950 H     1 <1>   0.0800 
 30 H        1.4590     1.3790     1.2570 H     1 <1>   0.0800 
 31 H        1.2900     1.4020    -0.4850 H     1 <1>   0.0800 
 32 H       -1.4850    -2.2560     0.2210 H     1 <1>   0.0800 
 33 H       -1.8480    -2.0170    -1.4670 H     1 <1>   0.0800 
 34 H       -3.2120     0.9690     1.2580 H     1 <1>   0.0800 
 35 H       -2.3510    -0.3880     1.9300 H     1 <1>   0.0800 
 36 H       -2.9680     0.0880    -1.0080 H     1 <1>   0.0800 
 37 H        2.2970    -0.8290     2.3680 H     1 <1>   0.1500 
 38 H        2.7280     0.0320    -1.8170 H     1 <1>   0.1500 
 39 H       -3.9080    -1.9830     0.9030 H     1 <1>   0.4500 
 40 H       -4.1440    -2.0760    -0.6980 H     1 <1>   0.4500 
 41 H        4.0040    -2.5600     2.1670 H     1 <1>   0.1500 
 42 H        4.4340    -1.7050    -1.9780 H     1 <1>   0.1500 
 43 H       -5.2200     0.0950     0.9210 H     1 <1>   0.0800 
 44 H        5.0710    -3.0070     0.0030 H     1 <1>   0.1500 
 45 H       -5.2370    -0.6820    -1.9790 H     1 <1>   0.0800 
 46 H       -5.2390     0.9060    -1.2530 H     1 <1>   0.0800 
 47 H       -5.1850    -2.0620     2.5510 H     1 <1>   0.1500 
 48 H       -7.3740     0.4160    -2.3710 H     1 <1>   0.0800 
 49 H       -7.6170     0.6190    -0.6580 H     1 <1>   0.0800 
 50 H       -9.1310    -3.3570    -0.0700 H     1 <1>   0.1500 
 51 H       -8.8420    -1.3330    -1.4080 H     1 <1>   0.0800 
 52 H       -7.4230    -2.0180    -2.1440 H     1 <1>   0.0800 
 53 H       -6.6890    -3.7800     3.3750 H     1 <1>   0.1500 
 54 H       -8.6540    -4.4410     2.0660 H     1 <1>   0.1500 
@<TRIPOS>BOND
  1   1   2  1   
  2   1   3  1   
  3   1   4  1   
  4   1  25  1   
  5   2   5  1   
  6   2  26  1   
  7   2  27  1   
  8   3   6  1   
  9   3  28  1   
 10   3  29  1   
 11   4   7  1   
 12   4  30  1   
 13   4  31  1   
 14   5   8  1   
 15   5  32  1   
 16   5  33  1   
 17   6   8  1   
 18   6  34  1   
 19   6  35  1   
 20   7   9  ar  
 21   7  10  ar  
 22   8  11  1   
 23   8  36  1   
 24   9  12  ar  
 25   9  37  1   
 26  10  13  ar  
 27  10  38  1   
 28  11  14  1   
 29  11  39  1   
 30  11  40  1   
 31  12  15  ar  
 32  12  41  1   
 33  13  15  ar  
 34  13  42  1   
 35  14  16  1   
 36  14  17  1   
 37  14  43  1   
 38  15  44  1   
 39  16  18  ar  
 40  16  19  ar  
 41  17  20  1   
 42  17  45  1   
 43  17  46  1   
 44  18  21  ar  
 45  18  22  1   
 46  19  23  ar  
 47  19  47  1   
 48  20  22  1   
 49  20  48  1   
 50  20  49  1   
 51  21  24  ar  
 52  21  50  1   
 53  22  51  1   
 54  22  52  1   
 55  23  24  ar  
 56  23  53  1   
 57  24  54  1   
@<TRIPOS>SUBSTRUCTURE
  1 ****   8 GROUP 4 **** **** 0

# MOE 2024.06 (io_trps.svl 2023.06)
