@<TRIPOS>MOLECULE
NONAME
43 44 1 0 0 
SMALL
USER_CHARGES


@<TRIPOS>ATOM
  1 CL       0.0520     1.5040    -3.3400 Cl    1 <1>  -0.1770 
  2 C        0.7800     1.8160    -1.7860 C.ar  1 <1>   0.1770 
  3 C        1.1660     3.1020    -1.4710 C.ar  1 <1>  -0.1500 
  4 C        0.9520     0.7700    -0.8980 C.ar  1 <1>  -0.1500 
  5 C        1.7400     3.3650    -0.2350 C.ar  1 <1>   0.1990 
  6 C        1.5230     1.0260     0.3380 C.ar  1 <1>  -0.1500 
  7 N        2.1320     4.6610     0.0770 N.am  1 <1>  -0.6930 
  8 C        1.9090     2.3150     0.6640 C.ar  1 <1>  -0.1500 
  9 S        3.8050     5.0310     0.3200 S.o2  1 <1>   1.3330 
 10 C        1.1880     5.5700     0.8030 C.3   1 <1>   0.3370 
 11 O        4.2960     4.1790     1.3730 O.2   1 <1>  -0.6500 
 12 O        3.9080     6.4660     0.4160 O.2   1 <1>  -0.6500 
 13 C        4.5250     4.5370    -1.2310 C.3   1 <1>  -0.1350 
 14 C        0.0340     4.8650     1.5570 C.2   1 <1>   0.5690 
 15 C        0.6590     6.5980    -0.2060 C.3   1 <1>  -0.2400 
 16 O        0.0500     4.8560     2.7660 O.2   1 <1>  -0.5700 
 17 N       -0.9890     4.2890     0.8630 N.am  1 <1>  -0.7300 
 18 C       -2.1530     3.6100     1.4530 C.3   1 <1>   0.2200 
 19 C       -2.1900     2.1740     0.9500 C.3   1 <1>  -0.1600 
 20 C       -3.4200     4.2200     0.8680 C.3   1 <1>  -0.1600 
 21 C       -2.8250     2.2350    -0.4450 C.3   1 <1>  -0.1600 
 22 C       -3.6120     3.5510    -0.4980 C.3   1 <1>  -0.1600 
 23 H        1.0260     3.8950    -2.1810 H     1 <1>   0.1500 
 24 H        0.6440    -0.2240    -1.1700 H     1 <1>   0.1500 
 25 H        1.6640     0.2260     1.0460 H     1 <1>   0.1500 
 26 H        2.3440     2.5130     1.6290 H     1 <1>   0.1500 
 27 H        1.7390     6.1050     1.5580 H     1 <1>   0.0800 
 28 H        4.3850     3.4860    -1.3890 H     1 <1>   0.0800 
 29 H        5.5770     4.7450    -1.2280 H     1 <1>   0.0800 
 30 H        4.0710     5.0760    -2.0390 H     1 <1>   0.0800 
 31 H        0.1210     6.1130    -1.0000 H     1 <1>   0.0800 
 32 H        1.4740     7.1640    -0.6200 H     1 <1>   0.0800 
 33 H       -0.0060     7.2810     0.2920 H     1 <1>   0.0800 
 34 H       -0.9510     4.2400    -0.1530 H     1 <1>   0.3700 
 35 H       -2.1270     3.6680     2.5300 H     1 <1>   0.0800 
 36 H       -2.8310     1.6050     1.6000 H     1 <1>   0.0800 
 37 H       -1.2160     1.7190     0.9480 H     1 <1>   0.0800 
 38 H       -3.3650     5.2920     0.8050 H     1 <1>   0.0800 
 39 H       -4.2470     3.9560     1.5040 H     1 <1>   0.0800 
 40 H       -3.4660     1.3860    -0.6100 H     1 <1>   0.0800 
 41 H       -2.0590     2.2400    -1.2000 H     1 <1>   0.0800 
 42 H       -3.2130     4.1800    -1.2750 H     1 <1>   0.0800 
 43 H       -4.6570     3.3770    -0.6960 H     1 <1>   0.0800 
@<TRIPOS>BOND
  1   1   2  1   
  2   2   3  ar  
  3   2   4  ar  
  4   3   5  ar  
  5   3  23  1   
  6   4   6  ar  
  7   4  24  1   
  8   5   7  1   
  9   5   8  ar  
 10   6   8  ar  
 11   6  25  1   
 12   7   9  am  
 13   7  10  1   
 14   8  26  1   
 15   9  11  2   
 16   9  12  2   
 17   9  13  1   
 18  10  14  1   
 19  10  15  1   
 20  10  27  1   
 21  13  28  1   
 22  13  29  1   
 23  13  30  1   
 24  14  16  2   
 25  14  17  am  
 26  15  31  1   
 27  15  32  1   
 28  15  33  1   
 29  17  18  1   
 30  17  34  1   
 31  18  19  1   
 32  18  20  1   
 33  18  35  1   
 34  19  21  1   
 35  19  36  1   
 36  19  37  1   
 37  20  22  1   
 38  20  38  1   
 39  20  39  1   
 40  21  22  1   
 41  21  40  1   
 42  21  41  1   
 43  22  42  1   
 44  22  43  1   
@<TRIPOS>SUBSTRUCTURE
  1 ****   5 GROUP 4 **** **** 0

# MOE 2024.06 (io_trps.svl 2023.06)
