@<TRIPOS>MOLECULE
NONAME
51 54 1 0 0 
SMALL
USER_CHARGES


@<TRIPOS>ATOM
  1 O       -2.6410     2.0630    -2.0770 O.2   1 <1>  -0.5700 
  2 C       -1.9500     2.0210    -1.0680 C.2   1 <1>   0.7160 
  3 N       -2.3210     1.0760    -0.1280 N.am  1 <1>  -0.6600 
  4 C       -0.8760     2.9830    -0.8460 C.2   1 <1>   0.2030 
  5 C       -3.0400    -0.1620    -0.5680 C.3   1 <1>   0.1400 
  6 C       -2.7690     1.5520     1.2200 C.3   1 <1>   0.1400 
  7 N       -0.1860     3.1480     0.2700 N.2   1 <1>  -0.7070 
  8 C       -0.4350     3.8900    -1.8170 C.2   1 <1>  -0.1500 
  9 C       -4.5700     0.0700    -0.6230 C.3   1 <1>   0.3430 
 10 C       -4.3140     1.6620     1.2830 C.3   1 <1>   0.3430 
 11 N        0.6850     4.1350     0.0170 N.pl3 1 <1>   0.3140 
 12 C        0.5510     4.6000    -1.2380 C.2   1 <1>  -0.3020 
 13 N       -4.9360     1.4180    -0.0710 N.4   1 <1>  -0.9590 
 14 C        1.6530     4.6120     1.0250 C.3   1 <1>   0.0960 
 15 C       -6.3770     1.7660    -0.1730 C.3   1 <1>   0.4860 
 16 C        1.1540     5.8910     1.7090 C.3   1 <1>  -0.2400 
 17 C       -6.5530     3.2040     0.2740 C.ar  1 <1>  -0.1440 
 18 C       -5.9750     4.2630    -0.4740 C.ar  1 <1>   0.0000 
 19 C       -7.2490     3.4550     1.4280 C.ar  1 <1>  -0.1500 
 20 C       -6.0720     5.5750     0.0450 C.ar  1 <1>   0.0000 
 21 C       -5.2960     4.0950    -1.7060 C.ar  1 <1>  -0.1500 
 22 C       -7.3760     4.7600     1.9100 C.ar  1 <1>  -0.1500 
 23 C       -6.7920     5.7920     1.2350 C.ar  1 <1>  -0.1500 
 24 C       -5.4480     6.6370    -0.6390 C.ar  1 <1>  -0.1500 
 25 C       -4.7000     5.1440    -2.3490 C.ar  1 <1>  -0.1500 
 26 C       -4.7700     6.4300    -1.8070 C.ar  1 <1>  -0.1500 
 27 H       -2.8180    -0.9630     0.1160 H     1 <1>   0.0800 
 28 H       -2.6870    -0.4650    -1.5400 H     1 <1>   0.0800 
 29 H       -2.3480     2.5190     1.4370 H     1 <1>   0.0800 
 30 H       -2.4140     0.8760     1.9780 H     1 <1>   0.0800 
 31 H       -0.8290     3.9720    -2.8150 H     1 <1>   0.1500 
 32 H       -5.0690    -0.7100    -0.0720 H     1 <1>   0.0800 
 33 H       -4.8890     0.0040    -1.6510 H     1 <1>   0.0800 
 34 H       -4.5710     2.6470     1.6390 H     1 <1>   0.0800 
 35 H       -4.6930     0.9490     1.9960 H     1 <1>   0.0800 
 36 H        1.1540     5.3950    -1.6380 H     1 <1>   0.1500 
 37 H       -4.4380     2.0850    -0.6880 H     1 <1>   0.4500 
 38 H        2.5930     4.7910     0.5380 H     1 <1>   0.0800 
 39 H        1.7890     3.8340     1.7550 H     1 <1>   0.0800 
 40 H       -6.9610     1.1120     0.4530 H     1 <1>   0.0800 
 41 H       -6.7160     1.6620    -1.1910 H     1 <1>   0.0800 
 42 H        1.0280     6.6790     0.9880 H     1 <1>   0.0800 
 43 H        1.8680     6.2120     2.4460 H     1 <1>   0.0800 
 44 H        0.2160     5.7050     2.2010 H     1 <1>   0.0800 
 45 H       -7.7110     2.6660     1.9990 H     1 <1>   0.1500 
 46 H       -5.2390     3.1310    -2.1730 H     1 <1>   0.1500 
 47 H       -7.9310     4.9380     2.8160 H     1 <1>   0.1500 
 48 H       -6.8780     6.7990     1.6050 H     1 <1>   0.1500 
 49 H       -5.5150     7.6260    -0.2230 H     1 <1>   0.1500 
 50 H       -4.1760     5.0000    -3.2790 H     1 <1>   0.1500 
 51 H       -4.2930     7.2450    -2.3240 H     1 <1>   0.1500 
@<TRIPOS>BOND
  1   1   2  2   
  2   2   3  am  
  3   2   4  1   
  4   3   5  1   
  5   3   6  1   
  6   4   7  2   
  7   4   8  1   
  8   5   9  1   
  9   5  27  1   
 10   5  28  1   
 11   6  10  1   
 12   6  29  1   
 13   6  30  1   
 14   7  11  1   
 15   8  12  2   
 16   8  31  1   
 17   9  13  1   
 18   9  32  1   
 19   9  33  1   
 20  10  13  1   
 21  10  34  1   
 22  10  35  1   
 23  11  12  1   
 24  11  14  1   
 25  12  36  1   
 26  13  15  1   
 27  13  37  1   
 28  14  16  1   
 29  14  38  1   
 30  14  39  1   
 31  15  17  1   
 32  15  40  1   
 33  15  41  1   
 34  16  42  1   
 35  16  43  1   
 36  16  44  1   
 37  17  18  ar  
 38  17  19  ar  
 39  18  20  ar  
 40  18  21  ar  
 41  19  22  ar  
 42  19  45  1   
 43  20  23  ar  
 44  20  24  ar  
 45  21  25  ar  
 46  21  46  1   
 47  22  23  ar  
 48  22  47  1   
 49  23  48  1   
 50  24  26  ar  
 51  24  49  1   
 52  25  26  ar  
 53  25  50  1   
 54  26  51  1   
@<TRIPOS>SUBSTRUCTURE
  1 ****   2 GROUP 4 **** **** 0

# MOE 2024.06 (io_trps.svl 2023.06)
