@<TRIPOS>MOLECULE
NONAME
46 48 1 0 0 
SMALL
USER_CHARGES


@<TRIPOS>ATOM
  1 CL      -0.2990    -2.4660     1.3490 Cl    1 <1>  -0.1770 
  2 C        1.1280    -2.3550     0.3500 C.ar  1 <1>   0.1770 
  3 C        2.3740    -2.4580     0.9350 C.ar  1 <1>  -0.1500 
  4 C        0.9840    -2.1670    -1.0130 C.ar  1 <1>  -0.1500 
  5 C        3.5130    -2.3710     0.1490 C.ar  1 <1>   0.1000 
  6 C        2.1180    -2.0790    -1.8040 C.ar  1 <1>  -0.1500 
  7 N        4.7630    -2.4770     0.7430 N.pl3 1 <1>  -0.8380 
  8 C        3.3710    -2.1810    -1.2240 C.ar  1 <1>  -0.1500 
  9 C        5.5320    -3.7190     0.4320 C.3   1 <1>   0.2090 
 10 C        5.6210    -1.2510     0.6950 C.3   1 <1>   0.2090 
 11 C        6.7590    -3.8650     1.3510 C.3   1 <1>   0.1400 
 12 C        6.8370    -1.3920     1.6240 C.3   1 <1>   0.1400 
 13 N        7.6100    -2.6340     1.3070 N.am  1 <1>  -0.6600 
 14 C        8.7380    -2.5620     0.5360 C.2   1 <1>   0.6900 
 15 O        8.9780    -1.5570    -0.1060 O.2   1 <1>  -0.5700 
 16 N        9.5790    -3.6350     0.5300 N.am  1 <1>  -0.5470 
 17 C       10.7080    -3.9380    -0.2480 C.ar  1 <1>   0.1170 
 18 C       11.7120    -4.7700     0.2610 C.ar  1 <1>  -0.1430 
 19 C       10.8280    -3.4440    -1.5420 C.ar  1 <1>  -0.1500 
 20 C       12.8040    -5.1070    -0.5380 C.ar  1 <1>  -0.1430 
 21 C       11.5880    -5.2940     1.6950 C.3   1 <1>  -0.0970 
 22 C       11.9140    -3.7680    -2.3260 C.ar  1 <1>  -0.1500 
 23 C       12.8970    -4.5990    -1.8250 C.ar  1 <1>  -0.1500 
 24 C       13.9230    -6.0230    -0.0600 C.3   1 <1>  -0.0970 
 25 H        2.4690    -2.6030     1.9940 H     1 <1>   0.1500 
 26 H        0.0010    -2.0910    -1.4410 H     1 <1>   0.1500 
 27 H        2.0240    -1.9320    -2.8660 H     1 <1>   0.1500 
 28 H        4.2520    -2.1130    -1.8350 H     1 <1>   0.1500 
 29 H        5.8590    -3.6920    -0.5930 H     1 <1>   0.0800 
 30 H        4.8890    -4.5730     0.5550 H     1 <1>   0.0800 
 31 H        5.0380    -0.3970     0.9940 H     1 <1>   0.0800 
 32 H        5.9660    -1.0860    -0.3110 H     1 <1>   0.0800 
 33 H        7.3210    -4.7280     1.0450 H     1 <1>   0.0800 
 34 H        6.4230    -4.0250     2.3600 H     1 <1>   0.0800 
 35 H        6.4970    -1.4380     2.6440 H     1 <1>   0.0800 
 36 H        7.4670    -0.5250     1.5250 H     1 <1>   0.0800 
 37 H        9.4360    -4.2410     1.3280 H     1 <1>   0.3700 
 38 H       10.0650    -2.8020    -1.9430 H     1 <1>   0.1500 
 39 H       10.8510    -6.0760     1.7340 H     1 <1>   0.0800 
 40 H       11.2950    -4.4990     2.3570 H     1 <1>   0.0800 
 41 H       12.5130    -5.6830     2.0720 H     1 <1>   0.0800 
 42 H       11.9940    -3.3750    -3.3250 H     1 <1>   0.1500 
 43 H       13.7370    -4.8460    -2.4500 H     1 <1>   0.1500 
 44 H       14.4770    -5.5450     0.7280 H     1 <1>   0.0800 
 45 H       14.6050    -6.2520    -0.8580 H     1 <1>   0.0800 
 46 H       13.5160    -6.9490     0.3030 H     1 <1>   0.0800 
@<TRIPOS>BOND
  1   1   2  1   
  2   2   3  ar  
  3   2   4  ar  
  4   3   5  ar  
  5   3  25  1   
  6   4   6  ar  
  7   4  26  1   
  8   5   7  1   
  9   5   8  ar  
 10   6   8  ar  
 11   6  27  1   
 12   7   9  1   
 13   7  10  1   
 14   8  28  1   
 15   9  11  1   
 16   9  29  1   
 17   9  30  1   
 18  10  12  1   
 19  10  31  1   
 20  10  32  1   
 21  11  13  1   
 22  11  33  1   
 23  11  34  1   
 24  12  13  1   
 25  12  35  1   
 26  12  36  1   
 27  13  14  am  
 28  14  15  2   
 29  14  16  am  
 30  16  17  1   
 31  16  37  1   
 32  17  18  ar  
 33  17  19  ar  
 34  18  20  ar  
 35  18  21  1   
 36  19  22  ar  
 37  19  38  1   
 38  20  23  ar  
 39  20  24  1   
 40  21  39  1   
 41  21  40  1   
 42  21  41  1   
 43  22  23  ar  
 44  22  42  1   
 45  23  43  1   
 46  24  44  1   
 47  24  45  1   
 48  24  46  1   
@<TRIPOS>SUBSTRUCTURE
  1 ****  13 GROUP 4 **** **** 0

# MOE 2024.06 (io_trps.svl 2023.06)
