@<TRIPOS>MOLECULE
NONAME
37 38 1 0 0 
SMALL
USER_CHARGES


@<TRIPOS>ATOM
  1 O        0.0000    -0.3440     1.4400 O.2   1 <1>  -0.5700 
  2 C       -0.0410    -1.1100     0.4980 C.2   1 <1>   0.6900 
  3 N        1.0850    -1.5680    -0.1190 N.am  1 <1>  -0.5470 
  4 N       -1.2290    -1.5560     0.0260 N.am  1 <1>  -0.7300 
  5 C        2.4370    -1.2260     0.0530 C.ar  1 <1>   0.1170 
  6 C       -2.5460    -1.1800     0.5660 C.3   1 <1>   0.2200 
  7 C        3.4410    -2.1710    -0.1950 C.ar  1 <1>  -0.1430 
  8 C        2.7990     0.0610     0.4420 C.ar  1 <1>  -0.1500 
  9 C       -3.3960    -2.4370     0.7030 C.3   1 <1>  -0.1600 
 10 C       -3.2920    -0.3660    -0.4840 C.3   1 <1>  -0.1600 
 11 C        4.7720    -1.7950    -0.0490 C.ar  1 <1>  -0.1500 
 12 C        3.0470    -3.5940    -0.6140 C.3   1 <1>  -0.0170 
 13 C        4.1240     0.4180     0.5880 C.ar  1 <1>  -0.1500 
 14 C       -3.9600    -2.7160    -0.6950 C.3   1 <1>  -0.1600 
 15 C       -3.8930    -1.3860    -1.4580 C.3   1 <1>  -0.1600 
 16 C        5.1140    -0.5130     0.3390 C.ar  1 <1>  -0.1500 
 17 C        4.1920    -4.6090    -0.7110 C.3   1 <1>  -0.2400 
 18 H        0.9230    -2.3690    -0.7140 H     1 <1>   0.3700 
 19 H       -1.2710    -2.0430    -0.8630 H     1 <1>   0.3700 
 20 H       -2.4440    -0.6510     1.5000 H     1 <1>   0.0800 
 21 H        2.0370     0.7940     0.6330 H     1 <1>   0.1500 
 22 H       -4.2110    -2.2220     1.3710 H     1 <1>   0.0800 
 23 H       -2.8360    -3.2650     1.1020 H     1 <1>   0.0800 
 24 H       -2.6550     0.3530    -0.9690 H     1 <1>   0.0800 
 25 H       -4.0920     0.1630     0.0050 H     1 <1>   0.0800 
 26 H        5.5720    -2.4880    -0.2310 H     1 <1>   0.1500 
 27 H        2.5590    -3.5450    -1.5720 H     1 <1>   0.0800 
 28 H        2.3360    -3.9720     0.1000 H     1 <1>   0.0800 
 29 H        4.3830     1.4170     0.8920 H     1 <1>   0.1500 
 30 H       -4.9710    -3.0830    -0.6330 H     1 <1>   0.0800 
 31 H       -3.3550    -3.4530    -1.1950 H     1 <1>   0.0800 
 32 H       -3.2540    -1.4920    -2.3180 H     1 <1>   0.0800 
 33 H       -4.8680    -1.0720    -1.7870 H     1 <1>   0.0800 
 34 H        6.1490    -0.2400     0.4500 H     1 <1>   0.1500 
 35 H        4.8930    -4.3170    -1.4720 H     1 <1>   0.0800 
 36 H        3.8010    -5.5780    -0.9660 H     1 <1>   0.0800 
 37 H        4.7020    -4.6880     0.2330 H     1 <1>   0.0800 
@<TRIPOS>BOND
  1   1   2  2   
  2   2   3  am  
  3   2   4  am  
  4   3   5  1   
  5   3  18  1   
  6   4   6  1   
  7   4  19  1   
  8   5   7  ar  
  9   5   8  ar  
 10   6   9  1   
 11   6  10  1   
 12   6  20  1   
 13   7  11  ar  
 14   7  12  1   
 15   8  13  ar  
 16   8  21  1   
 17   9  14  1   
 18   9  22  1   
 19   9  23  1   
 20  10  15  1   
 21  10  24  1   
 22  10  25  1   
 23  11  16  ar  
 24  11  26  1   
 25  12  17  1   
 26  12  27  1   
 27  12  28  1   
 28  13  16  ar  
 29  13  29  1   
 30  14  15  1   
 31  14  30  1   
 32  14  31  1   
 33  15  32  1   
 34  15  33  1   
 35  16  34  1   
 36  17  35  1   
 37  17  36  1   
 38  17  37  1   
@<TRIPOS>SUBSTRUCTURE
  1 ****   3 GROUP 4 **** **** 0

# MOE 2024.06 (io_trps.svl 2023.06)
