@<TRIPOS>MOLECULE
NONAME
46 48 1 0 0 
SMALL
USER_CHARGES


@<TRIPOS>ATOM
  1 F        0.1560    -0.7180    -1.3630 F     1 <1>  -0.3400 
  2 C        1.3720    -0.4880    -1.8430 C.3   1 <1>   1.1640 
  3 F        1.2590     0.5510    -2.6610 F     1 <1>  -0.3400 
  4 F        1.6710    -1.5330    -2.6080 F     1 <1>  -0.3400 
  5 C        2.4030    -0.2360    -0.7320 C.ar  1 <1>  -0.1440 
  6 C        3.6660    -0.8180    -0.7660 C.ar  1 <1>  -0.1500 
  7 C        2.0860     0.5970     0.3370 C.ar  1 <1>  -0.1500 
  8 C        4.5970    -0.5880     0.2370 C.ar  1 <1>   0.1000 
  9 C        3.0060     0.8350     1.3430 C.ar  1 <1>  -0.1500 
 10 N        5.8450    -1.1930     0.1630 N.pl3 1 <1>  -0.8380 
 11 C        4.2540     0.2460     1.2940 C.ar  1 <1>  -0.1500 
 12 C        6.1040    -2.2920     1.1370 C.3   1 <1>   0.2090 
 13 C        7.0070    -0.2920    -0.0810 C.3   1 <1>   0.2090 
 14 C        7.3710    -3.0840     0.7460 C.3   1 <1>   0.3430 
 15 C        8.2640    -1.1060    -0.4580 C.3   1 <1>   0.3430 
 16 N        8.5800    -2.1970     0.5440 N.4   1 <1>  -0.9590 
 17 C        9.7600    -3.0220     0.1390 C.3   1 <1>   0.3430 
 18 C       11.0670    -2.2280     0.1880 C.3   1 <1>  -0.0170 
 19 C       12.2120    -3.1700    -0.1270 C.ar  1 <1>  -0.1430 
 20 C       12.5980    -3.3860    -1.4410 C.ar  1 <1>  -0.1500 
 21 C       12.8740    -3.8320     0.8960 C.ar  1 <1>  -0.1500 
 22 C       13.6320    -4.2600    -1.7300 C.ar  1 <1>  -0.1500 
 23 C       13.9080    -4.7060     0.6070 C.ar  1 <1>  -0.1500 
 24 C       14.2860    -4.9220    -0.7060 C.ar  1 <1>  -0.1500 
 25 H        3.9510    -1.4650    -1.5770 H     1 <1>   0.1500 
 26 H        1.1170     1.0670     0.3910 H     1 <1>   0.1500 
 27 H        2.7460     1.4820     2.1650 H     1 <1>   0.1500 
 28 H        4.9620     0.4340     2.0780 H     1 <1>   0.1500 
 29 H        5.2580    -2.9580     1.1510 H     1 <1>   0.0800 
 30 H        6.2170    -1.8820     2.1260 H     1 <1>   0.0800 
 31 H        7.2020     0.2980     0.7980 H     1 <1>   0.0800 
 32 H        6.7650     0.3840    -0.8850 H     1 <1>   0.0800 
 33 H        7.1590    -3.6140    -0.1670 H     1 <1>   0.0800 
 34 H        7.5750    -3.8150     1.5110 H     1 <1>   0.0800 
 35 H        9.0990    -0.4320    -0.5470 H     1 <1>   0.0800 
 36 H        8.0930    -1.5480    -1.4260 H     1 <1>   0.0800 
 37 H        8.7840    -1.7480     1.4470 H     1 <1>   0.4500 
 38 H        9.6160    -3.4090    -0.8570 H     1 <1>   0.0800 
 39 H        9.8560    -3.8640     0.8050 H     1 <1>   0.0800 
 40 H       11.2120    -1.8070     1.1670 H     1 <1>   0.0800 
 41 H       11.0610    -1.4320    -0.5350 H     1 <1>   0.0800 
 42 H       12.1080    -2.8790    -2.2540 H     1 <1>   0.1500 
 43 H       12.6010    -3.6770     1.9250 H     1 <1>   0.1500 
 44 H       13.9320    -4.4260    -2.7510 H     1 <1>   0.1500 
 45 H       14.4220    -5.2190     1.4020 H     1 <1>   0.1500 
 46 H       15.0910    -5.6010    -0.9310 H     1 <1>   0.1500 
@<TRIPOS>BOND
  1   1   2  1   
  2   2   3  1   
  3   2   4  1   
  4   2   5  1   
  5   5   6  ar  
  6   5   7  ar  
  7   6   8  ar  
  8   6  25  1   
  9   7   9  ar  
 10   7  26  1   
 11   8  10  1   
 12   8  11  ar  
 13   9  11  ar  
 14   9  27  1   
 15  10  12  1   
 16  10  13  1   
 17  11  28  1   
 18  12  14  1   
 19  12  29  1   
 20  12  30  1   
 21  13  15  1   
 22  13  31  1   
 23  13  32  1   
 24  14  16  1   
 25  14  33  1   
 26  14  34  1   
 27  15  16  1   
 28  15  35  1   
 29  15  36  1   
 30  16  17  1   
 31  16  37  1   
 32  17  18  1   
 33  17  38  1   
 34  17  39  1   
 35  18  19  1   
 36  18  40  1   
 37  18  41  1   
 38  19  20  ar  
 39  19  21  ar  
 40  20  22  ar  
 41  20  42  1   
 42  21  23  ar  
 43  21  43  1   
 44  22  24  ar  
 45  22  44  1   
 46  23  24  ar  
 47  23  45  1   
 48  24  46  1   
@<TRIPOS>SUBSTRUCTURE
  1 ****  10 GROUP 4 **** **** 0

# MOE 2024.06 (io_trps.svl 2023.06)
