@<TRIPOS>MOLECULE
NONAME
44 47 1 0 0 
SMALL
USER_CHARGES


@<TRIPOS>ATOM
  1 O       -0.9190    -2.7470     2.7680 O.2   1 <1>  -0.5700 
  2 C       -0.6230    -3.0210     1.6360 C.2   1 <1>   0.5690 
  3 N        0.6410    -2.9900     1.1160 N.am  1 <1>  -0.4200 
  4 C       -1.6460    -3.4320     0.5880 C.3   1 <1>  -0.0190 
  5 C        0.6970    -3.2930    -0.2150 C.2   1 <1>   0.5690 
  6 C        1.8520    -2.6790     1.9280 C.3   1 <1>   0.2010 
  7 C       -0.6760    -3.6290    -0.7720 C.3   1 <1>  -0.0190 
  8 C       -2.7890    -2.3000     0.2140 C.3   1 <1>   0.0580 
  9 O        1.7010    -3.3000    -0.8780 O.2   1 <1>  -0.5700 
 10 C        2.7200    -3.9090     2.1700 C.2   1 <1>   0.5690 
 11 C       -1.2540    -2.6090    -1.9350 C.3   1 <1>   0.0580 
 12 C       -3.3310    -1.4680    -1.0740 C.2   1 <1>  -0.2880 
 13 C       -1.9880    -2.4630    -0.8360 C.3   1 <1>  -0.1600 
 14 O        2.7220    -4.4030     3.2700 O.2   1 <1>  -0.5700 
 15 N        3.4730    -4.3820     1.1260 N.am  1 <1>  -0.5470 
 16 C       -2.5240    -1.6300    -2.2030 C.2   1 <1>  -0.2880 
 17 C        4.3990    -5.4310     1.0090 C.ar  1 <1>   0.1170 
 18 C        5.3590    -5.4240    -0.0270 C.ar  1 <1>   0.0860 
 19 C        4.3650    -6.5060     1.8960 C.ar  1 <1>  -0.1500 
 20 C        5.4590    -4.3460    -0.9940 C.2   1 <1>   0.6340 
 21 C        6.2410    -6.5090    -0.1070 C.ar  1 <1>  -0.1500 
 22 C        5.2500    -7.5580     1.7930 C.ar  1 <1>  -0.1500 
 23 O        4.9950    -3.2330    -0.8310 O.2   1 <1>  -0.5700 
 24 O        6.1040    -4.5950    -2.1400 O.3   1 <1>  -0.4300 
 25 C        6.1940    -7.5600     0.7850 C.ar  1 <1>  -0.1500 
 26 C        6.2380    -3.6160    -3.1530 C.3   1 <1>   0.0400 
 27 H       -2.1010    -4.3620     0.8880 H     1 <1>   0.0800 
 28 H        1.5550    -2.2760     2.8800 H     1 <1>   0.0800 
 29 H        2.4360    -1.9330     1.4190 H     1 <1>   0.0800 
 30 H       -0.6770    -4.6510    -1.1130 H     1 <1>   0.0800 
 31 H       -2.6130    -1.5140     0.9370 H     1 <1>   0.0800 
 32 H       -0.4140    -1.9560    -2.1380 H     1 <1>   0.0800 
 33 H       -4.2290    -0.8800    -0.9660 H     1 <1>   0.1500 
 34 H       -1.3010    -1.5900    -0.4700 H     1 <1>   0.0800 
 35 H       -2.6810    -3.4020    -1.1950 H     1 <1>   0.0800 
 36 H        3.4050    -3.8020     0.2720 H     1 <1>   0.3700 
 37 H       -2.6430    -1.1980    -3.1840 H     1 <1>   0.1500 
 38 H        3.6340    -6.5320     2.6830 H     1 <1>   0.1500 
 39 H        6.9860    -6.5300    -0.8840 H     1 <1>   0.1500 
 40 H        5.2040    -8.3750     2.4930 H     1 <1>   0.1500 
 41 H        6.8870    -8.3800     0.6990 H     1 <1>   0.1500 
 42 H        6.7800    -2.7760    -2.7550 H     1 <1>   0.0800 
 43 H        5.2560    -3.3080    -3.4700 H     1 <1>   0.0800 
 44 H        6.7750    -4.0480    -3.9770 H     1 <1>   0.0800 
@<TRIPOS>BOND
  1   1   2  2   
  2   2   3  am  
  3   2   4  1   
  4   3   5  am  
  5   3   6  1   
  6   4   7  1   
  7   4   8  1   
  8   4  27  1   
  9   5   7  1   
 10   5   9  2   
 11   6  10  1   
 12   6  28  1   
 13   6  29  1   
 14   7  11  1   
 15   7  30  1   
 16   8  12  1   
 17   8  13  1   
 18   8  31  1   
 19  10  14  2   
 20  10  15  am  
 21  11  13  1   
 22  11  16  1   
 23  11  32  1   
 24  12  16  2   
 25  12  33  1   
 26  13  34  1   
 27  13  35  1   
 28  15  17  1   
 29  15  36  1   
 30  16  37  1   
 31  17  18  ar  
 32  17  19  ar  
 33  18  20  1   
 34  18  21  ar  
 35  19  22  ar  
 36  19  38  1   
 37  20  23  2   
 38  20  24  1   
 39  21  25  ar  
 40  21  39  1   
 41  22  25  ar  
 42  22  40  1   
 43  24  26  1   
 44  25  41  1   
 45  26  42  1   
 46  26  43  1   
 47  26  44  1   
@<TRIPOS>SUBSTRUCTURE
  1 ****   9 GROUP 4 **** **** 0

# MOE 2024.06 (io_trps.svl 2023.06)
