@<TRIPOS>MOLECULE
NONAME
48 50 1 0 0 
SMALL
USER_CHARGES


@<TRIPOS>ATOM
  1 S        0.0730     0.3510     0.4860 S.3   1 <1>  -0.4340 
  2 C        1.7060    -0.3100     0.1040 C.3   1 <1>   0.2170 
  3 C        1.0250     1.8800     0.3830 C.3   1 <1>   0.2170 
  4 C        2.2970     1.0170     0.7110 C.3   1 <1>   0.2580 
  5 O        3.4190     1.4770    -0.0170 O.3   1 <1>  -0.3400 
  6 C        4.6250     0.8730     0.0740 C.ar  1 <1>   0.0830 
  7 C        5.6120     1.3110    -0.7930 C.ar  1 <1>  -0.1500 
  8 C        4.9200    -0.1440     0.9760 C.ar  1 <1>  -0.1500 
  9 C        6.8700     0.7400    -0.7720 C.ar  1 <1>  -0.1500 
 10 C        6.1810    -0.7110     0.9880 C.ar  1 <1>  -0.1500 
 11 C        7.1870    -0.2940     0.1140 C.ar  1 <1>   0.0860 
 12 C        8.4990    -0.9150     0.1400 C.2   1 <1>   0.5440 
 13 O        8.9130    -1.4510     1.1490 O.2   1 <1>  -0.5700 
 14 N        9.2970    -0.9220    -0.9720 N.am  1 <1>  -0.7300 
 15 C       10.6160    -1.5980    -1.0660 C.3   1 <1>   0.1400 
 16 C       11.6640    -0.8410    -0.2500 C.3   1 <1>   0.0700 
 17 S       13.2860    -1.5790    -0.5900 S.3   1 <1>  -0.4600 
 18 C       14.3540    -0.8170     0.6650 C.3   1 <1>   0.2130 
 19 C       15.7740    -1.3230     0.4710 C.ar  1 <1>  -0.1430 
 20 C       16.1020    -2.6270     0.8050 C.ar  1 <1>  -0.1500 
 21 C       16.7580    -0.4870    -0.0320 C.ar  1 <1>  -0.1500 
 22 C       17.3980    -3.0880     0.6450 C.ar  1 <1>  -0.1500 
 23 C       18.0540    -0.9470    -0.1920 C.ar  1 <1>  -0.1500 
 24 C       18.3820    -2.2490     0.1480 C.ar  1 <1>  -0.1430 
 25 C       19.8010    -2.7550    -0.0300 C.3   1 <1>  -0.0970 
 26 H        1.7990    -0.4110    -0.9630 H     1 <1>   0.0000 
 27 H        1.8780    -1.2030     0.6780 H     1 <1>   0.0000 
 28 H        0.7080     2.5560     1.1560 H     1 <1>   0.0000 
 29 H        0.9690     2.2560    -0.6240 H     1 <1>   0.0000 
 30 H        2.5080     0.9710     1.7650 H     1 <1>   0.0000 
 31 H        5.3860     2.1060    -1.4830 H     1 <1>   0.1500 
 32 H        4.1910    -0.5060     1.6760 H     1 <1>   0.1500 
 33 H        7.6190     1.1100    -1.4490 H     1 <1>   0.1500 
 34 H        6.4020    -1.4980     1.6900 H     1 <1>   0.1500 
 35 H        8.9110    -0.5930    -1.8580 H     1 <1>   0.3700 
 36 H       10.9210    -1.6400    -2.0970 H     1 <1>   0.0800 
 37 H       10.5300    -2.6040    -0.6910 H     1 <1>   0.0800 
 38 H       11.4760    -0.9370     0.8040 H     1 <1>   0.0800 
 39 H       11.7170     0.1930    -0.5380 H     1 <1>   0.0800 
 40 H       13.9690    -1.0980     1.6290 H     1 <1>   0.0800 
 41 H       14.2900     0.2480     0.5370 H     1 <1>   0.0800 
 42 H       15.3450    -3.2900     1.1870 H     1 <1>   0.1500 
 43 H       16.5220     0.5260    -0.3050 H     1 <1>   0.1500 
 44 H       17.6340    -4.1040     0.9070 H     1 <1>   0.1500 
 45 H       18.8070    -0.2870    -0.5860 H     1 <1>   0.1500 
 46 H       19.9160    -3.1750    -1.0130 H     1 <1>   0.0800 
 47 H       20.0250    -3.5120     0.7000 H     1 <1>   0.0800 
 48 H       20.5050    -1.9510     0.0890 H     1 <1>   0.0800 
@<TRIPOS>BOND
  1   1   2  1   
  2   1   3  1   
  3   2   4  1   
  4   2  26  1   
  5   2  27  1   
  6   3   4  1   
  7   3  28  1   
  8   3  29  1   
  9   4   5  1   
 10   4  30  1   
 11   5   6  1   
 12   6   7  ar  
 13   6   8  ar  
 14   7   9  ar  
 15   7  31  1   
 16   8  10  ar  
 17   8  32  1   
 18   9  11  ar  
 19   9  33  1   
 20  10  11  ar  
 21  10  34  1   
 22  11  12  1   
 23  12  13  2   
 24  12  14  am  
 25  14  15  1   
 26  14  35  1   
 27  15  16  1   
 28  15  36  1   
 29  15  37  1   
 30  16  17  1   
 31  16  38  1   
 32  16  39  1   
 33  17  18  1   
 34  18  19  1   
 35  18  40  1   
 36  18  41  1   
 37  19  20  ar  
 38  19  21  ar  
 39  20  22  ar  
 40  20  42  1   
 41  21  23  ar  
 42  21  43  1   
 43  22  24  ar  
 44  22  44  1   
 45  23  24  ar  
 46  23  45  1   
 47  24  25  1   
 48  25  46  1   
 49  25  47  1   
 50  25  48  1   
@<TRIPOS>SUBSTRUCTURE
  1 ****  14 GROUP 4 **** **** 0

# MOE 2024.06 (io_trps.svl 2023.06)
