@<TRIPOS>MOLECULE
NONAME
37 38 1 0 0 
SMALL
USER_CHARGES


@<TRIPOS>ATOM
  1 BR       0.2010     0.2200    -1.0290 Br    1 <1>  -0.1110 
  2 C       -0.9190     1.6260    -0.3430 C.ar  1 <1>   0.1110 
  3 C       -2.2820     1.4110    -0.2720 C.ar  1 <1>  -0.1500 
  4 C       -0.3270     2.8090     0.0590 C.ar  1 <1>  -0.1500 
  5 C       -3.0880     2.4320     0.2240 C.ar  1 <1>   0.0830 
  6 C       -1.1360     3.8180     0.5520 C.ar  1 <1>  -0.1500 
  7 O       -4.4360     2.3380     0.3400 O.3   1 <1>  -0.3630 
  8 C       -2.5070     3.6260     0.6320 C.ar  1 <1>  -0.1500 
  9 C       -5.1250     1.1720    -0.0470 C.3   1 <1>   0.1200 
 10 C       -6.6150     1.3980     0.2100 C.3   1 <1>  -0.1600 
 11 C       -7.4380     0.1890    -0.2400 C.3   1 <1>   0.1100 
 12 N       -8.8400     0.3210     0.1930 N.3   1 <1>  -0.8100 
 13 C       -9.5890     1.3350    -0.5810 C.3   1 <1>   0.1100 
 14 C       -9.5260    -0.9870     0.1840 C.3   1 <1>   0.1100 
 15 C      -11.0310     1.4860    -0.0560 C.3   1 <1>   0.3430 
 16 C      -10.9660    -0.8670     0.7220 C.3   1 <1>   0.3430 
 17 N      -11.7500     0.1690    -0.0280 N.4   1 <1>  -0.9060 
 18 H       -2.6770     0.4700    -0.6000 H     1 <1>   0.1500 
 19 H        0.7390     2.9350    -0.0130 H     1 <1>   0.1500 
 20 H       -0.7030     4.7510     0.8720 H     1 <1>   0.1500 
 21 H       -3.1400     4.4070     1.0150 H     1 <1>   0.1500 
 22 H       -4.7550     0.3490     0.5400 H     1 <1>   0.0800 
 23 H       -4.9380     1.0020    -1.0930 H     1 <1>   0.0800 
 24 H       -6.9180     2.2760    -0.3290 H     1 <1>   0.0800 
 25 H       -6.7620     1.5560     1.2640 H     1 <1>   0.0800 
 26 H       -7.0120    -0.6910     0.2150 H     1 <1>   0.0800 
 27 H       -7.3840     0.0720    -1.3100 H     1 <1>   0.0800 
 28 H       -9.6040     1.0680    -1.6250 H     1 <1>   0.0800 
 29 H       -9.1040     2.2910    -0.4930 H     1 <1>   0.0800 
 30 H       -8.9840    -1.6750     0.8110 H     1 <1>   0.0800 
 31 H       -9.5400    -1.3900    -0.8150 H     1 <1>   0.0800 
 32 H      -11.5660     2.1870    -0.6750 H     1 <1>   0.0800 
 33 H      -10.9830     1.8930     0.9410 H     1 <1>   0.0800 
 34 H      -10.9130    -0.5960     1.7650 H     1 <1>   0.0800 
 35 H      -11.4550    -1.8250     0.6530 H     1 <1>   0.0800 
 36 H      -11.8870    -0.1540    -0.9930 H     1 <1>   0.4500 
 37 H      -12.6770     0.2850     0.3990 H     1 <1>   0.4500 
@<TRIPOS>BOND
  1   1   2  1   
  2   2   3  ar  
  3   2   4  ar  
  4   3   5  ar  
  5   3  18  1   
  6   4   6  ar  
  7   4  19  1   
  8   5   7  1   
  9   5   8  ar  
 10   6   8  ar  
 11   6  20  1   
 12   7   9  1   
 13   8  21  1   
 14   9  10  1   
 15   9  22  1   
 16   9  23  1   
 17  10  11  1   
 18  10  24  1   
 19  10  25  1   
 20  11  12  1   
 21  11  26  1   
 22  11  27  1   
 23  12  13  1   
 24  12  14  1   
 25  13  15  1   
 26  13  28  1   
 27  13  29  1   
 28  14  16  1   
 29  14  30  1   
 30  14  31  1   
 31  15  17  1   
 32  15  32  1   
 33  15  33  1   
 34  16  17  1   
 35  16  34  1   
 36  16  35  1   
 37  17  36  1   
 38  17  37  1   
@<TRIPOS>SUBSTRUCTURE
  1 ****   9 GROUP 4 **** **** 0

# MOE 2024.06 (io_trps.svl 2023.06)
