@<TRIPOS>MOLECULE
NONAME
28 29 1 0 0 
SMALL
USER_CHARGES


@<TRIPOS>ATOM
  1 O       -1.3940     0.6770    -1.9010 O.2   1 <1>  -0.5700 
  2 C       -1.8090     0.7100    -0.7710 C.2   1 <1>   0.5700 
  3 N       -3.1290     0.7920    -0.5060 N.am  1 <1>  -0.7300 
  4 C       -3.7520     0.7420     0.8160 C.3   1 <1>   0.3640 
  5 C       -5.0960     0.0330     0.6980 C.ar  1 <1>  -0.1440 
  6 C       -3.9070     2.1660     1.3420 C.3   1 <1>  -0.2400 
  7 C       -6.1070     0.5380    -0.1130 C.ar  1 <1>  -0.1500 
  8 C       -5.3230    -1.1400     1.4080 C.ar  1 <1>  -0.1500 
  9 C       -7.3210    -0.1170    -0.2120 C.ar  1 <1>   0.0820 
 10 C       -6.5400    -1.7970     1.3180 C.ar  1 <1>  -0.1500 
 11 O       -8.2780     0.3960    -1.0270 O.3   1 <1>  -0.3630 
 12 C       -7.5440    -1.2870     0.5160 C.ar  1 <1>   0.0820 
 13 C       -9.3640    -0.4530    -1.3510 C.3   1 <1>   0.1200 
 14 O       -8.7340    -1.9370     0.4570 O.3   1 <1>  -0.3630 
 15 C       -9.8220    -1.2290    -0.1080 C.3   1 <1>   0.1200 
 16 H       -1.1110     0.6740     0.0470 H     1 <1>   0.0600 
 17 H       -3.7730     0.7620    -1.2980 H     1 <1>   0.3700 
 18 H       -3.1120     0.1910     1.4850 H     1 <1>   0.0800 
 19 H       -4.4910     2.7640     0.6670 H     1 <1>   0.0800 
 20 H       -2.9410     2.6200     1.4710 H     1 <1>   0.0800 
 21 H       -4.4030     2.1450     2.2960 H     1 <1>   0.0800 
 22 H       -5.9650     1.4410    -0.6790 H     1 <1>   0.1500 
 23 H       -4.5550    -1.5540     2.0370 H     1 <1>   0.1500 
 24 H       -6.7170    -2.7040     1.8690 H     1 <1>   0.1500 
 25 H       -9.0390    -1.1330    -2.1180 H     1 <1>   0.0800 
 26 H      -10.1590     0.1590    -1.7350 H     1 <1>   0.0800 
 27 H      -10.5850    -1.9420    -0.3620 H     1 <1>   0.0800 
 28 H      -10.2030    -0.5530     0.6360 H     1 <1>   0.0800 
@<TRIPOS>BOND
  1   1   2  2   
  2   2   3  am  
  3   2  16  1   
  4   3   4  1   
  5   3  17  1   
  6   4   5  1   
  7   4   6  1   
  8   4  18  1   
  9   5   7  ar  
 10   5   8  ar  
 11   6  19  1   
 12   6  20  1   
 13   6  21  1   
 14   7   9  ar  
 15   7  22  1   
 16   8  10  ar  
 17   8  23  1   
 18   9  11  1   
 19   9  12  ar  
 20  10  12  ar  
 21  10  24  1   
 22  11  13  1   
 23  12  14  1   
 24  13  15  1   
 25  13  25  1   
 26  13  26  1   
 27  14  15  1   
 28  15  27  1   
 29  15  28  1   
@<TRIPOS>SUBSTRUCTURE
  1 ****   7 GROUP 4 **** **** 0

# MOE 2024.06 (io_trps.svl 2023.06)
