@<TRIPOS>MOLECULE
NONAME
40 42 1 0 0 
SMALL
USER_CHARGES


@<TRIPOS>ATOM
  1 BR       0.6050    -0.1560     1.6690 Br    1 <1>  -0.1110 
  2 C        2.3140    -0.8180     1.0780 C.ar  1 <1>   0.1110 
  3 C        3.4580    -0.3480     1.6910 C.ar  1 <1>  -0.1500 
  4 C        2.3530    -1.7480     0.0550 C.ar  1 <1>  -0.1500 
  5 C        4.6710    -0.8380     1.2480 C.ar  1 <1>   0.1770 
  6 C        3.5820    -2.2250    -0.3700 C.ar  1 <1>  -0.1500 
  7 CL       6.1340    -0.2490     2.0120 Cl    1 <1>  -0.1770 
  8 C        4.7660    -1.7770     0.2180 C.ar  1 <1>   0.1170 
  9 N        6.0320    -2.2380    -0.1820 N.am  1 <1>  -0.5470 
 10 C        6.4890    -2.8810    -1.2960 C.2   1 <1>   0.5690 
 11 O        5.7860    -3.2350    -2.2130 O.2   1 <1>  -0.5700 
 12 C        7.9950    -3.1480    -1.3530 C.3   1 <1>   0.1710 
 13 N        8.7850    -2.3020    -0.4070 N.3   1 <1>  -0.8100 
 14 C        8.9240    -0.9270    -0.9030 C.3   1 <1>   0.1100 
 15 C       10.1020    -2.8870    -0.1500 C.3   1 <1>   0.1100 
 16 C        9.7590    -0.1160     0.0900 C.3   1 <1>  -0.1600 
 17 C       10.8680    -1.9730     0.8060 C.3   1 <1>  -0.1600 
 18 C       11.2570    -0.6200     0.0880 C.3   1 <1>   0.5600 
 19 O       11.6490     0.6010    -0.4910 O.3   1 <1>  -0.5600 
 20 O       12.5820    -1.0840    -0.0140 O.3   1 <1>  -0.5600 
 21 C       12.7580     1.1070     0.1470 C.3   1 <1>   0.1200 
 22 C       13.4630    -0.1590     0.5020 C.3   1 <1>   0.1200 
 23 H        3.4060     0.3750     2.4840 H     1 <1>   0.1500 
 24 H        1.4400    -2.0930    -0.3990 H     1 <1>   0.1500 
 25 H        3.6160    -2.9520    -1.1620 H     1 <1>   0.1500 
 26 H        6.8190    -1.9640     0.4220 H     1 <1>   0.3700 
 27 H        8.3410    -2.9990    -2.3610 H     1 <1>   0.0800 
 28 H        8.1360    -4.1850    -1.1060 H     1 <1>   0.0800 
 29 H        7.9520    -0.4730    -1.0060 H     1 <1>   0.0800 
 30 H        9.4060    -0.9210    -1.8680 H     1 <1>   0.0800 
 31 H       10.6530    -3.0000    -1.0700 H     1 <1>   0.0800 
 32 H        9.9810    -3.8570     0.3020 H     1 <1>   0.0800 
 33 H        9.2970    -0.1550     1.0600 H     1 <1>   0.0800 
 34 H        9.6090     0.9150    -0.1950 H     1 <1>   0.0800 
 35 H       11.6980    -2.5570     1.1750 H     1 <1>   0.0800 
 36 H       10.2830    -1.8280     1.6960 H     1 <1>   0.0800 
 37 H       12.4530     1.6630     1.0160 H     1 <1>   0.0800 
 38 H       13.3160     1.7210    -0.5370 H     1 <1>   0.0800 
 39 H       14.4150    -0.2590     0.0110 H     1 <1>   0.0800 
 40 H       13.5510    -0.2940     1.5650 H     1 <1>   0.0800 
@<TRIPOS>BOND
  1   1   2  1   
  2   2   3  ar  
  3   2   4  ar  
  4   3   5  ar  
  5   3  23  1   
  6   4   6  ar  
  7   4  24  1   
  8   5   7  1   
  9   5   8  ar  
 10   6   8  ar  
 11   6  25  1   
 12   8   9  1   
 13   9  10  am  
 14   9  26  1   
 15  10  11  2   
 16  10  12  1   
 17  12  13  1   
 18  12  27  1   
 19  12  28  1   
 20  13  14  1   
 21  13  15  1   
 22  14  16  1   
 23  14  29  1   
 24  14  30  1   
 25  15  17  1   
 26  15  31  1   
 27  15  32  1   
 28  16  18  1   
 29  16  33  1   
 30  16  34  1   
 31  17  18  1   
 32  17  35  1   
 33  17  36  1   
 34  18  19  1   
 35  18  20  1   
 36  19  21  1   
 37  20  22  1   
 38  21  22  1   
 39  21  37  1   
 40  21  38  1   
 41  22  39  1   
 42  22  40  1   
@<TRIPOS>SUBSTRUCTURE
  1 ****  13 GROUP 4 **** **** 0

# MOE 2024.06 (io_trps.svl 2023.06)
