@<TRIPOS>MOLECULE
NONAME
35 36 1 0 0 
SMALL
USER_CHARGES


@<TRIPOS>ATOM
  1 BR       1.6530     1.4860    -2.4970 Br    1 <1>  -0.1110 
  2 C        0.7340     2.5110    -1.1460 C.ar  1 <1>   0.1110 
  3 C        1.3860     2.8570     0.0250 C.ar  1 <1>  -0.1440 
  4 C       -0.5740     2.8700    -1.4000 C.ar  1 <1>  -0.1500 
  5 C        0.6790     3.5930     0.9600 C.ar  1 <1>  -0.1500 
  6 C        2.8290     2.4490     0.2850 C.3   1 <1>  -0.0960 
  7 C       -1.2880     3.6060    -0.4600 C.ar  1 <1>  -0.0090 
  8 C       -0.6440     3.9690     0.7220 C.ar  1 <1>   0.0830 
  9 S       -3.0040     4.0800    -0.7780 S.o2  1 <1>   1.6670 
 10 O       -1.3540     4.6920     1.6240 O.3   1 <1>  -0.3630 
 11 O       -3.1700     5.5110    -0.8230 O.2   1 <1>  -0.6500 
 12 O       -3.5160     3.2640    -1.8520 O.2   1 <1>  -0.6500 
 13 N       -3.8800     3.4860     0.6060 N.pl3 1 <1>  -0.7020 
 14 C       -0.7080     5.4360     2.6390 C.3   1 <1>   0.0400 
 15 C       -4.5080     4.1360     1.5480 C.cat 1 <1>   0.6040 
 16 C       -4.0050     2.0250     0.7780 C.3   1 <1>   0.3290 
 17 N       -5.0700     3.3290     2.4070 N.pl3 1 <1>  -0.7940 
 18 C       -4.6320     5.6360     1.6910 C.3   1 <1>  -0.1350 
 19 C       -4.8450     1.9070     2.0640 C.3   1 <1>   0.3290 
 20 H       -1.0230     2.5750    -2.3330 H     1 <1>   0.1500 
 21 H        1.1740     3.8660     1.8740 H     1 <1>   0.1500 
 22 H        2.9180     1.3770     0.2730 H     1 <1>   0.0800 
 23 H        3.1680     2.8060     1.2410 H     1 <1>   0.0800 
 24 H        3.4710     2.8580    -0.4750 H     1 <1>   0.0800 
 25 H       -1.4400     6.0570     3.1240 H     1 <1>   0.0800 
 26 H        0.0520     6.0550     2.1930 H     1 <1>   0.0800 
 27 H       -0.2780     4.7580     3.3560 H     1 <1>   0.0800 
 28 H       -3.0400     1.5650     0.9030 H     1 <1>   0.0800 
 29 H       -4.5190     1.5820    -0.0600 H     1 <1>   0.0800 
 30 H       -5.6220     3.5950     3.2300 H     1 <1>   0.4500 
 31 H       -3.6600     6.0910     1.7200 H     1 <1>   0.0800 
 32 H       -5.1520     5.8900     2.5950 H     1 <1>   0.0800 
 33 H       -5.1790     6.0380     0.8580 H     1 <1>   0.0800 
 34 H       -4.2980     1.4030     2.8430 H     1 <1>   0.0800 
 35 H       -5.7780     1.4020     1.8760 H     1 <1>   0.0800 
@<TRIPOS>BOND
  1   1   2  1   
  2   2   3  ar  
  3   2   4  ar  
  4   3   5  ar  
  5   3   6  1   
  6   4   7  ar  
  7   4  20  1   
  8   5   8  ar  
  9   5  21  1   
 10   6  22  1   
 11   6  23  1   
 12   6  24  1   
 13   7   8  ar  
 14   7   9  1   
 15   8  10  1   
 16   9  11  2   
 17   9  12  2   
 18   9  13  1   
 19  10  14  1   
 20  13  15  ar  
 21  13  16  1   
 22  14  25  1   
 23  14  26  1   
 24  14  27  1   
 25  15  17  ar  
 26  15  18  1   
 27  16  19  1   
 28  16  28  1   
 29  16  29  1   
 30  17  19  1   
 31  17  30  1   
 32  18  31  1   
 33  18  32  1   
 34  18  33  1   
 35  19  34  1   
 36  19  35  1   
@<TRIPOS>SUBSTRUCTURE
  1 ****   7 GROUP 4 **** **** 0

# MOE 2024.06 (io_trps.svl 2023.06)
