@<TRIPOS>MOLECULE
NONAME
44 46 1 0 0 
SMALL
USER_CHARGES


@<TRIPOS>ATOM
  1 O        2.3620    -5.0900     0.0780 O.2   1 <1>  -0.5760 
  2 C        1.1510    -5.0370     0.0690 C.2   1 <1>   0.6850 
  3 N        0.4040    -6.2100     0.1160 N.am  1 <1>  -0.4270 
  4 N        0.5090    -3.8080    -0.0030 N.am  1 <1>  -0.4430 
  5 C       -0.9780    -6.1790     0.0150 C.2   1 <1>   0.6980 
  6 C        1.1290    -7.5140     0.2430 C.3   1 <1>   0.0510 
  7 C       -0.8700    -3.7960    -0.0580 C.2   1 <1>   0.4190 
  8 C        1.2980    -2.5380    -0.0360 C.3   1 <1>   0.0510 
  9 O       -1.6310    -7.2100    -0.0710 O.2   1 <1>  -0.5760 
 10 C       -1.6360    -4.9080    -0.0390 C.2   1 <1>   0.2690 
 11 N       -1.6860    -2.7150    -0.1310 N.pl3 1 <1>  -0.7050 
 12 N       -2.9880    -4.4780    -0.0920 N.pl3 1 <1>  -0.7680 
 13 C       -2.9500    -3.1280    -0.1080 C.cat 1 <1>   1.0680 
 14 C       -4.2000    -5.3790    -0.1190 C.3   1 <1>   0.3470 
 15 N       -3.9920    -2.2760    -0.0890 N.pl3 1 <1>  -0.5970 
 16 C       -4.4050    -6.1670    -1.4470 C.3   1 <1>   0.3360 
 17 C       -5.1230    -2.3780     0.8930 C.3   1 <1>   0.1590 
 18 C       -3.9740    -0.9570    -0.8070 C.3   1 <1>   0.1590 
 19 N       -3.9640    -7.6020    -1.4160 N.4   1 <1>  -0.8560 
 20 C       -5.2150    -1.1170     1.7700 C.3   1 <1>   0.1110 
 21 C       -4.1300     0.2190     0.1710 C.3   1 <1>   0.1110 
 22 O       -5.2560     0.0200     0.9660 O.3   1 <1>  -0.5660 
 23 H        1.9300    -7.4210     0.9570 H     1 <1>   0.0710 
 24 H        1.5490    -7.7880    -0.7100 H     1 <1>   0.0710 
 25 H        0.4710    -8.2970     0.5770 H     1 <1>   0.0710 
 26 H        2.2890    -2.6950     0.3550 H     1 <1>   0.0710 
 27 H        0.8220    -1.7840     0.5640 H     1 <1>   0.0710 
 28 H        1.3840    -2.1900    -1.0510 H     1 <1>   0.0710 
 29 H       -1.3930    -1.7410    -0.1090 H     1 <1>   0.4440 
 30 H       -5.0820    -4.7810     0.0120 H     1 <1>   0.0710 
 31 H       -4.1590    -6.0620     0.7130 H     1 <1>   0.0710 
 32 H       -3.8900    -5.6470    -2.2380 H     1 <1>   0.0710 
 33 H       -5.4560    -6.1500    -1.6860 H     1 <1>   0.0710 
 34 H       -4.9910    -3.2250     1.5420 H     1 <1>   0.0710 
 35 H       -6.0530    -2.4950     0.3610 H     1 <1>   0.0710 
 36 H       -4.7950    -0.9260    -1.5040 H     1 <1>   0.0710 
 37 H       -3.0680    -0.8350    -1.3740 H     1 <1>   0.0710 
 38 H       -3.0080    -7.7050    -1.0250 H     1 <1>   0.4440 
 39 H       -3.9460    -8.0160    -2.3580 H     1 <1>   0.4440 
 40 H       -4.5760    -8.1970    -0.8430 H     1 <1>   0.4440 
 41 H       -4.3750    -1.0390     2.4380 H     1 <1>   0.0710 
 42 H       -6.1180    -1.1340     2.3560 H     1 <1>   0.0710 
 43 H       -4.2730     1.1380    -0.3700 H     1 <1>   0.0710 
 44 H       -3.2690     0.3240     0.8080 H     1 <1>   0.0710 
@<TRIPOS>BOND
  1   1   2  2   
  2   2   3  am  
  3   2   4  am  
  4   3   5  am  
  5   3   6  1   
  6   4   7  1   
  7   4   8  1   
  8   5   9  2   
  9   5  10  1   
 10   6  23  1   
 11   6  24  1   
 12   6  25  1   
 13   7  10  2   
 14   7  11  1   
 15   8  26  1   
 16   8  27  1   
 17   8  28  1   
 18  10  12  1   
 19  11  13  ar  
 20  11  29  1   
 21  12  13  ar  
 22  12  14  1   
 23  13  15  ar  
 24  14  16  1   
 25  14  30  1   
 26  14  31  1   
 27  15  17  1   
 28  15  18  1   
 29  16  19  1   
 30  16  32  1   
 31  16  33  1   
 32  17  20  1   
 33  17  34  1   
 34  17  35  1   
 35  18  21  1   
 36  18  36  1   
 37  18  37  1   
 38  19  38  1   
 39  19  39  1   
 40  19  40  1   
 41  20  22  1   
 42  20  41  1   
 43  20  42  1   
 44  21  22  1   
 45  21  43  1   
 46  21  44  1   
@<TRIPOS>SUBSTRUCTURE
  1 ****  10 GROUP 4 **** **** 0

# MOE 2024.06 (io_trps.svl 2023.06)
