@<TRIPOS>MOLECULE
NONAME
44 46 1 0 0 
SMALL
USER_CHARGES


@<TRIPOS>ATOM
  1 O        1.2720     0.1480    -0.1550 O.co2 1 <1>  -0.9000 
  2 C        0.4950     1.0590    -0.4490 C.2   1 <1>   0.9060 
  3 O       -0.0800     1.0910    -1.5450 O.co2 1 <1>  -0.9000 
  4 C        0.2270     2.1560     0.5750 C.3   1 <1>  -0.1860 
  5 C       -1.3410     2.2870     1.1990 C.3   1 <1>  -0.0190 
  6 C        0.6520     3.6310    -0.0070 C.3   1 <1>  -0.0800 
  7 C       -2.4010     1.2130     0.9110 C.2   1 <1>   0.5690 
  8 C       -1.8880     3.7860     0.8200 C.3   1 <1>  -0.0800 
  9 C       -0.6090     3.7150     0.4280 C.3   1 <1>  -0.1600 
 10 C        0.1010     5.1340    -0.3430 C.3   1 <1>  -0.1600 
 11 O       -3.2430     1.0080     1.7560 O.2   1 <1>  -0.5700 
 12 N       -2.4350     0.5680    -0.2740 N.am  1 <1>  -0.7300 
 13 C       -1.4450     5.2620     0.2790 C.3   1 <1>  -0.1600 
 14 C       -3.3490    -0.5080    -0.6470 C.3   1 <1>   0.3640 
 15 C       -2.7580    -1.8790    -0.3250 C.ar  1 <1>  -0.1430 
 16 C       -3.6260    -0.3810    -2.1400 C.3   1 <1>  -0.2400 
 17 C       -3.5700    -2.8700     0.2080 C.ar  1 <1>  -0.1500 
 18 C       -1.4200    -2.1690    -0.5580 C.ar  1 <1>  -0.1500 
 19 C       -3.0600    -4.1240     0.4980 C.ar  1 <1>  -0.1500 
 20 C       -0.9080    -3.4200    -0.2650 C.ar  1 <1>  -0.1500 
 21 C       -1.7240    -4.4070     0.2640 C.ar  1 <1>  -0.1430 
 22 C       -1.1540    -5.7760     0.5840 C.3   1 <1>  -0.0970 
 23 H        0.8760     1.9140     1.4010 H     1 <1>   0.0800 
 24 H       -1.2330     2.2490     2.2730 H     1 <1>   0.0800 
 25 H        1.4940     3.8610     0.6300 H     1 <1>   0.0800 
 26 H       -2.6980     3.5560     0.1390 H     1 <1>   0.0800 
 27 H       -0.9770     3.3650    -0.6340 H     1 <1>   0.0800 
 28 H       -0.2290     4.0500     1.4880 H     1 <1>   0.0800 
 29 H        0.0840     5.2810    -1.4120 H     1 <1>   0.0800 
 30 H        0.7460     5.8870     0.0810 H     1 <1>   0.0800 
 31 H       -1.6340     0.6920    -0.9240 H     1 <1>   0.3700 
 32 H       -1.4620     5.9740     1.0900 H     1 <1>   0.0800 
 33 H       -2.1260     5.6140    -0.4790 H     1 <1>   0.0800 
 34 H       -4.2700    -0.3820    -0.1020 H     1 <1>   0.0800 
 35 H       -2.7070    -0.4780    -2.6920 H     1 <1>   0.0800 
 36 H       -4.0710     0.5730    -2.3520 H     1 <1>   0.0800 
 37 H       -4.2980    -1.1580    -2.4520 H     1 <1>   0.0800 
 38 H       -4.6070    -2.6650     0.4020 H     1 <1>   0.1500 
 39 H       -0.7600    -1.4190    -0.9650 H     1 <1>   0.1500 
 40 H       -3.7070    -4.8770     0.9100 H     1 <1>   0.1500 
 41 H        0.1350    -3.6050    -0.4500 H     1 <1>   0.1500 
 42 H       -1.1870    -6.3960    -0.2940 H     1 <1>   0.0800 
 43 H       -1.7180    -6.2460     1.3680 H     1 <1>   0.0800 
 44 H       -0.1320    -5.6840     0.9070 H     1 <1>   0.0800 
@<TRIPOS>BOND
  1   1   2  ar  
  2   2   3  ar  
  3   2   4  1   
  4   4   5  1   
  5   4   6  1   
  6   4  23  1   
  7   5   7  1   
  8   5   8  1   
  9   5  24  1   
 10   6   9  1   
 11   6  10  1   
 12   6  25  1   
 13   7  11  2   
 14   7  12  am  
 15   8   9  1   
 16   8  13  1   
 17   8  26  1   
 18   9  27  1   
 19   9  28  1   
 20  10  13  1   
 21  10  29  1   
 22  10  30  1   
 23  12  14  1   
 24  12  31  1   
 25  13  32  1   
 26  13  33  1   
 27  14  15  1   
 28  14  16  1   
 29  14  34  1   
 30  15  17  ar  
 31  15  18  ar  
 32  16  35  1   
 33  16  36  1   
 34  16  37  1   
 35  17  19  ar  
 36  17  38  1   
 37  18  20  ar  
 38  18  39  1   
 39  19  21  ar  
 40  19  40  1   
 41  20  21  ar  
 42  20  41  1   
 43  21  22  1   
 44  22  42  1   
 45  22  43  1   
 46  22  44  1   
@<TRIPOS>SUBSTRUCTURE
  1 ****  12 GROUP 4 **** **** 0

# MOE 2024.06 (io_trps.svl 2023.06)
