@<TRIPOS>MOLECULE
NONAME
33 34 1 0 0 
SMALL
USER_CHARGES


@<TRIPOS>ATOM
  1 S       -0.3210     0.6090     1.3700 S.3   1 <1>  -0.0800 
  2 C        0.6650     1.5530     0.2600 C.2   1 <1>   0.1040 
  3 C       -1.7890     0.9490     0.4690 C.2   1 <1>  -0.1400 
  4 N        2.0430     1.6710     0.4670 N.am  1 <1>  -0.4940 
  5 C       -0.1210     2.0750    -0.7190 C.2   1 <1>   0.0190 
  6 C       -1.5140     1.7280    -0.5960 C.2   1 <1>  -0.1810 
  7 C       -3.0540     0.3270     1.0300 C.3   1 <1>  -0.0600 
  8 C        2.9160     1.1880     1.4150 C.2   1 <1>   0.7160 
  9 C        0.3770     2.8950    -1.7810 C.1   1 <1>   0.5380 
 10 C       -2.5340     2.2300    -1.6110 C.3   1 <1>  -0.0590 
 11 O        2.5340     0.4890     2.3370 O.2   1 <1>  -0.5700 
 12 C        4.3100     1.5560     1.2580 C.2   1 <1>   0.2030 
 13 N        0.7830     3.5480    -2.6240 N.1   1 <1>  -0.5570 
 14 N        4.7780     2.3140     0.2800 N.2   1 <1>  -0.7070 
 15 C        5.3510     1.1650     2.1070 C.2   1 <1>  -0.1500 
 16 N        6.0970     2.4060     0.4980 N.pl3 1 <1>   0.3140 
 17 C        6.4660     1.7210     1.5970 C.2   1 <1>  -0.3020 
 18 C        6.9900     3.1810    -0.3890 C.3   1 <1>   0.0960 
 19 C        7.7240     2.2620    -1.3740 C.3   1 <1>  -0.2400 
 20 H        2.5690     2.2320    -0.2120 H     1 <1>   0.3700 
 21 H       -2.9500    -0.7430     1.0570 H     1 <1>   0.0800 
 22 H       -3.9100     0.5750     0.4320 H     1 <1>   0.0800 
 23 H       -3.2180     0.6820     2.0320 H     1 <1>   0.0800 
 24 H       -3.5230     1.8830    -1.3750 H     1 <1>   0.0800 
 25 H       -2.2810     1.8790    -2.5950 H     1 <1>   0.0800 
 26 H       -2.5490     3.3060    -1.6190 H     1 <1>   0.0800 
 27 H        5.2350     0.5450     2.9790 H     1 <1>   0.1500 
 28 H        7.4820     1.6690     1.9440 H     1 <1>   0.1500 
 29 H        7.6960     3.7160     0.2190 H     1 <1>   0.0800 
 30 H        6.3930     3.8940    -0.9280 H     1 <1>   0.0800 
 31 H        8.3360     1.5540    -0.8450 H     1 <1>   0.0800 
 32 H        8.3560     2.8480    -2.0180 H     1 <1>   0.0800 
 33 H        7.0120     1.7330    -1.9840 H     1 <1>   0.0800 
@<TRIPOS>BOND
  1   1   2  1   
  2   1   3  1   
  3   2   4  1   
  4   2   5  2   
  5   3   6  2   
  6   3   7  1   
  7   4   8  am  
  8   4  20  1   
  9   5   6  1   
 10   5   9  1   
 11   6  10  1   
 12   7  21  1   
 13   7  22  1   
 14   7  23  1   
 15   8  11  2   
 16   8  12  1   
 17   9  13  3   
 18  10  24  1   
 19  10  25  1   
 20  10  26  1   
 21  12  14  2   
 22  12  15  1   
 23  14  16  1   
 24  15  17  2   
 25  15  27  1   
 26  16  17  1   
 27  16  18  1   
 28  17  28  1   
 29  18  19  1   
 30  18  29  1   
 31  18  30  1   
 32  19  31  1   
 33  19  32  1   
 34  19  33  1   
@<TRIPOS>SUBSTRUCTURE
  1 ****   4 GROUP 4 **** **** 0

# MOE 2024.06 (io_trps.svl 2023.06)
