@<TRIPOS>MOLECULE
NONAME
39 41 1 0 0 
SMALL
USER_CHARGES


@<TRIPOS>ATOM
  1 S        0.0440    -0.0820     0.1460 S.3   1 <1>  -0.9530 
  2 C        0.0430    -1.7420     0.1090 C.ar  1 <1>   0.5730 
  3 N        1.2120    -2.3300     0.0920 N.ar  1 <1>  -0.6200 
  4 N       -1.1280    -2.3280     0.1000 N.ar  1 <1>  -0.6200 
  5 C        1.1410    -3.6340     0.0620 C.ar  1 <1>   0.7200 
  6 C       -1.0590    -3.6320     0.0710 C.ar  1 <1>   0.7200 
  7 N        0.0400    -4.3480     0.0510 N.ar  1 <1>  -0.6200 
  8 N        2.3340    -4.3390     0.0340 N.pl3 1 <1>  -0.8380 
  9 N       -2.2530    -4.3350     0.0680 N.pl3 1 <1>  -0.8380 
 10 C        3.6040    -3.6380     0.3650 C.3   1 <1>   0.2090 
 11 C        2.4740    -5.4750    -0.9130 C.3   1 <1>   0.2090 
 12 C       -3.5220    -3.6180    -0.2320 C.3   1 <1>   0.2090 
 13 C       -2.3960    -5.5120     0.9640 C.3   1 <1>   0.2090 
 14 C        4.6350    -4.6390     0.8980 C.3   1 <1>  -0.1600 
 15 C        3.4940    -6.4830    -0.3740 C.3   1 <1>  -0.1600 
 16 C       -4.5540    -4.5930    -0.8090 C.3   1 <1>  -0.1600 
 17 C       -3.4170    -6.4930     0.3800 C.3   1 <1>  -0.1600 
 18 C        4.8410    -5.8170    -0.0640 C.3   1 <1>  -0.1600 
 19 C       -4.7630    -5.8120     0.1000 C.3   1 <1>  -0.1600 
 20 H        3.4250    -2.8840     1.1140 H     1 <1>   0.0800 
 21 H        3.9750    -3.1490    -0.5200 H     1 <1>   0.0800 
 22 H        2.8010    -5.0930    -1.8650 H     1 <1>   0.0800 
 23 H        1.5290    -5.9700    -1.0590 H     1 <1>   0.0800 
 24 H       -3.3420    -2.8320    -0.9470 H     1 <1>   0.0800 
 25 H       -3.8930    -3.1690     0.6730 H     1 <1>   0.0800 
 26 H       -2.7220    -5.1720     1.9310 H     1 <1>   0.0800 
 27 H       -1.4520    -6.0140     1.0870 H     1 <1>   0.0800 
 28 H        4.2890    -5.0040     1.8490 H     1 <1>   0.0800 
 29 H        5.5680    -4.1310     1.0600 H     1 <1>   0.0800 
 30 H        3.6320    -7.2670    -1.0960 H     1 <1>   0.0800 
 31 H        3.0920    -6.9250     0.5210 H     1 <1>   0.0800 
 32 H       -4.2090    -4.9160    -1.7750 H     1 <1>   0.0800 
 33 H       -5.4860    -4.0760    -0.9480 H     1 <1>   0.0800 
 34 H       -3.5570    -7.3080     1.0660 H     1 <1>   0.0800 
 35 H       -3.0160    -6.8960    -0.5340 H     1 <1>   0.0800 
 36 H        5.5120    -6.5340     0.3760 H     1 <1>   0.0800 
 37 H        5.2820    -5.4580    -0.9780 H     1 <1>   0.0800 
 38 H       -5.4350    -6.5080    -0.3720 H     1 <1>   0.0800 
 39 H       -5.2040    -5.4930     1.0290 H     1 <1>   0.0800 
@<TRIPOS>BOND
  1   1   2  1   
  2   2   3  ar  
  3   2   4  ar  
  4   3   5  ar  
  5   4   6  ar  
  6   5   7  ar  
  7   5   8  1   
  8   6   7  ar  
  9   6   9  1   
 10   8  10  1   
 11   8  11  1   
 12   9  12  1   
 13   9  13  1   
 14  10  14  1   
 15  10  20  1   
 16  10  21  1   
 17  11  15  1   
 18  11  22  1   
 19  11  23  1   
 20  12  16  1   
 21  12  24  1   
 22  12  25  1   
 23  13  17  1   
 24  13  26  1   
 25  13  27  1   
 26  14  18  1   
 27  14  28  1   
 28  14  29  1   
 29  15  18  1   
 30  15  30  1   
 31  15  31  1   
 32  16  19  1   
 33  16  32  1   
 34  16  33  1   
 35  17  19  1   
 36  17  34  1   
 37  17  35  1   
 38  18  36  1   
 39  18  37  1   
 40  19  38  1   
 41  19  39  1   
@<TRIPOS>SUBSTRUCTURE
  1 ****   7 GROUP 4 **** **** 0

# MOE 2024.06 (io_trps.svl 2023.06)
