@<TRIPOS>MOLECULE
NONAME
52 54 1 0 0 
SMALL
USER_CHARGES


@<TRIPOS>ATOM
  1 O        1.4130    -1.5330    -3.0020 O.2   1 <1>  -0.5700 
  2 C        0.8590    -1.6380    -1.9340 C.2   1 <1>   0.5690 
  3 N        1.2040    -0.9560    -0.8030 N.am  1 <1>  -0.5470 
  4 C       -0.3290    -2.5910    -1.7990 C.3   1 <1>   0.1710 
  5 C        2.1800     0.0030    -0.4930 C.ar  1 <1>   0.1170 
  6 N       -1.2530    -2.2360    -0.6780 N.3   1 <1>  -0.8100 
  7 C        2.1080     0.6770     0.7290 C.ar  1 <1>  -0.1430 
  8 C        3.2270     0.3010    -1.3610 C.ar  1 <1>  -0.1500 
  9 C       -2.0750    -1.0490    -1.0290 C.3   1 <1>   0.1100 
 10 C       -2.1490    -3.3700    -0.3570 C.3   1 <1>   0.1100 
 11 C        3.0670     1.6240     1.0530 C.ar  1 <1>  -0.1500 
 12 C        0.9870     0.3930     1.7220 C.3   1 <1>  -0.0970 
 13 C        4.1790     1.2470    -1.0310 C.ar  1 <1>  -0.1500 
 14 C       -3.0460    -0.6430     0.0970 C.3   1 <1>   0.2090 
 15 C       -3.1120    -3.0510     0.8040 C.3   1 <1>   0.2090 
 16 C        4.1000     1.9110     0.1790 C.ar  1 <1>  -0.1500 
 17 N       -3.8720    -1.7880     0.5760 N.pl3 1 <1>  -0.8380 
 18 C       -5.1940    -1.8850     0.1390 C.ar  1 <1>   0.1000 
 19 C       -6.2640    -1.6580     1.0120 C.ar  1 <1>  -0.1430 
 20 C       -5.4570    -2.2170    -1.1840 C.ar  1 <1>  -0.1500 
 21 C       -7.5730    -1.7750     0.5480 C.ar  1 <1>  -0.1430 
 22 C       -5.9460    -1.2900     2.4610 C.3   1 <1>  -0.0970 
 23 C       -6.7520    -2.3270    -1.6440 C.ar  1 <1>  -0.1500 
 24 C       -7.8060    -2.1070    -0.7780 C.ar  1 <1>  -0.1500 
 25 C       -8.7800    -1.5550     1.4500 C.3   1 <1>  -0.0970 
 26 H        0.5410    -1.1590    -0.0500 H     1 <1>   0.3700 
 27 H        0.0760    -3.5720    -1.6280 H     1 <1>   0.0800 
 28 H       -0.8670    -2.6130    -2.7300 H     1 <1>   0.0800 
 29 H        3.3060    -0.2080    -2.3030 H     1 <1>   0.1500 
 30 H       -2.6460    -1.2500    -1.9180 H     1 <1>   0.0800 
 31 H       -1.4330    -0.2110    -1.2390 H     1 <1>   0.0800 
 32 H       -1.5570    -4.2250    -0.0810 H     1 <1>   0.0800 
 33 H       -2.7300    -3.6360    -1.2240 H     1 <1>   0.0800 
 34 H        3.0190     2.1490     1.9910 H     1 <1>   0.1500 
 35 H        1.0200    -0.6370     2.0310 H     1 <1>   0.0800 
 36 H        0.0330     0.5960     1.2700 H     1 <1>   0.0800 
 37 H        1.0820     1.0090     2.5980 H     1 <1>   0.0800 
 38 H        4.9800     1.4640    -1.7160 H     1 <1>   0.1500 
 39 H       -3.6950     0.1400    -0.2550 H     1 <1>   0.0800 
 40 H       -2.4830    -0.2540     0.9260 H     1 <1>   0.0800 
 41 H       -2.5470    -2.9550     1.7140 H     1 <1>   0.0800 
 42 H       -3.8040    -3.8650     0.9290 H     1 <1>   0.0800 
 43 H        4.8400     2.6480     0.4380 H     1 <1>   0.1500 
 44 H       -4.6390    -2.3920    -1.8540 H     1 <1>   0.1500 
 45 H       -5.5420    -2.1480     2.9650 H     1 <1>   0.0800 
 46 H       -6.8030    -0.9440     3.0050 H     1 <1>   0.0800 
 47 H       -5.2110    -0.5060     2.4830 H     1 <1>   0.0800 
 48 H       -6.9420    -2.5840    -2.6710 H     1 <1>   0.1500 
 49 H       -8.8110    -2.1970    -1.1480 H     1 <1>   0.1500 
 50 H       -8.8110    -0.5310     1.7770 H     1 <1>   0.0800 
 51 H       -8.7210    -2.2000     2.3070 H     1 <1>   0.0800 
 52 H       -9.6970    -1.7710     0.9320 H     1 <1>   0.0800 
@<TRIPOS>BOND
  1   1   2  2   
  2   2   3  am  
  3   2   4  1   
  4   3   5  1   
  5   3  26  1   
  6   4   6  1   
  7   4  27  1   
  8   4  28  1   
  9   5   7  ar  
 10   5   8  ar  
 11   6   9  1   
 12   6  10  1   
 13   7  11  ar  
 14   7  12  1   
 15   8  13  ar  
 16   8  29  1   
 17   9  14  1   
 18   9  30  1   
 19   9  31  1   
 20  10  15  1   
 21  10  32  1   
 22  10  33  1   
 23  11  16  ar  
 24  11  34  1   
 25  12  35  1   
 26  12  36  1   
 27  12  37  1   
 28  13  16  ar  
 29  13  38  1   
 30  14  17  1   
 31  14  39  1   
 32  14  40  1   
 33  15  17  1   
 34  15  41  1   
 35  15  42  1   
 36  16  43  1   
 37  17  18  1   
 38  18  19  ar  
 39  18  20  ar  
 40  19  21  ar  
 41  19  22  1   
 42  20  23  ar  
 43  20  44  1   
 44  21  24  ar  
 45  21  25  1   
 46  22  45  1   
 47  22  46  1   
 48  22  47  1   
 49  23  24  ar  
 50  23  48  1   
 51  24  49  1   
 52  25  50  1   
 53  25  51  1   
 54  25  52  1   
@<TRIPOS>SUBSTRUCTURE
  1 ****   9 GROUP 4 **** **** 0

# MOE 2024.06 (io_trps.svl 2023.06)
