@<TRIPOS>MOLECULE
NONAME
39 40 1 0 0 
SMALL
USER_CHARGES


@<TRIPOS>ATOM
  1 F        0.8120    -0.2180     0.0720 F     1 <1>  -0.1900 
  2 C        2.0090    -0.7410     0.1310 C.ar  1 <1>   0.1900 
  3 C        2.4270    -1.5660    -0.8950 C.ar  1 <1>  -0.1500 
  4 C        2.8100    -0.4480     1.2190 C.ar  1 <1>  -0.1500 
  5 C        3.6960    -2.1140    -0.8250 C.ar  1 <1>  -0.1500 
  6 C        4.0790    -1.0010     1.2800 C.ar  1 <1>  -0.1500 
  7 C        4.5260    -1.8350     0.2540 C.ar  1 <1>   0.0830 
  8 O        5.7530    -2.4100     0.2330 O.3   1 <1>  -0.3630 
  9 C        6.7170    -2.1280     1.2380 C.3   1 <1>   0.1810 
 10 C        8.0500    -2.8190     0.9570 C.2   1 <1>   0.5690 
 11 O        8.3670    -3.7130     1.7100 O.2   1 <1>  -0.5700 
 12 N        8.8740    -2.4230    -0.0750 N.am  1 <1>  -0.6600 
 13 C       10.1530    -3.1450    -0.3220 C.3   1 <1>   0.1400 
 14 C        8.4680    -1.4640    -1.1380 C.3   1 <1>   0.1400 
 15 C       11.2560    -2.6890     0.6380 C.3   1 <1>  -0.1600 
 16 C        8.7780    -0.0120    -0.7590 C.3   1 <1>  -0.1600 
 17 C       11.9220    -1.3480     0.2930 C.3   1 <1>  -0.1600 
 18 C       10.2710     0.3520    -0.7490 C.3   1 <1>  -0.1600 
 19 C       11.0370    -0.1080     0.5050 C.3   1 <1>  -0.1600 
 20 H        1.7730    -1.7720    -1.7230 H     1 <1>   0.1500 
 21 H        2.4440     0.1980     1.9960 H     1 <1>   0.1500 
 22 H        4.0520    -2.7630    -1.6060 H     1 <1>   0.1500 
 23 H        4.6950    -0.7730     2.1290 H     1 <1>   0.1500 
 24 H        6.3310    -2.4820     2.1760 H     1 <1>   0.0800 
 25 H        6.8630    -1.0670     1.2860 H     1 <1>   0.0800 
 26 H       10.4770    -3.0150    -1.3400 H     1 <1>   0.0800 
 27 H        9.9800    -4.1980    -0.1720 H     1 <1>   0.0800 
 28 H        7.4140    -1.5590    -1.3250 H     1 <1>   0.0800 
 29 H        8.9640    -1.7060    -2.0620 H     1 <1>   0.0800 
 30 H       12.0230    -3.4420     0.6130 H     1 <1>   0.0800 
 31 H       10.8760    -2.6710     1.6450 H     1 <1>   0.0800 
 32 H        8.3310     0.2330     0.1860 H     1 <1>   0.0800 
 33 H        8.3020     0.6090    -1.4970 H     1 <1>   0.0800 
 34 H       12.3100    -1.3730    -0.7110 H     1 <1>   0.0800 
 35 H       12.7720    -1.2490     0.9470 H     1 <1>   0.0800 
 36 H       10.3290     1.4270    -0.7790 H     1 <1>   0.0800 
 37 H       10.7470    -0.0040    -1.6470 H     1 <1>   0.0800 
 38 H       11.6930     0.6980     0.7850 H     1 <1>   0.0800 
 39 H       10.3690    -0.2600     1.3350 H     1 <1>   0.0800 
@<TRIPOS>BOND
  1   1   2  1   
  2   2   3  ar  
  3   2   4  ar  
  4   3   5  ar  
  5   3  20  1   
  6   4   6  ar  
  7   4  21  1   
  8   5   7  ar  
  9   5  22  1   
 10   6   7  ar  
 11   6  23  1   
 12   7   8  1   
 13   8   9  1   
 14   9  10  1   
 15   9  24  1   
 16   9  25  1   
 17  10  11  2   
 18  10  12  am  
 19  12  13  1   
 20  12  14  1   
 21  13  15  1   
 22  13  26  1   
 23  13  27  1   
 24  14  16  1   
 25  14  28  1   
 26  14  29  1   
 27  15  17  1   
 28  15  30  1   
 29  15  31  1   
 30  16  18  1   
 31  16  32  1   
 32  16  33  1   
 33  17  19  1   
 34  17  34  1   
 35  17  35  1   
 36  18  19  1   
 37  18  36  1   
 38  18  37  1   
 39  19  38  1   
 40  19  39  1   
@<TRIPOS>SUBSTRUCTURE
  1 ****   9 GROUP 4 **** **** 0

# MOE 2024.06 (io_trps.svl 2023.06)
