@<TRIPOS>MOLECULE
NONAME
46 47 1 0 0 
SMALL
USER_CHARGES


@<TRIPOS>ATOM
  1 S       -0.0800    -0.1790     1.6650 S.2   1 <1>  -0.3800 
  2 C       -0.2780    -1.6780     1.1160 C.2   1 <1>   0.5810 
  3 S       -1.9620    -2.2080     0.9190 S.3   1 <1>  -0.3710 
  4 N        0.7200    -2.5340     0.8000 N.am  1 <1>  -0.6600 
  5 C       -3.0310    -0.7780     1.4660 C.3   1 <1>   0.1310 
  6 C        0.5280    -3.9250     0.2900 C.3   1 <1>   0.1400 
  7 C        2.1640    -2.1680     0.9040 C.3   1 <1>   0.1400 
  8 C       -4.5080    -1.1050     1.3060 C.2   1 <1>   0.5690 
  9 C        1.1500    -4.0500    -1.1050 C.3   1 <1>  -0.1600 
 10 C        2.8190    -2.2630    -0.4780 C.3   1 <1>  -0.1600 
 11 O       -5.3020    -0.5040     1.9860 O.2   1 <1>  -0.5700 
 12 N       -4.8620    -2.0660     0.4020 N.am  1 <1>  -0.5470 
 13 C        2.6330    -3.6550    -1.0980 C.3   1 <1>  -0.1600 
 14 C       -6.1150    -2.6430     0.1510 C.ar  1 <1>   0.1170 
 15 C       -6.2890    -4.0110     0.3850 C.ar  1 <1>  -0.1430 
 16 C       -7.1810    -1.8940    -0.3590 C.ar  1 <1>  -0.1430 
 17 C       -7.5090    -4.6070     0.1160 C.ar  1 <1>  -0.1500 
 18 C       -5.1670    -4.8850     0.9450 C.3   1 <1>  -0.0170 
 19 C       -8.3950    -2.5090    -0.6140 C.ar  1 <1>  -0.1500 
 20 C       -7.0540    -0.4050    -0.6580 C.3   1 <1>  -0.0970 
 21 C       -8.5610    -3.8600    -0.3800 C.ar  1 <1>  -0.1500 
 22 C       -4.2470    -5.3840    -0.1730 C.3   1 <1>  -0.2400 
 23 H       -2.7770     0.0720     0.8620 H     1 <1>   0.0800 
 24 H       -2.8060    -0.5810     2.4980 H     1 <1>   0.0800 
 25 H       -0.5090    -4.2000     0.2410 H     1 <1>   0.0800 
 26 H        1.0130    -4.6110     0.9640 H     1 <1>   0.0800 
 27 H        2.6490    -2.8480     1.5840 H     1 <1>   0.0800 
 28 H        2.2940    -1.1730     1.2900 H     1 <1>   0.0800 
 29 H        0.6070    -3.4150    -1.7840 H     1 <1>   0.0800 
 30 H        1.0480    -5.0630    -1.4510 H     1 <1>   0.0800 
 31 H        3.8680    -2.0450    -0.3900 H     1 <1>   0.0800 
 32 H        2.3830    -1.5170    -1.1200 H     1 <1>   0.0800 
 33 H       -4.0740    -2.5900     0.0210 H     1 <1>   0.3700 
 34 H        3.0180    -3.6610    -2.1040 H     1 <1>   0.0800 
 35 H        3.1910    -4.3770    -0.5250 H     1 <1>   0.0800 
 36 H       -7.6520    -5.6580     0.2920 H     1 <1>   0.1500 
 37 H       -5.5930    -5.7320     1.4550 H     1 <1>   0.0800 
 38 H       -4.5970    -4.3380     1.6760 H     1 <1>   0.0800 
 39 H       -9.2210    -1.9390    -0.9990 H     1 <1>   0.1500 
 40 H       -7.1520     0.1570     0.2530 H     1 <1>   0.0800 
 41 H       -7.8190    -0.0840    -1.3410 H     1 <1>   0.0800 
 42 H       -6.0990    -0.1870    -1.1010 H     1 <1>   0.0800 
 43 H       -9.5080    -4.3300    -0.5830 H     1 <1>   0.1500 
 44 H       -4.8130    -5.9600    -0.8840 H     1 <1>   0.0800 
 45 H       -3.4720    -6.0060     0.2380 H     1 <1>   0.0800 
 46 H       -3.7910    -4.5580    -0.6870 H     1 <1>   0.0800 
@<TRIPOS>BOND
  1   1   2  2   
  2   2   3  1   
  3   2   4  am  
  4   3   5  1   
  5   4   6  1   
  6   4   7  1   
  7   5   8  1   
  8   5  23  1   
  9   5  24  1   
 10   6   9  1   
 11   6  25  1   
 12   6  26  1   
 13   7  10  1   
 14   7  27  1   
 15   7  28  1   
 16   8  11  2   
 17   8  12  am  
 18   9  13  1   
 19   9  29  1   
 20   9  30  1   
 21  10  13  1   
 22  10  31  1   
 23  10  32  1   
 24  12  14  1   
 25  12  33  1   
 26  13  34  1   
 27  13  35  1   
 28  14  15  ar  
 29  14  16  ar  
 30  15  17  ar  
 31  15  18  1   
 32  16  19  ar  
 33  16  20  1   
 34  17  21  ar  
 35  17  36  1   
 36  18  22  1   
 37  18  37  1   
 38  18  38  1   
 39  19  21  ar  
 40  19  39  1   
 41  20  40  1   
 42  20  41  1   
 43  20  42  1   
 44  21  43  1   
 45  22  44  1   
 46  22  45  1   
 47  22  46  1   
@<TRIPOS>SUBSTRUCTURE
  1 ****   3 GROUP 4 **** **** 0

# MOE 2024.06 (io_trps.svl 2023.06)
