@<TRIPOS>MOLECULE
NONAME
25 25 1 0 0 
SMALL
USER_CHARGES


@<TRIPOS>ATOM
  1 BR       0.5420    -0.5180     1.3170 Br    1 <1>  -0.1110 
  2 C       -1.2480    -1.0340     0.8340 C.ar  1 <1>   0.1110 
  3 C       -2.2830    -0.1580     1.0950 C.ar  1 <1>  -0.1500 
  4 C       -1.4500    -2.2630     0.2390 C.ar  1 <1>  -0.1500 
  5 C       -3.5750    -0.5270     0.7470 C.ar  1 <1>  -0.1440 
  6 C       -2.7390    -2.6290    -0.1080 C.ar  1 <1>  -0.1500 
  7 C       -3.8050    -1.7640     0.1430 C.ar  1 <1>   0.0830 
  8 C       -4.7310     0.4080     1.0270 C.3   1 <1>   0.4870 
  9 O       -5.0910    -2.0650    -0.1860 O.3   1 <1>  -0.3630 
 10 N       -5.3260     0.7690    -0.2760 N.4   1 <1>  -0.9060 
 11 C       -5.4530    -3.3750    -0.5810 C.3   1 <1>   0.0400 
 12 C       -6.5510     1.6100    -0.1740 C.3   1 <1>   0.2630 
 13 H       -2.0610     0.7850     1.5660 H     1 <1>   0.1500 
 14 H       -0.6150    -2.9170     0.0540 H     1 <1>   0.1500 
 15 H       -2.8860    -3.5870    -0.5730 H     1 <1>   0.1500 
 16 H       -4.3860     1.2890     1.5430 H     1 <1>   0.0800 
 17 H       -5.4580    -0.0980     1.6420 H     1 <1>   0.0800 
 18 H       -5.5340    -0.1410    -0.7230 H     1 <1>   0.4500 
 19 H       -4.6020     1.2080    -0.8570 H     1 <1>   0.4500 
 20 H       -6.5220    -3.4140    -0.6940 H     1 <1>   0.0800 
 21 H       -5.1450    -4.0710     0.1810 H     1 <1>   0.0800 
 22 H       -4.9810    -3.6050    -1.5200 H     1 <1>   0.0800 
 23 H       -7.3050     1.1040     0.4090 H     1 <1>   0.0800 
 24 H       -6.9510     1.8050    -1.1560 H     1 <1>   0.0800 
 25 H       -6.3220     2.5520     0.2970 H     1 <1>   0.0800 
@<TRIPOS>BOND
  1   1   2  1   
  2   2   3  ar  
  3   2   4  ar  
  4   3   5  ar  
  5   3  13  1   
  6   4   6  ar  
  7   4  14  1   
  8   5   7  ar  
  9   5   8  1   
 10   6   7  ar  
 11   6  15  1   
 12   7   9  1   
 13   8  10  1   
 14   8  16  1   
 15   8  17  1   
 16   9  11  1   
 17  10  12  1   
 18  10  18  1   
 19  10  19  1   
 20  11  20  1   
 21  11  21  1   
 22  11  22  1   
 23  12  23  1   
 24  12  24  1   
 25  12  25  1   
@<TRIPOS>SUBSTRUCTURE
  1 ****   5 GROUP 4 **** **** 0

# MOE 2024.06 (io_trps.svl 2023.06)
