@<TRIPOS>MOLECULE
NONAME
34 36 1 0 0 
SMALL
USER_CHARGES


@<TRIPOS>ATOM
  1 F       -2.7360     1.0230     1.8960 F     1 <1>  -0.1900 
  2 C       -2.6550     1.0770     0.5920 C.ar  1 <1>   0.1900 
  3 C       -1.6650     1.8470    -0.0020 C.ar  1 <1>  -0.1440 
  4 C       -3.5840     0.3570    -0.1370 C.ar  1 <1>  -0.1500 
  5 C       -1.6350     1.8880    -1.3920 C.ar  1 <1>  -0.1500 
  6 C       -0.6670     2.6230     0.8530 C.3   1 <1>   0.2840 
  7 C       -3.5310     0.4070    -1.5190 C.ar  1 <1>  -0.1500 
  8 C       -2.5580     1.1730    -2.1410 C.ar  1 <1>  -0.1500 
  9 N        0.6530     2.6730     0.2070 N.am  1 <1>  -0.7300 
 10 C        1.8500     2.3850     0.7650 C.2   1 <1>   0.5690 
 11 O        1.9720     2.0580     1.9230 O.2   1 <1>  -0.5700 
 12 C        3.0390     2.4510    -0.1650 C.3   1 <1>  -0.0190 
 13 C        4.4310     2.3340     0.4740 C.3   1 <1>   0.3380 
 14 C        3.1630     3.8230    -0.8770 C.3   1 <1>  -0.1860 
 15 O        4.8090     3.6710     0.5720 O.3   1 <1>  -0.5600 
 16 C        5.3740     1.9260    -0.6360 C.2   1 <1>  -0.2880 
 17 C        2.5930     3.8420    -2.2630 C.2   1 <1>   0.9060 
 18 C        4.6560     4.0830    -0.7490 C.3   1 <1>   0.3380 
 19 C        5.4860     2.9990    -1.4100 C.2   1 <1>  -0.2880 
 20 O        1.4540     3.3750    -2.4030 O.co2 1 <1>  -0.9000 
 21 O        3.2240     4.3610    -3.1860 O.co2 1 <1>  -0.9000 
 22 H       -4.3300    -0.2260     0.3700 H     1 <1>   0.1500 
 23 H       -0.8920     2.4740    -1.9120 H     1 <1>   0.1500 
 24 H       -0.5650     2.1670     1.8230 H     1 <1>   0.0800 
 25 H       -1.0240     3.6290     0.9900 H     1 <1>   0.0800 
 26 H       -4.2410    -0.1450    -2.1090 H     1 <1>   0.1500 
 27 H       -2.5090     1.2170    -3.2150 H     1 <1>   0.1500 
 28 H        0.6660     2.9320    -0.8020 H     1 <1>   0.3700 
 29 H        2.9200     1.6590    -0.8830 H     1 <1>   0.0800 
 30 H        4.5250     1.8220     1.4170 H     1 <1>   0.0800 
 31 H        2.6540     4.5850    -0.3200 H     1 <1>   0.0800 
 32 H        5.7730     0.9310    -0.7030 H     1 <1>   0.1500 
 33 H        4.9910     5.0970    -0.8850 H     1 <1>   0.0800 
 34 H        5.9960     3.1950    -2.3360 H     1 <1>   0.1500 
@<TRIPOS>BOND
  1   1   2  1   
  2   2   3  ar  
  3   2   4  ar  
  4   3   5  ar  
  5   3   6  1   
  6   4   7  ar  
  7   4  22  1   
  8   5   8  ar  
  9   5  23  1   
 10   6   9  1   
 11   6  24  1   
 12   6  25  1   
 13   7   8  ar  
 14   7  26  1   
 15   8  27  1   
 16   9  10  am  
 17   9  28  1   
 18  10  11  2   
 19  10  12  1   
 20  12  13  1   
 21  12  14  1   
 22  12  29  1   
 23  13  15  1   
 24  13  16  1   
 25  13  30  1   
 26  14  17  1   
 27  14  18  1   
 28  14  31  1   
 29  15  18  1   
 30  16  19  2   
 31  16  32  1   
 32  17  20  ar  
 33  17  21  ar  
 34  18  19  1   
 35  18  33  1   
 36  19  34  1   
@<TRIPOS>SUBSTRUCTURE
  1 ****   9 GROUP 4 **** **** 0

# MOE 2024.06 (io_trps.svl 2023.06)
