@<TRIPOS>MOLECULE
NONAME
43 45 1 0 0 
SMALL
USER_CHARGES


@<TRIPOS>ATOM
  1 S        0.1280    -0.5580    -0.0390 S.3   1 <1>  -0.3710 
  2 C       -1.2960     0.5180    -0.1870 C.2   1 <1>   0.6510 
  3 C        1.5140     0.6810     0.0320 C.3   1 <1>   0.1310 
  4 N       -1.0400     1.7710    -0.2270 N.2   1 <1>  -0.6210 
  5 N       -2.5430    -0.0790    -0.2510 N.am  1 <1>  -0.2370 
  6 C        2.9130     0.0760     0.1020 C.2   1 <1>   0.5690 
  7 C       -2.0890     2.6300    -0.3520 C.2   1 <1>   0.0210 
  8 C       -3.6240     0.7900    -0.3880 C.2   1 <1>   0.6160 
  9 C       -2.7290    -1.4730    -0.1750 C.ar  1 <1>   0.1170 
 10 O        3.0540    -1.0660     0.4780 O.2   1 <1>  -0.5700 
 11 N        4.0000     0.8470    -0.2410 N.am  1 <1>  -0.6600 
 12 O       -1.8240     3.8310    -0.3900 O.3   1 <1>  -0.8500 
 13 C       -3.3800     2.1500    -0.4340 C.2   1 <1>  -0.1360 
 14 O       -4.7750     0.3220    -0.4660 O.2   1 <1>  -0.5700 
 15 C       -2.9630    -2.2200    -1.3230 C.ar  1 <1>  -0.1500 
 16 C       -2.6820    -2.1290     1.0500 C.ar  1 <1>  -0.1500 
 17 C        5.3860     0.2910    -0.2410 C.3   1 <1>   0.1400 
 18 C        3.9520     2.3010    -0.5970 C.3   1 <1>   0.1400 
 19 C       -3.1400    -3.5900    -1.2500 C.ar  1 <1>  -0.1500 
 20 C       -2.8580    -3.4990     1.1230 C.ar  1 <1>  -0.1500 
 21 C        6.3340     1.2000     0.5570 C.3   1 <1>   0.1200 
 22 C        4.9920     3.0940     0.2140 C.3   1 <1>   0.1200 
 23 C       -3.0890    -4.2380    -0.0260 C.ar  1 <1>  -0.1430 
 24 O        6.2630     2.5200     0.0930 O.3   1 <1>  -0.5600 
 25 C       -3.2790    -5.7410     0.0540 C.3   1 <1>  -0.0970 
 26 H        1.3350     1.2940     0.8950 H     1 <1>   0.0800 
 27 H        1.4160     1.2740    -0.8570 H     1 <1>   0.0800 
 28 H       -4.1880     2.8430    -0.5360 H     1 <1>   0.1500 
 29 H       -3.0070    -1.7190    -2.2730 H     1 <1>   0.1500 
 30 H       -2.5030    -1.5600     1.9440 H     1 <1>   0.1500 
 31 H        5.7360     0.2170    -1.2560 H     1 <1>   0.0800 
 32 H        5.4010    -0.6960     0.1860 H     1 <1>   0.0800 
 33 H        2.9810     2.7220    -0.4080 H     1 <1>   0.0800 
 34 H        4.1640     2.4150    -1.6460 H     1 <1>   0.0800 
 35 H       -3.3180    -4.1480    -2.1520 H     1 <1>   0.1500 
 36 H       -2.8120    -3.9870     2.0800 H     1 <1>   0.1500 
 37 H        7.3500     0.8660     0.4450 H     1 <1>   0.0800 
 38 H        6.0770     1.1860     1.6020 H     1 <1>   0.0800 
 39 H        4.7210     3.1160     1.2550 H     1 <1>   0.0800 
 40 H        5.0510     4.1040    -0.1480 H     1 <1>   0.0800 
 41 H       -2.3250    -6.2310    -0.0260 H     1 <1>   0.0800 
 42 H       -3.9150    -6.0830    -0.7420 H     1 <1>   0.0800 
 43 H       -3.7320    -6.0120     0.9910 H     1 <1>   0.0800 
@<TRIPOS>BOND
  1   1   2  1   
  2   1   3  1   
  3   2   4  2   
  4   2   5  1   
  5   3   6  1   
  6   3  26  1   
  7   3  27  1   
  8   4   7  1   
  9   5   8  am  
 10   5   9  1   
 11   6  10  2   
 12   6  11  am  
 13   7  12  1   
 14   7  13  2   
 15   8  13  1   
 16   8  14  2   
 17   9  15  ar  
 18   9  16  ar  
 19  11  17  1   
 20  11  18  1   
 21  13  28  1   
 22  15  19  ar  
 23  15  29  1   
 24  16  20  ar  
 25  16  30  1   
 26  17  21  1   
 27  17  31  1   
 28  17  32  1   
 29  18  22  1   
 30  18  33  1   
 31  18  34  1   
 32  19  23  ar  
 33  19  35  1   
 34  20  23  ar  
 35  20  36  1   
 36  21  24  1   
 37  21  37  1   
 38  21  38  1   
 39  22  24  1   
 40  22  39  1   
 41  22  40  1   
 42  23  25  1   
 43  25  41  1   
 44  25  42  1   
 45  25  43  1   
@<TRIPOS>SUBSTRUCTURE
  1 ****   1 GROUP 4 **** **** 0

# MOE 2024.06 (io_trps.svl 2023.06)
