@<TRIPOS>MOLECULE
NONAME
43 44 1 0 0 
SMALL
USER_CHARGES


@<TRIPOS>ATOM
  1 O        0.0270    -0.3490    -0.6720 O.3   1 <1>  -0.3630 
  2 C       -0.8920    -0.9720     0.1180 C.ar  1 <1>   0.0830 
  3 C        1.3610    -0.7980    -0.7320 C.3   1 <1>   0.1200 
  4 C       -0.9130    -2.3430     0.4280 C.ar  1 <1>   0.0830 
  5 C       -1.8730    -0.1400     0.6330 C.ar  1 <1>  -0.1500 
  6 C        2.2350     0.3580    -1.2140 C.3   1 <1>  -0.1600 
  7 O        0.0240    -3.1800    -0.1080 O.3   1 <1>  -0.3630 
  8 C       -1.9120    -2.8260     1.2720 C.ar  1 <1>  -0.1500 
  9 C       -2.8630    -0.6350     1.4630 C.ar  1 <1>  -0.1500 
 10 C        3.7020    -0.0750    -1.2830 C.3   1 <1>   0.1200 
 11 C       -0.1250    -4.5830    -0.0730 C.3   1 <1>   0.0400 
 12 C       -2.8790    -1.9790     1.7850 C.ar  1 <1>  -0.1500 
 13 O        4.4960     1.0030    -1.7290 O.3   1 <1>  -0.3630 
 14 C        4.9080     2.0060    -0.9090 C.ar  1 <1>   0.0830 
 15 C        5.6580     3.0130    -1.4910 C.ar  1 <1>  -0.1500 
 16 C        4.6260     2.0720     0.4510 C.ar  1 <1>  -0.1500 
 17 C        6.1300     4.0820    -0.7450 C.ar  1 <1>  -0.1430 
 18 C        5.0940     3.1350     1.2020 C.ar  1 <1>  -0.1500 
 19 C        5.8450     4.1430     0.6160 C.ar  1 <1>  -0.1430 
 20 C        6.9490     5.1610    -1.4370 C.3   1 <1>  -0.0970 
 21 C        6.3390     5.2940     1.4800 C.3   1 <1>  -0.0970 
 22 H        1.4060    -1.6230    -1.4200 H     1 <1>   0.0800 
 23 H        1.6570    -1.1180     0.2530 H     1 <1>   0.0800 
 24 H       -1.8550     0.9050     0.3800 H     1 <1>   0.1500 
 25 H        2.1270     1.1840    -0.5340 H     1 <1>   0.0800 
 26 H        1.9110     0.6600    -2.1940 H     1 <1>   0.0800 
 27 H       -1.9580    -3.8620     1.5470 H     1 <1>   0.1500 
 28 H       -3.6170     0.0250     1.8560 H     1 <1>   0.1500 
 29 H        3.8150    -0.8660    -2.0040 H     1 <1>   0.0800 
 30 H        4.0760    -0.4230    -0.3370 H     1 <1>   0.0800 
 31 H        0.6620    -5.0170    -0.6630 H     1 <1>   0.0800 
 32 H       -1.0810    -4.8430    -0.4930 H     1 <1>   0.0800 
 33 H       -0.0440    -4.9190     0.9450 H     1 <1>   0.0800 
 34 H       -3.6460    -2.3660     2.4340 H     1 <1>   0.1500 
 35 H        5.8660     2.9470    -2.5430 H     1 <1>   0.1500 
 36 H        4.0480     1.3140     0.9420 H     1 <1>   0.1500 
 37 H        4.8670     3.1720     2.2520 H     1 <1>   0.1500 
 38 H        7.0650     4.9450    -2.4830 H     1 <1>   0.0800 
 39 H        7.9270     5.2210    -0.9950 H     1 <1>   0.0800 
 40 H        6.4600     6.1130    -1.3410 H     1 <1>   0.0800 
 41 H        5.9460     6.2250     1.1130 H     1 <1>   0.0800 
 42 H        7.4130     5.3340     1.4600 H     1 <1>   0.0800 
 43 H        6.0250     5.1740     2.5010 H     1 <1>   0.0800 
@<TRIPOS>BOND
  1   1   2  1   
  2   1   3  1   
  3   2   4  ar  
  4   2   5  ar  
  5   3   6  1   
  6   3  22  1   
  7   3  23  1   
  8   4   7  1   
  9   4   8  ar  
 10   5   9  ar  
 11   5  24  1   
 12   6  10  1   
 13   6  25  1   
 14   6  26  1   
 15   7  11  1   
 16   8  12  ar  
 17   8  27  1   
 18   9  12  ar  
 19   9  28  1   
 20  10  13  1   
 21  10  29  1   
 22  10  30  1   
 23  11  31  1   
 24  11  32  1   
 25  11  33  1   
 26  12  34  1   
 27  13  14  1   
 28  14  15  ar  
 29  14  16  ar  
 30  15  17  ar  
 31  15  35  1   
 32  16  18  ar  
 33  16  36  1   
 34  17  19  ar  
 35  17  20  1   
 36  18  19  ar  
 37  18  37  1   
 38  19  21  1   
 39  20  38  1   
 40  20  39  1   
 41  20  40  1   
 42  21  41  1   
 43  21  42  1   
 44  21  43  1   
@<TRIPOS>SUBSTRUCTURE
  1 ****   6 GROUP 4 **** **** 0

# MOE 2024.06 (io_trps.svl 2023.06)
