@<TRIPOS>MOLECULE
NONAME
55 57 1 0 0 
SMALL
USER_CHARGES


@<TRIPOS>ATOM
  1 S        0.0280     0.2180    -0.1630 S.o2  1 <1>   1.4470 
  2 O       -0.2960     0.9240    -1.3850 O.2   1 <1>  -0.6500 
  3 O       -0.3850     0.7750     1.1060 O.2   1 <1>  -0.6500 
  4 N        1.7180     0.0720    -0.1220 N.am  1 <1>  -0.8490 
  5 C       -0.5270    -1.5070    -0.2650 C.ar  1 <1>  -0.0090 
  6 C        2.3470     1.3180     0.3250 C.3   1 <1>   0.1960 
  7 C        2.2610    -0.3630    -1.4140 C.3   1 <1>   0.1960 
  8 C       -1.3680    -1.9390    -1.2850 C.ar  1 <1>  -0.1500 
  9 C       -0.1160    -2.4440     0.6770 C.ar  1 <1>  -0.1500 
 10 C        3.8530     1.1150     0.5070 C.3   1 <1>  -0.1600 
 11 C        3.7600    -0.6420    -1.2880 C.3   1 <1>  -0.1600 
 12 C       -1.7770    -3.2580    -1.3650 C.ar  1 <1>  -0.1500 
 13 C       -0.5210    -3.7660     0.6070 C.ar  1 <1>  -0.1500 
 14 C        4.5080     0.6060    -0.7880 C.3   1 <1>  -0.0190 
 15 C       -1.3570    -4.1820    -0.4230 C.ar  1 <1>   0.0830 
 16 C        6.0040     0.3640    -0.6140 C.2   1 <1>   0.5690 
 17 O       -1.8000    -5.4530    -0.5730 O.3   1 <1>  -0.3630 
 18 O        6.7800     1.0700    -1.2100 O.2   1 <1>  -0.5700 
 19 N        6.4290    -0.6330     0.2030 N.am  1 <1>  -0.7300 
 20 C       -1.4640    -6.4650     0.3480 C.3   1 <1>   0.1200 
 21 C        7.8410    -1.0080     0.4500 C.3   1 <1>   0.1400 
 22 C       -2.1330    -7.7590    -0.1060 C.3   1 <1>  -0.2400 
 23 C        8.0230    -2.5280     0.3180 C.3   1 <1>   0.2000 
 24 O        7.0750    -3.2010     1.0890 O.3   1 <1>  -0.5600 
 25 C        9.3630    -3.0420     0.8240 C.3   1 <1>  -0.1600 
 26 C        7.5370    -4.4680     1.4450 C.3   1 <1>   0.1200 
 27 C        9.0430    -4.4790     1.1890 C.3   1 <1>  -0.1600 
 28 H        1.9260     1.6220     1.2700 H     1 <1>   0.0800 
 29 H        2.1590     2.1010    -0.3930 H     1 <1>   0.0800 
 30 H        2.0910     0.3960    -2.1620 H     1 <1>   0.0800 
 31 H        1.7650    -1.2650    -1.7340 H     1 <1>   0.0800 
 32 H       -1.7060    -1.2350    -2.0280 H     1 <1>   0.1500 
 33 H        0.5330    -2.1270     1.4770 H     1 <1>   0.1500 
 34 H        4.0120     0.4120     1.3060 H     1 <1>   0.0800 
 35 H        4.3050     2.0470     0.7950 H     1 <1>   0.0800 
 36 H        4.1500    -0.9340    -2.2460 H     1 <1>   0.0800 
 37 H        3.9010    -1.4640    -0.6090 H     1 <1>   0.0800 
 38 H       -2.4270    -3.5820    -2.1590 H     1 <1>   0.1500 
 39 H       -0.1760    -4.4520     1.3580 H     1 <1>   0.1500 
 40 H        4.3990     1.3740    -1.5340 H     1 <1>   0.0800 
 41 H        5.7620    -1.2660     0.6520 H     1 <1>   0.3700 
 42 H       -1.8220    -6.1720     1.3200 H     1 <1>   0.0800 
 43 H       -0.3930    -6.5740     0.3590 H     1 <1>   0.0800 
 44 H        8.1150    -0.6980     1.4440 H     1 <1>   0.0800 
 45 H        8.4870    -0.5040    -0.2480 H     1 <1>   0.0800 
 46 H       -3.2010    -7.6350    -0.1300 H     1 <1>   0.0800 
 47 H       -1.8950    -8.5520     0.5790 H     1 <1>   0.0800 
 48 H       -1.7810    -8.0330    -1.0850 H     1 <1>   0.0800 
 49 H        7.8780    -2.8270    -0.7070 H     1 <1>   0.0800 
 50 H        9.6580    -2.4940     1.7020 H     1 <1>   0.0800 
 51 H       10.1330    -2.9630     0.0770 H     1 <1>   0.0800 
 52 H        7.0280    -5.2000     0.8410 H     1 <1>   0.0800 
 53 H        7.3090    -4.6260     2.4850 H     1 <1>   0.0800 
 54 H        9.5900    -4.8100     2.0540 H     1 <1>   0.0800 
 55 H        9.2580    -5.1370     0.3650 H     1 <1>   0.0800 
@<TRIPOS>BOND
  1   1   2  2   
  2   1   3  2   
  3   1   4  am  
  4   1   5  1   
  5   4   6  1   
  6   4   7  1   
  7   5   8  ar  
  8   5   9  ar  
  9   6  10  1   
 10   6  28  1   
 11   6  29  1   
 12   7  11  1   
 13   7  30  1   
 14   7  31  1   
 15   8  12  ar  
 16   8  32  1   
 17   9  13  ar  
 18   9  33  1   
 19  10  14  1   
 20  10  34  1   
 21  10  35  1   
 22  11  14  1   
 23  11  36  1   
 24  11  37  1   
 25  12  15  ar  
 26  12  38  1   
 27  13  15  ar  
 28  13  39  1   
 29  14  16  1   
 30  14  40  1   
 31  15  17  1   
 32  16  18  2   
 33  16  19  am  
 34  17  20  1   
 35  19  21  1   
 36  19  41  1   
 37  20  22  1   
 38  20  42  1   
 39  20  43  1   
 40  21  23  1   
 41  21  44  1   
 42  21  45  1   
 43  22  46  1   
 44  22  47  1   
 45  22  48  1   
 46  23  24  1   
 47  23  25  1   
 48  23  49  1   
 49  24  26  1   
 50  25  27  1   
 51  25  50  1   
 52  25  51  1   
 53  26  27  1   
 54  26  52  1   
 55  26  53  1   
 56  27  54  1   
 57  27  55  1   
@<TRIPOS>SUBSTRUCTURE
  1 ****  11 GROUP 4 **** **** 0

# MOE 2024.06 (io_trps.svl 2023.06)
