@<TRIPOS>MOLECULE
NONAME
34 35 1 0 0 
SMALL
USER_CHARGES


@<TRIPOS>ATOM
  1 CL      -1.9110     0.5860     3.1240 Cl    1 <1>  -0.1770 
  2 C       -2.4280     1.1580     1.5600 C.ar  1 <1>   0.1770 
  3 C       -3.5160     0.5580     0.9530 C.ar  1 <1>  -0.1500 
  4 C       -1.7490     2.1970     0.9560 C.ar  1 <1>  -0.1500 
  5 C       -3.9430     1.0110    -0.2880 C.ar  1 <1>  -0.1440 
  6 C       -2.1680     2.6440    -0.2850 C.ar  1 <1>  -0.1500 
  7 C       -3.2580     2.0520    -0.9040 C.ar  1 <1>  -0.1500 
  8 C       -5.1460     0.3780    -0.9630 C.3   1 <1>   0.4870 
  9 N       -6.3790     0.7910    -0.2390 N.4   1 <1>  -0.9590 
 10 C       -7.5400    -0.0380    -0.6680 C.3   1 <1>   0.3430 
 11 C       -6.5970     2.2630    -0.3570 C.3   1 <1>   0.3430 
 12 C       -8.5390    -0.1630     0.4820 C.3   1 <1>  -0.1600 
 13 C       -7.7100     2.7630     0.5660 C.3   1 <1>  -0.1600 
 14 C       -9.5700     0.9740     0.5800 C.3   1 <1>  -0.1600 
 15 C       -9.1140     2.3580     0.0970 C.3   1 <1>  -0.1600 
 16 H       -4.0030    -0.2540     1.4630 H     1 <1>   0.1500 
 17 H       -0.9050     2.6450     1.4500 H     1 <1>   0.1500 
 18 H       -1.6400     3.4500    -0.7680 H     1 <1>   0.1500 
 19 H       -3.5590     2.4160    -1.8730 H     1 <1>   0.1500 
 20 H       -5.0400    -0.6940    -0.9330 H     1 <1>   0.0800 
 21 H       -5.1970     0.6860    -1.9950 H     1 <1>   0.0800 
 22 H       -6.2090     0.6010     0.7560 H     1 <1>   0.4500 
 23 H       -7.1960    -1.0290    -0.9170 H     1 <1>   0.0800 
 24 H       -8.0150     0.3830    -1.5390 H     1 <1>   0.0800 
 25 H       -6.8340     2.5200    -1.3770 H     1 <1>   0.0800 
 26 H       -5.6880     2.7790    -0.0910 H     1 <1>   0.0800 
 27 H       -8.0110    -0.2590     1.4150 H     1 <1>   0.0800 
 28 H       -9.0870    -1.0800     0.3480 H     1 <1>   0.0800 
 29 H       -7.6640     3.8380     0.5500 H     1 <1>   0.0800 
 30 H       -7.5350     2.4600     1.5830 H     1 <1>   0.0800 
 31 H       -9.8890     1.0510     1.6070 H     1 <1>   0.0800 
 32 H      -10.4440     0.7020     0.0110 H     1 <1>   0.0800 
 33 H       -9.1700     2.4080    -0.9780 H     1 <1>   0.0800 
 34 H       -9.8220     3.0800     0.4720 H     1 <1>   0.0800 
@<TRIPOS>BOND
  1   1   2  1   
  2   2   3  ar  
  3   2   4  ar  
  4   3   5  ar  
  5   3  16  1   
  6   4   6  ar  
  7   4  17  1   
  8   5   7  ar  
  9   5   8  1   
 10   6   7  ar  
 11   6  18  1   
 12   7  19  1   
 13   8   9  1   
 14   8  20  1   
 15   8  21  1   
 16   9  10  1   
 17   9  11  1   
 18   9  22  1   
 19  10  12  1   
 20  10  23  1   
 21  10  24  1   
 22  11  13  1   
 23  11  25  1   
 24  11  26  1   
 25  12  14  1   
 26  12  27  1   
 27  12  28  1   
 28  13  15  1   
 29  13  29  1   
 30  13  30  1   
 31  14  15  1   
 32  14  31  1   
 33  14  32  1   
 34  15  33  1   
 35  15  34  1   
@<TRIPOS>SUBSTRUCTURE
  1 ****   9 GROUP 4 **** **** 0

# MOE 2024.06 (io_trps.svl 2023.06)
