@<TRIPOS>MOLECULE
NONAME
36 37 1 0 0 
SMALL
USER_CHARGES


@<TRIPOS>ATOM
  1 F       -0.0670    -1.1670     2.7270 F     1 <1>  -0.3400 
  2 C       -1.1630    -1.2360     1.9720 C.3   1 <1>   1.0200 
  3 F       -2.1580    -1.5240     2.8000 F     1 <1>  -0.3400 
  4 F       -1.3880     0.0110     1.5720 F     1 <1>  -0.3400 
  5 C       -0.9950    -2.2220     0.7760 C.3   1 <1>   0.4990 
  6 N       -2.0930    -2.2070    -0.2710 N.am  1 <1>  -0.7300 
  7 C       -0.5950    -3.5880     1.3870 C.2   1 <1>   0.5690 
  8 C        0.2920    -1.9600    -0.0020 C.2   1 <1>  -0.1240 
  9 C       -3.3260    -2.7390    -0.1440 C.2   1 <1>   0.5690 
 10 O       -1.2050    -4.2630     2.1750 O.2   1 <1>  -0.5700 
 11 N        0.6540    -3.9340     0.9720 N.am  1 <1>  -0.5390 
 12 C        0.5910    -0.8780    -0.8430 C.2   1 <1>   0.6160 
 13 C        1.1690    -2.9610     0.1740 C.2   1 <1>   0.2180 
 14 O       -3.6470    -3.3720     0.8240 O.2   1 <1>  -0.5700 
 15 C       -4.3360    -2.5020    -1.2500 C.3   1 <1>  -0.0990 
 16 O       -0.2630    -0.0580    -1.1370 O.2   1 <1>  -0.5700 
 17 N        1.8680    -0.8070    -1.3770 N.am  1 <1>  -0.4200 
 18 N        2.4130    -2.9450    -0.4120 N.am  1 <1>  -0.4690 
 19 C       -3.9130    -3.1220    -2.5920 C.3   1 <1>  -0.2400 
 20 C        2.7770    -1.8400    -1.1790 C.2   1 <1>   0.6900 
 21 C        2.2570     0.3650    -2.2160 C.3   1 <1>   0.0600 
 22 C        3.3700    -4.0710    -0.2080 C.3   1 <1>   0.0600 
 23 O        3.8860    -1.7800    -1.6760 O.2   1 <1>  -0.5700 
 24 H       -1.9360    -1.5160    -1.0140 H     1 <1>   0.3700 
 25 H        1.1060    -4.7910     1.2920 H     1 <1>   0.3700 
 26 H       -4.4800    -1.4430    -1.3660 H     1 <1>   0.0800 
 27 H       -5.2770    -2.9270    -0.9480 H     1 <1>   0.0800 
 28 H       -2.9970    -2.6830    -2.9440 H     1 <1>   0.0800 
 29 H       -4.6780    -2.9580    -3.3310 H     1 <1>   0.0800 
 30 H       -3.7680    -4.1820    -2.4790 H     1 <1>   0.0800 
 31 H        1.6740     1.2310    -1.9530 H     1 <1>   0.0800 
 32 H        2.0930     0.1320    -3.2540 H     1 <1>   0.0800 
 33 H        3.2970     0.5990    -2.0700 H     1 <1>   0.0800 
 34 H        2.8440    -5.0090    -0.1960 H     1 <1>   0.0800 
 35 H        3.8890    -3.9370     0.7250 H     1 <1>   0.0800 
 36 H        4.0920    -4.1030    -1.0060 H     1 <1>   0.0800 
@<TRIPOS>BOND
  1   1   2  1   
  2   2   3  1   
  3   2   4  1   
  4   2   5  1   
  5   5   6  1   
  6   5   7  1   
  7   5   8  1   
  8   6   9  am  
  9   6  24  1   
 10   7  10  2   
 11   7  11  am  
 12   8  12  1   
 13   8  13  2   
 14   9  14  2   
 15   9  15  1   
 16  11  13  1   
 17  11  25  1   
 18  12  16  2   
 19  12  17  am  
 20  13  18  1   
 21  15  19  1   
 22  15  26  1   
 23  15  27  1   
 24  17  20  am  
 25  17  21  1   
 26  18  20  am  
 27  18  22  1   
 28  19  28  1   
 29  19  29  1   
 30  19  30  1   
 31  20  23  2   
 32  21  31  1   
 33  21  32  1   
 34  21  33  1   
 35  22  34  1   
 36  22  35  1   
 37  22  36  1   
@<TRIPOS>SUBSTRUCTURE
  1 ****   8 GROUP 4 **** **** 0

# MOE 2024.06 (io_trps.svl 2023.06)
