@<TRIPOS>MOLECULE
NONAME
30 30 1 0 0 
SMALL
USER_CHARGES


@<TRIPOS>ATOM
  1 S       -0.1610     0.0510    -0.7300 S.o2  1 <1>   1.3330 
  2 O        0.3490    -1.2510    -1.0790 O.2   1 <1>  -0.6500 
  3 O       -0.8520     0.8540    -1.7100 O.2   1 <1>  -0.6500 
  4 N        1.1790     0.9090    -0.2110 N.am  1 <1>  -0.9140 
  5 C       -1.1430    -0.0800     0.7490 C.3   1 <1>  -0.1350 
  6 C        1.1060     2.3460    -0.4470 C.3   1 <1>   0.1960 
  7 C        2.3410     3.0320     0.1410 C.3   1 <1>  -0.0220 
  8 C        2.3650     4.5470    -0.0610 C.2   1 <1>  -0.2760 
  9 C        1.4240     5.2650    -0.6900 C.2   1 <1>  -0.2880 
 10 C        3.6120     5.1940     0.5360 C.3   1 <1>  -0.0220 
 11 C        1.4880     6.7690    -0.9040 C.3   1 <1>  -0.0220 
 12 C        3.4790     6.7200     0.6480 C.3   1 <1>  -0.1600 
 13 C        2.8950     7.3180    -0.6370 C.3   1 <1>  -0.1600 
 14 H        1.9360     0.5300    -0.7780 H     1 <1>   0.4200 
 15 H       -2.0290    -0.6490     0.5510 H     1 <1>   0.0800 
 16 H       -1.4260     0.8950     1.0930 H     1 <1>   0.0800 
 17 H       -0.5820    -0.5710     1.5190 H     1 <1>   0.0800 
 18 H        0.2210     2.7460     0.0200 H     1 <1>   0.0800 
 19 H        1.0540     2.5410    -1.5060 H     1 <1>   0.0800 
 20 H        3.2200     2.6130    -0.3150 H     1 <1>   0.0800 
 21 H        2.3730     2.8240     1.1960 H     1 <1>   0.0800 
 22 H        0.5250     4.8470    -1.1080 H     1 <1>   0.1500 
 23 H        4.4570     4.9540    -0.0860 H     1 <1>   0.0800 
 24 H        3.8000     4.7980     1.5180 H     1 <1>   0.0800 
 25 H        0.7810     7.2420    -0.2450 H     1 <1>   0.0800 
 26 H        1.2080     7.0020    -1.9170 H     1 <1>   0.0800 
 27 H        4.4430     7.1520     0.8510 H     1 <1>   0.0800 
 28 H        2.8280     6.9560     1.4720 H     1 <1>   0.0800 
 29 H        2.8560     8.3910    -0.5620 H     1 <1>   0.0800 
 30 H        3.5350     7.0650    -1.4640 H     1 <1>   0.0800 
@<TRIPOS>BOND
  1   1   2  2   
  2   1   3  2   
  3   1   4  am  
  4   1   5  1   
  5   4   6  1   
  6   4  14  1   
  7   5  15  1   
  8   5  16  1   
  9   5  17  1   
 10   6   7  1   
 11   6  18  1   
 12   6  19  1   
 13   7   8  1   
 14   7  20  1   
 15   7  21  1   
 16   8   9  2   
 17   8  10  1   
 18   9  11  1   
 19   9  22  1   
 20  10  12  1   
 21  10  23  1   
 22  10  24  1   
 23  11  13  1   
 24  11  25  1   
 25  11  26  1   
 26  12  13  1   
 27  12  27  1   
 28  12  28  1   
 29  13  29  1   
 30  13  30  1   
@<TRIPOS>SUBSTRUCTURE
  1 ****   6 GROUP 4 **** **** 0

# MOE 2024.06 (io_trps.svl 2023.06)
