@<TRIPOS>MOLECULE
NONAME
43 44 1 0 0 
SMALL
USER_CHARGES


@<TRIPOS>ATOM
  1 O        0.1690    -0.3000     0.8050 O.2   1 <1>  -0.5700 
  2 C        0.9100    -1.0710     0.2230 C.2   1 <1>   0.7060 
  3 O        2.1070    -0.6170    -0.1670 O.3   1 <1>  -0.4300 
  4 C        0.5480    -2.4280    -0.0560 C.2   1 <1>   0.0790 
  5 C        2.5210     0.7090     0.0800 C.3   1 <1>   0.1200 
  6 C        1.4810    -3.1480    -0.8630 C.1   1 <1>   0.4920 
  7 C       -0.6220    -2.9810     0.3780 C.2   1 <1>  -0.1040 
  8 C        3.9230     0.8780    -0.4950 C.3   1 <1>  -0.2400 
  9 N        2.2250    -3.6780    -1.5470 N.1   1 <1>  -0.5570 
 10 C       -1.0950    -4.3160     0.2390 C.2   1 <1>  -0.0460 
 11 C       -0.4510    -5.5090     0.4580 C.2   1 <1>  -0.0890 
 12 C       -2.4210    -4.6550    -0.1340 C.ar  1 <1>   0.0000 
 13 O        0.8130    -5.6170     0.9090 O.3   1 <1>  -0.3430 
 14 N       -1.2910    -6.5650     0.2400 N.pl3 1 <1>   0.0480 
 15 C       -2.5150    -6.0430    -0.1330 C.ar  1 <1>  -0.1520 
 16 C       -3.5370    -3.8860    -0.4740 C.ar  1 <1>  -0.1500 
 17 C        1.7520    -6.4440     0.2580 C.3   1 <1>   0.1200 
 18 C       -1.1120    -7.9760     0.6510 C.3   1 <1>   0.0960 
 19 C       -3.7170    -6.6740    -0.4630 C.ar  1 <1>  -0.1500 
 20 C       -4.7200    -4.5100    -0.8000 C.ar  1 <1>  -0.1500 
 21 C        3.1330    -6.1310     0.8280 C.3   1 <1>  -0.2400 
 22 C       -0.8230    -8.8690    -0.5620 C.3   1 <1>  -0.2400 
 23 C       -4.8100    -5.9040    -0.7940 C.ar  1 <1>  -0.1500 
 24 H        1.8240     1.3790    -0.3950 H     1 <1>   0.0800 
 25 H        2.5170     0.8760     1.1440 H     1 <1>   0.0800 
 26 H       -1.3170    -2.3450     0.8990 H     1 <1>   0.1500 
 27 H        3.9140     0.6960    -1.5550 H     1 <1>   0.0800 
 28 H        4.6040     0.1960    -0.0190 H     1 <1>   0.0800 
 29 H        4.2670     1.8820    -0.3230 H     1 <1>   0.0800 
 30 H       -3.4600    -2.8140    -0.4770 H     1 <1>   0.1500 
 31 H        1.5070    -7.4710     0.4400 H     1 <1>   0.0800 
 32 H        1.7130    -6.2390    -0.7980 H     1 <1>   0.0800 
 33 H       -0.3140    -8.0340     1.3680 H     1 <1>   0.0800 
 34 H       -2.0110    -8.3040     1.1400 H     1 <1>   0.0800 
 35 H       -3.7870    -7.7460    -0.4600 H     1 <1>   0.1500 
 36 H       -5.5860    -3.9280    -1.0620 H     1 <1>   0.1500 
 37 H        3.1520    -6.3320     1.8840 H     1 <1>   0.0800 
 38 H        3.3820    -5.1010     0.6540 H     1 <1>   0.0800 
 39 H        3.8710    -6.7460     0.3460 H     1 <1>   0.0800 
 40 H       -0.6780    -9.8840    -0.2400 H     1 <1>   0.0800 
 41 H       -1.6500    -8.8450    -1.2490 H     1 <1>   0.0800 
 42 H        0.0650    -8.5410    -1.0720 H     1 <1>   0.0800 
 43 H       -5.7440    -6.3720    -1.0520 H     1 <1>   0.1500 
@<TRIPOS>BOND
  1   1   2  2   
  2   2   3  1   
  3   2   4  1   
  4   3   5  1   
  5   4   6  1   
  6   4   7  2   
  7   5   8  1   
  8   5  24  1   
  9   5  25  1   
 10   6   9  3   
 11   7  10  1   
 12   7  26  1   
 13   8  27  1   
 14   8  28  1   
 15   8  29  1   
 16  10  11  2   
 17  10  12  1   
 18  11  13  1   
 19  11  14  1   
 20  12  15  ar  
 21  12  16  ar  
 22  13  17  1   
 23  14  15  1   
 24  14  18  1   
 25  15  19  ar  
 26  16  20  ar  
 27  16  30  1   
 28  17  21  1   
 29  17  31  1   
 30  17  32  1   
 31  18  22  1   
 32  18  33  1   
 33  18  34  1   
 34  19  23  ar  
 35  19  35  1   
 36  20  23  ar  
 37  20  36  1   
 38  21  37  1   
 39  21  38  1   
 40  21  39  1   
 41  22  40  1   
 42  22  41  1   
 43  22  42  1   
 44  23  43  1   
@<TRIPOS>SUBSTRUCTURE
  1 ****  10 GROUP 4 **** **** 0

# MOE 2024.06 (io_trps.svl 2023.06)
