@<TRIPOS>MOLECULE
NONAME
49 50 1 0 0 
SMALL
USER_CHARGES


@<TRIPOS>ATOM
  1 S        0.0670     0.6430    -1.4200 S.o2  1 <1>   1.4470 
  2 O       -0.7220     0.0500    -2.4780 O.2   1 <1>  -0.6500 
  3 O        0.5110     2.0130    -1.5760 O.2   1 <1>  -0.6500 
  4 N       -0.8180     0.5440     0.0360 N.am  1 <1>  -0.8490 
  5 C        1.5000    -0.4420    -1.1410 C.ar  1 <1>  -0.0090 
  6 C       -2.2660     0.6600    -0.1860 C.3   1 <1>   0.1960 
  7 C       -0.3630     1.4930     1.0670 C.3   1 <1>   0.1960 
  8 C        1.3520    -1.6940    -0.5600 C.ar  1 <1>  -0.1500 
  9 C        2.7820    -0.0580    -1.5150 C.ar  1 <1>  -0.1500 
 10 C       -3.0480     0.0410     0.9740 C.3   1 <1>  -0.2400 
 11 C        0.9970     1.0970     1.6350 C.3   1 <1>  -0.2400 
 12 C        2.4410    -2.5200    -0.3450 C.ar  1 <1>  -0.1500 
 13 C        3.8720    -0.8840    -1.3030 C.ar  1 <1>  -0.1500 
 14 C        3.7320    -2.1360    -0.7020 C.ar  1 <1>   0.0860 
 15 C        4.8670    -3.0100    -0.4550 C.2   1 <1>   0.5440 
 16 O        4.7180    -4.2140    -0.3950 O.2   1 <1>  -0.5700 
 17 N        6.1180    -2.4910    -0.2670 N.am  1 <1>  -0.7300 
 18 C        7.3420    -3.2700    -0.0140 C.3   1 <1>   0.2200 
 19 C        7.8230    -2.9870     1.4130 C.3   1 <1>  -0.1600 
 20 C        8.4030    -2.8760    -1.0470 C.3   1 <1>  -0.1600 
 21 C        9.1580    -3.6900     1.6990 C.3   1 <1>  -0.1600 
 22 C        9.7390    -3.5790    -0.7660 C.3   1 <1>  -0.1600 
 23 C       10.2230    -3.3010     0.6640 C.3   1 <1>  -0.1600 
 24 H       -2.5540     0.1140    -1.0680 H     1 <1>   0.0800 
 25 H       -2.5440     1.6920    -0.3340 H     1 <1>   0.0800 
 26 H       -1.0530     1.4990     1.8910 H     1 <1>   0.0800 
 27 H       -0.3290     2.4970     0.6730 H     1 <1>   0.0800 
 28 H        0.3670    -2.0240    -0.2710 H     1 <1>   0.1500 
 29 H        2.9250     0.9030    -1.9820 H     1 <1>   0.1500 
 30 H       -2.6840    -0.9510     1.1750 H     1 <1>   0.0800 
 31 H       -4.0850    -0.0290     0.7010 H     1 <1>   0.0800 
 32 H       -2.9850     0.6370     1.8640 H     1 <1>   0.0800 
 33 H        0.9990     0.0600     1.9180 H     1 <1>   0.0800 
 34 H        1.1980     1.6860     2.5120 H     1 <1>   0.0800 
 35 H        1.7830     1.2900     0.9300 H     1 <1>   0.0800 
 36 H        2.2940    -3.4870     0.1080 H     1 <1>   0.1500 
 37 H        4.8450    -0.5530    -1.6190 H     1 <1>   0.1500 
 38 H        6.2370    -1.4820    -0.2030 H     1 <1>   0.3700 
 39 H        7.1340    -4.3240    -0.1110 H     1 <1>   0.0800 
 40 H        7.0820    -3.3370     2.1110 H     1 <1>   0.0800 
 41 H        7.9500    -1.9280     1.5490 H     1 <1>   0.0800 
 42 H        8.5560    -1.8120    -1.0200 H     1 <1>   0.0800 
 43 H        8.0590    -3.1490    -2.0290 H     1 <1>   0.0800 
 44 H        9.0100    -4.7560     1.6730 H     1 <1>   0.0800 
 45 H        9.5000    -3.4290     2.6860 H     1 <1>   0.0800 
 46 H       10.4800    -3.2430    -1.4700 H     1 <1>   0.0800 
 47 H        9.6160    -4.6410    -0.8990 H     1 <1>   0.0800 
 48 H       11.1270    -3.8540     0.8530 H     1 <1>   0.0800 
 49 H       10.4520    -2.2540     0.7650 H     1 <1>   0.0800 
@<TRIPOS>BOND
  1   1   2  2   
  2   1   3  2   
  3   1   4  am  
  4   1   5  1   
  5   4   6  1   
  6   4   7  1   
  7   5   8  ar  
  8   5   9  ar  
  9   6  10  1   
 10   6  24  1   
 11   6  25  1   
 12   7  11  1   
 13   7  26  1   
 14   7  27  1   
 15   8  12  ar  
 16   8  28  1   
 17   9  13  ar  
 18   9  29  1   
 19  10  30  1   
 20  10  31  1   
 21  10  32  1   
 22  11  33  1   
 23  11  34  1   
 24  11  35  1   
 25  12  14  ar  
 26  12  36  1   
 27  13  14  ar  
 28  13  37  1   
 29  14  15  1   
 30  15  16  2   
 31  15  17  am  
 32  17  18  1   
 33  17  38  1   
 34  18  19  1   
 35  18  20  1   
 36  18  39  1   
 37  19  21  1   
 38  19  40  1   
 39  19  41  1   
 40  20  22  1   
 41  20  42  1   
 42  20  43  1   
 43  21  23  1   
 44  21  44  1   
 45  21  45  1   
 46  22  23  1   
 47  22  46  1   
 48  22  47  1   
 49  23  48  1   
 50  23  49  1   
@<TRIPOS>SUBSTRUCTURE
  1 ****  14 GROUP 4 **** **** 0

# MOE 2024.06 (io_trps.svl 2023.06)
