@<TRIPOS>MOLECULE
NONAME
34 34 1 0 0 
SMALL
USER_CHARGES


@<TRIPOS>ATOM
  1 CL      -0.2620    -0.4180    -0.7740 Cl    1 <1>  -0.1770 
  2 C       -1.6420     0.6030    -0.4300 C.ar  1 <1>   0.1770 
  3 C       -2.8900     0.0370    -0.1940 C.ar  1 <1>   0.0820 
  4 C       -1.4560     1.9720    -0.4010 C.ar  1 <1>  -0.1500 
  5 O       -2.9970    -1.3190    -0.2410 O.3   1 <1>  -0.3630 
  6 C       -3.9650     0.8820     0.0770 C.ar  1 <1>  -0.1500 
  7 C       -2.5320     2.7990    -0.1310 C.ar  1 <1>  -0.1500 
  8 C       -4.2100    -1.9830     0.0000 C.3   1 <1>   0.1200 
  9 C       -3.7860     2.2580     0.1100 C.ar  1 <1>  -0.1440 
 10 C       -3.9270    -3.4790    -0.1320 C.3   1 <1>  -0.1600 
 11 C       -4.9600     3.1750     0.4040 C.3   1 <1>  -0.0970 
 12 C       -5.1850    -4.3030     0.1290 C.3   1 <1>   0.3430 
 13 N       -4.9170    -5.7530    -0.1110 N.4   1 <1>  -0.9590 
 14 C       -6.1970    -6.5220    -0.1870 C.3   1 <1>   0.2630 
 15 C       -4.0170    -6.3460     0.9310 C.3   1 <1>   0.2630 
 16 H       -0.4800     2.3810    -0.5880 H     1 <1>   0.1500 
 17 H       -4.9450     0.4890     0.2620 H     1 <1>   0.1500 
 18 H       -2.3880     3.8660    -0.1090 H     1 <1>   0.1500 
 19 H       -4.9270    -1.6520    -0.7330 H     1 <1>   0.0800 
 20 H       -4.5400    -1.7300     0.9940 H     1 <1>   0.0800 
 21 H       -3.1610    -3.7340     0.5780 H     1 <1>   0.0800 
 22 H       -3.5690    -3.6680    -1.1290 H     1 <1>   0.0800 
 23 H       -5.6850     2.6780     1.0230 H     1 <1>   0.0800 
 24 H       -5.4320     3.4690    -0.5160 H     1 <1>   0.0800 
 25 H       -4.6270     4.0580     0.9200 H     1 <1>   0.0800 
 26 H       -5.9630    -3.9680    -0.5390 H     1 <1>   0.0800 
 27 H       -5.5230    -4.1520     1.1420 H     1 <1>   0.0800 
 28 H       -4.4420    -5.8310    -1.0240 H     1 <1>   0.4500 
 29 H       -6.7280    -6.4620     0.7500 H     1 <1>   0.0800 
 30 H       -5.9980    -7.5590    -0.4040 H     1 <1>   0.0800 
 31 H       -6.8280    -6.1250    -0.9660 H     1 <1>   0.0800 
 32 H       -4.4610    -6.2530     1.9090 H     1 <1>   0.0800 
 33 H       -3.0630    -5.8440     0.9370 H     1 <1>   0.0800 
 34 H       -3.8480    -7.3920     0.7270 H     1 <1>   0.0800 
@<TRIPOS>BOND
  1   1   2  1   
  2   2   3  ar  
  3   2   4  ar  
  4   3   5  1   
  5   3   6  ar  
  6   4   7  ar  
  7   4  16  1   
  8   5   8  1   
  9   6   9  ar  
 10   6  17  1   
 11   7   9  ar  
 12   7  18  1   
 13   8  10  1   
 14   8  19  1   
 15   8  20  1   
 16   9  11  1   
 17  10  12  1   
 18  10  21  1   
 19  10  22  1   
 20  11  23  1   
 21  11  24  1   
 22  11  25  1   
 23  12  13  1   
 24  12  26  1   
 25  12  27  1   
 26  13  14  1   
 27  13  15  1   
 28  13  28  1   
 29  14  29  1   
 30  14  30  1   
 31  14  31  1   
 32  15  32  1   
 33  15  33  1   
 34  15  34  1   
@<TRIPOS>SUBSTRUCTURE
  1 ****   5 GROUP 4 **** **** 0

# MOE 2024.06 (io_trps.svl 2023.06)
