@<TRIPOS>MOLECULE
NONAME
36 36 1 0 0 
SMALL
USER_CHARGES


@<TRIPOS>ATOM
  1 O       -1.2850    -1.3350    -0.0260 O.2   1 <1>  -0.5700 
  2 C       -1.0900    -2.5080     0.2050 C.2   1 <1>   0.6900 
  3 N        0.1850    -2.9760     0.3560 N.am  1 <1>  -0.3680 
  4 N       -2.1260    -3.3510     0.3140 N.am  1 <1>  -0.8000 
  5 N        0.5930    -4.2830     0.6160 N.2   1 <1>  -0.5120 
  6 C        1.8170    -4.5880     0.7390 C.2   1 <1>   0.3280 
  7 C        2.2240    -6.0310     1.0140 C.3   1 <1>  -0.0990 
  8 C        2.9560    -3.5790     0.6560 C.3   1 <1>  -0.1790 
  9 C        2.6490    -6.8670    -0.2170 C.3   1 <1>   0.1430 
 10 C        2.9290    -8.3070     0.2750 C.ar  1 <1>  -0.1440 
 11 C        3.9230    -6.3120    -0.8810 C.3   1 <1>  -0.2400 
 12 C        1.5360    -6.8190    -1.2840 C.3   1 <1>  -0.2400 
 13 C        2.1280    -9.3950    -0.0660 C.ar  1 <1>  -0.1500 
 14 C        4.0170    -8.5470     1.1110 C.ar  1 <1>  -0.1500 
 15 C        2.4080   -10.6670     0.4020 C.ar  1 <1>  -0.1500 
 16 C        4.3000    -9.8170     1.5800 C.ar  1 <1>  -0.1500 
 17 C        3.4960   -10.8820     1.2250 C.ar  1 <1>  -0.1500 
 18 H        0.8850    -2.2410     0.2470 H     1 <1>   0.3700 
 19 H       -3.0830    -3.0190     0.2320 H     1 <1>   0.3700 
 20 H       -1.9480    -4.3310     0.5310 H     1 <1>   0.3700 
 21 H        3.0020    -6.0370     1.7540 H     1 <1>   0.0800 
 22 H        1.3800    -6.5250     1.4630 H     1 <1>   0.0800 
 23 H        3.1130    -3.2930    -0.3680 H     1 <1>   0.0800 
 24 H        3.8680    -3.9930     1.0450 H     1 <1>   0.0800 
 25 H        2.7200    -2.7040     1.2330 H     1 <1>   0.0800 
 26 H        3.7280    -5.3840    -1.3840 H     1 <1>   0.0800 
 27 H        4.2840    -7.0140    -1.6130 H     1 <1>   0.0800 
 28 H        4.7040    -6.1480    -0.1620 H     1 <1>   0.0800 
 29 H        1.4120    -5.8230    -1.6700 H     1 <1>   0.0800 
 30 H        0.5950    -7.1250    -0.8640 H     1 <1>   0.0800 
 31 H        1.7790    -7.4640    -2.1100 H     1 <1>   0.0800 
 32 H        1.2680    -9.2840    -0.7000 H     1 <1>   0.1500 
 33 H        4.6630    -7.7430     1.4130 H     1 <1>   0.1500 
 34 H        1.7760   -11.4910     0.1230 H     1 <1>   0.1500 
 35 H        5.1480    -9.9760     2.2230 H     1 <1>   0.1500 
 36 H        3.7130   -11.8710     1.5890 H     1 <1>   0.1500 
@<TRIPOS>BOND
  1   1   2  2   
  2   2   3  am  
  3   2   4  am  
  4   3   5  1   
  5   3  18  1   
  6   4  19  1   
  7   4  20  1   
  8   5   6  2   
  9   6   7  1   
 10   6   8  1   
 11   7   9  1   
 12   7  21  1   
 13   7  22  1   
 14   8  23  1   
 15   8  24  1   
 16   8  25  1   
 17   9  10  1   
 18   9  11  1   
 19   9  12  1   
 20  10  13  ar  
 21  10  14  ar  
 22  11  26  1   
 23  11  27  1   
 24  11  28  1   
 25  12  29  1   
 26  12  30  1   
 27  12  31  1   
 28  13  15  ar  
 29  13  32  1   
 30  14  16  ar  
 31  14  33  1   
 32  15  17  ar  
 33  15  34  1   
 34  16  17  ar  
 35  16  35  1   
 36  17  36  1   
@<TRIPOS>SUBSTRUCTURE
  1 ****   7 GROUP 4 **** **** 0

# MOE 2024.06 (io_trps.svl 2023.06)
