@<TRIPOS>MOLECULE
NONAME
37 38 1 0 0 
SMALL
USER_CHARGES


@<TRIPOS>ATOM
  1 O       -0.4280     0.3810     1.0530 O.2   1 <1>  -0.5700 
  2 C       -0.9730     1.3450     0.5800 C.2   1 <1>   0.4950 
  3 C       -2.3930     1.4950     0.5910 C.2   1 <1>  -0.1360 
  4 C       -0.1470     2.4150    -0.1210 C.3   1 <1>   0.0420 
  5 C       -3.0940     2.4910    -0.0030 C.2   1 <1>  -0.1670 
  6 C        1.2060     2.5850     0.5650 C.2   1 <1>   0.4480 
  7 C       -0.9170     3.7560    -0.2100 C.3   1 <1>  -0.1600 
  8 C       -4.5300     2.5740     0.0030 C.ar  1 <1>   0.0280 
  9 C       -2.3400     3.5810    -0.7610 C.3   1 <1>  -0.0220 
 10 O        1.4140     3.4610     1.3500 O.2   1 <1>  -0.5700 
 11 C        2.3200     1.6320     0.1780 C.3   1 <1>  -0.1790 
 12 C       -5.2040     3.7210     0.4210 C.ar  1 <1>  -0.1500 
 13 C       -5.3020     1.4870    -0.4070 C.ar  1 <1>  -0.1500 
 14 C       -6.5850     3.7910     0.4170 C.ar  1 <1>  -0.1500 
 15 C       -6.6820     1.5480    -0.4120 C.ar  1 <1>  -0.1500 
 16 C       -7.3380     2.6980    -0.0040 C.ar  1 <1>   0.0820 
 17 O       -8.6890     2.6800    -0.0420 O.3   1 <1>  -0.3630 
 18 C       -9.4580     3.7950     0.3440 C.3   1 <1>   0.1200 
 19 C      -10.9300     3.4350     0.1740 C.3   1 <1>  -0.2400 
 20 H       -2.9080     0.7170     1.1260 H     1 <1>   0.1500 
 21 H        0.0300     2.0690    -1.1210 H     1 <1>   0.0800 
 22 H       -0.3700     4.4520    -0.8220 H     1 <1>   0.0800 
 23 H       -0.9930     4.1830     0.7770 H     1 <1>   0.0800 
 24 H       -2.8520     4.5240    -0.6870 H     1 <1>   0.0800 
 25 H       -2.3020     3.3150    -1.8040 H     1 <1>   0.0800 
 26 H        2.5020     1.6840    -0.8780 H     1 <1>   0.0800 
 27 H        2.0610     0.6250     0.4470 H     1 <1>   0.0800 
 28 H        3.2200     1.9020     0.6990 H     1 <1>   0.0800 
 29 H       -4.6390     4.5690     0.7620 H     1 <1>   0.1500 
 30 H       -4.8120     0.5860    -0.7300 H     1 <1>   0.1500 
 31 H       -7.0580     4.6960     0.7460 H     1 <1>   0.1500 
 32 H       -7.2650     0.7040    -0.7330 H     1 <1>   0.1500 
 33 H       -9.1940     4.6260    -0.2870 H     1 <1>   0.0800 
 34 H       -9.2380     4.0210     1.3730 H     1 <1>   0.0800 
 35 H      -11.1350     3.1950    -0.8540 H     1 <1>   0.0800 
 36 H      -11.5450     4.2690     0.4610 H     1 <1>   0.0800 
 37 H      -11.1790     2.5940     0.7960 H     1 <1>   0.0800 
@<TRIPOS>BOND
  1   1   2  2   
  2   2   3  1   
  3   2   4  1   
  4   3   5  2   
  5   3  20  1   
  6   4   6  1   
  7   4   7  1   
  8   4  21  1   
  9   5   8  1   
 10   5   9  1   
 11   6  10  2   
 12   6  11  1   
 13   7   9  1   
 14   7  22  1   
 15   7  23  1   
 16   8  12  ar  
 17   8  13  ar  
 18   9  24  1   
 19   9  25  1   
 20  11  26  1   
 21  11  27  1   
 22  11  28  1   
 23  12  14  ar  
 24  12  29  1   
 25  13  15  ar  
 26  13  30  1   
 27  14  16  ar  
 28  14  31  1   
 29  15  16  ar  
 30  15  32  1   
 31  16  17  1   
 32  17  18  1   
 33  18  19  1   
 34  18  33  1   
 35  18  34  1   
 36  19  35  1   
 37  19  36  1   
 38  19  37  1   
@<TRIPOS>SUBSTRUCTURE
  1 ****   5 GROUP 4 **** **** 0

# MOE 2024.06 (io_trps.svl 2023.06)
