@<TRIPOS>MOLECULE
NONAME
34 35 1 0 0 
SMALL
USER_CHARGES


@<TRIPOS>ATOM
  1 CL       0.0970    -0.0320     0.5110 Cl    1 <1>  -0.1770 
  2 C        1.7790    -0.3790     0.2230 C.ar  1 <1>   0.1770 
  3 C        2.6870     0.6590     0.1500 C.ar  1 <1>  -0.1500 
  4 C        2.1860    -1.6900     0.0670 C.ar  1 <1>  -0.1500 
  5 C        4.0220     0.3750    -0.0760 C.ar  1 <1>  -0.1500 
  6 C        3.5240    -1.9630    -0.1600 C.ar  1 <1>  -0.1500 
  7 C        4.4760    -0.9380    -0.2270 C.ar  1 <1>   0.0860 
  8 C        5.8840    -1.2110    -0.4460 C.2   1 <1>   0.5440 
  9 O        6.5690    -0.4270    -1.0640 O.2   1 <1>  -0.5700 
 10 N        6.4410    -2.3480     0.0870 N.am  1 <1>  -0.4940 
 11 C        7.6890    -2.8990    -0.1160 C.2   1 <1>   0.4420 
 12 S        8.0900    -4.2750     0.8590 S.3   1 <1>  -0.0800 
 13 N        8.6370    -2.5870    -0.9240 N.2   1 <1>  -0.3380 
 14 C        9.6170    -4.3160     0.0450 C.2   1 <1>   0.1980 
 15 N        9.7340    -3.3980    -0.8250 N.2   1 <1>  -0.3380 
 16 C       10.6090    -5.3920     0.4310 C.3   1 <1>   0.0200 
 17 C       10.2620    -6.7040    -0.2660 C.3   1 <1>   0.1200 
 18 O       11.1500    -7.6770     0.1790 O.3   1 <1>  -0.5600 
 19 C       10.9740    -8.9190    -0.4150 C.3   1 <1>   0.1200 
 20 C       12.0110    -9.8620     0.1800 C.3   1 <1>  -0.2400 
 21 H        2.3490     1.6740     0.2680 H     1 <1>   0.1500 
 22 H        1.4580    -2.4800     0.1190 H     1 <1>   0.1500 
 23 H        4.7350     1.1820    -0.1390 H     1 <1>   0.1500 
 24 H        3.8270    -2.9860    -0.2990 H     1 <1>   0.1500 
 25 H        5.8640    -2.8400     0.7620 H     1 <1>   0.3700 
 26 H       10.5940    -5.5270     1.4970 H     1 <1>   0.0800 
 27 H       11.5940    -5.0830     0.1330 H     1 <1>   0.0800 
 28 H       10.3620    -6.5980    -1.3330 H     1 <1>   0.0800 
 29 H        9.2610    -7.0150    -0.0190 H     1 <1>   0.0800 
 30 H       11.1160    -8.8210    -1.4780 H     1 <1>   0.0800 
 31 H        9.9770    -9.2690    -0.2040 H     1 <1>   0.0800 
 32 H       13.0020    -9.4960    -0.0240 H     1 <1>   0.0800 
 33 H       11.9090   -10.8390    -0.2550 H     1 <1>   0.0800 
 34 H       11.8700    -9.9410     1.2430 H     1 <1>   0.0800 
@<TRIPOS>BOND
  1   1   2  1   
  2   2   3  ar  
  3   2   4  ar  
  4   3   5  ar  
  5   3  21  1   
  6   4   6  ar  
  7   4  22  1   
  8   5   7  ar  
  9   5  23  1   
 10   6   7  ar  
 11   6  24  1   
 12   7   8  1   
 13   8   9  2   
 14   8  10  am  
 15  10  11  1   
 16  10  25  1   
 17  11  12  1   
 18  11  13  2   
 19  12  14  1   
 20  13  15  1   
 21  14  15  2   
 22  14  16  1   
 23  16  17  1   
 24  16  26  1   
 25  16  27  1   
 26  17  18  1   
 27  17  28  1   
 28  17  29  1   
 29  18  19  1   
 30  19  20  1   
 31  19  30  1   
 32  19  31  1   
 33  20  32  1   
 34  20  33  1   
 35  20  34  1   
@<TRIPOS>SUBSTRUCTURE
  1 ****  11 GROUP 4 **** **** 0

# MOE 2024.06 (io_trps.svl 2023.06)
