@<TRIPOS>MOLECULE
NONAME
41 42 1 0 0 
SMALL
USER_CHARGES


@<TRIPOS>ATOM
  1 O        5.5430    -5.9710    -0.3470 O.3   1 <1>  -0.5600 
  2 C        4.3540    -5.2660    -0.3280 C.3   1 <1>   0.2000 
  3 C        6.5790    -5.2020     0.1830 C.3   1 <1>   0.1200 
  4 C        4.4320    -4.4450     0.9550 C.3   1 <1>  -0.1600 
  5 C        3.2040    -6.2840    -0.3910 C.3   1 <1>   0.3430 
  6 C        5.9180    -4.1490     1.0710 C.3   1 <1>  -0.1600 
  7 N        1.8630    -5.6410    -0.2430 N.4   1 <1>  -0.9060 
  8 C        0.7470    -6.6050    -0.2600 C.3   1 <1>   0.4860 
  9 C       -0.5080    -5.7880    -0.0780 C.ar  1 <1>  -0.1430 
 10 C       -0.9950    -5.5280     1.1940 C.ar  1 <1>  -0.1500 
 11 C       -1.1760    -5.2790    -1.1810 C.ar  1 <1>  -0.1500 
 12 C       -2.1310    -4.7570     1.3590 C.ar  1 <1>  -0.1500 
 13 C       -2.3130    -4.5090    -1.0090 C.ar  1 <1>  -0.1500 
 14 C       -2.8000    -4.2380     0.2610 C.ar  1 <1>  -0.1430 
 15 C       -4.0550    -3.3890     0.4640 C.3   1 <1>   0.0630 
 16 C       -5.2740    -4.0520    -0.1860 C.3   1 <1>  -0.2400 
 17 C       -3.8520    -1.9720    -0.0800 C.3   1 <1>  -0.2400 
 18 H        4.3520    -4.6260    -1.1940 H     1 <1>   0.0800 
 19 H        7.1200    -4.7490    -0.6310 H     1 <1>   0.0800 
 20 H        7.2340    -5.8500     0.7420 H     1 <1>   0.0800 
 21 H        4.1150    -5.0360     1.7970 H     1 <1>   0.0800 
 22 H        3.8450    -3.5440     0.9030 H     1 <1>   0.0800 
 23 H        3.3490    -7.0000     0.4010 H     1 <1>   0.0800 
 24 H        3.2590    -6.8020    -1.3340 H     1 <1>   0.0800 
 25 H        6.1510    -3.1680     0.6950 H     1 <1>   0.0800 
 26 H        6.2660    -4.2220     2.0870 H     1 <1>   0.0800 
 27 H        1.6930    -4.9560    -0.9880 H     1 <1>   0.4500 
 28 H        1.8050    -5.1170     0.6390 H     1 <1>   0.4500 
 29 H        0.8450    -7.3180     0.5440 H     1 <1>   0.0800 
 30 H        0.7130    -7.1350    -1.1990 H     1 <1>   0.0800 
 31 H       -0.5070    -5.9180     2.0710 H     1 <1>   0.1500 
 32 H       -0.8330    -5.4720    -2.1830 H     1 <1>   0.1500 
 33 H       -2.4990    -4.5630     2.3520 H     1 <1>   0.1500 
 34 H       -2.8230    -4.1190    -1.8730 H     1 <1>   0.1500 
 35 H       -4.2520    -3.3090     1.5190 H     1 <1>   0.0800 
 36 H       -5.1570    -4.1110    -1.2530 H     1 <1>   0.0800 
 37 H       -6.1630    -3.4870     0.0300 H     1 <1>   0.0800 
 38 H       -5.4000    -5.0470     0.2010 H     1 <1>   0.0800 
 39 H       -3.7030    -1.9850    -1.1450 H     1 <1>   0.0800 
 40 H       -2.9910    -1.5210     0.3820 H     1 <1>   0.0800 
 41 H       -4.7120    -1.3640     0.1370 H     1 <1>   0.0800 
@<TRIPOS>BOND
  1   1   2  1   
  2   1   3  1   
  3   2   4  1   
  4   2   5  1   
  5   2  18  1   
  6   3   6  1   
  7   3  19  1   
  8   3  20  1   
  9   4   6  1   
 10   4  21  1   
 11   4  22  1   
 12   5   7  1   
 13   5  23  1   
 14   5  24  1   
 15   6  25  1   
 16   6  26  1   
 17   7   8  1   
 18   7  27  1   
 19   7  28  1   
 20   8   9  1   
 21   8  29  1   
 22   8  30  1   
 23   9  10  ar  
 24   9  11  ar  
 25  10  12  ar  
 26  10  31  1   
 27  11  13  ar  
 28  11  32  1   
 29  12  14  ar  
 30  12  33  1   
 31  13  14  ar  
 32  13  34  1   
 33  14  15  1   
 34  15  16  1   
 35  15  17  1   
 36  15  35  1   
 37  16  36  1   
 38  16  37  1   
 39  16  38  1   
 40  17  39  1   
 41  17  40  1   
 42  17  41  1   
@<TRIPOS>SUBSTRUCTURE
  1 ****   9 GROUP 4 **** **** 0

# MOE 2024.06 (io_trps.svl 2023.06)
