@<TRIPOS>MOLECULE
NONAME
50 51 1 0 0 
SMALL
USER_CHARGES


@<TRIPOS>ATOM
  1 O        1.0250     0.0360     1.1630 O.3   1 <1>  -0.5600 
  2 C        1.7120    -0.8260     0.2970 C.3   1 <1>   0.1200 
  3 C        0.5770     1.2180     0.5550 C.3   1 <1>   0.1200 
  4 C        2.9660    -0.1320    -0.2860 C.3   1 <1>   0.3430 
  5 C        1.7550     1.9940    -0.0800 C.3   1 <1>   0.3430 
  6 N        3.0670     1.2990     0.1820 N.4   1 <1>  -0.9590 
  7 C        4.2340     2.0650    -0.3380 C.3   1 <1>   0.3430 
  8 C        5.5450     1.5570     0.2820 C.3   1 <1>  -0.1600 
  9 C        6.7300     2.4320    -0.1440 C.3   1 <1>   0.3430 
 10 N        7.9800     1.9440     0.5020 N.4   1 <1>  -0.9060 
 11 C        9.1860     2.7180     0.1410 C.3   1 <1>   0.4230 
 12 C       10.4040     1.8750     0.5330 C.3   1 <1>  -0.1600 
 13 C        9.1460     4.0590     0.8740 C.3   1 <1>  -0.2400 
 14 C       11.7420     2.4780     0.0760 C.3   1 <1>  -0.0170 
 15 C       12.8600     1.4990     0.3800 C.ar  1 <1>  -0.1440 
 16 C       13.2940     0.6050    -0.5880 C.ar  1 <1>  -0.1500 
 17 C       13.4540     1.4850     1.6330 C.ar  1 <1>  -0.1500 
 18 C       14.3050    -0.2960    -0.3030 C.ar  1 <1>  -0.1500 
 19 C       14.4650     0.5840     1.9180 C.ar  1 <1>  -0.1500 
 20 C       14.8900    -0.3080     0.9500 C.ar  1 <1>  -0.1500 
 21 H        1.0430    -1.1350    -0.4880 H     1 <1>   0.0800 
 22 H        1.9950    -1.7000     0.8590 H     1 <1>   0.0800 
 23 H        0.1020     1.8160     1.3130 H     1 <1>   0.0800 
 24 H       -0.1630     0.9690    -0.1870 H     1 <1>   0.0800 
 25 H        2.9160    -0.1700    -1.3620 H     1 <1>   0.0800 
 26 H        3.8370    -0.6870     0.0190 H     1 <1>   0.0800 
 27 H        1.7720     2.9920     0.3270 H     1 <1>   0.0800 
 28 H        1.5860     2.0790    -1.1410 H     1 <1>   0.0800 
 29 H        3.0970     1.2320     1.2140 H     1 <1>   0.4500 
 30 H        4.1080     3.1070    -0.0870 H     1 <1>   0.0800 
 31 H        4.2710     1.9840    -1.4140 H     1 <1>   0.0800 
 32 H        5.7220     0.5460    -0.0370 H     1 <1>   0.0800 
 33 H        5.4550     1.5870     1.3540 H     1 <1>   0.0800 
 34 H        6.5480     3.4550     0.1480 H     1 <1>   0.0800 
 35 H        6.8420     2.4020    -1.2170 H     1 <1>   0.0800 
 36 H        8.1590     0.9650     0.2450 H     1 <1>   0.4500 
 37 H        7.9010     1.9650     1.5260 H     1 <1>   0.4500 
 38 H        9.2080     2.8860    -0.9260 H     1 <1>   0.0800 
 39 H       10.3230     0.9030     0.0770 H     1 <1>   0.0800 
 40 H       10.4380     1.7420     1.6010 H     1 <1>   0.0800 
 41 H        9.1670     3.9200     1.9410 H     1 <1>   0.0800 
 42 H        8.2770     4.6310     0.6050 H     1 <1>   0.0800 
 43 H       10.0010     4.6510     0.6040 H     1 <1>   0.0800 
 44 H       11.9440     3.4040     0.5870 H     1 <1>   0.0800 
 45 H       11.7230     2.6820    -0.9810 H     1 <1>   0.0800 
 46 H       12.8530     0.6020    -1.5690 H     1 <1>   0.1500 
 47 H       13.1370     2.1740     2.3970 H     1 <1>   0.1500 
 48 H       14.6390    -0.9870    -1.0570 H     1 <1>   0.1500 
 49 H       14.9230     0.5770     2.8920 H     1 <1>   0.1500 
 50 H       15.6770    -1.0080     1.1710 H     1 <1>   0.1500 
@<TRIPOS>BOND
  1   1   2  1   
  2   1   3  1   
  3   2   4  1   
  4   2  21  1   
  5   2  22  1   
  6   3   5  1   
  7   3  23  1   
  8   3  24  1   
  9   4   6  1   
 10   4  25  1   
 11   4  26  1   
 12   5   6  1   
 13   5  27  1   
 14   5  28  1   
 15   6   7  1   
 16   6  29  1   
 17   7   8  1   
 18   7  30  1   
 19   7  31  1   
 20   8   9  1   
 21   8  32  1   
 22   8  33  1   
 23   9  10  1   
 24   9  34  1   
 25   9  35  1   
 26  10  11  1   
 27  10  36  1   
 28  10  37  1   
 29  11  12  1   
 30  11  13  1   
 31  11  38  1   
 32  12  14  1   
 33  12  39  1   
 34  12  40  1   
 35  13  41  1   
 36  13  42  1   
 37  13  43  1   
 38  14  15  1   
 39  14  44  1   
 40  14  45  1   
 41  15  16  ar  
 42  15  17  ar  
 43  16  18  ar  
 44  16  46  1   
 45  17  19  ar  
 46  17  47  1   
 47  18  20  ar  
 48  18  48  1   
 49  19  20  ar  
 50  19  49  1   
 51  20  50  1   
@<TRIPOS>SUBSTRUCTURE
  1 ****  10 GROUP 4 **** **** 0

# MOE 2024.06 (io_trps.svl 2023.06)
