@<TRIPOS>MOLECULE
NONAME
45 46 1 0 0 
SMALL
USER_CHARGES


@<TRIPOS>ATOM
  1 BR      -0.3180    -0.3160    -1.6770 Br    1 <1>  -0.1110 
  2 C       -1.3020     0.8500    -0.4950 C.ar  1 <1>   0.1110 
  3 C       -0.7840     2.0930    -0.1520 C.ar  1 <1>   0.0830 
  4 C       -2.5210     0.4100    -0.0140 C.ar  1 <1>  -0.1500 
  5 O        0.4060     2.5230    -0.6240 O.3   1 <1>  -0.3630 
  6 C       -1.5210     2.9170     0.6830 C.ar  1 <1>  -0.1500 
  7 C       -3.2450     1.2390     0.8280 C.ar  1 <1>  -0.1500 
  8 C        1.5420     2.1060     0.0950 C.3   1 <1>   0.1200 
  9 C       -2.7460     2.4880     1.1730 C.ar  1 <1>  -0.1500 
 10 C        2.7840     2.5670    -0.6690 C.3   1 <1>  -0.1600 
 11 C        4.0730     2.1330     0.0420 C.3   1 <1>  -0.1600 
 12 C        5.3110     2.5920    -0.7400 C.3   1 <1>  -0.1600 
 13 C        6.6050     2.1580    -0.0370 C.3   1 <1>  -0.1600 
 14 C        7.8310     2.6220    -0.8270 C.3   1 <1>   0.3430 
 15 N        9.0830     2.2940    -0.0900 N.4   1 <1>  -0.9590 
 16 C       10.2560     3.0330    -0.6760 C.3   1 <1>   0.3430 
 17 C        9.3680     0.8130    -0.0650 C.3   1 <1>   0.3430 
 18 C       11.5790     2.6300     0.0040 C.3   1 <1>   0.1200 
 19 C       10.7310     0.5080     0.5850 C.3   1 <1>   0.1200 
 20 O       11.7420     1.2420    -0.0420 O.3   1 <1>  -0.5600 
 21 H       -2.8950    -0.5580    -0.2950 H     1 <1>   0.1500 
 22 H       -1.1370     3.8860     0.9440 H     1 <1>   0.1500 
 23 H       -4.1970     0.9160     1.2140 H     1 <1>   0.1500 
 24 H        1.5210     1.0330     0.1780 H     1 <1>   0.0800 
 25 H        1.5010     2.5480     1.0750 H     1 <1>   0.0800 
 26 H       -3.3150     3.1300     1.8240 H     1 <1>   0.1500 
 27 H        2.7600     3.6400    -0.7540 H     1 <1>   0.0800 
 28 H        2.7560     2.1420    -1.6580 H     1 <1>   0.0800 
 29 H        4.0800     1.0600     0.1350 H     1 <1>   0.0800 
 30 H        4.0910     2.5560     1.0320 H     1 <1>   0.0800 
 31 H        5.2890     3.6650    -0.8330 H     1 <1>   0.0800 
 32 H        5.2760     2.1700    -1.7310 H     1 <1>   0.0800 
 33 H        6.6030     1.0860     0.0500 H     1 <1>   0.0800 
 34 H        6.6250     2.5890     0.9490 H     1 <1>   0.0800 
 35 H        7.7650     3.6890    -0.9680 H     1 <1>   0.0800 
 36 H        7.8390     2.1560    -1.7990 H     1 <1>   0.0800 
 37 H        8.9740     2.6080     0.8830 H     1 <1>   0.4500 
 38 H       10.1130     4.0960    -0.5710 H     1 <1>   0.0800 
 39 H       10.3370     2.8130    -1.7270 H     1 <1>   0.0800 
 40 H        9.3800     0.4280    -1.0720 H     1 <1>   0.0800 
 41 H        8.5950     0.2950     0.4780 H     1 <1>   0.0800 
 42 H       11.6050     2.9500     1.0320 H     1 <1>   0.0800 
 43 H       12.4120     3.0740    -0.5130 H     1 <1>   0.0800 
 44 H       10.9690    -0.5360     0.4740 H     1 <1>   0.0800 
 45 H       10.7260     0.7480     1.6340 H     1 <1>   0.0800 
@<TRIPOS>BOND
  1   1   2  1   
  2   2   3  ar  
  3   2   4  ar  
  4   3   5  1   
  5   3   6  ar  
  6   4   7  ar  
  7   4  21  1   
  8   5   8  1   
  9   6   9  ar  
 10   6  22  1   
 11   7   9  ar  
 12   7  23  1   
 13   8  10  1   
 14   8  24  1   
 15   8  25  1   
 16   9  26  1   
 17  10  11  1   
 18  10  27  1   
 19  10  28  1   
 20  11  12  1   
 21  11  29  1   
 22  11  30  1   
 23  12  13  1   
 24  12  31  1   
 25  12  32  1   
 26  13  14  1   
 27  13  33  1   
 28  13  34  1   
 29  14  15  1   
 30  14  35  1   
 31  14  36  1   
 32  15  16  1   
 33  15  17  1   
 34  15  37  1   
 35  16  18  1   
 36  16  38  1   
 37  16  39  1   
 38  17  19  1   
 39  17  40  1   
 40  17  41  1   
 41  18  20  1   
 42  18  42  1   
 43  18  43  1   
 44  19  20  1   
 45  19  44  1   
 46  19  45  1   
@<TRIPOS>SUBSTRUCTURE
  1 ****  11 GROUP 4 **** **** 0

# MOE 2024.06 (io_trps.svl 2023.06)
