@<TRIPOS>MOLECULE
NONAME
47 49 1 0 0 
SMALL
USER_CHARGES


@<TRIPOS>ATOM
  1 S        0.0710     0.1600    -0.2600 S.o2  1 <1>   1.4470 
  2 O       -0.4690    -0.6180     0.8320 O.2   1 <1>  -0.6500 
  3 O       -0.1070    -0.2760    -1.6260 O.2   1 <1>  -0.6500 
  4 N       -0.6490     1.6750    -0.2200 N.am  1 <1>  -0.9140 
  5 C        1.8190     0.5240     0.0510 C.ar  1 <1>  -0.0090 
  6 C       -2.0300     1.6950     0.2120 C.3   1 <1>   0.2760 
  7 C        2.8210     0.0290    -0.7760 C.ar  1 <1>  -0.1500 
  8 C        2.2090     1.3030     1.1350 C.ar  1 <1>  -0.1500 
  9 C       -2.9480     1.0810    -0.8580 C.3   1 <1>  -0.1600 
 10 C       -2.4060     3.1580     0.4720 C.3   1 <1>  -0.1600 
 11 C        4.1550     0.3060    -0.5350 C.ar  1 <1>  -0.1500 
 12 C        3.5410     1.5820     1.3800 C.ar  1 <1>  -0.1500 
 13 C       -4.4290     1.2250    -0.4780 C.3   1 <1>  -0.1600 
 14 C       -3.8840     3.3030     0.8610 C.3   1 <1>  -0.1600 
 15 C        4.5380     1.0910     0.5440 C.ar  1 <1>   0.1170 
 16 C       -4.7970     2.6900    -0.2090 C.3   1 <1>  -0.1600 
 17 N        5.9030     1.3410     0.7430 N.am  1 <1>  -0.5470 
 18 C        6.5540     2.3230     1.4420 C.2   1 <1>   0.5690 
 19 O        5.9910     3.1940     2.0570 O.2   1 <1>  -0.5700 
 20 C        8.0730     2.2990     1.4390 C.3   1 <1>   0.0810 
 21 C        8.6600     2.0950     0.0490 C.2   1 <1>  -0.1400 
 22 S       10.2740     1.4050    -0.0320 S.3   1 <1>  -0.0800 
 23 C        8.1940     2.3430    -1.1910 C.2   1 <1>  -0.1500 
 24 C       10.2630     1.4670    -1.7860 C.2   1 <1>  -0.1100 
 25 C        9.1050     1.9830    -2.2350 C.2   1 <1>  -0.1500 
 26 H       -0.6410     1.9750    -1.1910 H     1 <1>   0.4200 
 27 H       -2.1370     1.1510     1.1370 H     1 <1>   0.0800 
 28 H        2.5500    -0.5820    -1.6220 H     1 <1>   0.1500 
 29 H        1.4550     1.6960     1.7970 H     1 <1>   0.1500 
 30 H       -2.7320     0.0340    -0.9730 H     1 <1>   0.0800 
 31 H       -2.7820     1.5690    -1.8030 H     1 <1>   0.0800 
 32 H       -2.2190     3.7410    -0.4130 H     1 <1>   0.0800 
 33 H       -1.7930     3.5440     1.2670 H     1 <1>   0.0800 
 34 H        4.9020    -0.0920    -1.1970 H     1 <1>   0.1500 
 35 H        3.7990     2.1850     2.2320 H     1 <1>   0.1500 
 36 H       -4.6270     0.6400     0.4040 H     1 <1>   0.0800 
 37 H       -5.0440     0.8390    -1.2730 H     1 <1>   0.0800 
 38 H       -4.1240     4.3440     0.9870 H     1 <1>   0.0800 
 39 H       -4.0560     2.8090     1.8020 H     1 <1>   0.0800 
 40 H       -5.8220     2.7500     0.1150 H     1 <1>   0.0800 
 41 H       -4.7070     3.2540    -1.1210 H     1 <1>   0.0800 
 42 H        6.5280     0.7410     0.2030 H     1 <1>   0.3700 
 43 H        8.3910     1.5010     2.0840 H     1 <1>   0.0800 
 44 H        8.4450     3.2210     1.8470 H     1 <1>   0.0800 
 45 H        7.2370     2.7770    -1.4300 H     1 <1>   0.1500 
 46 H       11.1370     1.1080    -2.2990 H     1 <1>   0.1500 
 47 H        8.8470     2.1320    -3.2690 H     1 <1>   0.1500 
@<TRIPOS>BOND
  1   1   2  2   
  2   1   3  2   
  3   1   4  am  
  4   1   5  1   
  5   4   6  1   
  6   4  26  1   
  7   5   7  ar  
  8   5   8  ar  
  9   6   9  1   
 10   6  10  1   
 11   6  27  1   
 12   7  11  ar  
 13   7  28  1   
 14   8  12  ar  
 15   8  29  1   
 16   9  13  1   
 17   9  30  1   
 18   9  31  1   
 19  10  14  1   
 20  10  32  1   
 21  10  33  1   
 22  11  15  ar  
 23  11  34  1   
 24  12  15  ar  
 25  12  35  1   
 26  13  16  1   
 27  13  36  1   
 28  13  37  1   
 29  14  16  1   
 30  14  38  1   
 31  14  39  1   
 32  15  17  1   
 33  16  40  1   
 34  16  41  1   
 35  17  18  am  
 36  17  42  1   
 37  18  19  2   
 38  18  20  1   
 39  20  21  1   
 40  20  43  1   
 41  20  44  1   
 42  21  22  1   
 43  21  23  2   
 44  22  24  1   
 45  23  25  1   
 46  23  45  1   
 47  24  25  2   
 48  24  46  1   
 49  25  47  1   
@<TRIPOS>SUBSTRUCTURE
  1 ****   8 GROUP 4 **** **** 0

# MOE 2024.06 (io_trps.svl 2023.06)
