@<TRIPOS>MOLECULE
NONAME
46 47 1 0 0 
SMALL
USER_CHARGES


@<TRIPOS>ATOM
  1 O        0.4610     0.1680     0.2500 O.2   1 <1>  -0.5700 
  2 C        0.3050     1.2610    -0.2620 C.2   1 <1>   0.6900 
  3 N        1.3700     1.9350    -0.8050 N.am  1 <1>  -0.6600 
  4 N       -0.9270     1.8290    -0.3240 N.am  1 <1>  -0.7300 
  5 C        1.3990     3.4010    -1.0550 C.3   1 <1>   0.1400 
  6 C        2.6860     1.2640    -0.9920 C.3   1 <1>   0.1400 
  7 C       -2.2100     1.3320     0.1790 C.3   1 <1>   0.3000 
  8 C        2.4250     4.0570    -0.1250 C.3   1 <1>  -0.1600 
  9 C        3.7270     1.9000    -0.0670 C.3   1 <1>  -0.1600 
 10 C       -3.2450     2.4090    -0.1420 C.3   1 <1>  -0.2400 
 11 C       -2.1360     1.1340     1.6940 C.3   1 <1>  -0.2400 
 12 C       -2.5820     0.0350    -0.5390 C.3   1 <1>  -0.2400 
 13 C        3.8210     3.4240    -0.2710 C.3   1 <1>  -0.0800 
 14 C        4.8110     4.0720     0.7130 C.3   1 <1>  -0.0170 
 15 C        6.2330     3.5630     0.5180 C.ar  1 <1>  -0.1430 
 16 C        6.7700     2.6250     1.3850 C.ar  1 <1>  -0.1500 
 17 C        7.0040     4.0370    -0.5320 C.ar  1 <1>  -0.1500 
 18 C        8.0630     2.1630     1.2040 C.ar  1 <1>  -0.1500 
 19 C        8.2970     3.5760    -0.7150 C.ar  1 <1>  -0.1500 
 20 C        8.8270     2.6380     0.1530 C.ar  1 <1>  -0.1500 
 21 H       -1.0110     2.6260    -0.9410 H     1 <1>   0.3700 
 22 H        0.4360     3.8440    -0.8810 H     1 <1>   0.0800 
 23 H        1.6700     3.5750    -2.0820 H     1 <1>   0.0800 
 24 H        2.9910     1.3750    -2.0180 H     1 <1>   0.0800 
 25 H        2.6110     0.2100    -0.7840 H     1 <1>   0.0800 
 26 H        2.0810     3.9540     0.8890 H     1 <1>   0.0800 
 27 H        2.4770     5.1080    -0.3500 H     1 <1>   0.0800 
 28 H        4.6810     1.4430    -0.2630 H     1 <1>   0.0800 
 29 H        3.4590     1.6770     0.9510 H     1 <1>   0.0800 
 30 H       -3.3100     2.5680    -1.2030 H     1 <1>   0.0800 
 31 H       -2.9890     3.3340     0.3420 H     1 <1>   0.0800 
 32 H       -4.2140     2.1040     0.2100 H     1 <1>   0.0800 
 33 H       -1.8210     2.0410     2.1770 H     1 <1>   0.0800 
 34 H       -1.4420     0.3500     1.9400 H     1 <1>   0.0800 
 35 H       -3.0990     0.8550     2.0790 H     1 <1>   0.0800 
 36 H       -2.5880     0.1820    -1.6040 H     1 <1>   0.0800 
 37 H       -3.5570    -0.2930    -0.2320 H     1 <1>   0.0800 
 38 H       -1.8810    -0.7440    -0.2990 H     1 <1>   0.0800 
 39 H        4.1710     3.6080    -1.2730 H     1 <1>   0.0800 
 40 H        4.4930     3.8830     1.7230 H     1 <1>   0.0800 
 41 H        4.8090     5.1390     0.5730 H     1 <1>   0.0800 
 42 H        6.1840     2.2470     2.2040 H     1 <1>   0.1500 
 43 H        6.6010     4.7660    -1.2120 H     1 <1>   0.1500 
 44 H        8.4730     1.4340     1.8800 H     1 <1>   0.1500 
 45 H        8.8900     3.9480    -1.5320 H     1 <1>   0.1500 
 46 H        9.8310     2.2800     0.0120 H     1 <1>   0.1500 
@<TRIPOS>BOND
  1   1   2  2   
  2   2   3  am  
  3   2   4  am  
  4   3   5  1   
  5   3   6  1   
  6   4   7  1   
  7   4  21  1   
  8   5   8  1   
  9   5  22  1   
 10   5  23  1   
 11   6   9  1   
 12   6  24  1   
 13   6  25  1   
 14   7  10  1   
 15   7  11  1   
 16   7  12  1   
 17   8  13  1   
 18   8  26  1   
 19   8  27  1   
 20   9  13  1   
 21   9  28  1   
 22   9  29  1   
 23  10  30  1   
 24  10  31  1   
 25  10  32  1   
 26  11  33  1   
 27  11  34  1   
 28  11  35  1   
 29  12  36  1   
 30  12  37  1   
 31  12  38  1   
 32  13  14  1   
 33  13  39  1   
 34  14  15  1   
 35  14  40  1   
 36  14  41  1   
 37  15  16  ar  
 38  15  17  ar  
 39  16  18  ar  
 40  16  42  1   
 41  17  19  ar  
 42  17  43  1   
 43  18  20  ar  
 44  18  44  1   
 45  19  20  ar  
 46  19  45  1   
 47  20  46  1   
@<TRIPOS>SUBSTRUCTURE
  1 ****   9 GROUP 4 **** **** 0

# MOE 2024.06 (io_trps.svl 2023.06)
