@<TRIPOS>MOLECULE
NONAME
33 33 1 0 0 
SMALL
USER_CHARGES


@<TRIPOS>ATOM
  1 I        0.7890     0.8020     2.5670 I     1 <1>  -0.0810 
  2 C        2.0990     1.5510     1.0520 C.ar  1 <1>   0.0810 
  3 C        1.9180     2.8260     0.5280 C.ar  1 <1>   0.0820 
  4 C        3.1120     0.7070     0.6320 C.ar  1 <1>  -0.1500 
  5 O        0.8820     3.5930     0.9510 O.3   1 <1>  -0.3630 
  6 C        2.8280     3.2690    -0.4400 C.ar  1 <1>   0.0830 
  7 C        3.9910     1.1470    -0.3470 C.ar  1 <1>  -0.1440 
  8 C       -0.2200     3.6700     0.0720 C.3   1 <1>   0.0400 
  9 O        2.8040     4.5030    -1.0060 O.3   1 <1>  -0.3630 
 10 C        3.8360     2.4220    -0.8770 C.ar  1 <1>  -0.1500 
 11 C        5.1160     0.2570    -0.8250 C.3   1 <1>   0.4860 
 12 C        2.6620     5.6370    -0.1740 C.3   1 <1>   0.0400 
 13 N        6.2880     0.5760     0.0170 N.4   1 <1>  -0.9060 
 14 C        7.4850    -0.2440    -0.3250 C.3   1 <1>   0.3430 
 15 C        8.6850     0.0970     0.5680 C.3   1 <1>   0.1200 
 16 O        9.7260    -0.7280     0.1890 O.3   1 <1>  -0.6800 
 17 H        3.1930    -0.2740     1.0690 H     1 <1>   0.1500 
 18 H       -0.9600     4.3110     0.5160 H     1 <1>   0.0800 
 19 H       -0.6240     2.6830    -0.0670 H     1 <1>   0.0800 
 20 H        0.1050     4.0770    -0.8690 H     1 <1>   0.0800 
 21 H        4.4960     2.7920    -1.6430 H     1 <1>   0.1500 
 22 H        5.3280     0.4550    -1.8640 H     1 <1>   0.0800 
 23 H        4.8390    -0.7800    -0.7150 H     1 <1>   0.0800 
 24 H        3.0570     6.4890    -0.6980 H     1 <1>   0.0800 
 25 H        3.2090     5.4800     0.7390 H     1 <1>   0.0800 
 26 H        1.6210     5.7960     0.0350 H     1 <1>   0.0800 
 27 H        6.0150     0.4380     0.9980 H     1 <1>   0.4500 
 28 H        6.4850     1.5790    -0.0900 H     1 <1>   0.4500 
 29 H        7.7640    -0.0730    -1.3530 H     1 <1>   0.0800 
 30 H        7.2570    -1.2910    -0.2030 H     1 <1>   0.0800 
 31 H        8.4690    -0.0950     1.6050 H     1 <1>   0.0800 
 32 H        9.0000     1.1180     0.4280 H     1 <1>   0.0800 
 33 H       10.5370    -0.5650     0.7190 H     1 <1>   0.4000 
@<TRIPOS>BOND
  1   1   2  1   
  2   2   3  ar  
  3   2   4  ar  
  4   3   5  1   
  5   3   6  ar  
  6   4   7  ar  
  7   4  17  1   
  8   5   8  1   
  9   6   9  1   
 10   6  10  ar  
 11   7  10  ar  
 12   7  11  1   
 13   8  18  1   
 14   8  19  1   
 15   8  20  1   
 16   9  12  1   
 17  10  21  1   
 18  11  13  1   
 19  11  22  1   
 20  11  23  1   
 21  12  24  1   
 22  12  25  1   
 23  12  26  1   
 24  13  14  1   
 25  13  27  1   
 26  13  28  1   
 27  14  15  1   
 28  14  29  1   
 29  14  30  1   
 30  15  16  1   
 31  15  31  1   
 32  15  32  1   
 33  16  33  1   
@<TRIPOS>SUBSTRUCTURE
  1 ****   7 GROUP 4 **** **** 0

# MOE 2024.06 (io_trps.svl 2023.06)
