@<TRIPOS>MOLECULE
NONAME
29 30 1 0 0 
SMALL
USER_CHARGES


@<TRIPOS>ATOM
  1 O        0.1760     0.4760    -0.8350 O.2   1 <1>  -0.5700 
  2 C        0.3710     1.5880    -0.4270 C.2   1 <1>   0.6590 
  3 O       -0.5900     2.4580    -0.1820 O.3   1 <1>  -0.4300 
  4 C        1.7270     2.1830    -0.1290 C.3   1 <1>  -0.0190 
  5 C       -0.1110     3.6830     0.3210 C.3   1 <1>   0.1200 
  6 C        1.3910     3.6690     0.0290 C.3   1 <1>  -0.1600 
  7 C        2.7710     1.8900    -1.2180 C.3   1 <1>  -0.0170 
  8 C        4.0970     2.5690    -0.9080 C.ar  1 <1>  -0.1440 
  9 C        4.9480     2.0330     0.0470 C.ar  1 <1>  -0.1500 
 10 C        4.4670     3.7290    -1.5720 C.ar  1 <1>  -0.1500 
 11 C        6.1520     2.6490     0.3420 C.ar  1 <1>  -0.1500 
 12 C        5.6700     4.3470    -1.2790 C.ar  1 <1>  -0.1500 
 13 C        6.5200     3.8160    -0.3230 C.ar  1 <1>   0.0830 
 14 O        7.6790     4.4830    -0.0960 O.3   1 <1>  -0.3630 
 15 C        8.6280     4.0090     0.8320 C.3   1 <1>   0.0400 
 16 H        2.0570     1.7830     0.8130 H     1 <1>   0.0800 
 17 H       -0.3080     3.7040     1.3800 H     1 <1>   0.0800 
 18 H       -0.6210     4.4920    -0.1720 H     1 <1>   0.0800 
 19 H        1.5670     4.2020    -0.8900 H     1 <1>   0.0800 
 20 H        1.9610     4.1370     0.8130 H     1 <1>   0.0800 
 21 H        2.4020     2.2190    -2.1740 H     1 <1>   0.0800 
 22 H        2.9260     0.8260    -1.2860 H     1 <1>   0.0800 
 23 H        4.6760     1.1310     0.5650 H     1 <1>   0.1500 
 24 H        3.8240     4.1580    -2.3200 H     1 <1>   0.1500 
 25 H        6.7880     2.2090     1.0860 H     1 <1>   0.1500 
 26 H        5.9600     5.2460    -1.7910 H     1 <1>   0.1500 
 27 H        9.4610     4.6890     0.8340 H     1 <1>   0.0800 
 28 H        8.9550     3.0310     0.5280 H     1 <1>   0.0800 
 29 H        8.1790     3.9810     1.8090 H     1 <1>   0.0800 
@<TRIPOS>BOND
  1   1   2  2   
  2   2   3  1   
  3   2   4  1   
  4   3   5  1   
  5   4   6  1   
  6   4   7  1   
  7   4  16  1   
  8   5   6  1   
  9   5  17  1   
 10   5  18  1   
 11   6  19  1   
 12   6  20  1   
 13   7   8  1   
 14   7  21  1   
 15   7  22  1   
 16   8   9  ar  
 17   8  10  ar  
 18   9  11  ar  
 19   9  23  1   
 20  10  12  ar  
 21  10  24  1   
 22  11  13  ar  
 23  11  25  1   
 24  12  13  ar  
 25  12  26  1   
 26  13  14  1   
 27  14  15  1   
 28  15  27  1   
 29  15  28  1   
 30  15  29  1   
@<TRIPOS>SUBSTRUCTURE
  1 ****   8 GROUP 4 **** **** 0

# MOE 2024.06 (io_trps.svl 2023.06)
