@<TRIPOS>MOLECULE
NONAME
50 52 1 0 0 
SMALL
USER_CHARGES


@<TRIPOS>ATOM
  1 O        0.1190    -0.1950     0.3500 O.2   1 <1>  -0.5700 
  2 C       -0.4520     0.8330     0.0480 C.2   1 <1>   0.7800 
  3 O        0.0180     1.5970    -0.9360 O.3   1 <1>  -0.4300 
  4 N       -1.6040     1.2360     0.6730 N.am  1 <1>  -0.6600 
  5 C        1.2040     1.2500    -1.6160 C.3   1 <1>   0.1200 
  6 C       -2.4240     2.3940     0.2090 C.3   1 <1>   0.1400 
  7 C       -2.2150     0.4300     1.7700 C.3   1 <1>   0.1400 
  8 C        1.4700     2.3140    -2.6760 C.3   1 <1>  -0.2400 
  9 C       -3.8420     1.9260    -0.1710 C.3   1 <1>   0.3430 
 10 C       -3.6300    -0.0290     1.3720 C.3   1 <1>   0.3430 
 11 N       -4.4900     1.1240     0.9300 N.4   1 <1>  -0.9590 
 12 C       -5.8420     0.6810     0.5250 C.3   1 <1>   0.4810 
 13 C       -6.7860     1.8700     0.5460 C.2   1 <1>  -0.2540 
 14 C       -6.5190     3.1420     1.1370 C.2   1 <1>  -0.2880 
 15 C       -8.2560     1.4510    -0.2450 C.3   1 <1>   0.1160 
 16 C       -7.8200     4.2410     0.9660 C.3   1 <1>  -0.0220 
 17 C       -9.7330     2.2370    -0.6410 C.3   1 <1>   0.0000 
 18 C       -8.4510     2.6810     0.1130 C.3   1 <1>   0.0000 
 19 C       -9.2290     3.7010     0.1050 C.3   1 <1>   0.0000 
 20 C      -10.9970     1.6250     0.0170 C.3   1 <1>  -0.2400 
 21 C       -9.9790     2.3430    -2.1690 C.3   1 <1>  -0.2400 
 22 H        1.0700     0.2810    -2.0670 H     1 <1>   0.0800 
 23 H        2.0080     1.2070    -0.9010 H     1 <1>   0.0800 
 24 H       -1.9720     2.8690    -0.6450 H     1 <1>   0.0800 
 25 H       -2.4800     3.1270     0.9950 H     1 <1>   0.0800 
 26 H       -2.2600     1.0250     2.6650 H     1 <1>   0.0800 
 27 H       -1.6120    -0.4360     1.9880 H     1 <1>   0.0800 
 28 H        0.6570     2.3530    -3.3780 H     1 <1>   0.0800 
 29 H        2.3720     2.0740    -3.2100 H     1 <1>   0.0800 
 30 H        1.5950     3.2770    -2.2120 H     1 <1>   0.0800 
 31 H       -3.7700     1.3240    -1.0620 H     1 <1>   0.0800 
 32 H       -4.4480     2.7860    -0.4050 H     1 <1>   0.0800 
 33 H       -4.0860    -0.5290     2.2110 H     1 <1>   0.0800 
 34 H       -3.5390    -0.7440     0.5700 H     1 <1>   0.0800 
 35 H       -4.6420     1.7510     1.7280 H     1 <1>   0.4500 
 36 H       -6.2120    -0.0700     1.2050 H     1 <1>   0.0800 
 37 H       -5.8080     0.2560    -0.4650 H     1 <1>   0.0800 
 38 H       -5.6550     3.5110     1.6620 H     1 <1>   0.1500 
 39 H       -8.6140     0.6290     0.3560 H     1 <1>   0.0000 
 40 H       -7.4510     5.1290     0.4800 H     1 <1>   0.0800 
 41 H       -8.1320     4.5500     1.9510 H     1 <1>   0.0800 
 42 H       -7.8100     3.0780    -0.7800 H     1 <1>   0.0000 
 43 H       -8.7180     2.3870     1.2070 H     1 <1>   0.0000 
 44 H       -9.2610     4.3830    -0.7320 H     1 <1>   0.0000 
 45 H      -10.8800     1.5390     1.0830 H     1 <1>   0.0800 
 46 H      -11.1910     0.6460    -0.3840 H     1 <1>   0.0800 
 47 H      -11.8510     2.2490    -0.1750 H     1 <1>   0.0800 
 48 H       -9.1270     2.7630    -2.6730 H     1 <1>   0.0800 
 49 H      -10.8290     2.9720    -2.3640 H     1 <1>   0.0800 
 50 H      -10.1710     1.3690    -2.5830 H     1 <1>   0.0800 
@<TRIPOS>BOND
  1   1   2  2   
  2   2   3  1   
  3   2   4  am  
  4   3   5  1   
  5   4   6  1   
  6   4   7  1   
  7   5   8  1   
  8   5  22  1   
  9   5  23  1   
 10   6   9  1   
 11   6  24  1   
 12   6  25  1   
 13   7  10  1   
 14   7  26  1   
 15   7  27  1   
 16   8  28  1   
 17   8  29  1   
 18   8  30  1   
 19   9  11  1   
 20   9  31  1   
 21   9  32  1   
 22  10  11  1   
 23  10  33  1   
 24  10  34  1   
 25  11  12  1   
 26  11  35  1   
 27  12  13  1   
 28  12  36  1   
 29  12  37  1   
 30  13  14  2   
 31  13  15  1   
 32  14  16  1   
 33  14  38  1   
 34  15  17  1   
 35  15  18  1   
 36  15  39  1   
 37  16  19  1   
 38  16  40  1   
 39  16  41  1   
 40  17  19  1   
 41  17  20  1   
 42  17  21  1   
 43  18  19  1   
 44  18  42  1   
 45  18  43  1   
 46  19  44  1   
 47  20  45  1   
 48  20  46  1   
 49  20  47  1   
 50  21  48  1   
 51  21  49  1   
 52  21  50  1   
@<TRIPOS>SUBSTRUCTURE
  1 ****   9 GROUP 4 **** **** 0

# MOE 2024.06 (io_trps.svl 2023.06)
