@<TRIPOS>MOLECULE
NONAME
34 34 1 0 0 
SMALL
USER_CHARGES


@<TRIPOS>ATOM
  1 O       -1.8040     0.1570    -2.1990 O.2   1 <1>  -0.5700 
  2 C       -1.7600     0.5090    -1.0470 C.2   1 <1>   0.5690 
  3 N       -2.7090     0.1830    -0.1240 N.am  1 <1>  -0.5470 
  4 C       -0.5930     1.3620    -0.5860 C.3   1 <1>  -0.0990 
  5 C       -3.8730    -0.5770    -0.3060 C.ar  1 <1>   0.1170 
  6 C        0.3320     0.6240     0.3960 C.3   1 <1>  -0.2400 
  7 C       -5.1140     0.0630    -0.3610 C.ar  1 <1>  -0.1440 
  8 C       -3.8130    -1.9730    -0.3950 C.ar  1 <1>  -0.1430 
  9 C       -6.2710    -0.6870    -0.4920 C.ar  1 <1>  -0.1500 
 10 C       -5.2460     1.5820    -0.2910 C.3   1 <1>  -0.0170 
 11 C       -4.9830    -2.7020    -0.5260 C.ar  1 <1>  -0.1500 
 12 C       -2.4930    -2.7390    -0.3470 C.3   1 <1>  -0.0170 
 13 C       -6.2090    -2.0650    -0.5730 C.ar  1 <1>  -0.1500 
 14 C       -5.3180     2.0590     1.1620 C.3   1 <1>  -0.2400 
 15 C       -2.0330    -2.9530     1.0970 C.3   1 <1>  -0.2400 
 16 H       -2.5990     0.5840     0.8020 H     1 <1>   0.3700 
 17 H       -0.9750     2.2560    -0.1280 H     1 <1>   0.0800 
 18 H       -0.0250     1.6560    -1.4510 H     1 <1>   0.0800 
 19 H       -0.1990     0.3490     1.2900 H     1 <1>   0.0800 
 20 H        1.1610     1.2540     0.6680 H     1 <1>   0.0800 
 21 H        0.7170    -0.2700    -0.0650 H     1 <1>   0.0800 
 22 H       -7.2300    -0.2030    -0.5320 H     1 <1>   0.1500 
 23 H       -6.1380     1.8890    -0.8080 H     1 <1>   0.0800 
 24 H       -4.4190     2.0520    -0.7940 H     1 <1>   0.0800 
 25 H       -4.9480    -3.7740    -0.5930 H     1 <1>   0.1500 
 26 H       -1.7350    -2.2160    -0.9010 H     1 <1>   0.0800 
 27 H       -2.6150    -3.6960    -0.8230 H     1 <1>   0.0800 
 28 H       -7.1120    -2.6410    -0.6750 H     1 <1>   0.1500 
 29 H       -6.1640     1.6130     1.6540 H     1 <1>   0.0800 
 30 H       -5.4240     3.1290     1.1950 H     1 <1>   0.0800 
 31 H       -4.4270     1.7820     1.6940 H     1 <1>   0.0800 
 32 H       -1.8730    -2.0070     1.5810 H     1 <1>   0.0800 
 33 H       -1.1140    -3.5110     1.1130 H     1 <1>   0.0800 
 34 H       -2.7810    -3.4980     1.6450 H     1 <1>   0.0800 
@<TRIPOS>BOND
  1   1   2  2   
  2   2   3  am  
  3   2   4  1   
  4   3   5  1   
  5   3  16  1   
  6   4   6  1   
  7   4  17  1   
  8   4  18  1   
  9   5   7  ar  
 10   5   8  ar  
 11   6  19  1   
 12   6  20  1   
 13   6  21  1   
 14   7   9  ar  
 15   7  10  1   
 16   8  11  ar  
 17   8  12  1   
 18   9  13  ar  
 19   9  22  1   
 20  10  14  1   
 21  10  23  1   
 22  10  24  1   
 23  11  13  ar  
 24  11  25  1   
 25  12  15  1   
 26  12  26  1   
 27  12  27  1   
 28  13  28  1   
 29  14  29  1   
 30  14  30  1   
 31  14  31  1   
 32  15  32  1   
 33  15  33  1   
 34  15  34  1   
@<TRIPOS>SUBSTRUCTURE
  1 ****   5 GROUP 4 **** **** 0

# MOE 2024.06 (io_trps.svl 2023.06)
