@<TRIPOS>MOLECULE
NONAME
55 56 1 0 0 
SMALL
USER_CHARGES


@<TRIPOS>ATOM
  1 O       -5.4740    -5.1170     1.3840 O.2   1 <1>  -0.5700 
  2 C       -4.6360    -4.5790     0.6990 C.2   1 <1>   0.5690 
  3 N       -4.9350    -3.6640    -0.2650 N.am  1 <1>  -0.7300 
  4 C       -3.1760    -4.9490     0.9280 C.3   1 <1>   0.1810 
  5 C       -6.2330    -3.1370    -0.6860 C.3   1 <1>   0.3000 
  6 O       -2.3000    -4.0180     0.2970 O.3   1 <1>  -0.3620 
  7 C       -5.9560    -2.1420    -1.8110 C.3   1 <1>  -0.2400 
  8 C       -6.9010    -2.4190     0.4860 C.3   1 <1>  -0.2400 
  9 C       -7.1050    -4.2780    -1.2110 C.3   1 <1>  -0.2400 
 10 C       -0.9800    -4.1230     0.5800 C.ar  1 <1>   0.0830 
 11 C       -0.2110    -5.2220     0.1870 C.ar  1 <1>   0.0830 
 12 C       -0.3970    -3.0740     1.2670 C.ar  1 <1>  -0.1500 
 13 O       -0.8180    -6.2230    -0.5100 O.3   1 <1>  -0.3630 
 14 C        1.1440    -5.2460     0.5070 C.ar  1 <1>  -0.1500 
 15 C        0.9490    -3.1060     1.5790 C.ar  1 <1>  -0.1500 
 16 C       -0.1510    -7.4130    -0.8710 C.3   1 <1>   0.0400 
 17 C        1.7260    -4.1900     1.1960 C.ar  1 <1>  -0.1440 
 18 C        3.2030    -4.2080     1.5160 C.3   1 <1>   0.4860 
 19 N        3.8820    -3.5320     0.3930 N.4   1 <1>  -0.9060 
 20 C        5.3450    -3.4220     0.5220 C.3   1 <1>   0.4230 
 21 C        5.8510    -2.5670    -0.6320 C.3   1 <1>  -0.1600 
 22 C        5.9870    -4.7780     0.2410 C.3   1 <1>  -0.1600 
 23 C        5.9200    -3.5000    -1.8480 C.3   1 <1>  -0.1600 
 24 C        6.0050    -4.9250    -1.2850 C.3   1 <1>  -0.1600 
 25 H       -4.1400    -3.2600    -0.7620 H     1 <1>   0.3700 
 26 H       -2.9990    -5.9270     0.5250 H     1 <1>   0.0800 
 27 H       -2.9700    -4.9500     1.9820 H     1 <1>   0.0800 
 28 H       -5.4720    -2.6310    -2.6370 H     1 <1>   0.0800 
 29 H       -5.3330    -1.3390    -1.4590 H     1 <1>   0.0800 
 30 H       -6.8790    -1.7200    -2.1650 H     1 <1>   0.0800 
 31 H       -6.2560    -1.6500     0.8720 H     1 <1>   0.0800 
 32 H       -7.1270    -3.1130     1.2760 H     1 <1>   0.0800 
 33 H       -7.8220    -1.9670     0.1680 H     1 <1>   0.0800 
 34 H       -6.6020    -4.8010    -2.0030 H     1 <1>   0.0800 
 35 H       -8.0330    -3.8920    -1.5890 H     1 <1>   0.0800 
 36 H       -7.3320    -4.9730    -0.4230 H     1 <1>   0.0800 
 37 H       -1.0080    -2.2360     1.5560 H     1 <1>   0.1500 
 38 H        1.7490    -6.0850     0.2170 H     1 <1>   0.1500 
 39 H        1.3710    -2.2760     2.1230 H     1 <1>   0.1500 
 40 H       -0.8580    -8.0510    -1.3700 H     1 <1>   0.0800 
 41 H        0.2090    -7.8970     0.0190 H     1 <1>   0.0800 
 42 H        0.6560    -7.1740    -1.5400 H     1 <1>   0.0800 
 43 H        3.5470    -5.2240     1.6160 H     1 <1>   0.0800 
 44 H        3.3870    -3.6840     2.4410 H     1 <1>   0.0800 
 45 H        3.4690    -2.6010     0.2820 H     1 <1>   0.4500 
 46 H        3.6740    -4.0350    -0.4760 H     1 <1>   0.4500 
 47 H        5.6260    -3.0160     1.4810 H     1 <1>   0.0800 
 48 H        6.8510    -2.2420    -0.3970 H     1 <1>   0.0800 
 49 H        5.2510    -1.6920    -0.8130 H     1 <1>   0.0800 
 50 H        5.5030    -5.6040     0.7310 H     1 <1>   0.0800 
 51 H        7.0070    -4.7420     0.5890 H     1 <1>   0.0800 
 52 H        6.7790    -3.2700    -2.4570 H     1 <1>   0.0800 
 53 H        5.0370    -3.3960    -2.4570 H     1 <1>   0.0800 
 54 H        5.1630    -5.5060    -1.6230 H     1 <1>   0.0800 
 55 H        6.9080    -5.4170    -1.6110 H     1 <1>   0.0800 
@<TRIPOS>BOND
  1   1   2  2   
  2   2   3  am  
  3   2   4  1   
  4   3   5  1   
  5   3  25  1   
  6   4   6  1   
  7   4  26  1   
  8   4  27  1   
  9   5   7  1   
 10   5   8  1   
 11   5   9  1   
 12   6  10  1   
 13   7  28  1   
 14   7  29  1   
 15   7  30  1   
 16   8  31  1   
 17   8  32  1   
 18   8  33  1   
 19   9  34  1   
 20   9  35  1   
 21   9  36  1   
 22  10  11  ar  
 23  10  12  ar  
 24  11  13  1   
 25  11  14  ar  
 26  12  15  ar  
 27  12  37  1   
 28  13  16  1   
 29  14  17  ar  
 30  14  38  1   
 31  15  17  ar  
 32  15  39  1   
 33  16  40  1   
 34  16  41  1   
 35  16  42  1   
 36  17  18  1   
 37  18  19  1   
 38  18  43  1   
 39  18  44  1   
 40  19  20  1   
 41  19  45  1   
 42  19  46  1   
 43  20  21  1   
 44  20  22  1   
 45  20  47  1   
 46  21  23  1   
 47  21  48  1   
 48  21  49  1   
 49  22  24  1   
 50  22  50  1   
 51  22  51  1   
 52  23  24  1   
 53  23  52  1   
 54  23  53  1   
 55  24  54  1   
 56  24  55  1   
@<TRIPOS>SUBSTRUCTURE
  1 ****  10 GROUP 4 **** **** 0

# MOE 2024.06 (io_trps.svl 2023.06)
