@<TRIPOS>MOLECULE
NONAME
31 31 1 0 0 
SMALL
USER_CHARGES


@<TRIPOS>ATOM
  1 O        0.8060     2.6770     1.7020 O.2   1 <1>  -0.5700 
  2 C        0.0990     2.3780     0.7570 C.2   1 <1>   0.5440 
  3 N        0.6630     1.6300    -0.2360 N.am  1 <1>  -0.7300 
  4 C       -1.2810     2.8340     0.6870 C.ar  1 <1>   0.0860 
  5 C        2.0420     1.0890    -0.2340 C.3   1 <1>   0.1400 
  6 C       -2.2790     2.2020    -0.0730 C.ar  1 <1>   0.0830 
  7 C       -1.6570     3.9680     1.4130 C.ar  1 <1>  -0.1500 
  8 C        3.0200     2.1410    -0.7610 C.3   1 <1>   0.1200 
  9 O       -1.9770     1.0830    -0.7800 O.3   1 <1>  -0.3630 
 10 C       -3.5820     2.7110    -0.1250 C.ar  1 <1>   0.0830 
 11 C       -2.9440     4.4670     1.3810 C.ar  1 <1>  -0.1500 
 12 O        4.3140     1.6430    -0.6970 O.3   1 <1>  -0.6800 
 13 C       -2.4420    -0.1440    -0.2590 C.3   1 <1>   0.0400 
 14 O       -4.4970     2.0720    -0.9120 O.3   1 <1>  -0.3630 
 15 C       -3.9080     3.8440     0.6110 C.ar  1 <1>  -0.1500 
 16 C       -5.7800     2.6080    -1.1470 C.3   1 <1>   0.0400 
 17 H        0.0370     1.3150    -0.9870 H     1 <1>   0.3700 
 18 H        2.0800     0.2110    -0.8560 H     1 <1>   0.0800 
 19 H        2.3100     0.8190     0.7730 H     1 <1>   0.0800 
 20 H       -0.9170     4.4690     2.0150 H     1 <1>   0.1500 
 21 H        2.9730     3.0370    -0.1640 H     1 <1>   0.0800 
 22 H        2.8050     2.3740    -1.7890 H     1 <1>   0.0800 
 23 H       -3.1960     5.3430     1.9540 H     1 <1>   0.1500 
 24 H        4.6060     1.5800     0.2340 H     1 <1>   0.4000 
 25 H       -2.0890    -0.9350    -0.8960 H     1 <1>   0.0800 
 26 H       -3.5170    -0.1400    -0.2440 H     1 <1>   0.0800 
 27 H       -2.0530    -0.2680     0.7360 H     1 <1>   0.0800 
 28 H       -4.8990     4.2570     0.6040 H     1 <1>   0.1500 
 29 H       -6.2860     1.9660    -1.8460 H     1 <1>   0.0800 
 30 H       -5.6770     3.5930    -1.5670 H     1 <1>   0.0800 
 31 H       -6.3230     2.6370    -0.2200 H     1 <1>   0.0800 
@<TRIPOS>BOND
  1   1   2  2   
  2   2   3  am  
  3   2   4  1   
  4   3   5  1   
  5   3  17  1   
  6   4   6  ar  
  7   4   7  ar  
  8   5   8  1   
  9   5  18  1   
 10   5  19  1   
 11   6   9  1   
 12   6  10  ar  
 13   7  11  ar  
 14   7  20  1   
 15   8  12  1   
 16   8  21  1   
 17   8  22  1   
 18   9  13  1   
 19  10  14  1   
 20  10  15  ar  
 21  11  15  ar  
 22  11  23  1   
 23  12  24  1   
 24  13  25  1   
 25  13  26  1   
 26  13  27  1   
 27  14  16  1   
 28  15  28  1   
 29  16  29  1   
 30  16  30  1   
 31  16  31  1   
@<TRIPOS>SUBSTRUCTURE
  1 ****   4 GROUP 4 **** **** 0

# MOE 2024.06 (io_trps.svl 2023.06)
