@<TRIPOS>MOLECULE
Structure1964
20 20 1 0 0 
SMALL
USER_CHARGES


@<TRIPOS>ATOM
  1 O        0.7330     0.3360    -1.4600 O.co2 1 <1>  -0.9000 
  2 C        1.1160     1.4240    -0.9940 C.2   1 <1>   1.0330 
  3 O        0.4430     2.4440    -1.2280 O.co2 1 <1>  -0.9000 
  4 C        2.3260     1.4840    -0.1940 C.2   1 <1>  -0.2330 
  5 C        3.0020     2.4860     0.4450 C.2   1 <1>  -0.3320 
  6 C        3.0990     0.3550     0.0830 C.2   1 <1>   0.1390 
  7 N        4.0760     1.9310     1.0310 N.pl3 1 <1>   0.3000 
  8 C        2.6670     3.9660     0.5240 C.3   1 <1>   0.0200 
  9 N        4.1440     0.6080     0.8120 N.2   1 <1>  -0.7070 
 10 C        3.6580     4.7860    -0.3090 C.3   1 <1>  -0.1600 
 11 C        3.3410     6.2840    -0.2490 C.3   1 <1>  -0.2400 
 12 H        2.8380    -0.6250    -0.2820 H     1 <1>   0.1500 
 13 H        4.7790     2.4290     1.5850 H     1 <1>   0.2700 
 14 H        2.6860     4.2840     1.5510 H     1 <1>   0.0800 
 15 H        1.6700     4.1280     0.1510 H     1 <1>   0.0800 
 16 H        3.6020     4.4500    -1.3310 H     1 <1>   0.0800 
 17 H        4.6590     4.6160     0.0440 H     1 <1>   0.0800 
 18 H        2.3490     6.4670    -0.6260 H     1 <1>   0.0800 
 19 H        4.0420     6.8330    -0.8530 H     1 <1>   0.0800 
 20 H        3.4000     6.6430     0.7630 H     1 <1>   0.0800 
@<TRIPOS>BOND
  1   1   2  ar  
  2   2   3  ar  
  3   2   4  1   
  4   4   5  2   
  5   4   6  1   
  6   5   7  1   
  7   5   8  1   
  8   6   9  2   
  9   6  12  1   
 10   7   9  1   
 11   7  13  1   
 12   8  10  1   
 13   8  14  1   
 14   8  15  1   
 15  10  11  1   
 16  10  16  1   
 17  10  17  1   
 18  11  18  1   
 19  11  19  1   
 20  11  20  1   
@<TRIPOS>SUBSTRUCTURE
  1 ****   5 GROUP 4 **** **** 0

# MOE 2024.06 (io_trps.svl 2023.06)
