@<TRIPOS>MOLECULE
NONAME
40 41 1 0 0 
SMALL
USER_CHARGES


@<TRIPOS>ATOM
  1 CL      -0.7760     1.4250     3.0760 Cl    1 <1>  -0.1770 
  2 C       -1.4400     1.9360     1.5460 C.ar  1 <1>   0.1770 
  3 C       -2.8110     1.9750     1.3860 C.ar  1 <1>  -0.1500 
  4 C       -0.5830     2.2920     0.5230 C.ar  1 <1>  -0.1500 
  5 C       -3.3630     2.3680     0.1690 C.ar  1 <1>   0.0530 
  6 C       -1.1170     2.7000    -0.6870 C.ar  1 <1>  -0.1500 
  7 C       -4.7890     2.3990    -0.0400 C.2   1 <1>   0.1330 
  8 C       -2.4910     2.7380    -0.8550 C.ar  1 <1>  -0.1500 
  9 N       -5.4800     3.4700    -0.3210 N.2   1 <1>  -0.3380 
 10 N       -5.5910     1.3160     0.0070 N.pl3 1 <1>   0.0480 
 11 N       -6.7550     3.1100    -0.4610 N.2   1 <1>  -0.3380 
 12 C       -6.7810     1.8400    -0.2660 C.2   1 <1>   0.2430 
 13 C       -5.2380    -0.1050     0.2310 C.3   1 <1>   0.0960 
 14 S       -8.2790     0.8590    -0.3630 S.3   1 <1>  -0.2860 
 15 C       -4.7300    -0.7450    -1.0650 C.3   1 <1>  -0.2400 
 16 C       -9.5640     2.1240    -0.7990 C.3   1 <1>   0.1310 
 17 C      -10.9310     1.4770    -0.8800 C.2   1 <1>   0.6590 
 18 O      -11.5050     1.3480    -1.9320 O.2   1 <1>  -0.5700 
 19 O      -11.4540     1.0770     0.2720 O.3   1 <1>  -0.4300 
 20 C      -12.7010     0.4300     0.3580 C.3   1 <1>   0.2000 
 21 C      -13.2550     0.6970     1.7540 C.3   1 <1>  -0.2400 
 22 C      -12.4850    -1.0640     0.1170 C.3   1 <1>  -0.2400 
 23 H       -3.4470     1.7070     2.2090 H     1 <1>   0.1500 
 24 H        0.4810     2.2540     0.6750 H     1 <1>   0.1500 
 25 H       -0.4660     2.9890    -1.4950 H     1 <1>   0.1500 
 26 H       -2.9060     3.0620    -1.7950 H     1 <1>   0.1500 
 27 H       -6.1060    -0.6330     0.5840 H     1 <1>   0.0800 
 28 H       -4.4810    -0.1650     0.9910 H     1 <1>   0.0800 
 29 H       -5.4890    -0.7010    -1.8260 H     1 <1>   0.0800 
 30 H       -4.4860    -1.7770    -0.8880 H     1 <1>   0.0800 
 31 H       -3.8450    -0.2420    -1.4130 H     1 <1>   0.0800 
 32 H       -9.2870     2.5470    -1.7460 H     1 <1>   0.0800 
 33 H       -9.5460     2.8790    -0.0350 H     1 <1>   0.0800 
 34 H      -13.3640     0.8450    -0.3850 H     1 <1>   0.0800 
 35 H      -12.5870     0.3120     2.5040 H     1 <1>   0.0800 
 36 H      -14.2110     0.2200     1.8670 H     1 <1>   0.0800 
 37 H      -13.3850     1.7540     1.9010 H     1 <1>   0.0800 
 38 H      -11.7930    -1.4650     0.8340 H     1 <1>   0.0800 
 39 H      -12.1060    -1.2270    -0.8760 H     1 <1>   0.0800 
 40 H      -13.4190    -1.5880     0.2080 H     1 <1>   0.0800 
@<TRIPOS>BOND
  1   1   2  1   
  2   2   3  ar  
  3   2   4  ar  
  4   3   5  ar  
  5   3  23  1   
  6   4   6  ar  
  7   4  24  1   
  8   5   7  1   
  9   5   8  ar  
 10   6   8  ar  
 11   6  25  1   
 12   7   9  2   
 13   7  10  1   
 14   8  26  1   
 15   9  11  1   
 16  10  12  1   
 17  10  13  1   
 18  11  12  2   
 19  12  14  1   
 20  13  15  1   
 21  13  27  1   
 22  13  28  1   
 23  14  16  1   
 24  15  29  1   
 25  15  30  1   
 26  15  31  1   
 27  16  17  1   
 28  16  32  1   
 29  16  33  1   
 30  17  18  2   
 31  17  19  1   
 32  19  20  1   
 33  20  21  1   
 34  20  22  1   
 35  20  34  1   
 36  21  35  1   
 37  21  36  1   
 38  21  37  1   
 39  22  38  1   
 40  22  39  1   
 41  22  40  1   
@<TRIPOS>SUBSTRUCTURE
  1 ****  12 GROUP 4 **** **** 0

# MOE 2024.06 (io_trps.svl 2023.06)
