@<TRIPOS>MOLECULE
NONAME
48 50 1 0 0 
SMALL
USER_CHARGES


@<TRIPOS>ATOM
  1 O        0.4510    -0.6730     0.5740 O.2   1 <1>  -0.5700 
  2 C        1.0990    -1.6720     0.7820 C.2   1 <1>   0.5690 
  3 N        0.6080    -2.9550     0.5750 N.am  1 <1>  -0.2980 
  4 C        2.5090    -1.4630     1.3010 C.3   1 <1>  -0.1790 
  5 N       -0.6720    -3.2770     0.1850 N.2   1 <1>  -0.5120 
  6 C        1.4100    -4.1790     0.7950 C.3   1 <1>   0.3640 
  7 C       -0.8420    -4.5370     0.1470 C.2   1 <1>   0.3030 
  8 C        2.5970    -4.2840    -0.1680 C.ar  1 <1>  -0.1440 
  9 C        0.4030    -5.2970     0.5460 C.3   1 <1>  -0.0990 
 10 C       -2.0570    -5.2310    -0.2210 C.ar  1 <1>   0.0860 
 11 C        3.8170    -4.7860     0.2780 C.ar  1 <1>   0.0830 
 12 C        2.4590    -3.8860    -1.4910 C.ar  1 <1>  -0.1500 
 13 C       -3.1990    -4.5140    -0.5840 C.ar  1 <1>  -0.1500 
 14 C       -2.1590    -6.6270    -0.2350 C.ar  1 <1>  -0.1500 
 15 O        3.8630    -5.1860     1.5830 O.3   1 <1>  -0.3630 
 16 C        4.9130    -4.8510    -0.6010 C.ar  1 <1>   0.0830 
 17 C        3.5250    -3.9710    -2.3640 C.ar  1 <1>  -0.1500 
 18 C       -4.3800    -5.1400    -0.9430 C.ar  1 <1>   0.0830 
 19 C       -3.3320    -7.2660    -0.5910 C.ar  1 <1>  -0.1500 
 20 C        4.5870    -6.3380     1.9620 C.3   1 <1>   0.0400 
 21 O        6.1240    -5.2850    -0.1440 O.3   1 <1>  -0.3630 
 22 C        4.7450    -4.4480    -1.9240 C.ar  1 <1>  -0.1500 
 23 O       -5.4210    -4.3370    -1.2750 O.3   1 <1>  -0.3620 
 24 C       -4.4470    -6.5290    -0.9460 C.ar  1 <1>  -0.1500 
 25 C        7.3010    -5.1780    -0.9150 C.3   1 <1>   0.0400 
 26 C       -6.6730    -4.8690    -1.6450 C.3   1 <1>   0.0400 
 27 H        2.6940    -2.0840     2.1560 H     1 <1>   0.0800 
 28 H        2.6360    -0.4370     1.5910 H     1 <1>   0.0800 
 29 H        3.2190    -1.6880     0.5280 H     1 <1>   0.0800 
 30 H        1.7220    -4.1960     1.8240 H     1 <1>   0.0800 
 31 H        0.2400    -5.8570     1.4470 H     1 <1>   0.0800 
 32 H        0.7290    -5.9500    -0.2420 H     1 <1>   0.0800 
 33 H        1.5160    -3.5030    -1.8490 H     1 <1>   0.1500 
 34 H       -3.1680    -3.4390    -0.5880 H     1 <1>   0.1500 
 35 H       -1.3140    -7.2340     0.0340 H     1 <1>   0.1500 
 36 H        3.4040    -3.6610    -3.3880 H     1 <1>   0.1500 
 37 H       -3.3810    -8.3410    -0.5930 H     1 <1>   0.1500 
 38 H        4.1640    -6.7170     2.8740 H     1 <1>   0.0800 
 39 H        5.6140    -6.0640     2.1270 H     1 <1>   0.0800 
 40 H        4.5120    -7.0760     1.1830 H     1 <1>   0.0800 
 41 H        5.5500    -4.4940    -2.6310 H     1 <1>   0.1500 
 42 H       -5.3460    -7.0460    -1.2190 H     1 <1>   0.1500 
 43 H        8.1270    -5.5040    -0.3090 H     1 <1>   0.0800 
 44 H        7.4400    -4.1500    -1.2000 H     1 <1>   0.0800 
 45 H        7.2120    -5.8120    -1.7790 H     1 <1>   0.0800 
 46 H       -7.3340    -4.0490    -1.8580 H     1 <1>   0.0800 
 47 H       -7.0620    -5.4490    -0.8270 H     1 <1>   0.0800 
 48 H       -6.5490    -5.4760    -2.5250 H     1 <1>   0.0800 
@<TRIPOS>BOND
  1   1   2  2   
  2   2   3  am  
  3   2   4  1   
  4   3   5  1   
  5   3   6  1   
  6   4  27  1   
  7   4  28  1   
  8   4  29  1   
  9   5   7  2   
 10   6   8  1   
 11   6   9  1   
 12   6  30  1   
 13   7   9  1   
 14   7  10  1   
 15   8  11  ar  
 16   8  12  ar  
 17   9  31  1   
 18   9  32  1   
 19  10  13  ar  
 20  10  14  ar  
 21  11  15  1   
 22  11  16  ar  
 23  12  17  ar  
 24  12  33  1   
 25  13  18  ar  
 26  13  34  1   
 27  14  19  ar  
 28  14  35  1   
 29  15  20  1   
 30  16  21  1   
 31  16  22  ar  
 32  17  22  ar  
 33  17  36  1   
 34  18  23  1   
 35  18  24  ar  
 36  19  24  ar  
 37  19  37  1   
 38  20  38  1   
 39  20  39  1   
 40  20  40  1   
 41  21  25  1   
 42  22  41  1   
 43  23  26  1   
 44  24  42  1   
 45  25  43  1   
 46  25  44  1   
 47  25  45  1   
 48  26  46  1   
 49  26  47  1   
 50  26  48  1   
@<TRIPOS>SUBSTRUCTURE
  1 ****   9 GROUP 4 **** **** 0

# MOE 2024.06 (io_trps.svl 2023.06)
