@<TRIPOS>MOLECULE
NONAME
32 33 1 0 0 
SMALL
USER_CHARGES


@<TRIPOS>ATOM
  1 S       -0.1200     0.0360    -0.4670 S.3   1 <1>  -0.0800 
  2 C        0.8300     1.2250     0.4090 C.2   1 <1>   0.1040 
  3 C       -1.6070     0.9150    -0.1700 C.2   1 <1>  -0.1100 
  4 N        2.1960     1.0580     0.5970 N.am  1 <1>  -0.4940 
  5 C        0.0280     2.2380     0.8530 C.2   1 <1>  -0.0860 
  6 C       -1.3660     2.0360     0.5320 C.2   1 <1>  -0.0860 
  7 C        3.1700     0.2860     0.0350 C.2   1 <1>   0.5690 
  8 C        0.5340     3.3660     1.5780 C.2   1 <1>   0.8060 
  9 C       -2.4430     3.0040     1.0050 C.3   1 <1>  -0.0140 
 10 O        4.2860     0.3390     0.4790 O.2   1 <1>  -0.5700 
 11 C        2.9170    -0.6160    -1.1490 C.3   1 <1>  -0.1790 
 12 O        1.2400     3.2430     2.5560 O.2   1 <1>  -0.5700 
 13 O        0.2950     4.6110     1.1590 O.3   1 <1>  -0.4300 
 14 C       -3.8340     2.9790     0.4510 C.3   1 <1>  -0.2000 
 15 C       -2.9110     4.1120     0.1160 C.3   1 <1>  -0.2000 
 16 C        0.3330     4.9560    -0.2090 C.3   1 <1>   0.1200 
 17 C        1.7900     5.0370    -0.6610 C.3   1 <1>  -0.2400 
 18 H       -2.5150     0.4820    -0.5500 H     1 <1>   0.1500 
 19 H        2.5950     1.6280     1.3510 H     1 <1>   0.3700 
 20 H       -2.3660     3.2090     2.0600 H     1 <1>   0.1000 
 21 H        2.3370    -1.4650    -0.8420 H     1 <1>   0.0800 
 22 H        3.8530    -0.9650    -1.5430 H     1 <1>   0.0800 
 23 H        2.4010    -0.0770    -1.9210 H     1 <1>   0.0800 
 24 H       -4.6570     3.1640     1.1190 H     1 <1>   0.1000 
 25 H       -4.0890     2.2860    -0.3310 H     1 <1>   0.1000 
 26 H       -2.5540     4.1740    -0.8970 H     1 <1>   0.1000 
 27 H       -3.0880     5.0790     0.5540 H     1 <1>   0.1000 
 28 H       -0.1440     5.9160    -0.3130 H     1 <1>   0.0800 
 29 H       -0.2110     4.2300    -0.7870 H     1 <1>   0.0800 
 30 H        2.3270     5.7470    -0.0550 H     1 <1>   0.0800 
 31 H        1.8330     5.3640    -1.6840 H     1 <1>   0.0800 
 32 H        2.2670     4.0760    -0.5940 H     1 <1>   0.0800 
@<TRIPOS>BOND
  1   1   2  1   
  2   1   3  1   
  3   2   4  1   
  4   2   5  2   
  5   3   6  2   
  6   3  18  1   
  7   4   7  am  
  8   4  19  1   
  9   5   6  1   
 10   5   8  1   
 11   6   9  1   
 12   7  10  2   
 13   7  11  1   
 14   8  12  2   
 15   8  13  1   
 16   9  14  1   
 17   9  15  1   
 18   9  20  1   
 19  11  21  1   
 20  11  22  1   
 21  11  23  1   
 22  13  16  1   
 23  14  15  1   
 24  14  24  1   
 25  14  25  1   
 26  15  26  1   
 27  15  27  1   
 28  16  17  1   
 29  16  28  1   
 30  16  29  1   
 31  17  30  1   
 32  17  31  1   
 33  17  32  1   
@<TRIPOS>SUBSTRUCTURE
  1 ****   5 GROUP 4 **** **** 0

# MOE 2024.06 (io_trps.svl 2023.06)
