@<TRIPOS>MOLECULE
NONAME
38 41 1 0 0 
SMALL
USER_CHARGES


@<TRIPOS>ATOM
  1 F        0.0200    -0.8440    -1.2340 F     1 <1>  -0.1900 
  2 C       -1.2550    -0.5910    -1.0930 C.ar  1 <1>   0.1900 
  3 C       -2.1290    -1.6450    -0.9150 C.ar  1 <1>  -0.1500 
  4 C       -1.6820     0.7220    -1.1260 C.ar  1 <1>  -0.1500 
  5 C       -3.4770    -1.3690    -0.7660 C.ar  1 <1>  -0.1500 
  6 C       -3.0340     0.9820    -0.9750 C.ar  1 <1>  -0.1500 
  7 C       -3.9480    -0.0560    -0.7940 C.ar  1 <1>   0.1170 
  8 N       -5.3260     0.2170    -0.6420 N.am  1 <1>  -0.2370 
  9 C       -6.0730     1.0810    -1.4300 C.2   1 <1>   0.5690 
 10 C       -6.1600    -0.3360     0.3200 C.2   1 <1>   0.5690 
 11 O       -5.6820     1.9070    -2.2140 O.2   1 <1>  -0.5700 
 12 C       -7.5210     0.7850    -1.1650 C.3   1 <1>  -0.0190 
 13 O       -5.9480    -1.2700     1.0490 O.2   1 <1>  -0.5700 
 14 C       -7.4150     0.4840     0.3320 C.3   1 <1>  -0.0190 
 15 C       -8.8990     1.4790    -1.2590 C.3   1 <1>   0.1960 
 16 C       -8.8820     0.4390     0.7820 C.3   1 <1>   0.1960 
 17 C       -9.1980     1.8120     0.1950 C.2   1 <1>  -0.2760 
 18 C       -9.8470     0.2900    -1.3240 C.2   1 <1>  -0.2880 
 19 C       -9.7900    -0.3490    -0.1530 C.2   1 <1>  -0.2880 
 20 C       -9.6020     2.9540     0.7720 C.2   1 <1>  -0.2760 
 21 C       -9.8660     4.2460     0.0110 C.3   1 <1>  -0.1020 
 22 C       -9.8570     3.1220     2.2630 C.3   1 <1>  -0.1020 
 23 H       -1.7600    -2.6550    -0.8920 H     1 <1>   0.1500 
 24 H       -0.9730     1.5170    -1.2680 H     1 <1>   0.1500 
 25 H       -4.1680    -2.1830    -0.6230 H     1 <1>   0.1500 
 26 H       -3.3790     2.0010    -1.0020 H     1 <1>   0.1500 
 27 H       -7.6330    -0.1390    -1.7120 H     1 <1>   0.0800 
 28 H       -7.0480     1.3630     0.8440 H     1 <1>   0.0800 
 29 H       -9.0360     2.2360    -2.0110 H     1 <1>   0.0800 
 30 H       -9.0650     0.3290     1.8350 H     1 <1>   0.0800 
 31 H      -10.3900     0.0700    -2.2270 H     1 <1>   0.1500 
 32 H      -10.2700    -1.2510     0.1880 H     1 <1>   0.1500 
 33 H       -9.2250     5.0280     0.3780 H     1 <1>   0.0800 
 34 H      -10.8890     4.5490     0.1450 H     1 <1>   0.0800 
 35 H       -9.6880     4.1370    -1.0410 H     1 <1>   0.0800 
 36 H      -10.8800     3.4060     2.4300 H     1 <1>   0.0800 
 37 H       -9.2180     3.8900     2.6620 H     1 <1>   0.0800 
 38 H       -9.6710     2.2170     2.8090 H     1 <1>   0.0800 
@<TRIPOS>BOND
  1   1   2  1   
  2   2   3  ar  
  3   2   4  ar  
  4   3   5  ar  
  5   3  23  1   
  6   4   6  ar  
  7   4  24  1   
  8   5   7  ar  
  9   5  25  1   
 10   6   7  ar  
 11   6  26  1   
 12   7   8  1   
 13   8   9  am  
 14   8  10  am  
 15   9  11  2   
 16   9  12  1   
 17  10  13  2   
 18  10  14  1   
 19  12  14  1   
 20  12  15  1   
 21  12  27  1   
 22  14  16  1   
 23  14  28  1   
 24  15  17  1   
 25  15  18  1   
 26  15  29  1   
 27  16  17  1   
 28  16  19  1   
 29  16  30  1   
 30  17  20  2   
 31  18  19  2   
 32  18  31  1   
 33  19  32  1   
 34  20  21  1   
 35  20  22  1   
 36  21  33  1   
 37  21  34  1   
 38  21  35  1   
 39  22  36  1   
 40  22  37  1   
 41  22  38  1   
@<TRIPOS>SUBSTRUCTURE
  1 ****   8 GROUP 4 **** **** 0

# MOE 2024.06 (io_trps.svl 2023.06)
