@<TRIPOS>MOLECULE
Structure1953
25 26 1 0 0 
SMALL
USER_CHARGES


@<TRIPOS>ATOM
  1 O        0.1190     0.1660     0.6480 O.2   1 <1>  -0.5700 
  2 C        0.3930     1.2910     0.2830 C.2   1 <1>   0.8060 
  3 O        1.6710     1.5920     0.0310 O.3   1 <1>  -0.4300 
  4 C       -0.5750     2.3420     0.1070 C.2   1 <1>  -0.0860 
  5 C        2.6970     0.6360     0.1760 C.3   1 <1>   0.1200 
  6 C       -1.9390     2.3620     0.1890 C.2   1 <1>  -0.2370 
  7 C       -0.2570     3.6700    -0.1960 C.2   1 <1>   0.1390 
  8 C        4.0190     1.3040    -0.1890 C.3   1 <1>  -0.2400 
  9 N       -2.3360     3.6220    -0.0450 N.pl3 1 <1>   0.3000 
 10 C       -2.9180     1.2430     0.4840 C.3   1 <1>  -0.0150 
 11 N       -1.2950     4.4380    -0.2870 N.2   1 <1>  -0.7070 
 12 C       -2.8650    -0.0220    -0.3130 C.3   1 <1>  -0.2000 
 13 C       -4.0000     0.9340    -0.5040 C.3   1 <1>  -0.2000 
 14 H        2.4880    -0.1920    -0.4810 H     1 <1>   0.0800 
 15 H        2.7050     0.2950     1.1980 H     1 <1>   0.0800 
 16 H        0.7510     4.0260    -0.3390 H     1 <1>   0.1500 
 17 H        3.9920     1.6480    -1.2070 H     1 <1>   0.0800 
 18 H        4.8220     0.5970    -0.0870 H     1 <1>   0.0800 
 19 H        4.2090     2.1340     0.4680 H     1 <1>   0.0800 
 20 H       -3.3080     3.9540    -0.0510 H     1 <1>   0.2700 
 21 H       -3.1520     1.1540     1.5320 H     1 <1>   0.1000 
 22 H       -3.0310    -0.9510     0.2030 H     1 <1>   0.1000 
 23 H       -2.1210    -0.1100    -1.0860 H     1 <1>   0.1000 
 24 H       -4.0460     1.4790    -1.4300 H     1 <1>   0.1000 
 25 H       -4.9730     0.6530    -0.1380 H     1 <1>   0.1000 
@<TRIPOS>BOND
  1   1   2  2   
  2   2   3  1   
  3   2   4  1   
  4   3   5  1   
  5   4   6  2   
  6   4   7  1   
  7   5   8  1   
  8   5  14  1   
  9   5  15  1   
 10   6   9  1   
 11   6  10  1   
 12   7  11  2   
 13   7  16  1   
 14   8  17  1   
 15   8  18  1   
 16   8  19  1   
 17   9  11  1   
 18   9  20  1   
 19  10  12  1   
 20  10  13  1   
 21  10  21  1   
 22  12  13  1   
 23  12  22  1   
 24  12  23  1   
 25  13  24  1   
 26  13  25  1   
@<TRIPOS>SUBSTRUCTURE
  1 ****   4 GROUP 4 **** **** 0

# MOE 2024.06 (io_trps.svl 2023.06)
