@<TRIPOS>MOLECULE
NONAME
48 50 1 0 0 
SMALL
USER_CHARGES


@<TRIPOS>ATOM
  1 S        0.0350    -0.2310     0.4370 S.o2  1 <1>   1.4470 
  2 O       -0.1120    -0.8620     1.7310 O.2   1 <1>  -0.6500 
  3 O        1.1630    -0.5800    -0.3990 O.2   1 <1>  -0.6500 
  4 N       -1.3660    -0.5950    -0.4460 N.am  1 <1>  -0.8490 
  5 C       -0.0390     1.5760     0.6020 C.ar  1 <1>  -0.0090 
  6 C       -2.5890    -0.3560     0.3380 C.3   1 <1>   0.1960 
  7 C       -1.3320    -1.9770    -0.9340 C.3   1 <1>   0.1960 
  8 C       -0.2160     2.1810     1.8460 C.ar  1 <1>  -0.1500 
  9 C        0.0630     2.3930    -0.5220 C.ar  1 <1>  -0.1500 
 10 C       -3.8300    -0.5270    -0.5490 C.3   1 <1>  -0.0190 
 11 C       -2.5320    -2.2480    -1.8510 C.3   1 <1>  -0.1600 
 12 C       -0.2900     3.5590     1.9720 C.ar  1 <1>  -0.1500 
 13 C       -0.0090     3.7730    -0.4180 C.ar  1 <1>  -0.1500 
 14 C       -5.1000    -0.2250     0.2330 C.2   1 <1>   0.5690 
 15 C       -3.8630    -1.9430    -1.1510 C.3   1 <1>  -0.1600 
 16 C       -0.1840     4.3310     0.8320 C.ar  1 <1>   0.1900 
 17 O       -5.1350    -0.4750     1.4140 O.2   1 <1>  -0.5700 
 18 N       -6.1420     0.3180    -0.4610 N.am  1 <1>  -0.5470 
 19 F       -0.2540     5.6300     0.9410 F     1 <1>  -0.1900 
 20 C       -7.4400     0.7290    -0.1040 C.ar  1 <1>   0.1170 
 21 C       -8.2370     1.3030    -1.1010 C.ar  1 <1>   0.0820 
 22 C       -7.9630     0.5930     1.1770 C.ar  1 <1>  -0.1500 
 23 O       -7.6850     1.4190    -2.3480 O.3   1 <1>  -0.3630 
 24 C       -9.5290     1.7270    -0.8040 C.ar  1 <1>  -0.1500 
 25 C       -9.2480     1.0160     1.4670 C.ar  1 <1>  -0.1500 
 26 C       -8.4020     2.0070    -3.4120 C.3   1 <1>   0.0400 
 27 C      -10.0310     1.5830     0.4780 C.ar  1 <1>  -0.1500 
 28 H       -2.5830     0.6460     0.7330 H     1 <1>   0.0800 
 29 H       -2.6340    -1.0410     1.1710 H     1 <1>   0.0800 
 30 H       -1.3410    -2.6600    -0.1000 H     1 <1>   0.0800 
 31 H       -0.4260    -2.1450    -1.4940 H     1 <1>   0.0800 
 32 H       -0.2960     1.5650     2.7280 H     1 <1>   0.1500 
 33 H        0.2000     1.9380    -1.4890 H     1 <1>   0.1500 
 34 H       -3.7530     0.1900    -1.3460 H     1 <1>   0.0800 
 35 H       -2.5140    -3.2770    -2.1620 H     1 <1>   0.0800 
 36 H       -2.4340    -1.6380    -2.7320 H     1 <1>   0.0800 
 37 H       -0.4250     4.0270     2.9310 H     1 <1>   0.1500 
 38 H        0.0710     4.4050    -1.2850 H     1 <1>   0.1500 
 39 H       -4.6760    -2.0310    -1.8520 H     1 <1>   0.0800 
 40 H       -4.0240    -2.6600    -0.3620 H     1 <1>   0.0800 
 41 H       -5.9770     0.4800    -1.4560 H     1 <1>   0.3700 
 42 H       -7.3750     0.1550     1.9610 H     1 <1>   0.1500 
 43 H      -10.1610     2.1700    -1.5490 H     1 <1>   0.1500 
 44 H       -9.6360     0.9030     2.4640 H     1 <1>   0.1500 
 45 H       -7.7740     1.9990    -4.2840 H     1 <1>   0.0800 
 46 H       -8.6480     3.0210    -3.1490 H     1 <1>   0.0800 
 47 H       -9.2900     1.4290    -3.5970 H     1 <1>   0.0800 
 48 H      -11.0310     1.9110     0.7070 H     1 <1>   0.1500 
@<TRIPOS>BOND
  1   1   2  2   
  2   1   3  2   
  3   1   4  am  
  4   1   5  1   
  5   4   6  1   
  6   4   7  1   
  7   5   8  ar  
  8   5   9  ar  
  9   6  10  1   
 10   6  28  1   
 11   6  29  1   
 12   7  11  1   
 13   7  30  1   
 14   7  31  1   
 15   8  12  ar  
 16   8  32  1   
 17   9  13  ar  
 18   9  33  1   
 19  10  14  1   
 20  10  15  1   
 21  10  34  1   
 22  11  15  1   
 23  11  35  1   
 24  11  36  1   
 25  12  16  ar  
 26  12  37  1   
 27  13  16  ar  
 28  13  38  1   
 29  14  17  2   
 30  14  18  am  
 31  15  39  1   
 32  15  40  1   
 33  16  19  1   
 34  18  20  1   
 35  18  41  1   
 36  20  21  ar  
 37  20  22  ar  
 38  21  23  1   
 39  21  24  ar  
 40  22  25  ar  
 41  22  42  1   
 42  23  26  1   
 43  24  27  ar  
 44  24  43  1   
 45  25  27  ar  
 46  25  44  1   
 47  26  45  1   
 48  26  46  1   
 49  26  47  1   
 50  27  48  1   
@<TRIPOS>SUBSTRUCTURE
  1 ****  10 GROUP 4 **** **** 0

# MOE 2024.06 (io_trps.svl 2023.06)
