@<TRIPOS>MOLECULE
NONAME
39 40 1 0 0 
SMALL
USER_CHARGES


@<TRIPOS>ATOM
  1 N       -1.0780     0.1690     1.6640 N.ar  1 <1>  -0.6200 
  2 C       -2.1530    -0.2920     1.0560 C.ar  1 <1>   0.1600 
  3 C       -0.4910     1.2050     1.0880 C.ar  1 <1>   0.1600 
  4 C       -2.7020     0.2470    -0.0990 C.ar  1 <1>  -0.1440 
  5 C       -0.9410     1.8090    -0.0740 C.ar  1 <1>  -0.1500 
  6 C       -2.0740     1.3260    -0.6930 C.ar  1 <1>  -0.1500 
  7 C       -3.9650    -0.3450    -0.6890 C.3   1 <1>   0.4870 
  8 N       -5.1560     0.0680     0.1350 N.4   1 <1>  -0.9590 
  9 C       -6.4320    -0.6320    -0.2490 C.3   1 <1>   0.4230 
 10 C       -5.2660     1.5730     0.1030 C.3   1 <1>   0.2630 
 11 C       -7.5960    -0.1620     0.6400 C.3   1 <1>  -0.1600 
 12 C       -6.2770    -2.1570    -0.1230 C.3   1 <1>  -0.1600 
 13 C       -8.8890    -0.9240     0.3470 C.3   1 <1>   0.3430 
 14 C       -7.5890    -2.8940    -0.4050 C.3   1 <1>   0.3430 
 15 N       -8.6650    -2.3880     0.4910 N.4   1 <1>  -0.9590 
 16 C       -9.9430    -3.1350     0.2390 C.3   1 <1>   0.2630 
 17 H       -2.6130    -1.1480     1.5190 H     1 <1>   0.1500 
 18 H        0.3950     1.5920     1.5650 H     1 <1>   0.1500 
 19 H       -0.4020     2.6460    -0.4840 H     1 <1>   0.1500 
 20 H       -2.4320     1.7850    -1.6000 H     1 <1>   0.1500 
 21 H       -3.8600    -1.4170    -0.6970 H     1 <1>   0.0800 
 22 H       -4.0800    -0.0090    -1.7070 H     1 <1>   0.0800 
 23 H       -4.9230    -0.1800     1.1070 H     1 <1>   0.4500 
 24 H       -6.6670    -0.3920    -1.2760 H     1 <1>   0.0800 
 25 H       -5.5010     1.9150    -0.8920 H     1 <1>   0.0800 
 26 H       -4.3350     2.0260     0.4080 H     1 <1>   0.0800 
 27 H       -6.0300     1.9170     0.7790 H     1 <1>   0.0800 
 28 H       -7.8050     0.8770     0.4640 H     1 <1>   0.0800 
 29 H       -7.3490    -0.2840     1.6810 H     1 <1>   0.0800 
 30 H       -5.9370    -2.4210     0.8630 H     1 <1>   0.0800 
 31 H       -5.5600    -2.5220    -0.8350 H     1 <1>   0.0800 
 32 H       -9.2230    -0.7040    -0.6550 H     1 <1>   0.0800 
 33 H       -9.6600    -0.6020     1.0310 H     1 <1>   0.0800 
 34 H       -7.4490    -3.9530    -0.2480 H     1 <1>   0.0800 
 35 H       -7.8760    -2.7470    -1.4350 H     1 <1>   0.0800 
 36 H       -8.3990    -2.5850     1.4700 H     1 <1>   0.4500 
 37 H      -10.2840    -2.9740    -0.7710 H     1 <1>   0.0800 
 38 H      -10.7140    -2.8020     0.9170 H     1 <1>   0.0800 
 39 H       -9.7970    -4.1930     0.3870 H     1 <1>   0.0800 
@<TRIPOS>BOND
  1   1   2  ar  
  2   1   3  ar  
  3   2   4  ar  
  4   2  17  1   
  5   3   5  ar  
  6   3  18  1   
  7   4   6  ar  
  8   4   7  1   
  9   5   6  ar  
 10   5  19  1   
 11   6  20  1   
 12   7   8  1   
 13   7  21  1   
 14   7  22  1   
 15   8   9  1   
 16   8  10  1   
 17   8  23  1   
 18   9  11  1   
 19   9  12  1   
 20   9  24  1   
 21  10  25  1   
 22  10  26  1   
 23  10  27  1   
 24  11  13  1   
 25  11  28  1   
 26  11  29  1   
 27  12  14  1   
 28  12  30  1   
 29  12  31  1   
 30  13  15  1   
 31  13  32  1   
 32  13  33  1   
 33  14  15  1   
 34  14  34  1   
 35  14  35  1   
 36  15  16  1   
 37  15  36  1   
 38  16  37  1   
 39  16  38  1   
 40  16  39  1   
@<TRIPOS>SUBSTRUCTURE
  1 ****   8 GROUP 4 **** **** 0

# MOE 2024.06 (io_trps.svl 2023.06)
