@<TRIPOS>MOLECULE
NONAME
47 49 1 0 0 
SMALL
USER_CHARGES


@<TRIPOS>ATOM
  1 O        0.3730     2.3120    -2.6290 O.2   1 <1>  -0.5700 
  2 C       -0.2410     2.1620    -1.5990 C.2   1 <1>   0.5690 
  3 N        0.3360     1.6890    -0.4670 N.am  1 <1>  -0.7300 
  4 C       -1.7320     2.5150    -1.5490 C.3   1 <1>   0.1710 
  5 C        1.7300     1.2620    -0.3040 C.3   1 <1>   0.2200 
  6 N       -2.5030     1.7940    -0.4910 N.3   1 <1>  -0.8100 
  7 C        1.7540    -0.2420    -0.0130 C.3   1 <1>  -0.1600 
  8 C        2.3640     2.0610     0.8390 C.3   1 <1>  -0.1600 
  9 C       -3.8350     2.4090    -0.3020 C.3   1 <1>   0.1100 
 10 C       -2.6760     0.3640    -0.8460 C.3   1 <1>   0.1100 
 11 C        3.1820    -0.7290     0.2740 C.3   1 <1>  -0.1600 
 12 C        3.7930     1.5780     1.1280 C.3   1 <1>  -0.1600 
 13 C       -4.6560     1.7020     0.7930 C.3   1 <1>   0.2090 
 14 C       -3.4600    -0.4170     0.2260 C.3   1 <1>   0.2090 
 15 C        3.8220     0.0710     1.4170 C.3   1 <1>  -0.1600 
 16 N       -4.7750     0.2340     0.5240 N.pl3 1 <1>  -0.8380 
 17 C       -5.9260    -0.4840     0.7790 C.ar  1 <1>   0.7200 
 18 N       -5.8520    -1.8120     0.6750 N.ar  1 <1>  -0.6200 
 19 N       -7.0160     0.2080     1.1120 N.ar  1 <1>  -0.6200 
 20 C       -6.9510    -2.4810     0.9220 C.ar  1 <1>   0.1600 
 21 C       -8.1000    -0.4870     1.3530 C.ar  1 <1>   0.1600 
 22 C       -8.1230    -1.8570     1.2710 C.ar  1 <1>  -0.1500 
 23 H       -0.2890     1.5580     0.3330 H     1 <1>   0.3700 
 24 H       -2.1650     2.3190    -2.5150 H     1 <1>   0.0800 
 25 H       -1.7940     3.5730    -1.3710 H     1 <1>   0.0800 
 26 H        2.2750     1.4550    -1.2150 H     1 <1>   0.0800 
 27 H        1.3610    -0.7730    -0.8630 H     1 <1>   0.0800 
 28 H        1.1340    -0.4530     0.8400 H     1 <1>   0.0800 
 29 H        1.7700     1.9490     1.7290 H     1 <1>   0.0800 
 30 H        2.3880     3.1030     0.5720 H     1 <1>   0.0800 
 31 H       -4.3900     2.3720    -1.2240 H     1 <1>   0.0800 
 32 H       -3.7150     3.4420    -0.0250 H     1 <1>   0.0800 
 33 H       -1.7130    -0.1000    -0.9680 H     1 <1>   0.0800 
 34 H       -3.2050     0.2800    -1.7800 H     1 <1>   0.0800 
 35 H        3.7800    -0.6200    -0.6150 H     1 <1>   0.0800 
 36 H        3.1620    -1.7740     0.5320 H     1 <1>   0.0800 
 37 H        4.1930     2.1160     1.9710 H     1 <1>   0.0800 
 38 H        4.4190     1.7890     0.2770 H     1 <1>   0.0800 
 39 H       -5.6240     2.1680     0.8410 H     1 <1>   0.0800 
 40 H       -4.1750     1.8460     1.7440 H     1 <1>   0.0800 
 41 H       -2.8780    -0.4600     1.1300 H     1 <1>   0.0800 
 42 H       -3.5980    -1.4240    -0.1260 H     1 <1>   0.0800 
 43 H        4.8410    -0.2500     1.5550 H     1 <1>   0.0800 
 44 H        3.2890    -0.1260     2.3320 H     1 <1>   0.0800 
 45 H       -6.9160    -3.5540     0.8440 H     1 <1>   0.1500 
 46 H       -8.9940     0.0500     1.6230 H     1 <1>   0.1500 
 47 H       -9.0170    -2.4150     1.4700 H     1 <1>   0.1500 
@<TRIPOS>BOND
  1   1   2  2   
  2   2   3  am  
  3   2   4  1   
  4   3   5  1   
  5   3  23  1   
  6   4   6  1   
  7   4  24  1   
  8   4  25  1   
  9   5   7  1   
 10   5   8  1   
 11   5  26  1   
 12   6   9  1   
 13   6  10  1   
 14   7  11  1   
 15   7  27  1   
 16   7  28  1   
 17   8  12  1   
 18   8  29  1   
 19   8  30  1   
 20   9  13  1   
 21   9  31  1   
 22   9  32  1   
 23  10  14  1   
 24  10  33  1   
 25  10  34  1   
 26  11  15  1   
 27  11  35  1   
 28  11  36  1   
 29  12  15  1   
 30  12  37  1   
 31  12  38  1   
 32  13  16  1   
 33  13  39  1   
 34  13  40  1   
 35  14  16  1   
 36  14  41  1   
 37  14  42  1   
 38  15  43  1   
 39  15  44  1   
 40  16  17  1   
 41  17  18  ar  
 42  17  19  ar  
 43  18  20  ar  
 44  19  21  ar  
 45  20  22  ar  
 46  20  45  1   
 47  21  22  ar  
 48  21  46  1   
 49  22  47  1   
@<TRIPOS>SUBSTRUCTURE
  1 ****  10 GROUP 4 **** **** 0

# MOE 2024.06 (io_trps.svl 2023.06)
