@<TRIPOS>MOLECULE
NONAME
46 49 1 0 0 
SMALL
USER_CHARGES


@<TRIPOS>ATOM
  1 O        0.8590     0.7170    -0.7180 O.2   1 <1>  -0.5700 
  2 C        1.5570     1.6970    -0.7010 C.2   1 <1>   0.6590 
  3 O        1.2210     2.7900    -1.3610 O.3   1 <1>  -0.4300 
  4 C        2.8970     1.8430     0.0230 C.3   1 <1>   0.0610 
  5 C        2.1600     3.8180    -1.1780 C.3   1 <1>   0.3440 
  6 C        2.9510     3.3950     0.0890 C.3   1 <1>   0.4240 
  7 C        2.9420     1.1510     1.4190 C.3   1 <1>  -0.1600 
  8 C        4.0380     1.2610    -0.8640 C.3   1 <1>  -0.1600 
  9 C        1.4770     5.1880    -1.0810 C.ar  1 <1>  -0.1440 
 10 O        2.2090     3.8250     1.1960 O.3   1 <1>  -0.6800 
 11 C        4.3690     4.0010     0.2260 C.ar  1 <1>  -0.1440 
 12 C        2.9900    -0.3860     1.3590 C.3   1 <1>  -0.1600 
 13 C        4.0190    -0.2720    -0.9430 C.3   1 <1>  -0.1600 
 14 C        0.1340     5.3110    -0.7430 C.ar  1 <1>  -0.1500 
 15 C        2.2150     6.3400    -1.3200 C.ar  1 <1>  -0.1500 
 16 C        5.1430     4.3510    -0.8800 C.ar  1 <1>  -0.1500 
 17 C        4.9250     4.1940     1.4890 C.ar  1 <1>  -0.1500 
 18 C        4.1230    -0.8840     0.4570 C.3   1 <1>  -0.1600 
 19 C       -0.4560     6.5590    -0.6450 C.ar  1 <1>  -0.1500 
 20 C        1.6260     7.5880    -1.2220 C.ar  1 <1>  -0.1500 
 21 C        6.4100     4.8880    -0.7270 C.ar  1 <1>  -0.1500 
 22 C        6.1910     4.7300     1.6450 C.ar  1 <1>  -0.1500 
 23 C        0.2890     7.6990    -0.8850 C.ar  1 <1>  -0.1500 
 24 C        6.9350     5.0810     0.5360 C.ar  1 <1>  -0.1500 
 25 H        2.7810     3.7920    -2.0500 H     1 <1>   0.0800 
 26 H        2.0800     1.4340     1.9980 H     1 <1>   0.0800 
 27 H        3.8140     1.4950     1.9470 H     1 <1>   0.0800 
 28 H        4.9920     1.5470    -0.4560 H     1 <1>   0.0800 
 29 H        3.9780     1.6560    -1.8630 H     1 <1>   0.0800 
 30 H        2.0470     4.7880     1.1090 H     1 <1>   0.4000 
 31 H        2.0520    -0.7650     0.9920 H     1 <1>   0.0800 
 32 H        3.1260    -0.7770     2.3530 H     1 <1>   0.0800 
 33 H        4.8460    -0.6130    -1.5420 H     1 <1>   0.0800 
 34 H        3.1120    -0.6090    -1.4160 H     1 <1>   0.0800 
 35 H       -0.4640     4.4360    -0.5500 H     1 <1>   0.1500 
 36 H        3.2570     6.2810    -1.5810 H     1 <1>   0.1500 
 37 H        4.7950     4.2110    -1.8860 H     1 <1>   0.1500 
 38 H        4.3760     3.9260     2.3760 H     1 <1>   0.1500 
 39 H        4.0770    -1.9580     0.3850 H     1 <1>   0.0800 
 40 H        5.0710    -0.6230     0.8950 H     1 <1>   0.0800 
 41 H       -1.4970     6.6410    -0.3830 H     1 <1>   0.1500 
 42 H        2.2070     8.4740    -1.4080 H     1 <1>   0.1500 
 43 H        6.9920     5.1550    -1.5920 H     1 <1>   0.1500 
 44 H        6.5960     4.8730     2.6320 H     1 <1>   0.1500 
 45 H       -0.1700     8.6690    -0.8090 H     1 <1>   0.1500 
 46 H        7.9200     5.4990     0.6560 H     1 <1>   0.1500 
@<TRIPOS>BOND
  1   1   2  2   
  2   2   3  1   
  3   2   4  1   
  4   3   5  1   
  5   4   6  1   
  6   4   7  1   
  7   4   8  1   
  8   5   6  1   
  9   5   9  1   
 10   5  25  1   
 11   6  10  1   
 12   6  11  1   
 13   7  12  1   
 14   7  26  1   
 15   7  27  1   
 16   8  13  1   
 17   8  28  1   
 18   8  29  1   
 19   9  14  ar  
 20   9  15  ar  
 21  10  30  1   
 22  11  16  ar  
 23  11  17  ar  
 24  12  18  1   
 25  12  31  1   
 26  12  32  1   
 27  13  18  1   
 28  13  33  1   
 29  13  34  1   
 30  14  19  ar  
 31  14  35  1   
 32  15  20  ar  
 33  15  36  1   
 34  16  21  ar  
 35  16  37  1   
 36  17  22  ar  
 37  17  38  1   
 38  18  39  1   
 39  18  40  1   
 40  19  23  ar  
 41  19  41  1   
 42  20  23  ar  
 43  20  42  1   
 44  21  24  ar  
 45  21  43  1   
 46  22  24  ar  
 47  22  44  1   
 48  23  45  1   
 49  24  46  1   
@<TRIPOS>SUBSTRUCTURE
  1 ****   6 GROUP 4 **** **** 0

# MOE 2024.06 (io_trps.svl 2023.06)
