@<TRIPOS>MOLECULE
NONAME
42 43 1 0 0 
SMALL
USER_CHARGES


@<TRIPOS>ATOM
  1 O      -10.8120     3.5830     0.3220 O.3   1 <1>  -0.3630 
  2 C      -12.1540     3.7200     0.2060 C.ar  1 <1>   0.0830 
  3 C      -10.1480     2.4150    -0.0920 C.3   1 <1>   0.1200 
  4 C      -12.9940     2.7430    -0.3200 C.ar  1 <1>  -0.1500 
  5 C      -12.6990     4.9160     0.6440 C.ar  1 <1>  -0.1500 
  6 C       -8.6590     2.6230     0.1840 C.3   1 <1>  -0.1600 
  7 C      -14.3570     2.9730    -0.4000 C.ar  1 <1>  -0.1500 
  8 C      -14.0620     5.1390     0.5620 C.ar  1 <1>  -0.1500 
  9 C       -7.8490     1.4020    -0.2480 C.3   1 <1>   0.3430 
 10 C      -14.9120     4.1710     0.0380 C.ar  1 <1>   0.0730 
 11 N       -6.4160     1.5690     0.1250 N.4   1 <1>  -0.9590 
 12 C      -16.3260     4.4030    -0.0480 C.1   1 <1>   0.4840 
 13 C       -5.7250     2.6030    -0.7050 C.3   1 <1>   0.3430 
 14 C       -5.7020     0.2600     0.0630 C.3   1 <1>   0.3430 
 15 N      -17.4500     4.5850    -0.1170 N.1   1 <1>  -0.5570 
 16 C       -4.3000     2.8110    -0.1920 C.3   1 <1>  -0.1600 
 17 C       -4.2770     0.4220     0.5940 C.3   1 <1>  -0.1600 
 18 C       -3.5040     1.4980    -0.1800 C.3   1 <1>  -0.0800 
 19 C       -2.1160     1.7130     0.4330 C.3   1 <1>  -0.2400 
 20 H      -10.3360     2.2770    -1.1440 H     1 <1>   0.0800 
 21 H      -10.5400     1.5870     0.4740 H     1 <1>   0.0800 
 22 H      -12.6120     1.8030    -0.6700 H     1 <1>   0.1500 
 23 H      -12.0490     5.6710     1.0510 H     1 <1>   0.1500 
 24 H       -8.5300     2.7890     1.2390 H     1 <1>   0.0800 
 25 H       -8.3390     3.4940    -0.3590 H     1 <1>   0.0800 
 26 H      -15.0000     2.2110    -0.8080 H     1 <1>   0.1500 
 27 H      -14.4680     6.0750     0.9070 H     1 <1>   0.1500 
 28 H       -7.9390     1.2550    -1.3130 H     1 <1>   0.0800 
 29 H       -8.2480     0.5310     0.2470 H     1 <1>   0.0800 
 30 H       -6.3730     1.8880     1.1020 H     1 <1>   0.4500 
 31 H       -6.2560     3.5400    -0.6570 H     1 <1>   0.0800 
 32 H       -5.6940     2.2840    -1.7350 H     1 <1>   0.0800 
 33 H       -5.6670    -0.0890    -0.9570 H     1 <1>   0.0800 
 34 H       -6.2220    -0.4750     0.6560 H     1 <1>   0.0800 
 35 H       -4.3370     3.2350     0.7960 H     1 <1>   0.0800 
 36 H       -3.8030     3.5230    -0.8280 H     1 <1>   0.0800 
 37 H       -3.7640    -0.5200     0.5030 H     1 <1>   0.0800 
 38 H       -4.3140     0.6670     1.6410 H     1 <1>   0.0800 
 39 H       -3.3720     1.1650    -1.1980 H     1 <1>   0.0800 
 40 H       -2.1910     2.0480     1.4530 H     1 <1>   0.0800 
 41 H       -1.5680     2.4500    -0.1280 H     1 <1>   0.0800 
 42 H       -1.5520     0.7960     0.4170 H     1 <1>   0.0800 
@<TRIPOS>BOND
  1   1   2  1   
  2   1   3  1   
  3   2   4  ar  
  4   2   5  ar  
  5   3   6  1   
  6   3  20  1   
  7   3  21  1   
  8   4   7  ar  
  9   4  22  1   
 10   5   8  ar  
 11   5  23  1   
 12   6   9  1   
 13   6  24  1   
 14   6  25  1   
 15   7  10  ar  
 16   7  26  1   
 17   8  10  ar  
 18   8  27  1   
 19   9  11  1   
 20   9  28  1   
 21   9  29  1   
 22  10  12  1   
 23  11  13  1   
 24  11  14  1   
 25  11  30  1   
 26  12  15  3   
 27  13  16  1   
 28  13  31  1   
 29  13  32  1   
 30  14  17  1   
 31  14  33  1   
 32  14  34  1   
 33  16  18  1   
 34  16  35  1   
 35  16  36  1   
 36  17  18  1   
 37  17  37  1   
 38  17  38  1   
 39  18  19  1   
 40  18  39  1   
 41  19  40  1   
 42  19  41  1   
 43  19  42  1   
@<TRIPOS>SUBSTRUCTURE
  1 ****   3 GROUP 4 **** **** 0

# MOE 2024.06 (io_trps.svl 2023.06)
