@<TRIPOS>MOLECULE
NONAME
28 28 1 0 0 
SMALL
USER_CHARGES


@<TRIPOS>ATOM
  1 BR      -0.8180     0.2570    -0.4960 Br    1 <1>  -0.1110 
  2 C       -0.3510    -1.5970    -0.2790 C.ar  1 <1>   0.1110 
  3 C        0.8620    -2.0370    -0.7720 C.ar  1 <1>  -0.1500 
  4 C       -1.2380    -2.4370     0.3640 C.ar  1 <1>  -0.1500 
  5 C        1.2040    -3.3720    -0.6130 C.ar  1 <1>  -0.1440 
  6 C       -0.8960    -3.7690     0.5200 C.ar  1 <1>  -0.1500 
  7 C        0.3250    -4.2420     0.0330 C.ar  1 <1>   0.0830 
  8 C        2.5290    -3.8830    -1.1470 C.3   1 <1>   0.4870 
  9 O        0.7160    -5.5390     0.1650 O.3   1 <1>  -0.3620 
 10 N        3.3350    -4.4030    -0.0080 N.4   1 <1>  -0.9590 
 11 C       -0.1920    -6.5340     0.5980 C.3   1 <1>   0.0400 
 12 C        3.7080    -3.3250     0.9580 C.3   1 <1>   0.2630 
 13 C        4.5190    -5.1810    -0.4710 C.3   1 <1>   0.2630 
 14 H        1.5090    -1.3340    -1.2690 H     1 <1>   0.1500 
 15 H       -2.1740    -2.0550     0.7330 H     1 <1>   0.1500 
 16 H       -1.5910    -4.4160     1.0230 H     1 <1>   0.1500 
 17 H        3.0590    -3.0940    -1.6530 H     1 <1>   0.0800 
 18 H        2.3350    -4.6760    -1.8510 H     1 <1>   0.0800 
 19 H        2.6720    -5.0440     0.4690 H     1 <1>   0.4500 
 20 H        0.2970    -7.4900     0.5360 H     1 <1>   0.0800 
 21 H       -1.0550    -6.5270    -0.0450 H     1 <1>   0.0800 
 22 H       -0.4740    -6.3370     1.6180 H     1 <1>   0.0800 
 23 H        4.3510    -2.6010     0.4850 H     1 <1>   0.0800 
 24 H        4.2250    -3.7460     1.8050 H     1 <1>   0.0800 
 25 H        2.8240    -2.8210     1.3160 H     1 <1>   0.0800 
 26 H        5.2040    -4.5430    -1.0060 H     1 <1>   0.0800 
 27 H        4.2090    -5.9820    -1.1240 H     1 <1>   0.0800 
 28 H        5.0350    -5.6100     0.3730 H     1 <1>   0.0800 
@<TRIPOS>BOND
  1   1   2  1   
  2   2   3  ar  
  3   2   4  ar  
  4   3   5  ar  
  5   3  14  1   
  6   4   6  ar  
  7   4  15  1   
  8   5   7  ar  
  9   5   8  1   
 10   6   7  ar  
 11   6  16  1   
 12   7   9  1   
 13   8  10  1   
 14   8  17  1   
 15   8  18  1   
 16   9  11  1   
 17  10  12  1   
 18  10  13  1   
 19  10  19  1   
 20  11  20  1   
 21  11  21  1   
 22  11  22  1   
 23  12  23  1   
 24  12  24  1   
 25  12  25  1   
 26  13  26  1   
 27  13  27  1   
 28  13  28  1   
@<TRIPOS>SUBSTRUCTURE
  1 ****   5 GROUP 4 **** **** 0

# MOE 2024.06 (io_trps.svl 2023.06)
