@<TRIPOS>MOLECULE
NONAME
50 52 1 0 0 
SMALL
USER_CHARGES


@<TRIPOS>ATOM
  1 F        0.7100    -0.6230    -0.3600 F     1 <1>  -0.1900 
  2 C        1.8250    -1.2620    -0.1150 C.ar  1 <1>   0.1900 
  3 C        2.9800    -0.8570    -0.7560 C.ar  1 <1>  -0.1500 
  4 C        1.8070    -2.3190     0.7740 C.ar  1 <1>  -0.1500 
  5 C        4.1560    -1.5380    -0.4960 C.ar  1 <1>  -0.1500 
  6 C        2.9910    -2.9890     1.0250 C.ar  1 <1>  -0.1500 
  7 C        4.1750    -2.6110     0.3960 C.ar  1 <1>   0.1000 
  8 N        5.3450    -3.3180     0.6650 N.pl3 1 <1>  -0.8380 
  9 C        5.4500    -4.7300     0.1910 C.3   1 <1>   0.2090 
 10 C        6.6280    -2.5980     0.9350 C.3   1 <1>   0.2090 
 11 C        6.4820    -4.8670    -0.9480 C.3   1 <1>   0.3430 
 12 C        7.6440    -2.7920    -0.2110 C.3   1 <1>   0.3430 
 13 N        7.8080    -4.2420    -0.6040 N.4   1 <1>  -0.9590 
 14 C        8.8140    -4.4120    -1.6860 C.3   1 <1>   0.4860 
 15 C       10.1530    -3.9230    -1.1660 C.ar  1 <1>  -0.1430 
 16 C       10.8940    -4.6210    -0.2100 C.ar  1 <1>  -0.1430 
 17 C       10.6260    -2.7200    -1.6650 C.ar  1 <1>  -0.1500 
 18 C       12.0850    -4.0730     0.2700 C.ar  1 <1>  -0.1430 
 19 C       10.4330    -5.9860     0.3140 C.3   1 <1>  -0.0970 
 20 C       11.8150    -2.1920    -1.2110 C.ar  1 <1>  -0.1500 
 21 C       12.5500    -2.8600    -0.2410 C.ar  1 <1>   0.0830 
 22 C       12.9070    -4.7900     1.3480 C.3   1 <1>  -0.0970 
 23 O       13.7290    -2.3710     0.2290 O.3   1 <1>  -0.3620 
 24 C       14.3590    -1.2410    -0.3340 C.3   1 <1>   0.0400 
 25 H        2.9490    -0.0270    -1.4400 H     1 <1>   0.1500 
 26 H        0.8890    -2.6030     1.2560 H     1 <1>   0.1500 
 27 H        5.0570    -1.2340    -0.9910 H     1 <1>   0.1500 
 28 H        3.0050    -3.8090     1.7200 H     1 <1>   0.1500 
 29 H        4.4890    -5.0660    -0.1610 H     1 <1>   0.0800 
 30 H        5.7320    -5.3590     1.0180 H     1 <1>   0.0800 
 31 H        7.0490    -2.9680     1.8540 H     1 <1>   0.0800 
 32 H        6.4350    -1.5480     1.0730 H     1 <1>   0.0800 
 33 H        6.0750    -4.3880    -1.8230 H     1 <1>   0.0800 
 34 H        6.6140    -5.9120    -1.1750 H     1 <1>   0.0800 
 35 H        8.5930    -2.3840     0.0960 H     1 <1>   0.0800 
 36 H        7.3030    -2.2270    -1.0610 H     1 <1>   0.0800 
 37 H        8.1960    -4.7160     0.2210 H     1 <1>   0.4500 
 38 H        8.5260    -3.8450    -2.5560 H     1 <1>   0.0800 
 39 H        8.8940    -5.4490    -1.9690 H     1 <1>   0.0800 
 40 H       10.0790    -2.1760    -2.4170 H     1 <1>   0.1500 
 41 H        9.6960    -6.4510    -0.3120 H     1 <1>   0.0800 
 42 H       10.0350    -5.8850     1.3080 H     1 <1>   0.0800 
 43 H       11.2670    -6.6640     0.3500 H     1 <1>   0.0800 
 44 H       12.1540    -1.2590    -1.6220 H     1 <1>   0.1500 
 45 H       12.2760    -5.2640     2.0750 H     1 <1>   0.0800 
 46 H       13.5360    -4.1070     1.8900 H     1 <1>   0.0800 
 47 H       13.5360    -5.5310     0.8890 H     1 <1>   0.0800 
 48 H       15.2990    -1.0990     0.1690 H     1 <1>   0.0800 
 49 H       13.7340    -0.3790    -0.1840 H     1 <1>   0.0800 
 50 H       14.5300    -1.4200    -1.3810 H     1 <1>   0.0800 
@<TRIPOS>BOND
  1   1   2  1   
  2   2   3  ar  
  3   2   4  ar  
  4   3   5  ar  
  5   3  25  1   
  6   4   6  ar  
  7   4  26  1   
  8   5   7  ar  
  9   5  27  1   
 10   6   7  ar  
 11   6  28  1   
 12   7   8  1   
 13   8   9  1   
 14   8  10  1   
 15   9  11  1   
 16   9  29  1   
 17   9  30  1   
 18  10  12  1   
 19  10  31  1   
 20  10  32  1   
 21  11  13  1   
 22  11  33  1   
 23  11  34  1   
 24  12  13  1   
 25  12  35  1   
 26  12  36  1   
 27  13  14  1   
 28  13  37  1   
 29  14  15  1   
 30  14  38  1   
 31  14  39  1   
 32  15  16  ar  
 33  15  17  ar  
 34  16  18  ar  
 35  16  19  1   
 36  17  20  ar  
 37  17  40  1   
 38  18  21  ar  
 39  18  22  1   
 40  19  41  1   
 41  19  42  1   
 42  19  43  1   
 43  20  21  ar  
 44  20  44  1   
 45  21  23  1   
 46  22  45  1   
 47  22  46  1   
 48  22  47  1   
 49  23  24  1   
 50  24  48  1   
 51  24  49  1   
 52  24  50  1   
@<TRIPOS>SUBSTRUCTURE
  1 ****  12 GROUP 4 **** **** 0

# MOE 2024.06 (io_trps.svl 2023.06)
