@<TRIPOS>MOLECULE
NONAME
49 50 1 0 0 
SMALL
USER_CHARGES


@<TRIPOS>ATOM
  1 N       -0.3620    -0.0820    -0.0750 N.4   1 <1>  -0.9590 
  2 C       -1.5770     0.6190     0.4210 C.3   1 <1>   0.3430 
  3 C       -0.3180    -1.5070     0.3600 C.3   1 <1>   0.3430 
  4 C        0.8610     0.6610     0.3640 C.3   1 <1>   0.3430 
  5 C       -2.8370    -0.0910    -0.0760 C.3   1 <1>  -0.1600 
  6 C       -1.5590    -2.2490    -0.1380 C.3   1 <1>  -0.1600 
  7 C        2.0790     0.2190    -0.4510 C.3   1 <1>  -0.1600 
  8 C       -2.8620    -1.5760     0.3260 C.3   1 <1>   0.4230 
  9 C        3.3080     1.0600    -0.0880 C.3   1 <1>  -0.2400 
 10 N       -4.0600    -2.2720    -0.2650 N.4   1 <1>  -0.9590 
 11 C       -5.3660    -1.6430     0.1590 C.3   1 <1>   0.3430 
 12 C       -4.0970    -3.7450     0.0580 C.3   1 <1>   0.2630 
 13 C       -6.5720    -2.1670    -0.6260 C.3   1 <1>  -0.0170 
 14 C       -7.7640    -1.2970    -0.2830 C.ar  1 <1>  -0.1430 
 15 C       -8.1150    -0.2330    -1.1000 C.ar  1 <1>  -0.1500 
 16 C       -8.5060    -1.5520     0.8610 C.ar  1 <1>  -0.1500 
 17 C       -9.1900     0.5740    -0.7720 C.ar  1 <1>  -0.1500 
 18 C       -9.5810    -0.7440     1.1890 C.ar  1 <1>  -0.1500 
 19 C       -9.9220     0.3200     0.3740 C.ar  1 <1>  -0.1500 
 20 H       -0.3560    -0.0460    -1.1050 H     1 <1>   0.4500 
 21 H       -1.5790     1.6410     0.0710 H     1 <1>   0.0800 
 22 H       -1.5710     0.6380     1.5000 H     1 <1>   0.0800 
 23 H       -0.2680    -1.5570     1.4370 H     1 <1>   0.0800 
 24 H        0.5650    -1.9870    -0.0350 H     1 <1>   0.0800 
 25 H        1.0440     0.4990     1.4140 H     1 <1>   0.0800 
 26 H        0.7170     1.7190     0.2100 H     1 <1>   0.0800 
 27 H       -2.8960     0.0120    -1.1460 H     1 <1>   0.0800 
 28 H       -3.6700     0.4300     0.3590 H     1 <1>   0.0800 
 29 H       -1.4950    -3.2480     0.2520 H     1 <1>   0.0800 
 30 H       -1.5230    -2.3030    -1.2120 H     1 <1>   0.0800 
 31 H        1.8830     0.3420    -1.5020 H     1 <1>   0.0800 
 32 H        2.3120    -0.8130    -0.2580 H     1 <1>   0.0800 
 33 H       -2.9170    -1.6390     1.4020 H     1 <1>   0.0800 
 34 H        3.1360     2.1030    -0.2940 H     1 <1>   0.0800 
 35 H        4.1560     0.7410    -0.6690 H     1 <1>   0.0800 
 36 H        3.5570     0.9490     0.9540 H     1 <1>   0.0800 
 37 H       -4.0080    -2.1820    -1.2910 H     1 <1>   0.4500 
 38 H       -5.3310    -0.5790    -0.0040 H     1 <1>   0.0800 
 39 H       -5.5340    -1.8050     1.2120 H     1 <1>   0.0800 
 40 H       -4.1450    -3.8960     1.1240 H     1 <1>   0.0800 
 41 H       -3.2220    -4.2440    -0.3250 H     1 <1>   0.0800 
 42 H       -4.9590    -4.2100    -0.3910 H     1 <1>   0.0800 
 43 H       -6.7980    -3.1840    -0.3620 H     1 <1>   0.0800 
 44 H       -6.3870    -2.1150    -1.6850 H     1 <1>   0.0800 
 45 H       -7.5650    -0.0190    -2.0000 H     1 <1>   0.1500 
 46 H       -8.2650    -2.3780     1.5070 H     1 <1>   0.1500 
 47 H       -9.4620     1.3990    -1.4080 H     1 <1>   0.1500 
 48 H      -10.1570    -0.9430     2.0760 H     1 <1>   0.1500 
 49 H      -10.7590     0.9480     0.6290 H     1 <1>   0.1500 
@<TRIPOS>BOND
  1   1   2  1   
  2   1   3  1   
  3   1   4  1   
  4   1  20  1   
  5   2   5  1   
  6   2  21  1   
  7   2  22  1   
  8   3   6  1   
  9   3  23  1   
 10   3  24  1   
 11   4   7  1   
 12   4  25  1   
 13   4  26  1   
 14   5   8  1   
 15   5  27  1   
 16   5  28  1   
 17   6   8  1   
 18   6  29  1   
 19   6  30  1   
 20   7   9  1   
 21   7  31  1   
 22   7  32  1   
 23   8  10  1   
 24   8  33  1   
 25   9  34  1   
 26   9  35  1   
 27   9  36  1   
 28  10  11  1   
 29  10  12  1   
 30  10  37  1   
 31  11  13  1   
 32  11  38  1   
 33  11  39  1   
 34  12  40  1   
 35  12  41  1   
 36  12  42  1   
 37  13  14  1   
 38  13  43  1   
 39  13  44  1   
 40  14  15  ar  
 41  14  16  ar  
 42  15  17  ar  
 43  15  45  1   
 44  16  18  ar  
 45  16  46  1   
 46  17  19  ar  
 47  17  47  1   
 48  18  19  ar  
 49  18  48  1   
 50  19  49  1   
@<TRIPOS>SUBSTRUCTURE
  1 ****   5 GROUP 4 **** **** 0

# MOE 2024.06 (io_trps.svl 2023.06)
