@<TRIPOS>MOLECULE
NONAME
35 36 1 0 0 
SMALL
USER_CHARGES


@<TRIPOS>ATOM
  1 S       -0.3270    -0.0460     0.3590 S.o2  1 <1>   1.0900 
  2 O       -0.9160    -0.3120     1.6520 O.2   1 <1>  -0.6500 
  3 O       -0.6530     1.1400    -0.3960 O.2   1 <1>  -0.6500 
  4 C        1.4380    -0.2230     0.4980 C.3   1 <1>  -0.0550 
  5 C       -0.5740    -1.4750    -0.6830 C.3   1 <1>  -0.0550 
  6 C        1.8440    -1.3460    -0.4530 C.3   1 <1>   0.2200 
  7 C        0.6810    -2.3430    -0.5590 C.3   1 <1>  -0.1600 
  8 N        3.1300    -1.9760    -0.0330 N.am  1 <1>  -0.6600 
  9 C        4.3180    -1.5190    -0.5740 C.2   1 <1>   0.5440 
 10 C        3.1070    -2.9340     1.1170 C.3   1 <1>   0.0600 
 11 O        4.3090    -0.4690    -1.1870 O.2   1 <1>  -0.5700 
 12 C        5.5670    -2.2420    -0.4150 C.ar  1 <1>   0.0860 
 13 C        5.6650    -3.6070    -0.6830 C.ar  1 <1>  -0.1500 
 14 C        6.7210    -1.5880     0.0120 C.ar  1 <1>  -0.1500 
 15 C        6.8540    -4.2920    -0.5120 C.ar  1 <1>  -0.1500 
 16 C        7.9130    -2.2680     0.1840 C.ar  1 <1>  -0.1500 
 17 C        7.9860    -3.6260    -0.0720 C.ar  1 <1>  -0.1430 
 18 C        9.2940    -4.3730     0.1150 C.3   1 <1>  -0.0970 
 19 H        1.6900    -0.4840     1.5060 H     1 <1>   0.0800 
 20 H        1.9410     0.6860     0.2310 H     1 <1>   0.0800 
 21 H       -0.6760    -1.1520    -1.7030 H     1 <1>   0.0800 
 22 H       -1.4570    -2.0170    -0.4040 H     1 <1>   0.0800 
 23 H        1.9710    -0.9100    -1.4320 H     1 <1>   0.0800 
 24 H        0.7950    -2.9890    -1.4120 H     1 <1>   0.0800 
 25 H        0.5910    -2.9330     0.3350 H     1 <1>   0.0800 
 26 H        2.4080    -2.6060     1.8660 H     1 <1>   0.0800 
 27 H        4.0780    -3.0000     1.5790 H     1 <1>   0.0800 
 28 H        2.8210    -3.9120     0.7710 H     1 <1>   0.0800 
 29 H        4.7950    -4.1340    -1.0340 H     1 <1>   0.1500 
 30 H        6.6750    -0.5300     0.2060 H     1 <1>   0.1500 
 31 H        6.8990    -5.3460    -0.7270 H     1 <1>   0.1500 
 32 H        8.7860    -1.7330     0.5160 H     1 <1>   0.1500 
 33 H        9.1080    -5.4010     0.3710 H     1 <1>   0.0800 
 34 H        9.8720    -3.9270     0.9040 H     1 <1>   0.0800 
 35 H        9.8650    -4.3400    -0.7950 H     1 <1>   0.0800 
@<TRIPOS>BOND
  1   1   2  2   
  2   1   3  2   
  3   1   4  1   
  4   1   5  1   
  5   4   6  1   
  6   4  19  1   
  7   4  20  1   
  8   5   7  1   
  9   5  21  1   
 10   5  22  1   
 11   6   7  1   
 12   6   8  1   
 13   6  23  1   
 14   7  24  1   
 15   7  25  1   
 16   8   9  am  
 17   8  10  1   
 18   9  11  2   
 19   9  12  1   
 20  10  26  1   
 21  10  27  1   
 22  10  28  1   
 23  12  13  ar  
 24  12  14  ar  
 25  13  15  ar  
 26  13  29  1   
 27  14  16  ar  
 28  14  30  1   
 29  15  17  ar  
 30  15  31  1   
 31  16  17  ar  
 32  16  32  1   
 33  17  18  1   
 34  18  33  1   
 35  18  34  1   
 36  18  35  1   
@<TRIPOS>SUBSTRUCTURE
  1 ****   8 GROUP 4 **** **** 0

# MOE 2024.06 (io_trps.svl 2023.06)
