@<TRIPOS>MOLECULE
NONAME
43 44 1 0 0 
SMALL
USER_CHARGES


@<TRIPOS>ATOM
  1 F       -0.3670     0.8550    -0.0310 F     1 <1>  -0.3400 
  2 C        0.4400     1.8740     0.2330 C.3   1 <1>   1.1580 
  3 F        0.5380     1.9500     1.5530 F     1 <1>  -0.3400 
  4 F        1.6410     1.5140    -0.2040 F     1 <1>  -0.3400 
  5 C       -0.0530     3.1860    -0.3930 C.2   1 <1>  -0.1670 
  6 C       -1.3380     3.7320    -0.0280 C.ar  1 <1>   0.0280 
  7 C        0.6930     3.8660    -1.3000 C.2   1 <1>  -0.1360 
  8 C       -1.7420     4.9430    -0.6220 C.ar  1 <1>   0.0830 
  9 C       -2.2250     3.1460     0.8820 C.ar  1 <1>  -0.1500 
 10 C        0.2500     5.0830    -1.8890 C.2   1 <1>   0.7060 
 11 O       -0.9370     5.5580    -1.5200 O.3   1 <1>  -0.2320 
 12 C       -2.9640     5.5410    -0.3220 C.ar  1 <1>  -0.1440 
 13 C       -3.4400     3.7240     1.1780 C.ar  1 <1>  -0.1500 
 14 O        0.8980     5.7030    -2.7050 O.2   1 <1>  -0.5700 
 15 C       -3.8240     4.9190     0.5740 C.ar  1 <1>   0.0830 
 16 C       -3.3440     6.8640    -0.9900 C.3   1 <1>  -0.0960 
 17 O       -5.0210     5.4970     0.8280 O.3   1 <1>  -0.3630 
 18 C       -6.1160     4.7600     1.3520 C.3   1 <1>   0.1810 
 19 C       -7.4290     5.5240     1.1910 C.2   1 <1>   0.5690 
 20 O       -7.9590     5.9170     2.2060 O.2   1 <1>  -0.5700 
 21 N       -8.0040     5.7220    -0.0470 N.am  1 <1>  -0.6600 
 22 C       -7.3520     5.3520    -1.3360 C.3   1 <1>   0.1400 
 23 C       -9.2720     6.4940    -0.1610 C.3   1 <1>   0.1400 
 24 C       -7.7830     3.9520    -1.7660 C.3   1 <1>  -0.2400 
 25 C      -10.4710     5.5740     0.0540 C.3   1 <1>  -0.2400 
 26 H        1.6610     3.5400    -1.6350 H     1 <1>   0.1500 
 27 H       -1.9810     2.2240     1.3790 H     1 <1>   0.1500 
 28 H       -4.0810     3.2380     1.8900 H     1 <1>   0.1500 
 29 H       -4.1260     7.3730    -0.4560 H     1 <1>   0.0800 
 30 H       -3.6780     6.6810    -1.9950 H     1 <1>   0.0800 
 31 H       -2.4980     7.5260    -1.0240 H     1 <1>   0.0800 
 32 H       -5.9300     4.5860     2.3960 H     1 <1>   0.0800 
 33 H       -6.1810     3.8230     0.8340 H     1 <1>   0.0800 
 34 H       -6.2820     5.3840    -1.2380 H     1 <1>   0.0800 
 35 H       -7.6180     6.0640    -2.0980 H     1 <1>   0.0800 
 36 H       -9.3380     6.9670    -1.1250 H     1 <1>   0.0800 
 37 H       -9.2830     7.2720     0.5860 H     1 <1>   0.0800 
 38 H       -7.5700     3.2340    -0.9960 H     1 <1>   0.0800 
 39 H       -7.2480     3.6690    -2.6540 H     1 <1>   0.0800 
 40 H       -8.8330     3.9340    -1.9900 H     1 <1>   0.0800 
 41 H      -10.5150     4.8160    -0.7040 H     1 <1>   0.0800 
 42 H      -11.3780     6.1490     0.0120 H     1 <1>   0.0800 
 43 H      -10.4100     5.1090     1.0220 H     1 <1>   0.0800 
@<TRIPOS>BOND
  1   1   2  1   
  2   2   3  1   
  3   2   4  1   
  4   2   5  1   
  5   5   6  1   
  6   5   7  2   
  7   6   8  ar  
  8   6   9  ar  
  9   7  10  1   
 10   7  26  1   
 11   8  11  1   
 12   8  12  ar  
 13   9  13  ar  
 14   9  27  1   
 15  10  11  1   
 16  10  14  2   
 17  12  15  ar  
 18  12  16  1   
 19  13  15  ar  
 20  13  28  1   
 21  15  17  1   
 22  16  29  1   
 23  16  30  1   
 24  16  31  1   
 25  17  18  1   
 26  18  19  1   
 27  18  32  1   
 28  18  33  1   
 29  19  20  2   
 30  19  21  am  
 31  21  22  1   
 32  21  23  1   
 33  22  24  1   
 34  22  34  1   
 35  22  35  1   
 36  23  25  1   
 37  23  36  1   
 38  23  37  1   
 39  24  38  1   
 40  24  39  1   
 41  24  40  1   
 42  25  41  1   
 43  25  42  1   
 44  25  43  1   
@<TRIPOS>SUBSTRUCTURE
  1 ****  15 GROUP 4 **** **** 0

# MOE 2024.06 (io_trps.svl 2023.06)
