@<TRIPOS>MOLECULE
NONAME
41 43 1 0 0 
SMALL
USER_CHARGES


@<TRIPOS>ATOM
  1 O        0.0640     0.7890     1.9420 O.2   1 <1>  -0.5700 
  2 C        0.0530     1.8730     1.3880 C.2   1 <1>   0.5440 
  3 N        1.1640     2.6850     1.4900 N.am  1 <1>  -0.6600 
  4 C       -1.1270     2.2720     0.6530 C.ar  1 <1>   0.0860 
  5 C        1.3050     4.0120     0.8110 C.3   1 <1>   0.1400 
  6 C        2.4330     2.2330     2.1410 C.3   1 <1>   0.1400 
  7 C       -1.1680     2.4000    -0.7450 C.ar  1 <1>   0.0820 
  8 C       -2.2890     2.5740     1.3640 C.ar  1 <1>  -0.1500 
  9 C        2.4650     3.9950    -0.2000 C.3   1 <1>   0.2090 
 10 C        3.5990     2.2270     1.1370 C.3   1 <1>   0.2090 
 11 O       -0.1250     2.1090    -1.5560 O.3   1 <1>  -0.3630 
 12 C       -2.3140     2.8600    -1.3750 C.ar  1 <1>  -0.1500 
 13 C       -3.4340     3.0170     0.7300 C.ar  1 <1>  -0.1500 
 14 N        3.7370     3.5460     0.4410 N.pl3 1 <1>  -0.8380 
 15 C        0.5570     0.8770    -1.4190 C.3   1 <1>   0.0400 
 16 C       -3.4460     3.1680    -0.6450 C.ar  1 <1>  -0.1500 
 17 C        4.8900     3.7660    -0.2870 C.ar  1 <1>   0.4100 
 18 N        5.4360     2.7210    -0.8990 N.ar  1 <1>  -0.6200 
 19 C        5.4160     5.0540    -0.3600 C.ar  1 <1>  -0.1500 
 20 C        6.5290     2.9700    -1.6010 C.ar  1 <1>   0.1600 
 21 C        6.5520     5.2990    -1.0940 C.ar  1 <1>  -0.1500 
 22 C        7.1200     4.2150    -1.7320 C.ar  1 <1>  -0.1500 
 23 H        1.5040     4.7630     1.5540 H     1 <1>   0.0800 
 24 H        0.3990     4.2880     0.3030 H     1 <1>   0.0800 
 25 H        2.3210     1.2460     2.5540 H     1 <1>   0.0800 
 26 H        2.6710     2.9010     2.9490 H     1 <1>   0.0800 
 27 H       -2.2820     2.4580     2.4340 H     1 <1>   0.1500 
 28 H        2.5950     4.9820    -0.6080 H     1 <1>   0.0800 
 29 H        2.2240     3.3310    -1.0120 H     1 <1>   0.0800 
 30 H        3.4340     1.4540     0.4080 H     1 <1>   0.0800 
 31 H        4.5150     2.0020     1.6540 H     1 <1>   0.0800 
 32 H       -2.3150     2.9680    -2.4450 H     1 <1>   0.1500 
 33 H       -4.3170     3.2460     1.3040 H     1 <1>   0.1500 
 34 H        0.9640     0.6110    -2.3780 H     1 <1>   0.0800 
 35 H       -0.1350     0.1200    -1.0910 H     1 <1>   0.0800 
 36 H        1.3560     0.9910    -0.7100 H     1 <1>   0.0800 
 37 H       -4.3340     3.5180    -1.1430 H     1 <1>   0.1500 
 38 H        4.9190     5.8420     0.1710 H     1 <1>   0.1500 
 39 H        6.9810     2.1320    -2.1020 H     1 <1>   0.1500 
 40 H        6.9800     6.2840    -1.1660 H     1 <1>   0.1500 
 41 H        8.0090     4.3330    -2.3230 H     1 <1>   0.1500 
@<TRIPOS>BOND
  1   1   2  2   
  2   2   3  am  
  3   2   4  1   
  4   3   5  1   
  5   3   6  1   
  6   4   7  ar  
  7   4   8  ar  
  8   5   9  1   
  9   5  23  1   
 10   5  24  1   
 11   6  10  1   
 12   6  25  1   
 13   6  26  1   
 14   7  11  1   
 15   7  12  ar  
 16   8  13  ar  
 17   8  27  1   
 18   9  14  1   
 19   9  28  1   
 20   9  29  1   
 21  10  14  1   
 22  10  30  1   
 23  10  31  1   
 24  11  15  1   
 25  12  16  ar  
 26  12  32  1   
 27  13  16  ar  
 28  13  33  1   
 29  14  17  1   
 30  15  34  1   
 31  15  35  1   
 32  15  36  1   
 33  16  37  1   
 34  17  18  ar  
 35  17  19  ar  
 36  18  20  ar  
 37  19  21  ar  
 38  19  38  1   
 39  20  22  ar  
 40  20  39  1   
 41  21  22  ar  
 42  21  40  1   
 43  22  41  1   
@<TRIPOS>SUBSTRUCTURE
  1 ****   9 GROUP 4 **** **** 0

# MOE 2024.06 (io_trps.svl 2023.06)
