@<TRIPOS>MOLECULE
NONAME
49 50 1 0 0 
SMALL
USER_CHARGES


@<TRIPOS>ATOM
  1 BR       3.0670    -2.6430     3.1250 Br    1 <1>  -0.1110 
  2 C        1.9600    -2.9790     1.5800 C.ar  1 <1>   0.1110 
  3 C        2.4120    -2.6020     0.3220 C.ar  1 <1>   0.0820 
  4 C        0.7380    -3.5910     1.7790 C.ar  1 <1>  -0.1500 
  5 O        3.6290    -2.0050     0.2260 O.3   1 <1>  -0.3630 
  6 C        1.5880    -2.8610    -0.7710 C.ar  1 <1>  -0.1500 
  7 C       -0.0740    -3.8410     0.6840 C.ar  1 <1>  -0.1430 
  8 C        4.1660    -1.6100    -1.0280 C.3   1 <1>   0.1810 
  9 C        0.3590    -3.4750    -0.5840 C.ar  1 <1>  -0.1500 
 10 C       -1.4230    -4.5140     0.8650 C.3   1 <1>  -0.0960 
 11 C        5.5410    -0.9800    -0.8560 C.2   1 <1>   0.5690 
 12 O        6.0090    -0.3540    -1.7840 O.2   1 <1>  -0.5700 
 13 N        6.1950    -1.1270     0.3280 N.am  1 <1>  -0.4300 
 14 N        7.6010    -0.7860     0.5700 N.am  1 <1>  -0.4300 
 15 C        8.6490    -1.6610     0.4880 C.2   1 <1>   0.5440 
 16 O        8.4200    -2.8600     0.4560 O.2   1 <1>  -0.5700 
 17 C       10.0120    -1.1670     0.4720 C.ar  1 <1>   0.0860 
 18 C       11.0360    -1.8590     1.1120 C.ar  1 <1>  -0.1500 
 19 C       10.3610     0.0160    -0.1790 C.ar  1 <1>  -0.1500 
 20 C       12.3370    -1.3880     1.1230 C.ar  1 <1>  -0.1500 
 21 C       11.6600     0.4880    -0.1690 C.ar  1 <1>  -0.1500 
 22 C       12.6780    -0.2000     0.4840 C.ar  1 <1>  -0.1430 
 23 C       14.1150     0.3670     0.4670 C.3   1 <1>   0.1430 
 24 C       15.1190    -0.5060     1.2380 C.3   1 <1>  -0.2400 
 25 C       14.6100     0.4700    -0.9840 C.3   1 <1>  -0.2400 
 26 C       14.1260     1.7630     1.1090 C.3   1 <1>  -0.2400 
 27 H        0.4340    -3.8650     2.7730 H     1 <1>   0.1500 
 28 H        1.8790    -2.5960    -1.7700 H     1 <1>   0.1500 
 29 H        3.5010    -0.8950    -1.4750 H     1 <1>   0.0800 
 30 H        4.2520    -2.4800    -1.6530 H     1 <1>   0.0800 
 31 H       -0.2670    -3.6700    -1.4370 H     1 <1>   0.1500 
 32 H       -1.7860    -4.3730     1.8670 H     1 <1>   0.0800 
 33 H       -1.3340    -5.5690     0.6750 H     1 <1>   0.0800 
 34 H       -2.1440    -4.0980     0.1830 H     1 <1>   0.0800 
 35 H        5.7210    -1.6640     1.0670 H     1 <1>   0.3700 
 36 H        7.8030     0.2100     0.6940 H     1 <1>   0.3700 
 37 H       10.8020    -2.7840     1.6110 H     1 <1>   0.1500 
 38 H        9.6080     0.5710    -0.7120 H     1 <1>   0.1500 
 39 H       13.0710    -1.9770     1.6400 H     1 <1>   0.1500 
 40 H       11.8750     1.4060    -0.6860 H     1 <1>   0.1500 
 41 H       15.1750    -1.4890     0.8070 H     1 <1>   0.0800 
 42 H       14.8300    -0.5910     2.2710 H     1 <1>   0.0800 
 43 H       16.1030    -0.0720     1.2030 H     1 <1>   0.0800 
 44 H       14.5710    -0.4970    -1.4540 H     1 <1>   0.0800 
 45 H       15.6240     0.8270    -1.0160 H     1 <1>   0.0800 
 46 H       14.0000     1.1450    -1.5550 H     1 <1>   0.0800 
 47 H       13.7480     1.7070     2.1150 H     1 <1>   0.0800 
 48 H       13.5130     2.4500     0.5560 H     1 <1>   0.0800 
 49 H       15.1250     2.1590     1.1400 H     1 <1>   0.0800 
@<TRIPOS>BOND
  1   1   2  1   
  2   2   3  ar  
  3   2   4  ar  
  4   3   5  1   
  5   3   6  ar  
  6   4   7  ar  
  7   4  27  1   
  8   5   8  1   
  9   6   9  ar  
 10   6  28  1   
 11   7   9  ar  
 12   7  10  1   
 13   8  11  1   
 14   8  29  1   
 15   8  30  1   
 16   9  31  1   
 17  10  32  1   
 18  10  33  1   
 19  10  34  1   
 20  11  12  2   
 21  11  13  am  
 22  13  14  1   
 23  13  35  1   
 24  14  15  am  
 25  14  36  1   
 26  15  16  2   
 27  15  17  1   
 28  17  18  ar  
 29  17  19  ar  
 30  18  20  ar  
 31  18  37  1   
 32  19  21  ar  
 33  19  38  1   
 34  20  22  ar  
 35  20  39  1   
 36  21  22  ar  
 37  21  40  1   
 38  22  23  1   
 39  23  24  1   
 40  23  25  1   
 41  23  26  1   
 42  24  41  1   
 43  24  42  1   
 44  24  43  1   
 45  25  44  1   
 46  25  45  1   
 47  25  46  1   
 48  26  47  1   
 49  26  48  1   
 50  26  49  1   
@<TRIPOS>SUBSTRUCTURE
  1 ****  14 GROUP 4 **** **** 0

# MOE 2024.06 (io_trps.svl 2023.06)
