@<TRIPOS>MOLECULE
NONAME
39 40 1 0 0 
SMALL
USER_CHARGES


@<TRIPOS>ATOM
  1 O       -0.1620     0.4410    -0.0630 O.3   1 <1>  -0.3630 
  2 C        1.0320     1.0810    -0.0320 C.ar  1 <1>   0.0830 
  3 C       -1.0980     0.5800     0.9810 C.3   1 <1>   0.1200 
  4 C        1.4560     1.8870     1.0190 C.ar  1 <1>  -0.1500 
  5 C        1.8620     0.9070    -1.1270 C.ar  1 <1>  -0.1500 
  6 C       -2.3290    -0.2470     0.6240 C.3   1 <1>  -0.2400 
  7 C        2.6940     2.5040     0.9650 C.ar  1 <1>  -0.1500 
  8 C        3.0980     1.5240    -1.1780 C.ar  1 <1>  -0.1500 
  9 C        3.5300     2.3310    -0.1310 C.ar  1 <1>  -0.1430 
 10 C        4.8880     3.0290    -0.1420 C.3   1 <1>   0.3430 
 11 O        5.2170     3.3610    -1.4430 O.3   1 <1>  -0.6800 
 12 C        6.0220     2.1690     0.4670 C.3   1 <1>  -0.0800 
 13 C        7.3480     2.9580     0.5370 C.3   1 <1>  -0.1600 
 14 C        6.2330     0.8320    -0.2780 C.3   1 <1>  -0.1600 
 15 C        8.5040     2.1100     1.0630 C.3   1 <1>   0.3430 
 16 C        7.4210     0.0400     0.2650 C.3   1 <1>   0.3430 
 17 N        8.6380     0.8920     0.2240 N.4   1 <1>  -0.9060 
 18 H       -1.3530     1.6210     1.0730 H     1 <1>   0.0800 
 19 H       -0.6490     0.2210     1.8910 H     1 <1>   0.0800 
 20 H        0.8380     2.0450     1.8820 H     1 <1>   0.1500 
 21 H        1.5280     0.2840    -1.9380 H     1 <1>   0.1500 
 22 H       -2.7590     0.1080    -0.2950 H     1 <1>   0.0800 
 23 H       -3.0650    -0.1610     1.4030 H     1 <1>   0.0800 
 24 H       -2.0600    -1.2830     0.5180 H     1 <1>   0.0800 
 25 H        3.0000     3.1250     1.7890 H     1 <1>   0.1500 
 26 H        3.7190     1.3680    -2.0440 H     1 <1>   0.1500 
 27 H        4.8070     3.9550     0.4040 H     1 <1>   0.0800 
 28 H        4.4280     3.7510    -1.8700 H     1 <1>   0.4000 
 29 H        5.7250     1.9370     1.4760 H     1 <1>   0.0800 
 30 H        7.2220     3.8120     1.1800 H     1 <1>   0.0800 
 31 H        7.6100     3.3330    -0.4380 H     1 <1>   0.0800 
 32 H        6.3810     1.0100    -1.3290 H     1 <1>   0.0800 
 33 H        5.3510     0.2220    -0.1800 H     1 <1>   0.0800 
 34 H        8.3130     1.8310     2.0870 H     1 <1>   0.0800 
 35 H        9.4170     2.6850     1.0320 H     1 <1>   0.0800 
 36 H        7.5660    -0.8470    -0.3320 H     1 <1>   0.0800 
 37 H        7.2190    -0.2630     1.2800 H     1 <1>   0.0800 
 38 H        9.4600     0.3480     0.5160 H     1 <1>   0.4500 
 39 H        8.7940     1.1840    -0.7500 H     1 <1>   0.4500 
@<TRIPOS>BOND
  1   1   2  1   
  2   1   3  1   
  3   2   4  ar  
  4   2   5  ar  
  5   3   6  1   
  6   3  18  1   
  7   3  19  1   
  8   4   7  ar  
  9   4  20  1   
 10   5   8  ar  
 11   5  21  1   
 12   6  22  1   
 13   6  23  1   
 14   6  24  1   
 15   7   9  ar  
 16   7  25  1   
 17   8   9  ar  
 18   8  26  1   
 19   9  10  1   
 20  10  11  1   
 21  10  12  1   
 22  10  27  1   
 23  11  28  1   
 24  12  13  1   
 25  12  14  1   
 26  12  29  1   
 27  13  15  1   
 28  13  30  1   
 29  13  31  1   
 30  14  16  1   
 31  14  32  1   
 32  14  33  1   
 33  15  17  1   
 34  15  34  1   
 35  15  35  1   
 36  16  17  1   
 37  16  36  1   
 38  16  37  1   
 39  17  38  1   
 40  17  39  1   
@<TRIPOS>SUBSTRUCTURE
  1 ****   9 GROUP 4 **** **** 0

# MOE 2024.06 (io_trps.svl 2023.06)
