@<TRIPOS>MOLECULE
NONAME
21 20 1 0 0 
SMALL
USER_CHARGES


@<TRIPOS>ATOM
  1 O       -1.5530     0.6570     1.6760 O.co2 1 <1>  -0.9000 
  2 C       -1.0390     1.1080     0.6490 C.2   1 <1>   0.9060 
  3 O       -0.2950     0.4430    -0.0740 O.co2 1 <1>  -0.9000 
  4 C       -1.3860     2.5180     0.2260 C.3   1 <1>  -0.2660 
  5 C       -2.5200     2.5750    -0.8180 C.3   1 <1>  -0.1600 
  6 C       -3.8610     2.0170    -0.2780 C.3   1 <1>  -0.0190 
  7 C       -4.3110     0.7720    -1.0560 C.2   1 <1>   0.4480 
  8 C       -4.9350     3.1220    -0.2710 C.3   1 <1>  -0.2400 
  9 O       -5.2220     0.7910    -1.8330 O.2   1 <1>  -0.5700 
 10 C       -3.5580    -0.5160    -0.7990 C.3   1 <1>  -0.1790 
 11 H       -0.4970     2.9550    -0.1850 H     1 <1>   0.0800 
 12 H       -1.6580     3.0730     1.1030 H     1 <1>   0.0800 
 13 H       -2.2110     2.0140    -1.6840 H     1 <1>   0.0800 
 14 H       -2.6390     3.5960    -1.1350 H     1 <1>   0.0800 
 15 H       -3.7340     1.7110     0.7450 H     1 <1>   0.0800 
 16 H       -5.1200     3.4700    -1.2720 H     1 <1>   0.0800 
 17 H       -4.6140     3.9490     0.3370 H     1 <1>   0.0800 
 18 H       -5.8540     2.7350     0.1310 H     1 <1>   0.0800 
 19 H       -3.4730    -0.6910     0.2580 H     1 <1>   0.0800 
 20 H       -2.5700    -0.4530    -1.2160 H     1 <1>   0.0800 
 21 H       -4.0740    -1.3410    -1.2510 H     1 <1>   0.0800 
@<TRIPOS>BOND
  1   1   2  ar  
  2   2   3  ar  
  3   2   4  1   
  4   4   5  1   
  5   4  11  1   
  6   4  12  1   
  7   5   6  1   
  8   5  13  1   
  9   5  14  1   
 10   6   7  1   
 11   6   8  1   
 12   6  15  1   
 13   7   9  2   
 14   7  10  1   
 15   8  16  1   
 16   8  17  1   
 17   8  18  1   
 18  10  19  1   
 19  10  20  1   
 20  10  21  1   
@<TRIPOS>SUBSTRUCTURE
  1 ****   6 GROUP 4 **** **** 0

# MOE 2024.06 (io_trps.svl 2023.06)
