@<TRIPOS>MOLECULE
NONAME
40 40 1 0 0 
SMALL
USER_CHARGES


@<TRIPOS>ATOM
  1 O        0.5430    -0.2290    -0.4240 O.3   1 <1>  -0.3630 
  2 C       -0.6860    -0.8030    -0.4330 C.ar  1 <1>   0.0830 
  3 C        1.7130    -1.0020    -0.3180 C.3   1 <1>   0.1200 
  4 C       -0.9030    -2.1760    -0.3420 C.ar  1 <1>  -0.1500 
  5 C       -1.7710     0.0520    -0.5410 C.ar  1 <1>  -0.1500 
  6 C        2.9010    -0.0380    -0.3390 C.3   1 <1>  -0.1600 
  7 C       -2.1940    -2.6760    -0.3590 C.ar  1 <1>  -0.1500 
  8 C       -3.0610    -0.4490    -0.5580 C.ar  1 <1>  -0.1500 
  9 C        4.2430    -0.7770    -0.2280 C.3   1 <1>  -0.1600 
 10 C       -3.2720    -1.8140    -0.4670 C.ar  1 <1>  -0.1500 
 11 C        5.4010     0.2180    -0.2520 C.3   1 <1>   0.3430 
 12 N        6.6830    -0.5240    -0.1440 N.4   1 <1>  -0.9060 
 13 C        7.9110     0.2750    -0.1510 C.3   1 <1>   0.5030 
 14 C        9.0660    -0.7140    -0.0300 C.3   1 <1>  -0.2400 
 15 C        7.9160     1.2270     1.0440 C.3   1 <1>  -0.2400 
 16 C        8.0210     1.0430    -1.4670 C.3   1 <1>  -0.2400 
 17 H        1.7460    -1.6790    -1.1550 H     1 <1>   0.0800 
 18 H        1.6720    -1.5500     0.6080 H     1 <1>   0.0800 
 19 H       -0.0880    -2.8690    -0.2570 H     1 <1>   0.1500 
 20 H       -1.5990     1.1100    -0.6110 H     1 <1>   0.1500 
 21 H        2.7950     0.6490     0.4840 H     1 <1>   0.0800 
 22 H        2.8680     0.5210    -1.2590 H     1 <1>   0.0800 
 23 H       -2.3620    -3.7360    -0.2880 H     1 <1>   0.1500 
 24 H       -3.8970     0.2220    -0.6420 H     1 <1>   0.1500 
 25 H        4.3320    -1.4620    -1.0550 H     1 <1>   0.0800 
 26 H        4.2590    -1.3340     0.6930 H     1 <1>   0.0800 
 27 H       -4.2750    -2.2050    -0.4800 H     1 <1>   0.1500 
 28 H        5.2990     0.9070     0.5710 H     1 <1>   0.0800 
 29 H        5.3720     0.7800    -1.1730 H     1 <1>   0.0800 
 30 H        6.7510    -1.1930    -0.9170 H     1 <1>   0.4500 
 31 H        6.6820    -1.0730     0.7200 H     1 <1>   0.4500 
 32 H        9.0080    -1.2710     0.8880 H     1 <1>   0.0800 
 33 H       10.0030    -0.1840    -0.0300 H     1 <1>   0.0800 
 34 H        9.0810    -1.3990    -0.8600 H     1 <1>   0.0800 
 35 H        7.7890     0.6910     1.9690 H     1 <1>   0.0800 
 36 H        7.1510     1.9770     0.9590 H     1 <1>   0.0800 
 37 H        8.8600     1.7420     1.0920 H     1 <1>   0.0800 
 38 H        7.2560     1.7930    -1.5550 H     1 <1>   0.0800 
 39 H        8.9690     1.5520    -1.5100 H     1 <1>   0.0800 
 40 H        7.9680     0.3790    -2.3110 H     1 <1>   0.0800 
@<TRIPOS>BOND
  1   1   2  1   
  2   1   3  1   
  3   2   4  ar  
  4   2   5  ar  
  5   3   6  1   
  6   3  17  1   
  7   3  18  1   
  8   4   7  ar  
  9   4  19  1   
 10   5   8  ar  
 11   5  20  1   
 12   6   9  1   
 13   6  21  1   
 14   6  22  1   
 15   7  10  ar  
 16   7  23  1   
 17   8  10  ar  
 18   8  24  1   
 19   9  11  1   
 20   9  25  1   
 21   9  26  1   
 22  10  27  1   
 23  11  12  1   
 24  11  28  1   
 25  11  29  1   
 26  12  13  1   
 27  12  30  1   
 28  12  31  1   
 29  13  14  1   
 30  13  15  1   
 31  13  16  1   
 32  14  32  1   
 33  14  33  1   
 34  14  34  1   
 35  15  35  1   
 36  15  36  1   
 37  15  37  1   
 38  16  38  1   
 39  16  39  1   
 40  16  40  1   
@<TRIPOS>SUBSTRUCTURE
  1 ****   6 GROUP 4 **** **** 0

# MOE 2024.06 (io_trps.svl 2023.06)
