@<TRIPOS>MOLECULE
NONAME
52 55 1 0 0 
SMALL
USER_CHARGES


@<TRIPOS>ATOM
  1 O       -0.1570    -0.9010    -0.5370 O.2   1 <1>  -0.5700 
  2 C        0.9750    -1.2210    -0.3370 C.2   1 <1>   0.4480 
  3 C        1.4890    -2.6510    -0.5680 C.3   1 <1>   0.0610 
  4 C        2.0150    -0.2600     0.2620 C.3   1 <1>   0.0610 
  5 C        0.4990    -3.6620    -1.2350 C.3   1 <1>  -0.0800 
  6 C        1.9060    -3.1660     0.8150 C.3   1 <1>   0.3430 
  7 C        2.7840    -2.5560    -1.3910 C.3   1 <1>   0.1100 
  8 C        1.5740     1.2280     0.4590 C.3   1 <1>  -0.0800 
  9 C        2.3920    -0.8760     1.6170 C.3   1 <1>   0.3430 
 10 C        3.2830    -0.3260    -0.6120 C.3   1 <1>   0.1100 
 11 C        0.0420    -3.2430    -2.6460 C.3   1 <1>  -0.2400 
 12 C       -0.7480    -3.9780    -0.3850 C.3   1 <1>  -0.2400 
 13 N        2.9350    -2.2620     1.4380 N.4   1 <1>  -0.9590 
 14 N        3.7700    -1.7140    -0.6820 N.3   1 <1>  -0.8100 
 15 C        0.4370     1.4210     1.4820 C.3   1 <1>  -0.2400 
 16 C        1.1850     1.9380    -0.8510 C.3   1 <1>  -0.2400 
 17 C        4.1750    -2.2310     0.6320 C.3   1 <1>   0.8360 
 18 C        4.8550    -3.6080     0.5660 C.ar  1 <1>  -0.1440 
 19 C        5.6230    -3.9500    -0.5430 C.ar  1 <1>  -0.1500 
 20 C        4.7590    -4.5320     1.6070 C.ar  1 <1>  -0.1500 
 21 C        6.2480    -5.1810    -0.6280 C.ar  1 <1>  -0.1500 
 22 C        5.3840    -5.7640     1.5220 C.ar  1 <1>  -0.1500 
 23 C        6.1260    -6.0910     0.4040 C.ar  1 <1>  -0.1500 
 24 H        1.0250    -4.5950    -1.3540 H     1 <1>   0.0800 
 25 H        2.3060    -4.1620     0.7120 H     1 <1>   0.0800 
 26 H        1.0370    -3.2170     1.4510 H     1 <1>   0.0800 
 27 H        3.1900    -3.5400    -1.5610 H     1 <1>   0.0800 
 28 H        2.5840    -2.1220    -2.3570 H     1 <1>   0.0800 
 29 H        2.4220     1.7670     0.8510 H     1 <1>   0.0800 
 30 H        1.5160    -0.9090     2.2460 H     1 <1>   0.0800 
 31 H        3.1280    -0.2520     2.0980 H     1 <1>   0.0800 
 32 H        4.0550     0.3090    -0.2100 H     1 <1>   0.0800 
 33 H        3.0680     0.0190    -1.6110 H     1 <1>   0.0800 
 34 H        0.8720    -3.1360    -3.3190 H     1 <1>   0.0800 
 35 H       -0.6080    -3.9940    -3.0610 H     1 <1>   0.0800 
 36 H       -0.5040    -2.3170    -2.6230 H     1 <1>   0.0800 
 37 H       -1.3480    -3.0990    -0.2250 H     1 <1>   0.0800 
 38 H       -0.4910    -4.4020     0.5680 H     1 <1>   0.0800 
 39 H       -1.3640    -4.6990    -0.8950 H     1 <1>   0.0800 
 40 H        3.2110    -2.6450     2.3450 H     1 <1>   0.4500 
 41 H       -0.4660     0.9280     1.1640 H     1 <1>   0.0800 
 42 H        0.2110     2.4690     1.5830 H     1 <1>   0.0800 
 43 H        0.7030     1.0610     2.4590 H     1 <1>   0.0800 
 44 H        0.3310     1.4720    -1.3120 H     1 <1>   0.0800 
 45 H        1.9940     1.9470    -1.5580 H     1 <1>   0.0800 
 46 H        0.9260     2.9640    -0.6530 H     1 <1>   0.0800 
 47 H        4.8780    -1.5390     1.0710 H     1 <1>   0.0800 
 48 H        5.7470    -3.2580    -1.3610 H     1 <1>   0.1500 
 49 H        4.2090    -4.3250     2.5070 H     1 <1>   0.1500 
 50 H        6.8350    -5.4310    -1.4960 H     1 <1>   0.1500 
 51 H        5.3010    -6.4730     2.3280 H     1 <1>   0.1500 
 52 H        6.6140    -7.0490     0.3380 H     1 <1>   0.1500 
@<TRIPOS>BOND
  1   1   2  2   
  2   2   3  1   
  3   2   4  1   
  4   3   5  1   
  5   3   6  1   
  6   3   7  1   
  7   4   8  1   
  8   4   9  1   
  9   4  10  1   
 10   5  11  1   
 11   5  12  1   
 12   5  24  1   
 13   6  13  1   
 14   6  25  1   
 15   6  26  1   
 16   7  14  1   
 17   7  27  1   
 18   7  28  1   
 19   8  15  1   
 20   8  16  1   
 21   8  29  1   
 22   9  13  1   
 23   9  30  1   
 24   9  31  1   
 25  10  14  1   
 26  10  32  1   
 27  10  33  1   
 28  11  34  1   
 29  11  35  1   
 30  11  36  1   
 31  12  37  1   
 32  12  38  1   
 33  12  39  1   
 34  13  17  1   
 35  13  40  1   
 36  14  17  1   
 37  15  41  1   
 38  15  42  1   
 39  15  43  1   
 40  16  44  1   
 41  16  45  1   
 42  16  46  1   
 43  17  18  1   
 44  17  47  1   
 45  18  19  ar  
 46  18  20  ar  
 47  19  21  ar  
 48  19  48  1   
 49  20  22  ar  
 50  20  49  1   
 51  21  23  ar  
 52  21  50  1   
 53  22  23  ar  
 54  22  51  1   
 55  23  52  1   
@<TRIPOS>SUBSTRUCTURE
  1 ****   3 GROUP 4 **** **** 0

# MOE 2024.06 (io_trps.svl 2023.06)
