@<TRIPOS>MOLECULE
NONAME
42 43 1 0 0 
SMALL
USER_CHARGES


@<TRIPOS>ATOM
  1 O       -1.6040     2.2270     1.3680 O.2   1 <1>  -0.5700 
  2 C       -0.9340     2.2080     0.3580 C.2   1 <1>   0.5690 
  3 N        0.4390     2.1190     0.4080 N.am  1 <1>  -0.6600 
  4 C       -1.6630     2.2980    -0.9910 C.3   1 <1>   0.2010 
  5 C        1.3420     2.1070    -0.7780 C.3   1 <1>   0.1400 
  6 C        1.1610     2.0590     1.7100 C.3   1 <1>   0.1400 
  7 N       -3.1460     2.2100    -0.8770 N.am  1 <1>  -0.7300 
  8 C        2.3120     3.2900    -0.6970 C.3   1 <1>  -0.1600 
  9 C        2.1340     3.2380     1.8150 C.3   1 <1>  -0.1600 
 10 C       -3.9810     1.7210    -1.8250 C.2   1 <1>   0.5690 
 11 C        3.1010     3.2850     0.6220 C.3   1 <1>  -0.0800 
 12 O       -3.5710     1.3940    -2.9130 O.2   1 <1>  -0.5700 
 13 C       -5.4630     1.5620    -1.5230 C.3   1 <1>   0.0440 
 14 C        4.0120     4.5140     0.7120 C.3   1 <1>  -0.2400 
 15 C       -5.8980     2.2460    -0.2290 C.ar  1 <1>  -0.1440 
 16 C       -6.4240     3.5280    -0.2570 C.ar  1 <1>  -0.1500 
 17 C       -5.7550     1.5950     0.9870 C.ar  1 <1>  -0.1500 
 18 C       -6.8050     4.1530     0.9180 C.ar  1 <1>  -0.1500 
 19 C       -6.1340     2.2200     2.1620 C.ar  1 <1>  -0.1500 
 20 C       -6.6590     3.4990     2.1290 C.ar  1 <1>  -0.1500 
 21 H       -1.3210     1.5010    -1.6260 H     1 <1>   0.0800 
 22 H       -1.4100     3.2340    -1.4530 H     1 <1>   0.0800 
 23 H        0.7900     2.1650    -1.6980 H     1 <1>   0.0800 
 24 H        1.8970     1.1840    -0.7820 H     1 <1>   0.0800 
 25 H        1.7020     1.1300     1.7680 H     1 <1>   0.0800 
 26 H        0.4690     2.0910     2.5350 H     1 <1>   0.0800 
 27 H       -3.5100     2.4350     0.0590 H     1 <1>   0.3700 
 28 H        1.7510     4.2050    -0.7850 H     1 <1>   0.0800 
 29 H        2.9950     3.2430    -1.5270 H     1 <1>   0.0800 
 30 H        2.6900     3.1510     2.7310 H     1 <1>   0.0800 
 31 H        1.5620     4.1490     1.8640 H     1 <1>   0.0800 
 32 H        3.7190     2.4010     0.6480 H     1 <1>   0.0800 
 33 H       -5.6810     0.5120    -1.4660 H     1 <1>   0.0800 
 34 H       -6.0190     1.9620    -2.3500 H     1 <1>   0.0800 
 35 H        3.4310     5.4190     0.6910 H     1 <1>   0.0800 
 36 H        4.7030     4.5290    -0.1120 H     1 <1>   0.0800 
 37 H        4.5780     4.4920     1.6270 H     1 <1>   0.0800 
 38 H       -6.5380     4.0490    -1.1920 H     1 <1>   0.1500 
 39 H       -5.3440     0.6010     1.0280 H     1 <1>   0.1500 
 40 H       -7.2120     5.1480     0.8910 H     1 <1>   0.1500 
 41 H       -6.0160     1.7110     3.1030 H     1 <1>   0.1500 
 42 H       -6.9520     3.9850     3.0430 H     1 <1>   0.1500 
@<TRIPOS>BOND
  1   1   2  2   
  2   2   3  am  
  3   2   4  1   
  4   3   5  1   
  5   3   6  1   
  6   4   7  1   
  7   4  21  1   
  8   4  22  1   
  9   5   8  1   
 10   5  23  1   
 11   5  24  1   
 12   6   9  1   
 13   6  25  1   
 14   6  26  1   
 15   7  10  am  
 16   7  27  1   
 17   8  11  1   
 18   8  28  1   
 19   8  29  1   
 20   9  11  1   
 21   9  30  1   
 22   9  31  1   
 23  10  12  2   
 24  10  13  1   
 25  11  14  1   
 26  11  32  1   
 27  13  15  1   
 28  13  33  1   
 29  13  34  1   
 30  14  35  1   
 31  14  36  1   
 32  14  37  1   
 33  15  16  ar  
 34  15  17  ar  
 35  16  18  ar  
 36  16  38  1   
 37  17  19  ar  
 38  17  39  1   
 39  18  20  ar  
 40  18  40  1   
 41  19  20  ar  
 42  19  41  1   
 43  20  42  1   
@<TRIPOS>SUBSTRUCTURE
  1 ****   4 GROUP 4 **** **** 0

# MOE 2024.06 (io_trps.svl 2023.06)
