@<TRIPOS>MOLECULE
NONAME
44 45 1 0 0 
SMALL
USER_CHARGES


@<TRIPOS>ATOM
  1 O       -1.9350     1.6300    -2.3540 O.2   1 <1>  -0.5700 
  2 C       -1.8100     1.9250    -1.1900 C.2   1 <1>   0.6590 
  3 O       -1.9340     1.0160    -0.2260 O.3   1 <1>  -0.4300 
  4 C       -1.4820     3.3740    -0.7650 C.3   1 <1>   0.2510 
  5 C       -2.1850    -0.3380    -0.5120 C.3   1 <1>   0.1200 
  6 N       -0.0950     3.5810    -0.2370 N.3   1 <1>  -0.8100 
  7 C       -2.5070     3.8690     0.2730 C.3   1 <1>  -0.1600 
  8 C       -2.2460    -1.0950     0.8110 C.3   1 <1>  -0.2400 
  9 C        0.1650     5.0000     0.0700 C.3   1 <1>   0.1100 
 10 C        0.9230     3.0460    -1.1670 C.3   1 <1>   0.2530 
 11 C       -2.2710     5.3320     0.6610 C.3   1 <1>  -0.1600 
 12 C       -0.8220     5.5110     1.1210 C.3   1 <1>  -0.1600 
 13 C        2.3230     3.1090    -0.5690 C.ar  1 <1>  -0.1430 
 14 C        2.5820     2.5090     0.6530 C.ar  1 <1>  -0.1500 
 15 C        3.3520     3.7590    -1.2380 C.ar  1 <1>  -0.1500 
 16 C        3.8540     2.5580     1.1930 C.ar  1 <1>   0.0820 
 17 C        4.6280     3.8110    -0.6960 C.ar  1 <1>  -0.1500 
 18 O        4.1000     1.9730     2.3770 O.3   1 <1>  -0.5330 
 19 C        4.8910     3.2080     0.5300 C.ar  1 <1>   0.0820 
 20 O        6.1170     3.2120     1.1310 O.3   1 <1>  -0.3620 
 21 C        7.2200     3.8470     0.5210 C.3   1 <1>   0.0400 
 22 H       -1.5920     3.9780    -1.6480 H     1 <1>   0.0800 
 23 H       -1.3860    -0.7080    -1.1320 H     1 <1>   0.0800 
 24 H       -3.1190    -0.4080    -1.0440 H     1 <1>   0.0800 
 25 H       -2.4380     3.2510     1.1520 H     1 <1>   0.0800 
 26 H       -3.5000     3.7620    -0.1260 H     1 <1>   0.0800 
 27 H       -1.3100    -1.0000     1.3330 H     1 <1>   0.0800 
 28 H       -2.4320    -2.1370     0.6250 H     1 <1>   0.0800 
 29 H       -3.0400    -0.7070     1.4230 H     1 <1>   0.0800 
 30 H        0.0850     5.5900    -0.8270 H     1 <1>   0.0800 
 31 H        1.1620     5.1150     0.4620 H     1 <1>   0.0800 
 32 H        0.8890     3.5900    -2.0950 H     1 <1>   0.0800 
 33 H        0.7180     2.0120    -1.3810 H     1 <1>   0.0800 
 34 H       -2.9440     5.6170     1.4510 H     1 <1>   0.0800 
 35 H       -2.4600     5.9670    -0.1880 H     1 <1>   0.0800 
 36 H       -0.6280     6.5500     1.3160 H     1 <1>   0.0800 
 37 H       -0.6590     4.9680     2.0370 H     1 <1>   0.0800 
 38 H        1.7960     2.0080     1.1900 H     1 <1>   0.1500 
 39 H        3.1640     4.2290    -2.1870 H     1 <1>   0.1500 
 40 H        5.3950     4.3230    -1.2440 H     1 <1>   0.1500 
 41 H        5.0400     2.1070     2.6080 H     1 <1>   0.4500 
 42 H        6.9980     4.8930     0.4020 H     1 <1>   0.0800 
 43 H        7.4100     3.3820    -0.4300 H     1 <1>   0.0800 
 44 H        8.0730     3.7260     1.1640 H     1 <1>   0.0800 
@<TRIPOS>BOND
  1   1   2  2   
  2   2   3  1   
  3   2   4  1   
  4   3   5  1   
  5   4   6  1   
  6   4   7  1   
  7   4  22  1   
  8   5   8  1   
  9   5  23  1   
 10   5  24  1   
 11   6   9  1   
 12   6  10  1   
 13   7  11  1   
 14   7  25  1   
 15   7  26  1   
 16   8  27  1   
 17   8  28  1   
 18   8  29  1   
 19   9  12  1   
 20   9  30  1   
 21   9  31  1   
 22  10  13  1   
 23  10  32  1   
 24  10  33  1   
 25  11  12  1   
 26  11  34  1   
 27  11  35  1   
 28  12  36  1   
 29  12  37  1   
 30  13  14  ar  
 31  13  15  ar  
 32  14  16  ar  
 33  14  38  1   
 34  15  17  ar  
 35  15  39  1   
 36  16  18  1   
 37  16  19  ar  
 38  17  19  ar  
 39  17  40  1   
 40  18  41  1   
 41  19  20  1   
 42  20  21  1   
 43  21  42  1   
 44  21  43  1   
 45  21  44  1   
@<TRIPOS>SUBSTRUCTURE
  1 ****  10 GROUP 4 **** **** 0

# MOE 2024.06 (io_trps.svl 2023.06)
