@<TRIPOS>MOLECULE
NONAME
54 56 1 0 0 
SMALL
USER_CHARGES


@<TRIPOS>ATOM
  1 O       -0.0170    -0.4280    -0.4680 O.3   1 <1>  -0.3630 
  2 C       -1.1730    -1.1580    -0.3730 C.ar  1 <1>   0.0830 
  3 C        0.0170     0.8030    -1.1540 C.3   1 <1>   0.1200 
  4 C       -1.1140    -2.4220     0.2450 C.ar  1 <1>   0.1000 
  5 C       -2.3880    -0.6890    -0.8640 C.ar  1 <1>  -0.1500 
  6 C        1.4520     1.3200    -1.1220 C.3   1 <1>  -0.2400 
  7 N        0.0590    -2.9810     0.7720 N.pl3 1 <1>  -0.8380 
  8 C       -2.2770    -3.1710     0.3450 C.ar  1 <1>  -0.1500 
  9 C       -3.5350    -1.4570    -0.7510 C.ar  1 <1>  -0.1500 
 10 C        0.5960    -2.2580     1.9650 C.3   1 <1>   0.2090 
 11 C        1.0930    -3.3170    -0.2550 C.3   1 <1>   0.2090 
 12 C       -3.4800    -2.6980    -0.1470 C.ar  1 <1>  -0.1500 
 13 C        1.8100    -2.9920     2.5680 C.3   1 <1>   0.3430 
 14 C        2.3070    -4.0260     0.3750 C.3   1 <1>   0.3430 
 15 N        2.8780    -3.2600     1.5430 N.4   1 <1>  -0.9590 
 16 C        4.0500    -3.9680     2.1200 C.3   1 <1>   0.4860 
 17 C        5.1810    -3.9280     1.1140 C.ar  1 <1>  -0.1430 
 18 C        5.4040    -5.0210     0.2840 C.ar  1 <1>   0.0830 
 19 C        5.9900    -2.8050     1.0170 C.ar  1 <1>  -0.1500 
 20 O        4.5710    -6.0870     0.4340 O.3   1 <1>  -0.3630 
 21 C        6.4390    -4.9750    -0.6460 C.ar  1 <1>  -0.1500 
 22 C        7.0160    -2.7670     0.0900 C.ar  1 <1>  -0.1500 
 23 C        4.7060    -7.2820    -0.3100 C.3   1 <1>   0.1200 
 24 C        7.2380    -3.8500    -0.7410 C.ar  1 <1>  -0.1500 
 25 C        4.0110    -7.1150    -1.6630 C.3   1 <1>  -0.2400 
 26 H       -0.6460     1.4900    -0.6580 H     1 <1>   0.0800 
 27 H       -0.3050     0.6380    -2.1680 H     1 <1>   0.0800 
 28 H       -2.4740     0.2690    -1.3380 H     1 <1>   0.1500 
 29 H        1.7690     1.4720    -0.1070 H     1 <1>   0.0800 
 30 H        1.5070     2.2610    -1.6410 H     1 <1>   0.0800 
 31 H        2.1090     0.6230    -1.6100 H     1 <1>   0.0800 
 32 H       -2.2340    -4.1360     0.8150 H     1 <1>   0.1500 
 33 H       -4.4710    -1.0870    -1.1340 H     1 <1>   0.1500 
 34 H       -0.1820    -2.1850     2.7060 H     1 <1>   0.0800 
 35 H        0.8810    -1.2580     1.6920 H     1 <1>   0.0800 
 36 H        1.4220    -2.4230    -0.7540 H     1 <1>   0.0800 
 37 H        0.6510    -3.9610    -0.9970 H     1 <1>   0.0800 
 38 H       -4.3710    -3.2960    -0.0590 H     1 <1>   0.1500 
 39 H        1.4640    -3.9250     2.9810 H     1 <1>   0.0800 
 40 H        2.2110    -2.3990     3.3730 H     1 <1>   0.0800 
 41 H        3.0620    -4.1590    -0.3820 H     1 <1>   0.0800 
 42 H        1.9970    -5.0040     0.7010 H     1 <1>   0.0800 
 43 H        3.2130    -2.3640     1.1710 H     1 <1>   0.4500 
 44 H        3.7940    -4.9900     2.3510 H     1 <1>   0.0800 
 45 H        4.3680    -3.4830     3.0280 H     1 <1>   0.0800 
 46 H        5.8400    -1.9530     1.6580 H     1 <1>   0.1500 
 47 H        6.6420    -5.7970    -1.3060 H     1 <1>   0.1500 
 48 H        7.6470    -1.8970     0.0130 H     1 <1>   0.1500 
 49 H        4.2250    -8.0650     0.2510 H     1 <1>   0.0800 
 50 H        5.7480    -7.5320    -0.4090 H     1 <1>   0.0800 
 51 H        8.0380    -3.8180    -1.4610 H     1 <1>   0.1500 
 52 H        2.9660    -6.9110    -1.5220 H     1 <1>   0.0800 
 53 H        4.1020    -8.0270    -2.2260 H     1 <1>   0.0800 
 54 H        4.4600    -6.3230    -2.2330 H     1 <1>   0.0800 
@<TRIPOS>BOND
  1   1   2  1   
  2   1   3  1   
  3   2   4  ar  
  4   2   5  ar  
  5   3   6  1   
  6   3  26  1   
  7   3  27  1   
  8   4   7  1   
  9   4   8  ar  
 10   5   9  ar  
 11   5  28  1   
 12   6  29  1   
 13   6  30  1   
 14   6  31  1   
 15   7  10  1   
 16   7  11  1   
 17   8  12  ar  
 18   8  32  1   
 19   9  12  ar  
 20   9  33  1   
 21  10  13  1   
 22  10  34  1   
 23  10  35  1   
 24  11  14  1   
 25  11  36  1   
 26  11  37  1   
 27  12  38  1   
 28  13  15  1   
 29  13  39  1   
 30  13  40  1   
 31  14  15  1   
 32  14  41  1   
 33  14  42  1   
 34  15  16  1   
 35  15  43  1   
 36  16  17  1   
 37  16  44  1   
 38  16  45  1   
 39  17  18  ar  
 40  17  19  ar  
 41  18  20  1   
 42  18  21  ar  
 43  19  22  ar  
 44  19  46  1   
 45  20  23  1   
 46  21  24  ar  
 47  21  47  1   
 48  22  24  ar  
 49  22  48  1   
 50  23  25  1   
 51  23  49  1   
 52  23  50  1   
 53  24  51  1   
 54  25  52  1   
 55  25  53  1   
 56  25  54  1   
@<TRIPOS>SUBSTRUCTURE
  1 ****  14 GROUP 4 **** **** 0

# MOE 2024.06 (io_trps.svl 2023.06)
