@<TRIPOS>MOLECULE
NONAME
39 41 1 0 0 
SMALL
USER_CHARGES


@<TRIPOS>ATOM
  1 O        0.7330    -0.5080    -2.6480 O.2   1 <1>  -0.5700 
  2 C        0.2270    -1.4490    -2.0790 C.2   1 <1>   0.5690 
  3 N        0.9840    -2.3540    -1.3680 N.am  1 <1>  -0.6600 
  4 C       -1.2860    -1.6040    -2.2120 C.3   1 <1>   0.1810 
  5 C        0.4410    -3.5500    -0.6620 C.3   1 <1>   0.1400 
  6 C        2.4250    -2.1110    -1.0910 C.3   1 <1>   0.1400 
  7 O       -1.9210    -1.5930    -0.9400 O.3   1 <1>  -0.3620 
  8 C        0.5840    -3.3560     0.8550 C.3   1 <1>  -0.0800 
  9 C        2.6230    -1.9160     0.4170 C.3   1 <1>  -0.1600 
 10 C       -3.1700    -2.0970    -0.7950 C.ar  1 <1>   0.0820 
 11 C        2.0530    -3.0910     1.2290 C.3   1 <1>  -0.1600 
 12 C        0.0440    -4.5750     1.6130 C.3   1 <1>  -0.2400 
 13 C       -3.5170    -2.5440     0.4750 C.ar  1 <1>  -0.1500 
 14 C       -4.0850    -2.1840    -1.8510 C.ar  1 <1>  -0.1500 
 15 C       -4.7750    -3.0820     0.6520 C.ar  1 <1>   0.0820 
 16 C       -5.3470    -2.7290    -1.6480 C.ar  1 <1>  -0.1500 
 17 O       -5.3160    -3.5760     1.7710 O.3   1 <1>  -0.3630 
 18 C       -5.6630    -3.1740    -0.3790 C.ar  1 <1>   0.0820 
 19 C       -6.6340    -4.0030     1.4330 C.3   1 <1>   0.4000 
 20 O       -6.8060    -3.7290     0.0430 O.3   1 <1>  -0.3630 
 21 H       -1.5020    -2.5360    -2.7000 H     1 <1>   0.0800 
 22 H       -1.6830    -0.7890    -2.7890 H     1 <1>   0.0800 
 23 H        0.9990    -4.4180    -0.9700 H     1 <1>   0.0800 
 24 H       -0.5900    -3.7200    -0.9120 H     1 <1>   0.0800 
 25 H        2.7740    -1.2380    -1.6170 H     1 <1>   0.0800 
 26 H        2.9970    -2.9570    -1.4330 H     1 <1>   0.0800 
 27 H       -0.0070    -2.4990     1.1350 H     1 <1>   0.0800 
 28 H        2.1340    -1.0030     0.7100 H     1 <1>   0.0800 
 29 H        3.6720    -1.8060     0.6260 H     1 <1>   0.0800 
 30 H        2.6390    -3.9720     1.0320 H     1 <1>   0.0800 
 31 H        2.1270    -2.8690     2.2800 H     1 <1>   0.0800 
 32 H        0.5990    -5.4600     1.3570 H     1 <1>   0.0800 
 33 H       -0.9920    -4.7350     1.3710 H     1 <1>   0.0800 
 34 H        0.1210    -4.4150     2.6750 H     1 <1>   0.0800 
 35 H       -2.8270    -2.4740     1.2940 H     1 <1>   0.1500 
 36 H       -3.8330    -1.8240    -2.8310 H     1 <1>   0.1500 
 37 H       -6.0660    -2.8060    -2.4430 H     1 <1>   0.1500 
 38 H       -7.3530    -3.4410     2.0030 H     1 <1>   0.0800 
 39 H       -6.7270    -5.0610     1.6070 H     1 <1>   0.0800 
@<TRIPOS>BOND
  1   1   2  2   
  2   2   3  am  
  3   2   4  1   
  4   3   5  1   
  5   3   6  1   
  6   4   7  1   
  7   4  21  1   
  8   4  22  1   
  9   5   8  1   
 10   5  23  1   
 11   5  24  1   
 12   6   9  1   
 13   6  25  1   
 14   6  26  1   
 15   7  10  1   
 16   8  11  1   
 17   8  12  1   
 18   8  27  1   
 19   9  11  1   
 20   9  28  1   
 21   9  29  1   
 22  10  13  ar  
 23  10  14  ar  
 24  11  30  1   
 25  11  31  1   
 26  12  32  1   
 27  12  33  1   
 28  12  34  1   
 29  13  15  ar  
 30  13  35  1   
 31  14  16  ar  
 32  14  36  1   
 33  15  17  1   
 34  15  18  ar  
 35  16  18  ar  
 36  16  37  1   
 37  17  19  1   
 38  18  20  1   
 39  19  20  1   
 40  19  38  1   
 41  19  39  1   
@<TRIPOS>SUBSTRUCTURE
  1 ****   7 GROUP 4 **** **** 0

# MOE 2024.06 (io_trps.svl 2023.06)
