@<TRIPOS>MOLECULE
NONAME
38 39 1 0 0 
SMALL
USER_CHARGES


@<TRIPOS>ATOM
  1 O       -0.3750    -0.3120    -0.2280 O.3   1 <1>  -0.3630 
  2 C       -1.6260    -0.8140    -0.0810 C.ar  1 <1>   0.0830 
  3 C        0.7600    -1.0440     0.1630 C.3   1 <1>   0.1200 
  4 C       -1.9020    -2.0680     0.4600 C.ar  1 <1>  -0.1500 
  5 C       -2.6730    -0.0090    -0.5030 C.ar  1 <1>  -0.1500 
  6 C        1.9880    -0.1850    -0.1440 C.3   1 <1>  -0.1600 
  7 C       -3.2130    -2.5000     0.5720 C.ar  1 <1>  -0.1500 
  8 C       -3.9820    -0.4430    -0.3900 C.ar  1 <1>  -0.1500 
  9 C        3.2950    -0.8950     0.2390 C.3   1 <1>  -0.1600 
 10 C       -4.2520    -1.6890     0.1480 C.ar  1 <1>  -0.1500 
 11 C        4.4970    -0.0030    -0.0760 C.3   1 <1>   0.3430 
 12 N        5.7600    -0.6570     0.3610 N.4   1 <1>  -0.9590 
 13 C        6.9270     0.2560     0.2980 C.3   1 <1>   0.3430 
 14 C        6.1400    -1.8490    -0.4390 C.3   1 <1>   0.3430 
 15 C        8.1340    -0.6710     0.3220 C.3   1 <1>  -0.1600 
 16 C        7.6270    -2.0310    -0.1670 C.3   1 <1>  -0.1600 
 17 H        0.7780    -1.9630    -0.3980 H     1 <1>   0.0800 
 18 H        0.6820    -1.2490     1.2170 H     1 <1>   0.0800 
 19 H       -1.1190    -2.7180     0.7970 H     1 <1>   0.1500 
 20 H       -2.4550     0.9580    -0.9190 H     1 <1>   0.1500 
 21 H        1.9020     0.7390     0.4030 H     1 <1>   0.0800 
 22 H        1.9910     0.0390    -1.1970 H     1 <1>   0.0800 
 23 H       -3.4270    -3.4680     0.9890 H     1 <1>   0.1500 
 24 H       -4.7880     0.1890    -0.7200 H     1 <1>   0.1500 
 25 H        3.3610    -1.8160    -0.3120 H     1 <1>   0.0800 
 26 H        3.2750    -1.1170     1.2920 H     1 <1>   0.0800 
 27 H       -5.2700    -2.0280     0.2360 H     1 <1>   0.1500 
 28 H        4.3790     0.9360     0.4420 H     1 <1>   0.0800 
 29 H        4.5330     0.2020    -1.1350 H     1 <1>   0.0800 
 30 H        5.6610    -0.9580     1.3400 H     1 <1>   0.4500 
 31 H        6.9390     0.9510     1.1230 H     1 <1>   0.0800 
 32 H        6.9140     0.8030    -0.6320 H     1 <1>   0.0800 
 33 H        5.9890    -1.6480    -1.4880 H     1 <1>   0.0800 
 34 H        5.5720    -2.7210    -0.1550 H     1 <1>   0.0800 
 35 H        8.5130    -0.7510     1.3270 H     1 <1>   0.0800 
 36 H        8.9180    -0.2850    -0.3070 H     1 <1>   0.0800 
 37 H        8.1350    -2.3490    -1.0610 H     1 <1>   0.0800 
 38 H        7.7710    -2.7810     0.5920 H     1 <1>   0.0800 
@<TRIPOS>BOND
  1   1   2  1   
  2   1   3  1   
  3   2   4  ar  
  4   2   5  ar  
  5   3   6  1   
  6   3  17  1   
  7   3  18  1   
  8   4   7  ar  
  9   4  19  1   
 10   5   8  ar  
 11   5  20  1   
 12   6   9  1   
 13   6  21  1   
 14   6  22  1   
 15   7  10  ar  
 16   7  23  1   
 17   8  10  ar  
 18   8  24  1   
 19   9  11  1   
 20   9  25  1   
 21   9  26  1   
 22  10  27  1   
 23  11  12  1   
 24  11  28  1   
 25  11  29  1   
 26  12  13  1   
 27  12  14  1   
 28  12  30  1   
 29  13  15  1   
 30  13  31  1   
 31  13  32  1   
 32  14  16  1   
 33  14  33  1   
 34  14  34  1   
 35  15  16  1   
 36  15  35  1   
 37  15  36  1   
 38  16  37  1   
 39  16  38  1   
@<TRIPOS>SUBSTRUCTURE
  1 ****   6 GROUP 4 **** **** 0

# MOE 2024.06 (io_trps.svl 2023.06)
