@<TRIPOS>MOLECULE
NONAME
41 41 1 0 0 
SMALL
USER_CHARGES


@<TRIPOS>ATOM
  1 CL      -0.3280     1.4080    -2.0010 Cl    1 <1>  -0.1770 
  2 C       -0.5210     2.5960    -0.7320 C.ar  1 <1>   0.1770 
  3 C       -1.6100     2.5420     0.1270 C.ar  1 <1>  -0.1440 
  4 C        0.4470     3.5820    -0.6220 C.ar  1 <1>  -0.1500 
  5 C       -1.6800     3.5220     1.1060 C.ar  1 <1>   0.1900 
  6 C       -2.6810     1.4670     0.0240 C.3   1 <1>   0.2540 
  7 C        0.3440     4.5490     0.3660 C.ar  1 <1>  -0.1500 
  8 F       -2.6760     3.5150     1.9540 F     1 <1>  -0.1900 
  9 C       -0.7300     4.5190     1.2400 C.ar  1 <1>  -0.1500 
 10 N       -3.9040     2.0120    -0.6050 N.3   1 <1>  -0.8100 
 11 C       -5.0800     1.1770    -0.3400 C.3   1 <1>   0.1100 
 12 C       -3.6990     2.2630    -2.0440 C.3   1 <1>   0.0300 
 13 C       -6.3470     2.0450    -0.4220 C.3   1 <1>   0.3430 
 14 N       -7.5690     1.3420     0.0990 N.4   1 <1>  -0.9590 
 15 C       -7.9780     0.2270    -0.7980 C.3   1 <1>   0.3430 
 16 C       -8.6810     2.3090     0.3100 C.3   1 <1>   0.3430 
 17 C       -8.8540    -0.7520    -0.0240 C.3   1 <1>  -0.2400 
 18 C       -8.4250     3.1110     1.5810 C.3   1 <1>  -0.2400 
 19 H        1.2750     3.5900    -1.3080 H     1 <1>   0.1500 
 20 H       -2.9050     1.1320     1.0230 H     1 <1>   0.0800 
 21 H       -2.3290     0.6130    -0.5280 H     1 <1>   0.0800 
 22 H        1.0940     5.3170     0.4540 H     1 <1>   0.1500 
 23 H       -0.8320     5.2570     2.0170 H     1 <1>   0.1500 
 24 H       -5.0120     0.7810     0.6590 H     1 <1>   0.0800 
 25 H       -5.1150     0.3600    -1.0400 H     1 <1>   0.0800 
 26 H       -2.9030     2.9750    -2.1850 H     1 <1>   0.0800 
 27 H       -4.5860     2.6760    -2.4890 H     1 <1>   0.0800 
 28 H       -3.4390     1.3510    -2.5560 H     1 <1>   0.0800 
 29 H       -6.5050     2.3510    -1.4420 H     1 <1>   0.0800 
 30 H       -6.1630     2.9290     0.1670 H     1 <1>   0.0800 
 31 H       -7.3340     0.9440     1.0180 H     1 <1>   0.4500 
 32 H       -7.1080    -0.3000    -1.1530 H     1 <1>   0.0800 
 33 H       -8.5110     0.6110    -1.6530 H     1 <1>   0.0800 
 34 H       -9.6140     1.7810     0.4200 H     1 <1>   0.0800 
 35 H       -8.7680     2.9710    -0.5380 H     1 <1>   0.0800 
 36 H       -8.3300    -1.1400     0.8320 H     1 <1>   0.0800 
 37 H       -9.1000    -1.5820    -0.6630 H     1 <1>   0.0800 
 38 H       -9.7760    -0.2990     0.2900 H     1 <1>   0.0800 
 39 H       -8.3340     2.4610     2.4320 H     1 <1>   0.0800 
 40 H       -9.2600     3.7670     1.7560 H     1 <1>   0.0800 
 41 H       -7.5450     3.7230     1.4960 H     1 <1>   0.0800 
@<TRIPOS>BOND
  1   1   2  1   
  2   2   3  ar  
  3   2   4  ar  
  4   3   5  ar  
  5   3   6  1   
  6   4   7  ar  
  7   4  19  1   
  8   5   8  1   
  9   5   9  ar  
 10   6  10  1   
 11   6  20  1   
 12   6  21  1   
 13   7   9  ar  
 14   7  22  1   
 15   9  23  1   
 16  10  11  1   
 17  10  12  1   
 18  11  13  1   
 19  11  24  1   
 20  11  25  1   
 21  12  26  1   
 22  12  27  1   
 23  12  28  1   
 24  13  14  1   
 25  13  29  1   
 26  13  30  1   
 27  14  15  1   
 28  14  16  1   
 29  14  31  1   
 30  15  17  1   
 31  15  32  1   
 32  15  33  1   
 33  16  18  1   
 34  16  34  1   
 35  16  35  1   
 36  17  36  1   
 37  17  37  1   
 38  17  38  1   
 39  18  39  1   
 40  18  40  1   
 41  18  41  1   
@<TRIPOS>SUBSTRUCTURE
  1 ****  10 GROUP 4 **** **** 0

# MOE 2024.06 (io_trps.svl 2023.06)
