@<TRIPOS>MOLECULE
NONAME
50 52 1 0 0 
SMALL
USER_CHARGES


@<TRIPOS>ATOM
  1 S       -0.3060    -0.7510     1.5520 S.3   1 <1>  -0.3320 
  2 C       -1.9120    -1.3630     1.0180 C.ar  1 <1>   0.1020 
  3 C        0.7780    -0.7020     0.0580 C.3   1 <1>  -0.0100 
  4 C       -2.1960    -1.6390    -0.3090 C.ar  1 <1>  -0.1500 
  5 C       -2.8680    -1.5500     1.9990 C.ar  1 <1>  -0.1500 
  6 C       -3.4560    -2.1030    -0.6520 C.ar  1 <1>  -0.1500 
  7 C       -4.1240    -2.0140     1.6540 C.ar  1 <1>  -0.1500 
  8 C       -4.4270    -2.2850     0.3250 C.ar  1 <1>  -0.1430 
  9 C       -5.8130    -2.7720    -0.0530 C.3   1 <1>   0.4860 
 10 N       -6.5590    -1.6430    -0.6690 N.4   1 <1>  -0.9590 
 11 C       -6.7480    -0.4970     0.2980 C.3   1 <1>   0.3430 
 12 C       -7.8820    -2.0870    -1.2420 C.3   1 <1>   0.3430 
 13 C       -7.5040     0.6940    -0.3270 C.3   1 <1>   0.2090 
 14 C       -8.6600    -0.9320    -1.9080 C.3   1 <1>   0.2090 
 15 N       -8.7530     0.2570    -1.0150 N.pl3 1 <1>  -0.8380 
 16 C       -9.9640     0.4760    -0.3590 C.ar  1 <1>   0.1000 
 17 C      -10.8400     1.4710    -0.7920 C.ar  1 <1>  -0.1430 
 18 C      -10.3170    -0.3010     0.7410 C.ar  1 <1>  -0.1500 
 19 C      -12.0380     1.6680    -0.1270 C.ar  1 <1>  -0.1500 
 20 C      -10.4950     2.3460    -1.9890 C.3   1 <1>  -0.0970 
 21 C      -11.5140    -0.1030     1.4040 C.ar  1 <1>  -0.1430 
 22 C      -12.3750     0.8870     0.9640 C.ar  1 <1>  -0.1500 
 23 C      -11.9010    -0.9500     2.6040 C.3   1 <1>  -0.0970 
 24 H        1.7490    -0.3650     0.3740 H     1 <1>   0.0800 
 25 H        0.3480    -0.0120    -0.6450 H     1 <1>   0.0800 
 26 H        0.8340    -1.6960    -0.3460 H     1 <1>   0.0800 
 27 H       -1.4550    -1.5010    -1.0720 H     1 <1>   0.1500 
 28 H       -2.6190    -1.3350     3.0240 H     1 <1>   0.1500 
 29 H       -3.6600    -2.3210    -1.6870 H     1 <1>   0.1500 
 30 H       -4.8530    -2.1610     2.4340 H     1 <1>   0.1500 
 31 H       -6.3300    -3.1290     0.8230 H     1 <1>   0.0800 
 32 H       -5.7240    -3.5870    -0.7530 H     1 <1>   0.0800 
 33 H       -5.9810    -1.2810    -1.4360 H     1 <1>   0.4500 
 34 H       -5.7900    -0.1500     0.6500 H     1 <1>   0.0800 
 35 H       -7.3090    -0.8350     1.1530 H     1 <1>   0.0800 
 36 H       -8.4980    -2.4890    -0.4560 H     1 <1>   0.0800 
 37 H       -7.7270    -2.8660    -1.9710 H     1 <1>   0.0800 
 38 H       -6.8700     1.1960    -1.0370 H     1 <1>   0.0800 
 39 H       -7.7510     1.4050     0.4440 H     1 <1>   0.0800 
 40 H       -9.6520    -1.2680    -2.1590 H     1 <1>   0.0800 
 41 H       -8.1750    -0.6440    -2.8250 H     1 <1>   0.0800 
 42 H       -9.6490    -1.0660     1.0790 H     1 <1>   0.1500 
 43 H      -12.7200     2.4330    -0.4530 H     1 <1>   0.1500 
 44 H      -10.3740     1.7340    -2.8640 H     1 <1>   0.0800 
 45 H       -9.5750     2.8700    -1.8030 H     1 <1>   0.0800 
 46 H      -11.2680     3.0680    -2.1800 H     1 <1>   0.0800 
 47 H      -13.3110     1.0550     1.4680 H     1 <1>   0.1500 
 48 H      -11.1520    -1.6910     2.8150 H     1 <1>   0.0800 
 49 H      -12.8340    -1.4500     2.4120 H     1 <1>   0.0800 
 50 H      -12.0170    -0.3230     3.4700 H     1 <1>   0.0800 
@<TRIPOS>BOND
  1   1   2  1   
  2   1   3  1   
  3   2   4  ar  
  4   2   5  ar  
  5   3  24  1   
  6   3  25  1   
  7   3  26  1   
  8   4   6  ar  
  9   4  27  1   
 10   5   7  ar  
 11   5  28  1   
 12   6   8  ar  
 13   6  29  1   
 14   7   8  ar  
 15   7  30  1   
 16   8   9  1   
 17   9  10  1   
 18   9  31  1   
 19   9  32  1   
 20  10  11  1   
 21  10  12  1   
 22  10  33  1   
 23  11  13  1   
 24  11  34  1   
 25  11  35  1   
 26  12  14  1   
 27  12  36  1   
 28  12  37  1   
 29  13  15  1   
 30  13  38  1   
 31  13  39  1   
 32  14  15  1   
 33  14  40  1   
 34  14  41  1   
 35  15  16  1   
 36  16  17  ar  
 37  16  18  ar  
 38  17  19  ar  
 39  17  20  1   
 40  18  21  ar  
 41  18  42  1   
 42  19  22  ar  
 43  19  43  1   
 44  20  44  1   
 45  20  45  1   
 46  20  46  1   
 47  21  22  ar  
 48  21  23  1   
 49  22  47  1   
 50  23  48  1   
 51  23  49  1   
 52  23  50  1   
@<TRIPOS>SUBSTRUCTURE
  1 ****  11 GROUP 4 **** **** 0

# MOE 2024.06 (io_trps.svl 2023.06)
