@<TRIPOS>MOLECULE
NONAME
47 49 1 0 0 
SMALL
USER_CHARGES


@<TRIPOS>ATOM
  1 F        0.8450    -0.6330     0.5770 F     1 <1>  -0.1900 
  2 C        1.9210    -1.3780     0.5630 C.ar  1 <1>   0.1900 
  3 C        3.0980    -0.8380     0.0830 C.ar  1 <1>  -0.1500 
  4 C        1.8400    -2.6760     1.0290 C.ar  1 <1>  -0.1500 
  5 C        4.2330    -1.6300     0.0680 C.ar  1 <1>  -0.1500 
  6 C        2.9840    -3.4550     1.0090 C.ar  1 <1>  -0.1500 
  7 C        4.1890    -2.9460     0.5300 C.ar  1 <1>   0.1000 
  8 N        5.3160    -3.7650     0.5160 N.pl3 1 <1>  -0.8380 
  9 C        5.3430    -4.9260    -0.4250 C.3   1 <1>   0.2090 
 10 C        6.6400    -3.2560     0.9910 C.3   1 <1>   0.2090 
 11 C        6.3580    -4.7050    -1.5670 C.3   1 <1>   0.3430 
 12 C        7.6370    -3.0790    -0.1740 C.3   1 <1>   0.3430 
 13 N        7.7120    -4.2980    -1.0560 N.4   1 <1>  -0.9590 
 14 C        8.7230    -4.1600    -2.1330 C.3   1 <1>   0.4860 
 15 C       10.0870    -4.0130    -1.4890 C.ar  1 <1>  -0.1430 
 16 C       10.5790    -5.0120    -0.6510 C.ar  1 <1>   0.0830 
 17 C       10.8430    -2.8760    -1.7310 C.ar  1 <1>  -0.1500 
 18 O        9.7870    -6.1030    -0.4490 O.3   1 <1>  -0.3630 
 19 C       11.8300    -4.8530    -0.0610 C.ar  1 <1>  -0.1500 
 20 C       12.0850    -2.7270    -1.1390 C.ar  1 <1>  -0.1500 
 21 C       10.1840    -7.2080     0.3410 C.3   1 <1>   0.1200 
 22 C       12.5760    -3.7140    -0.3050 C.ar  1 <1>  -0.1500 
 23 C        9.8870    -6.9090     1.8100 C.3   1 <1>  -0.2400 
 24 H        3.1170     0.1780    -0.2690 H     1 <1>   0.1500 
 25 H        0.9060    -3.0590     1.3980 H     1 <1>   0.1500 
 26 H        5.1510    -1.2230    -0.3060 H     1 <1>   0.1500 
 27 H        2.9510    -4.4650     1.3750 H     1 <1>   0.1500 
 28 H        4.3640    -5.0730    -0.8480 H     1 <1>   0.0800 
 29 H        5.6000    -5.8160     0.1220 H     1 <1>   0.0800 
 30 H        7.0450    -3.9520     1.7050 H     1 <1>   0.0800 
 31 H        6.5080    -2.3160     1.5000 H     1 <1>   0.0800 
 32 H        5.9710    -3.9340    -2.2130 H     1 <1>   0.0800 
 33 H        6.4390    -5.6120    -2.1430 H     1 <1>   0.0800 
 34 H        8.6110    -2.8600     0.2330 H     1 <1>   0.0800 
 35 H        7.3250    -2.2310    -0.7590 H     1 <1>   0.0800 
 36 H        8.0890    -5.0660    -0.4730 H     1 <1>   0.4500 
 37 H        8.5030    -3.3030    -2.7480 H     1 <1>   0.0800 
 38 H        8.7250    -5.0420    -2.7530 H     1 <1>   0.0800 
 39 H       10.4840    -2.0950    -2.3810 H     1 <1>   0.1500 
 40 H       12.2470    -5.5960     0.5920 H     1 <1>   0.1500 
 41 H       12.6740    -1.8450    -1.3290 H     1 <1>   0.1500 
 42 H       11.2240    -7.4250     0.1660 H     1 <1>   0.0800 
 43 H        9.6080    -8.0580     0.0180 H     1 <1>   0.0800 
 44 H       13.5440    -3.5960     0.1520 H     1 <1>   0.1500 
 45 H       10.4390    -6.0510     2.1500 H     1 <1>   0.0800 
 46 H       10.1750    -7.7520     2.4120 H     1 <1>   0.0800 
 47 H        8.8350    -6.7390     1.9530 H     1 <1>   0.0800 
@<TRIPOS>BOND
  1   1   2  1   
  2   2   3  ar  
  3   2   4  ar  
  4   3   5  ar  
  5   3  24  1   
  6   4   6  ar  
  7   4  25  1   
  8   5   7  ar  
  9   5  26  1   
 10   6   7  ar  
 11   6  27  1   
 12   7   8  1   
 13   8   9  1   
 14   8  10  1   
 15   9  11  1   
 16   9  28  1   
 17   9  29  1   
 18  10  12  1   
 19  10  30  1   
 20  10  31  1   
 21  11  13  1   
 22  11  32  1   
 23  11  33  1   
 24  12  13  1   
 25  12  34  1   
 26  12  35  1   
 27  13  14  1   
 28  13  36  1   
 29  14  15  1   
 30  14  37  1   
 31  14  38  1   
 32  15  16  ar  
 33  15  17  ar  
 34  16  18  1   
 35  16  19  ar  
 36  17  20  ar  
 37  17  39  1   
 38  18  21  1   
 39  19  22  ar  
 40  19  40  1   
 41  20  22  ar  
 42  20  41  1   
 43  21  23  1   
 44  21  42  1   
 45  21  43  1   
 46  22  44  1   
 47  23  45  1   
 48  23  46  1   
 49  23  47  1   
@<TRIPOS>SUBSTRUCTURE
  1 ****  12 GROUP 4 **** **** 0

# MOE 2024.06 (io_trps.svl 2023.06)
