@<TRIPOS>MOLECULE
NONAME
46 48 1 0 0 
SMALL
USER_CHARGES


@<TRIPOS>ATOM
  1 S        0.5770     0.0900    -0.7300 S.o2  1 <1>   1.3330 
  2 O       -0.5400     0.7470    -1.3650 O.2   1 <1>  -0.6500 
  3 O        1.1840    -1.0620    -1.3540 O.2   1 <1>  -0.6500 
  4 N        1.8110     1.2530    -0.6240 N.am  1 <1>  -0.8490 
  5 C        0.1520    -0.2870     0.9760 C.3   1 <1>  -0.0550 
  6 C        3.1320     0.6590    -0.3160 C.3   1 <1>   0.1960 
  7 C        1.8900     2.0290    -1.8840 C.3   1 <1>   0.1960 
  8 C       -0.3100     0.9290     1.7990 C.3   1 <1>  -0.1600 
  9 C        4.2350     1.7330    -0.1580 C.3   1 <1>   0.3430 
 10 C        3.0720     3.0300    -1.9180 C.3   1 <1>   0.3430 
 11 C       -0.6550     0.5290     3.2360 C.3   1 <1>  -0.2400 
 12 N        3.7670     3.1090    -0.5870 N.4   1 <1>  -0.9590 
 13 C        4.8070     4.1960    -0.5060 C.3   1 <1>   0.4230 
 14 C        6.0820     3.8320    -1.3000 C.3   1 <1>  -0.0170 
 15 C        5.2880     4.3630     0.9500 C.3   1 <1>  -0.0170 
 16 C        6.9570     3.1820    -0.2560 C.ar  1 <1>  -0.1440 
 17 C        6.5100     3.4790     1.0090 C.ar  1 <1>  -0.1440 
 18 C        8.0630     2.3740    -0.4450 C.ar  1 <1>  -0.1500 
 19 C        7.1540     2.9780     2.1240 C.ar  1 <1>  -0.1500 
 20 C        8.7130     1.8630     0.6670 C.ar  1 <1>  -0.1500 
 21 C        8.2610     2.1640     1.9450 C.ar  1 <1>  -0.1500 
 22 H        0.9980    -0.7330     1.4600 H     1 <1>   0.0800 
 23 H       -0.6350    -1.0160     0.9760 H     1 <1>   0.0800 
 24 H        3.4230    -0.0180    -1.1040 H     1 <1>   0.0800 
 25 H        3.0760     0.0830     0.5920 H     1 <1>   0.0800 
 26 H        0.9750     2.5840    -2.0170 H     1 <1>   0.0800 
 27 H        1.9740     1.3580    -2.7240 H     1 <1>   0.0800 
 28 H       -1.1790     1.3640     1.3320 H     1 <1>   0.0800 
 29 H        0.4660     1.6750     1.8140 H     1 <1>   0.0800 
 30 H        5.0950     1.4350    -0.7350 H     1 <1>   0.0800 
 31 H        4.5450     1.7620     0.8740 H     1 <1>   0.0800 
 32 H        2.6970     4.0000    -2.2000 H     1 <1>   0.0800 
 33 H        3.7690     2.7170    -2.6760 H     1 <1>   0.0800 
 34 H       -1.4510    -0.1970     3.2450 H     1 <1>   0.0800 
 35 H       -0.9810     1.3920     3.7910 H     1 <1>   0.0800 
 36 H        0.2020     0.1090     3.7330 H     1 <1>   0.0800 
 37 H        3.0100     3.3310     0.0760 H     1 <1>   0.4500 
 38 H        4.3890     5.1220    -0.8660 H     1 <1>   0.0800 
 39 H        6.5680     4.7290    -1.6400 H     1 <1>   0.0800 
 40 H        5.8960     3.1880    -2.1390 H     1 <1>   0.0800 
 41 H        4.5430     4.0890     1.6750 H     1 <1>   0.0800 
 42 H        5.5930     5.3810     1.1200 H     1 <1>   0.0800 
 43 H        8.4220     2.1440    -1.4340 H     1 <1>   0.1500 
 44 H        6.8110     3.2140     3.1170 H     1 <1>   0.1500 
 45 H        9.5770     1.2340     0.5420 H     1 <1>   0.1500 
 46 H        8.7780     1.7660     2.8010 H     1 <1>   0.1500 
@<TRIPOS>BOND
  1   1   2  2   
  2   1   3  2   
  3   1   4  am  
  4   1   5  1   
  5   4   6  1   
  6   4   7  1   
  7   5   8  1   
  8   5  22  1   
  9   5  23  1   
 10   6   9  1   
 11   6  24  1   
 12   6  25  1   
 13   7  10  1   
 14   7  26  1   
 15   7  27  1   
 16   8  11  1   
 17   8  28  1   
 18   8  29  1   
 19   9  12  1   
 20   9  30  1   
 21   9  31  1   
 22  10  12  1   
 23  10  32  1   
 24  10  33  1   
 25  11  34  1   
 26  11  35  1   
 27  11  36  1   
 28  12  13  1   
 29  12  37  1   
 30  13  14  1   
 31  13  15  1   
 32  13  38  1   
 33  14  16  1   
 34  14  39  1   
 35  14  40  1   
 36  15  17  1   
 37  15  41  1   
 38  15  42  1   
 39  16  17  ar  
 40  16  18  ar  
 41  17  19  ar  
 42  18  20  ar  
 43  18  43  1   
 44  19  21  ar  
 45  19  44  1   
 46  20  21  ar  
 47  20  45  1   
 48  21  46  1   
@<TRIPOS>SUBSTRUCTURE
  1 ****   9 GROUP 4 **** **** 0

# MOE 2024.06 (io_trps.svl 2023.06)
