@<TRIPOS>MOLECULE
NONAME
51 53 1 0 0 
SMALL
USER_CHARGES


@<TRIPOS>ATOM
  1 S        0.0600     0.0420     0.3070 S.o2  1 <1>   1.2040 
  2 O        0.0660     0.2200     1.7430 O.2   1 <1>  -0.6500 
  3 O       -0.6300    -1.0870    -0.2820 O.2   1 <1>  -0.6500 
  4 C        1.7700     0.0520    -0.2850 C.ar  1 <1>  -0.0090 
  5 C       -0.5570     1.5460    -0.4580 C.3   1 <1>   0.0890 
  6 C        2.7720     0.6980     0.4280 C.ar  1 <1>  -0.1500 
  7 C        2.1180    -0.5540    -1.4870 C.ar  1 <1>  -0.1500 
  8 C       -2.0150     1.8620    -0.1400 C.ar  1 <1>  -0.1440 
  9 C        4.0720     0.7460    -0.0430 C.ar  1 <1>  -0.1500 
 10 C        3.4170    -0.5100    -1.9630 C.ar  1 <1>  -0.1500 
 11 C       -3.0310     1.0660    -0.6440 C.ar  1 <1>  -0.1500 
 12 C       -2.3440     2.9430     0.6600 C.ar  1 <1>  -0.1500 
 13 C        4.4020     0.1420    -1.2430 C.ar  1 <1>  -0.1430 
 14 C       -4.3530     1.3540    -0.3570 C.ar  1 <1>  -0.1500 
 15 C       -3.6680     3.2270     0.9390 C.ar  1 <1>  -0.1500 
 16 C        5.8280     0.1920    -1.7630 C.3   1 <1>  -0.0970 
 17 C       -4.7090     2.4480     0.4350 C.ar  1 <1>   0.0860 
 18 C       -6.0960     2.7720     0.7310 C.2   1 <1>   0.5440 
 19 O       -6.3850     3.4210     1.7170 O.2   1 <1>  -0.5700 
 20 N       -7.1000     2.3690    -0.1060 N.am  1 <1>  -0.7300 
 21 C       -8.5380     2.6160     0.0930 C.3   1 <1>   0.2200 
 22 C       -9.2760     1.2740     0.0740 C.3   1 <1>  -0.1600 
 23 C       -9.0390     3.5440    -1.0180 C.3   1 <1>  -0.1600 
 24 C      -10.7960     1.4760     0.1690 C.3   1 <1>  -0.1600 
 25 C      -10.5590     3.7490    -0.9260 C.3   1 <1>  -0.1600 
 26 C      -11.3030     2.4070    -0.9420 C.3   1 <1>  -0.1600 
 27 H       -0.4580     1.4650    -1.5230 H     1 <1>   0.0800 
 28 H        0.0510     2.3720    -0.1450 H     1 <1>   0.0800 
 29 H        2.5370     1.1680     1.3690 H     1 <1>   0.1500 
 30 H        1.3670    -1.0730    -2.0590 H     1 <1>   0.1500 
 31 H        4.8280     1.2540     0.5320 H     1 <1>   0.1500 
 32 H        3.6570    -0.9880    -2.8970 H     1 <1>   0.1500 
 33 H       -2.7990     0.2090    -1.2560 H     1 <1>   0.1500 
 34 H       -1.5750     3.5720     1.0760 H     1 <1>   0.1500 
 35 H       -5.1180     0.7080    -0.7480 H     1 <1>   0.1500 
 36 H       -3.9100     4.0700     1.5650 H     1 <1>   0.1500 
 37 H        5.9610     1.0630    -2.3790 H     1 <1>   0.0800 
 38 H        6.0470    -0.6840    -2.3470 H     1 <1>   0.0800 
 39 H        6.5250     0.2350    -0.9450 H     1 <1>   0.0800 
 40 H       -6.8630     1.9170    -0.9860 H     1 <1>   0.3700 
 41 H       -8.6990     3.0920     1.0470 H     1 <1>   0.0800 
 42 H       -8.9450     0.6770     0.9060 H     1 <1>   0.0800 
 43 H       -9.0490     0.7500    -0.8370 H     1 <1>   0.0800 
 44 H       -8.8010     3.1200    -1.9780 H     1 <1>   0.0800 
 45 H       -8.5460     4.4960    -0.9320 H     1 <1>   0.0800 
 46 H      -11.0390     1.9010     1.1280 H     1 <1>   0.0800 
 47 H      -11.2920     0.5230     0.0960 H     1 <1>   0.0800 
 48 H      -10.8910     4.3570    -1.7500 H     1 <1>   0.0800 
 49 H      -10.7910     4.2740    -0.0150 H     1 <1>   0.0800 
 50 H      -12.3580     2.5790    -0.8140 H     1 <1>   0.0800 
 51 H      -11.1610     1.9320    -1.8980 H     1 <1>   0.0800 
@<TRIPOS>BOND
  1   1   2  2   
  2   1   3  2   
  3   1   4  1   
  4   1   5  1   
  5   4   6  ar  
  6   4   7  ar  
  7   5   8  1   
  8   5  27  1   
  9   5  28  1   
 10   6   9  ar  
 11   6  29  1   
 12   7  10  ar  
 13   7  30  1   
 14   8  11  ar  
 15   8  12  ar  
 16   9  13  ar  
 17   9  31  1   
 18  10  13  ar  
 19  10  32  1   
 20  11  14  ar  
 21  11  33  1   
 22  12  15  ar  
 23  12  34  1   
 24  13  16  1   
 25  14  17  ar  
 26  14  35  1   
 27  15  17  ar  
 28  15  36  1   
 29  16  37  1   
 30  16  38  1   
 31  16  39  1   
 32  17  18  1   
 33  18  19  2   
 34  18  20  am  
 35  20  21  1   
 36  20  40  1   
 37  21  22  1   
 38  21  23  1   
 39  21  41  1   
 40  22  24  1   
 41  22  42  1   
 42  22  43  1   
 43  23  25  1   
 44  23  44  1   
 45  23  45  1   
 46  24  26  1   
 47  24  46  1   
 48  24  47  1   
 49  25  26  1   
 50  25  48  1   
 51  25  49  1   
 52  26  50  1   
 53  26  51  1   
@<TRIPOS>SUBSTRUCTURE
  1 ****  11 GROUP 4 **** **** 0

# MOE 2024.06 (io_trps.svl 2023.06)
