@<TRIPOS>MOLECULE
NONAME
50 51 1 0 0 
SMALL
USER_CHARGES


@<TRIPOS>ATOM
  1 O       -0.3610     1.0160    -1.6490 O.2   1 <1>  -0.5700 
  2 C       -0.4460     1.7180    -0.6610 C.2   1 <1>   0.5440 
  3 N        0.6280     1.7940     0.1840 N.am  1 <1>  -0.7300 
  4 C       -1.6670     2.4490    -0.3720 C.ar  1 <1>   0.0860 
  5 C        1.9300     1.1080    -0.0090 C.3   1 <1>   0.1400 
  6 C       -2.9050     1.9700    -0.8020 C.ar  1 <1>  -0.1500 
  7 C       -1.6590     3.6480     0.3450 C.ar  1 <1>  -0.1500 
  8 C        3.0450     2.1450    -0.1590 C.3   1 <1>  -0.0220 
  9 C       -4.0830     2.6360    -0.5190 C.ar  1 <1>   0.0830 
 10 C       -2.8280     4.3350     0.6200 C.ar  1 <1>  -0.1500 
 11 C        4.4450     1.5450    -0.2910 C.2   1 <1>  -0.2760 
 12 O       -5.2400     2.0660    -0.9380 O.3   1 <1>  -0.3630 
 13 C       -4.0460     3.8470     0.1800 C.ar  1 <1>   0.0830 
 14 C        4.7380     0.2370    -0.2750 C.2   1 <1>  -0.2880 
 15 C        5.5230     2.6130    -0.4590 C.3   1 <1>  -0.0220 
 16 C       -6.1330     1.6020     0.0530 C.3   1 <1>   0.1200 
 17 O       -5.1460     4.5850     0.4530 O.3   1 <1>  -0.3630 
 18 C        6.1370    -0.3350    -0.4400 C.3   1 <1>  -0.0220 
 19 C        6.9360     2.0520    -0.2420 C.3   1 <1>  -0.1600 
 20 C       -5.6600     0.2380     0.5570 C.3   1 <1>  -0.2400 
 21 C       -5.8900     5.0710    -0.6400 C.3   1 <1>   0.1200 
 22 C        7.1170     0.7170    -0.9730 C.3   1 <1>  -0.1600 
 23 C       -6.9280     6.0540    -0.1060 C.3   1 <1>  -0.2400 
 24 H        0.5210     2.2860     1.0710 H     1 <1>   0.3700 
 25 H        1.8980     0.4870    -0.8890 H     1 <1>   0.0800 
 26 H        2.1240     0.4800     0.8430 H     1 <1>   0.0800 
 27 H       -2.9470     1.0520    -1.3610 H     1 <1>   0.1500 
 28 H       -0.7250     4.0590     0.6840 H     1 <1>   0.1500 
 29 H        3.0310     2.7920     0.7000 H     1 <1>   0.0800 
 30 H        2.8400     2.7350    -1.0350 H     1 <1>   0.0800 
 31 H       -2.8050     5.2590     1.1700 H     1 <1>   0.1500 
 32 H        4.0060    -0.5410    -0.1450 H     1 <1>   0.1500 
 33 H        5.3630     3.4130     0.2430 H     1 <1>   0.0800 
 34 H        5.4480     3.0220    -1.4520 H     1 <1>   0.0800 
 35 H       -7.1030     1.5160    -0.4030 H     1 <1>   0.0800 
 36 H       -6.1840     2.3170     0.8550 H     1 <1>   0.0800 
 37 H        6.1090    -1.1650    -1.1240 H     1 <1>   0.0800 
 38 H        6.4760    -0.6990     0.5140 H     1 <1>   0.0800 
 39 H        7.0950     1.9000     0.8110 H     1 <1>   0.0800 
 40 H        7.6630     2.7650    -0.5900 H     1 <1>   0.0800 
 41 H       -5.5850    -0.4530    -0.2630 H     1 <1>   0.0800 
 42 H       -6.3660    -0.1480     1.2690 H     1 <1>   0.0800 
 43 H       -4.7040     0.3290     1.0420 H     1 <1>   0.0800 
 44 H       -6.3700     4.2460    -1.1350 H     1 <1>   0.0800 
 45 H       -5.2140     5.5590    -1.3220 H     1 <1>   0.0800 
 46 H        6.9370     0.8660    -2.0240 H     1 <1>   0.0800 
 47 H        8.1270     0.3640    -0.8540 H     1 <1>   0.0800 
 48 H       -7.5880     5.5570     0.5820 H     1 <1>   0.0800 
 49 H       -7.5110     6.4460    -0.9190 H     1 <1>   0.0800 
 50 H       -6.4390     6.8720     0.3920 H     1 <1>   0.0800 
@<TRIPOS>BOND
  1   1   2  2   
  2   2   3  am  
  3   2   4  1   
  4   3   5  1   
  5   3  24  1   
  6   4   6  ar  
  7   4   7  ar  
  8   5   8  1   
  9   5  25  1   
 10   5  26  1   
 11   6   9  ar  
 12   6  27  1   
 13   7  10  ar  
 14   7  28  1   
 15   8  11  1   
 16   8  29  1   
 17   8  30  1   
 18   9  12  1   
 19   9  13  ar  
 20  10  13  ar  
 21  10  31  1   
 22  11  14  2   
 23  11  15  1   
 24  12  16  1   
 25  13  17  1   
 26  14  18  1   
 27  14  32  1   
 28  15  19  1   
 29  15  33  1   
 30  15  34  1   
 31  16  20  1   
 32  16  35  1   
 33  16  36  1   
 34  17  21  1   
 35  18  22  1   
 36  18  37  1   
 37  18  38  1   
 38  19  22  1   
 39  19  39  1   
 40  19  40  1   
 41  20  41  1   
 42  20  42  1   
 43  20  43  1   
 44  21  23  1   
 45  21  44  1   
 46  21  45  1   
 47  22  46  1   
 48  22  47  1   
 49  23  48  1   
 50  23  49  1   
 51  23  50  1   
@<TRIPOS>SUBSTRUCTURE
  1 ****   2 GROUP 4 **** **** 0

# MOE 2024.06 (io_trps.svl 2023.06)
