@<TRIPOS>MOLECULE
NONAME
43 44 1 0 0 
SMALL
USER_CHARGES


@<TRIPOS>ATOM
  1 S        0.0590     0.1770    -1.6350 S.o2  1 <1>   1.4470 
  2 O       -0.8650    -0.7430    -2.2660 O.2   1 <1>  -0.6500 
  3 O        0.5760     1.2940    -2.3950 O.2   1 <1>  -0.6500 
  4 N       -0.7290     0.7960    -0.2640 N.am  1 <1>  -0.8490 
  5 C        1.4590    -0.7340    -0.9190 C.ar  1 <1>  -0.0090 
  6 C       -1.4550    -0.2420     0.4700 C.3   1 <1>   0.1960 
  7 C       -1.5780     1.9470    -0.5850 C.3   1 <1>   0.1960 
  8 C        2.2970    -0.1350     0.0140 C.ar  1 <1>  -0.1500 
  9 C        1.7330    -2.0470    -1.2800 C.ar  1 <1>  -0.1500 
 10 C       -1.6220     0.1760     1.9300 C.3   1 <1>  -0.2400 
 11 C       -0.8390     3.2190    -0.1830 C.3   1 <1>  -0.2400 
 12 C        3.3660    -0.8200     0.5640 C.ar  1 <1>  -0.1500 
 13 C        2.8020    -2.7330    -0.7300 C.ar  1 <1>  -0.1500 
 14 C        3.6500    -2.1340     0.1990 C.ar  1 <1>   0.0860 
 15 C        4.7720    -2.8630     0.7620 C.2   1 <1>   0.5440 
 16 O        4.5930    -3.9750     1.2220 O.2   1 <1>  -0.5700 
 17 N        6.0420    -2.3350     0.7800 N.am  1 <1>  -0.6600 
 18 C        6.5020    -1.1960    -0.0460 C.3   1 <1>   0.1400 
 19 C        7.1920    -3.0710     1.3520 C.3   1 <1>   0.1400 
 20 C        7.9990    -1.4250    -0.2210 C.3   1 <1>  -0.1600 
 21 C        8.4110    -2.2190     1.0160 C.3   1 <1>  -0.1600 
 22 H       -0.8930    -1.1620     0.4520 H     1 <1>   0.0800 
 23 H       -2.4110    -0.4320     0.0080 H     1 <1>   0.0800 
 24 H       -2.5090     1.9050    -0.0460 H     1 <1>   0.0800 
 25 H       -1.8150     1.9690    -1.6370 H     1 <1>   0.0800 
 26 H        2.1010     0.8820     0.3130 H     1 <1>   0.1500 
 27 H        1.1000    -2.5410    -1.9990 H     1 <1>   0.1500 
 28 H       -0.6590     0.3740     2.3670 H     1 <1>   0.0800 
 29 H       -2.0870    -0.6220     2.4790 H     1 <1>   0.0800 
 30 H       -2.2390     1.0500     2.0190 H     1 <1>   0.0800 
 31 H       -0.6160     3.2010     0.8680 H     1 <1>   0.0800 
 32 H       -1.4540     4.0750    -0.3900 H     1 <1>   0.0800 
 33 H        0.0750     3.3150    -0.7410 H     1 <1>   0.0800 
 34 H        3.9910    -0.3350     1.2940 H     1 <1>   0.1500 
 35 H        2.9920    -3.7530    -1.0180 H     1 <1>   0.1500 
 36 H        6.3280    -0.2790     0.4890 H     1 <1>   0.0800 
 37 H        5.9940    -1.1690    -0.9960 H     1 <1>   0.0800 
 38 H        7.2620    -4.0370     0.8800 H     1 <1>   0.0800 
 39 H        7.0720    -3.1990     2.4140 H     1 <1>   0.0800 
 40 H        8.5390    -0.5000    -0.3140 H     1 <1>   0.0800 
 41 H        8.1610    -2.0180    -1.1040 H     1 <1>   0.0800 
 42 H        9.2840    -2.8230     0.8450 H     1 <1>   0.0800 
 43 H        8.6040    -1.5480     1.8350 H     1 <1>   0.0800 
@<TRIPOS>BOND
  1   1   2  2   
  2   1   3  2   
  3   1   4  am  
  4   1   5  1   
  5   4   6  1   
  6   4   7  1   
  7   5   8  ar  
  8   5   9  ar  
  9   6  10  1   
 10   6  22  1   
 11   6  23  1   
 12   7  11  1   
 13   7  24  1   
 14   7  25  1   
 15   8  12  ar  
 16   8  26  1   
 17   9  13  ar  
 18   9  27  1   
 19  10  28  1   
 20  10  29  1   
 21  10  30  1   
 22  11  31  1   
 23  11  32  1   
 24  11  33  1   
 25  12  14  ar  
 26  12  34  1   
 27  13  14  ar  
 28  13  35  1   
 29  14  15  1   
 30  15  16  2   
 31  15  17  am  
 32  17  18  1   
 33  17  19  1   
 34  18  20  1   
 35  18  36  1   
 36  18  37  1   
 37  19  21  1   
 38  19  38  1   
 39  19  39  1   
 40  20  21  1   
 41  20  40  1   
 42  20  41  1   
 43  21  42  1   
 44  21  43  1   
@<TRIPOS>SUBSTRUCTURE
  1 ****   8 GROUP 4 **** **** 0

# MOE 2024.06 (io_trps.svl 2023.06)
