@<TRIPOS>MOLECULE
NONAME
37 39 1 0 0 
SMALL
USER_CHARGES


@<TRIPOS>ATOM
  1 O        0.2610    -0.3290     0.3020 O.2   1 <1>  -0.5700 
  2 C        0.8040    -1.4240     0.3550 C.2   1 <1>   0.5440 
  3 N        2.1370    -1.5310     0.7240 N.am  1 <1>  -0.2980 
  4 C        0.1090    -2.6360     0.0320 C.ar  1 <1>   0.0860 
  5 N        2.8200    -2.7020     0.8210 N.2   1 <1>  -0.5120 
  6 C        2.8920    -0.3030     1.0670 C.3   1 <1>   0.0600 
  7 C        0.8120    -3.8490     0.1220 C.ar  1 <1>   0.0860 
  8 C       -1.2290    -2.6360    -0.3770 C.ar  1 <1>  -0.1500 
  9 C        2.1960    -3.8220     0.5500 C.2   1 <1>   0.3640 
 10 C        0.1240    -5.0240    -0.2290 C.ar  1 <1>  -0.1500 
 11 C       -1.8770    -3.8040    -0.7050 C.ar  1 <1>  -0.1500 
 12 C        2.9100    -5.0820     0.6750 C.2   1 <1>   0.6300 
 13 C       -1.1920    -5.0060    -0.6320 C.ar  1 <1>  -0.1500 
 14 O        2.4830    -5.9410     1.4340 O.2   1 <1>  -0.5700 
 15 N        4.0580    -5.3750    -0.0520 N.am  1 <1>  -0.6600 
 16 C        4.9200    -6.5490     0.2660 C.3   1 <1>   0.1400 
 17 C        4.6300    -4.4790    -1.0960 C.3   1 <1>   0.1400 
 18 C        6.2910    -6.0570     0.7450 C.3   1 <1>  -0.1600 
 19 C        5.9890    -3.9540    -0.6220 C.3   1 <1>  -0.1600 
 20 C        6.9430    -5.1050    -0.2680 C.3   1 <1>  -0.1600 
 21 H        2.8970     0.3620     0.2220 H     1 <1>   0.0800 
 22 H        3.9040    -0.5520     1.3310 H     1 <1>   0.0800 
 23 H        2.4180     0.1860     1.9000 H     1 <1>   0.0800 
 24 H       -1.7570    -1.6980    -0.4340 H     1 <1>   0.1500 
 25 H        0.6190    -5.9780    -0.1860 H     1 <1>   0.1500 
 26 H       -2.9080    -3.7900    -1.0180 H     1 <1>   0.1500 
 27 H       -1.6950    -5.9230    -0.8900 H     1 <1>   0.1500 
 28 H        5.0330    -7.1510    -0.6190 H     1 <1>   0.0800 
 29 H        4.4730    -7.1620     1.0300 H     1 <1>   0.0800 
 30 H        3.9750    -3.6540    -1.3090 H     1 <1>   0.0800 
 31 H        4.7570    -5.0410    -2.0050 H     1 <1>   0.0800 
 32 H        6.9330    -6.9040     0.9120 H     1 <1>   0.0800 
 33 H        6.1640    -5.5520     1.6870 H     1 <1>   0.0800 
 34 H        5.8350    -3.3280     0.2400 H     1 <1>   0.0800 
 35 H        6.4250    -3.3460    -1.3950 H     1 <1>   0.0800 
 36 H        7.1890    -5.6510    -1.1630 H     1 <1>   0.0800 
 37 H        7.8560    -4.7080     0.1410 H     1 <1>   0.0800 
@<TRIPOS>BOND
  1   1   2  2   
  2   2   3  am  
  3   2   4  1   
  4   3   5  1   
  5   3   6  1   
  6   4   7  ar  
  7   4   8  ar  
  8   5   9  2   
  9   6  21  1   
 10   6  22  1   
 11   6  23  1   
 12   7   9  1   
 13   7  10  ar  
 14   8  11  ar  
 15   8  24  1   
 16   9  12  1   
 17  10  13  ar  
 18  10  25  1   
 19  11  13  ar  
 20  11  26  1   
 21  12  14  2   
 22  12  15  am  
 23  13  27  1   
 24  15  16  1   
 25  15  17  1   
 26  16  18  1   
 27  16  28  1   
 28  16  29  1   
 29  17  19  1   
 30  17  30  1   
 31  17  31  1   
 32  18  20  1   
 33  18  32  1   
 34  18  33  1   
 35  19  20  1   
 36  19  34  1   
 37  19  35  1   
 38  20  36  1   
 39  20  37  1   
@<TRIPOS>SUBSTRUCTURE
  1 ****   9 GROUP 4 **** **** 0

# MOE 2024.06 (io_trps.svl 2023.06)
