@<TRIPOS>MOLECULE
NONAME
28 30 1 0 0 
SMALL
USER_CHARGES


@<TRIPOS>ATOM
  1 N       -0.0720     1.9910     0.0010 N.pl3 1 <1>  -0.7210 
  2 C       -1.3650     1.7420     0.0010 C.cat 1 <1>   1.0680 
  3 C        0.1650     3.4630     0.0000 C.3   1 <1>   0.1550 
  4 N       -2.0960     2.8310     0.0020 N.pl3 1 <1>  -0.7700 
  5 N       -2.1080     0.6510     0.0020 N.pl3 1 <1>  -0.7070 
  6 C       -1.2700     4.0530     0.0010 C.3   1 <1>   0.3430 
  7 C       -3.4280     2.4530     0.0020 C.ar  1 <1>   0.2980 
  8 C       -3.4350     1.0680     0.0030 C.ar  1 <1>   0.2980 
  9 C       -4.6140     3.1710     0.0030 C.ar  1 <1>  -0.1230 
 10 C       -4.6320     0.3680     0.0040 C.ar  1 <1>  -0.1230 
 11 C       -5.8130     2.4800     0.0040 C.ar  1 <1>  -0.1570 
 12 C       -5.8220     1.0750     0.0040 C.ar  1 <1>  -0.1570 
 13 C       -7.1150     3.2700     0.0040 C.3   1 <1>  -0.1100 
 14 C       -7.1350     0.3030     0.0050 C.3   1 <1>  -0.1100 
 15 H        0.6800     1.3010     0.0000 H     1 <1>   0.4400 
 16 H        0.7050     3.7640    -0.8820 H     1 <1>   0.0660 
 17 H        0.7060     3.7640     0.8810 H     1 <1>   0.0660 
 18 H       -1.7860    -0.3130     0.0020 H     1 <1>   0.4400 
 19 H       -1.4550     4.6410    -0.8830 H     1 <1>   0.0660 
 20 H       -1.4540     4.6410     0.8840 H     1 <1>   0.0660 
 21 H       -4.5860     4.2450     0.0030 H     1 <1>   0.1370 
 22 H       -4.6230    -0.7070     0.0040 H     1 <1>   0.1370 
 23 H       -6.9290     4.3290     0.0040 H     1 <1>   0.0660 
 24 H       -7.6930     3.0320     0.8800 H     1 <1>   0.0660 
 25 H       -7.6940     3.0310    -0.8700 H     1 <1>   0.0660 
 26 H       -6.9630    -0.7590     0.0060 H     1 <1>   0.0660 
 27 H       -7.7100     0.5480    -0.8690 H     1 <1>   0.0660 
 28 H       -7.7090     0.5490     0.8800 H     1 <1>   0.0660 
@<TRIPOS>BOND
  1   1   2  ar  
  2   1   3  1   
  3   1  15  1   
  4   2   4  ar  
  5   2   5  ar  
  6   3   6  1   
  7   3  16  1   
  8   3  17  1   
  9   4   6  1   
 10   4   7  1   
 11   5   8  1   
 12   5  18  1   
 13   6  19  1   
 14   6  20  1   
 15   7   8  ar  
 16   7   9  ar  
 17   8  10  ar  
 18   9  11  ar  
 19   9  21  1   
 20  10  12  ar  
 21  10  22  1   
 22  11  12  ar  
 23  11  13  1   
 24  12  14  1   
 25  13  23  1   
 26  13  24  1   
 27  13  25  1   
 28  14  26  1   
 29  14  27  1   
 30  14  28  1   
@<TRIPOS>SUBSTRUCTURE
  1 ****   7 GROUP 4 **** **** 0

# MOE 2024.06 (io_trps.svl 2023.06)
