@<TRIPOS>MOLECULE
NONAME
53 56 1 0 0 
SMALL
USER_CHARGES


@<TRIPOS>ATOM
  1 O       -6.2670    -1.2610    -1.0120 O.3   1 <1>  -0.5600 
  2 C       -7.4210    -2.0380    -0.8480 C.3   1 <1>   0.2000 
  3 C       -6.3890     0.0900    -0.6870 C.3   1 <1>   0.1200 
  4 C       -7.6030    -2.4510     0.6330 C.3   1 <1>  -0.0800 
  5 C       -7.2810    -3.3050    -1.7190 C.3   1 <1>  -0.0800 
  6 C       -5.0200     0.7500    -0.8940 C.3   1 <1>   0.2000 
  7 C       -8.8920    -3.2900     0.7550 C.3   1 <1>  -0.1600 
  8 C       -6.4080    -3.3080     1.1040 C.3   1 <1>  -0.1600 
  9 C       -8.5710    -4.1400    -1.5910 C.3   1 <1>  -0.1600 
 10 C       -6.0870    -4.1610    -1.2410 C.3   1 <1>  -0.1600 
 11 O       -4.0510    -0.0740    -0.3230 O.3   1 <1>  -0.6800 
 12 C       -4.9190     2.1570    -0.2690 C.3   1 <1>   0.3430 
 13 C       -8.7880    -4.5530    -0.1210 C.3   1 <1>  -0.0800 
 14 C       -6.2880    -4.5720     0.2300 C.3   1 <1>  -0.0800 
 15 N       -3.4900     2.4970     0.0080 N.4   1 <1>  -0.9590 
 16 C       -7.5860    -5.3930     0.3490 C.3   1 <1>  -0.1600 
 17 C       -3.3300     3.4380     1.1500 C.3   1 <1>   0.3430 
 18 C       -2.7520     2.9270    -1.2130 C.3   1 <1>   0.3430 
 19 C       -1.8470     3.5720     1.5020 C.3   1 <1>  -0.1600 
 20 C       -1.2610     3.0540    -0.8930 C.3   1 <1>  -0.1600 
 21 C       -1.0090     3.9980     0.2900 C.3   1 <1>  -0.1600 
 22 H       -8.2690    -1.4680    -1.1880 H     1 <1>   0.0800 
 23 H       -6.6950     0.1770     0.3410 H     1 <1>   0.0800 
 24 H       -7.1320     0.5370    -1.3250 H     1 <1>   0.0800 
 25 H       -7.7020    -1.5820     1.2570 H     1 <1>   0.0800 
 26 H       -7.1430    -3.0180    -2.7470 H     1 <1>   0.0800 
 27 H       -4.8190     0.8040    -1.9500 H     1 <1>   0.0800 
 28 H       -9.7410    -2.7050     0.4490 H     1 <1>   0.0800 
 29 H       -9.0460    -3.5740     1.7820 H     1 <1>   0.0800 
 30 H       -6.5440    -3.5910     2.1330 H     1 <1>   0.0800 
 31 H       -5.4980    -2.7380     1.0420 H     1 <1>   0.0800 
 32 H       -8.4990    -5.0190    -2.2080 H     1 <1>   0.0800 
 33 H       -9.4140    -3.5680    -1.9370 H     1 <1>   0.0800 
 34 H       -5.1720    -3.6040    -1.3420 H     1 <1>   0.0800 
 35 H       -6.0000    -5.0390    -1.8560 H     1 <1>   0.0800 
 36 H       -4.3500    -1.0040    -0.4870 H     1 <1>   0.4000 
 37 H       -5.4660     2.1450     0.6590 H     1 <1>   0.0800 
 38 H       -5.3740     2.8900    -0.9130 H     1 <1>   0.0800 
 39 H       -9.6920    -5.1330    -0.0350 H     1 <1>   0.0800 
 40 H       -5.4520    -5.1650     0.5600 H     1 <1>   0.0800 
 41 H       -3.0850     1.5800     0.2800 H     1 <1>   0.4500 
 42 H       -7.5090    -6.2850    -0.2480 H     1 <1>   0.0800 
 43 H       -7.7320    -5.6990     1.3710 H     1 <1>   0.0800 
 44 H       -3.8700     3.0730     2.0090 H     1 <1>   0.0800 
 45 H       -3.7250     4.4050     0.8840 H     1 <1>   0.0800 
 46 H       -3.1290     3.8770    -1.5530 H     1 <1>   0.0800 
 47 H       -2.8860     2.2010    -1.9990 H     1 <1>   0.0800 
 48 H       -1.4870     2.6320     1.8840 H     1 <1>   0.0800 
 49 H       -1.7360     4.3000     2.2860 H     1 <1>   0.0800 
 50 H       -0.7450     3.4240    -1.7620 H     1 <1>   0.0800 
 51 H       -0.8620     2.0780    -0.6750 H     1 <1>   0.0800 
 52 H        0.0370     3.9890     0.5470 H     1 <1>   0.0800 
 53 H       -1.2680     5.0050     0.0080 H     1 <1>   0.0800 
@<TRIPOS>BOND
  1   1   2  1   
  2   1   3  1   
  3   2   4  1   
  4   2   5  1   
  5   2  22  1   
  6   3   6  1   
  7   3  23  1   
  8   3  24  1   
  9   4   7  1   
 10   4   8  1   
 11   4  25  1   
 12   5   9  1   
 13   5  10  1   
 14   5  26  1   
 15   6  11  1   
 16   6  12  1   
 17   6  27  1   
 18   7  13  1   
 19   7  28  1   
 20   7  29  1   
 21   8  14  1   
 22   8  30  1   
 23   8  31  1   
 24   9  13  1   
 25   9  32  1   
 26   9  33  1   
 27  10  14  1   
 28  10  34  1   
 29  10  35  1   
 30  11  36  1   
 31  12  15  1   
 32  12  37  1   
 33  12  38  1   
 34  13  16  1   
 35  13  39  1   
 36  14  16  1   
 37  14  40  1   
 38  15  17  1   
 39  15  18  1   
 40  15  41  1   
 41  16  42  1   
 42  16  43  1   
 43  17  19  1   
 44  17  44  1   
 45  17  45  1   
 46  18  20  1   
 47  18  46  1   
 48  18  47  1   
 49  19  21  1   
 50  19  48  1   
 51  19  49  1   
 52  20  21  1   
 53  20  50  1   
 54  20  51  1   
 55  21  52  1   
 56  21  53  1   
@<TRIPOS>SUBSTRUCTURE
  1 ****   1 GROUP 4 **** **** 0

# MOE 2024.06 (io_trps.svl 2023.06)
