@<TRIPOS>MOLECULE
NONAME
52 54 1 0 0 
SMALL
USER_CHARGES


@<TRIPOS>ATOM
  1 O       -1.1580     0.0180    -2.2980 O.2   1 <1>  -0.5700 
  2 C       -0.3460    -0.4840    -1.5600 C.2   1 <1>   0.5690 
  3 N       -0.5990    -0.8390    -0.2670 N.am  1 <1>  -0.5470 
  4 C        1.0600    -0.7750    -2.0880 C.3   1 <1>   0.1710 
  5 C       -1.7890    -0.8400     0.4750 C.ar  1 <1>   0.1170 
  6 N        2.0780    -1.0090    -1.0200 N.3   1 <1>  -0.8100 
  7 C       -2.2450    -2.0490     1.0090 C.ar  1 <1>  -0.1440 
  8 C       -2.5140     0.3320     0.7190 C.ar  1 <1>  -0.1440 
  9 C        3.2860    -1.6560    -1.5830 C.3   1 <1>   0.1100 
 10 C        2.4670     0.2680    -0.3690 C.3   1 <1>   0.1100 
 11 C       -3.4080    -2.0800     1.7590 C.ar  1 <1>  -0.1500 
 12 C       -1.4870    -3.3500     0.7730 C.3   1 <1>  -0.0970 
 13 C       -3.6780     0.2780     1.4670 C.ar  1 <1>  -0.1500 
 14 C       -2.0650     1.6900     0.1930 C.3   1 <1>  -0.0970 
 15 C        4.3700    -1.9190    -0.5180 C.3   1 <1>   0.2090 
 16 C        3.5180     0.0720     0.7420 C.3   1 <1>   0.2090 
 17 C       -4.1260    -0.9220     1.9870 C.ar  1 <1>  -0.1500 
 18 N        4.7040    -0.6950     0.2660 N.pl3 1 <1>  -0.8380 
 19 C        5.8600     0.0110    -0.0620 C.ar  1 <1>   0.1000 
 20 C        6.9770    -0.0180     0.7740 C.ar  1 <1>  -0.1440 
 21 C        5.9180     0.7610    -1.2330 C.ar  1 <1>  -0.1500 
 22 C        8.1160     0.6920     0.4310 C.ar  1 <1>  -0.1500 
 23 C        6.9520    -0.8270     2.0630 C.3   1 <1>  -0.0970 
 24 C        7.0560     1.4680    -1.5710 C.ar  1 <1>  -0.1500 
 25 C        8.1590     1.4340    -0.7370 C.ar  1 <1>  -0.1500 
 26 H        0.2080    -1.2940     0.1680 H     1 <1>   0.3700 
 27 H        1.3680     0.0390    -2.7210 H     1 <1>   0.0800 
 28 H        0.9820    -1.6540    -2.7020 H     1 <1>   0.0800 
 29 H        3.7050    -1.0390    -2.3570 H     1 <1>   0.0800 
 30 H        3.0110    -2.5980    -2.0250 H     1 <1>   0.0800 
 31 H        1.6010     0.7360     0.0650 H     1 <1>   0.0800 
 32 H        2.8690     0.9460    -1.1020 H     1 <1>   0.0800 
 33 H       -3.7680    -3.0070     2.1700 H     1 <1>   0.1500 
 34 H       -1.3820    -3.5250    -0.2820 H     1 <1>   0.0800 
 35 H       -2.0090    -4.1850     1.2030 H     1 <1>   0.0800 
 36 H       -0.5100    -3.2940     1.2190 H     1 <1>   0.0800 
 37 H       -4.2460     1.1720     1.6510 H     1 <1>   0.1500 
 38 H       -0.9960     1.7830     0.2430 H     1 <1>   0.0800 
 39 H       -2.4960     2.4860     0.7720 H     1 <1>   0.0800 
 40 H       -2.3790     1.8030    -0.8290 H     1 <1>   0.0800 
 41 H        5.2610    -2.2880    -0.9970 H     1 <1>   0.0800 
 42 H        4.0220    -2.6790     0.1590 H     1 <1>   0.0800 
 43 H        3.0690    -0.4580     1.5630 H     1 <1>   0.0800 
 44 H        3.8380     1.0330     1.1060 H     1 <1>   0.0800 
 45 H       -5.0320    -0.9530     2.5670 H     1 <1>   0.1500 
 46 H        5.0650     0.7880    -1.8790 H     1 <1>   0.1500 
 47 H        8.9790     0.6730     1.0720 H     1 <1>   0.1500 
 48 H        6.1560    -0.4760     2.6930 H     1 <1>   0.0800 
 49 H        7.8800    -0.7410     2.5970 H     1 <1>   0.0800 
 50 H        6.7790    -1.8630     1.8340 H     1 <1>   0.0800 
 51 H        7.0860     2.0430    -2.4790 H     1 <1>   0.1500 
 52 H        9.0480     1.9820    -0.9950 H     1 <1>   0.1500 
@<TRIPOS>BOND
  1   1   2  2   
  2   2   3  am  
  3   2   4  1   
  4   3   5  1   
  5   3  26  1   
  6   4   6  1   
  7   4  27  1   
  8   4  28  1   
  9   5   7  ar  
 10   5   8  ar  
 11   6   9  1   
 12   6  10  1   
 13   7  11  ar  
 14   7  12  1   
 15   8  13  ar  
 16   8  14  1   
 17   9  15  1   
 18   9  29  1   
 19   9  30  1   
 20  10  16  1   
 21  10  31  1   
 22  10  32  1   
 23  11  17  ar  
 24  11  33  1   
 25  12  34  1   
 26  12  35  1   
 27  12  36  1   
 28  13  17  ar  
 29  13  37  1   
 30  14  38  1   
 31  14  39  1   
 32  14  40  1   
 33  15  18  1   
 34  15  41  1   
 35  15  42  1   
 36  16  18  1   
 37  16  43  1   
 38  16  44  1   
 39  17  45  1   
 40  18  19  1   
 41  19  20  ar  
 42  19  21  ar  
 43  20  22  ar  
 44  20  23  1   
 45  21  24  ar  
 46  21  46  1   
 47  22  25  ar  
 48  22  47  1   
 49  23  48  1   
 50  23  49  1   
 51  23  50  1   
 52  24  25  ar  
 53  24  51  1   
 54  25  52  1   
@<TRIPOS>SUBSTRUCTURE
  1 ****  10 GROUP 4 **** **** 0

# MOE 2024.06 (io_trps.svl 2023.06)
