@<TRIPOS>MOLECULE
NONAME
37 39 1 0 0 
SMALL
USER_CHARGES


@<TRIPOS>ATOM
  1 O       -0.8390     0.4840    -1.2900 O.3   1 <1>  -0.5600 
  2 C       -1.7600     1.5400    -1.1590 C.3   1 <1>   0.6240 
  3 C        0.0820     0.3730    -0.2470 C.3   1 <1>   0.2000 
  4 O       -1.1100     2.6840    -0.6500 O.3   1 <1>  -0.5600 
  5 C       -2.9190     1.1150    -0.2490 C.ar  1 <1>  -0.1440 
  6 C        0.9760     1.6400    -0.2300 C.3   1 <1>   0.2000 
  7 C        0.8730    -0.9220    -0.4800 C.3   1 <1>  -0.1600 
  8 C        0.2540     2.7900    -0.9370 C.3   1 <1>   0.1200 
  9 C       -3.4720    -0.1530    -0.3880 C.ar  1 <1>  -0.1500 
 10 C       -3.4480     1.9670     0.7140 C.ar  1 <1>  -0.1500 
 11 O        2.1920     1.4050    -0.8870 O.3   1 <1>  -0.5600 
 12 C        2.2570    -0.8170     0.1660 C.3   1 <1>   0.2000 
 13 C       -4.5230    -0.5610     0.4150 C.ar  1 <1>  -0.1500 
 14 C       -4.4990     1.5620     1.5180 C.ar  1 <1>  -0.1500 
 15 C        3.0210     0.4790    -0.2460 C.3   1 <1>   0.4800 
 16 O        2.9780    -1.9570    -0.1830 O.3   1 <1>  -0.6800 
 17 C       -5.0380     0.2970     1.3690 C.ar  1 <1>  -0.1500 
 18 O        3.5390     1.1380     0.8700 O.3   1 <1>  -0.5600 
 19 C        4.7320     0.6000     1.3470 C.3   1 <1>   0.0400 
 20 H       -2.1310     1.7750    -2.1420 H     1 <1>   0.0800 
 21 H       -0.4680     0.3140     0.6780 H     1 <1>   0.0800 
 22 H        1.1950     1.9260     0.7850 H     1 <1>   0.0800 
 23 H        0.9950    -1.0600    -1.5400 H     1 <1>   0.0800 
 24 H        0.3300    -1.7540    -0.0670 H     1 <1>   0.0800 
 25 H        0.6050     3.7400    -0.5750 H     1 <1>   0.0800 
 26 H        0.3830     2.7290    -2.0040 H     1 <1>   0.0800 
 27 H       -3.0790    -0.8310    -1.1270 H     1 <1>   0.1500 
 28 H       -3.0440     2.9570     0.8440 H     1 <1>   0.1500 
 29 H        2.1540    -0.8280     1.2380 H     1 <1>   0.0800 
 30 H       -4.9390    -1.5460     0.2960 H     1 <1>   0.1500 
 31 H       -4.8970     2.2330     2.2590 H     1 <1>   0.1500 
 32 H        3.8250     0.2520    -0.9240 H     1 <1>   0.0800 
 33 H        2.9160    -2.1110    -1.1460 H     1 <1>   0.4000 
 34 H       -5.8550    -0.0180     1.9940 H     1 <1>   0.1500 
 35 H        4.5790    -0.4280     1.6300 H     1 <1>   0.0800 
 36 H        5.0350     1.1710     2.2070 H     1 <1>   0.0800 
 37 H        5.4850     0.6730     0.5820 H     1 <1>   0.0800 
@<TRIPOS>BOND
  1   1   2  1   
  2   1   3  1   
  3   2   4  1   
  4   2   5  1   
  5   2  20  1   
  6   3   6  1   
  7   3   7  1   
  8   3  21  1   
  9   4   8  1   
 10   5   9  ar  
 11   5  10  ar  
 12   6   8  1   
 13   6  11  1   
 14   6  22  1   
 15   7  12  1   
 16   7  23  1   
 17   7  24  1   
 18   8  25  1   
 19   8  26  1   
 20   9  13  ar  
 21   9  27  1   
 22  10  14  ar  
 23  10  28  1   
 24  11  15  1   
 25  12  15  1   
 26  12  16  1   
 27  12  29  1   
 28  13  17  ar  
 29  13  30  1   
 30  14  17  ar  
 31  14  31  1   
 32  15  18  1   
 33  15  32  1   
 34  16  33  1   
 35  17  34  1   
 36  18  19  1   
 37  19  35  1   
 38  19  36  1   
 39  19  37  1   
@<TRIPOS>SUBSTRUCTURE
  1 ****   3 GROUP 4 **** **** 0

# MOE 2024.06 (io_trps.svl 2023.06)
