@<TRIPOS>MOLECULE
NONAME
47 48 1 0 0 
SMALL
USER_CHARGES


@<TRIPOS>ATOM
  1 S       -0.2230    -0.0730     0.9130 S.o2  1 <1>   1.4470 
  2 O       -0.7430     0.1340     2.2450 O.2   1 <1>  -0.6500 
  3 O       -0.1210    -1.4060     0.3670 O.2   1 <1>  -0.6500 
  4 N       -1.2520     0.7030    -0.1590 N.am  1 <1>  -0.9140 
  5 C        1.3510     0.8060     0.7070 C.ar  1 <1>  -0.0090 
  6 C       -2.6550     0.5640     0.2080 C.3   1 <1>   0.1960 
  7 C        2.5500     0.1150     0.6090 C.ar  1 <1>  -0.1500 
  8 C        1.3990     2.1920     0.6590 C.ar  1 <1>  -0.1500 
  9 C       -3.5390     1.1700    -0.8830 C.3   1 <1>  -0.0220 
 10 C        3.7810     0.7520     0.4530 C.ar  1 <1>   0.0860 
 11 C        2.6010     2.8570     0.5070 C.ar  1 <1>  -0.1500 
 12 C       -5.0170     1.0680    -0.5260 C.2   1 <1>  -0.2760 
 13 C        3.7870     2.1510     0.4020 C.ar  1 <1>  -0.1430 
 14 C        4.9850    -0.0540     0.3440 C.2   1 <1>   0.5440 
 15 C       -5.7290     2.1230    -0.1180 C.2   1 <1>  -0.2880 
 16 C       -5.6280    -0.3230    -0.6870 C.3   1 <1>  -0.0220 
 17 C        5.0890     2.9260     0.2310 C.3   1 <1>  -0.0970 
 18 O        5.9420     0.1380     1.0680 O.2   1 <1>  -0.5700 
 19 N        5.0460    -1.0580    -0.5840 N.am  1 <1>  -0.7300 
 20 C       -7.2110     2.0830     0.2180 C.3   1 <1>  -0.0220 
 21 C       -6.9950    -0.4280     0.0060 C.3   1 <1>  -0.1600 
 22 C        6.1940    -1.9770    -0.7900 C.3   1 <1>   0.0600 
 23 C       -7.8680     0.7960    -0.2980 C.3   1 <1>  -0.1600 
 24 H       -1.1190     0.1790    -1.0220 H     1 <1>   0.4200 
 25 H       -2.8420     1.0780     1.1370 H     1 <1>   0.0800 
 26 H       -2.8950    -0.4780     0.3440 H     1 <1>   0.0800 
 27 H        2.5330    -0.9610     0.6620 H     1 <1>   0.1500 
 28 H        0.4840     2.7560     0.7420 H     1 <1>   0.1500 
 29 H       -3.3650     0.6780    -1.8230 H     1 <1>   0.0800 
 30 H       -3.2760     2.2080    -0.9940 H     1 <1>   0.0800 
 31 H        2.6040     3.9330     0.4750 H     1 <1>   0.1500 
 32 H       -5.3030     3.1040     0.0110 H     1 <1>   0.1500 
 33 H       -4.9810    -1.0750    -0.2720 H     1 <1>   0.0800 
 34 H       -5.7430    -0.5280    -1.7370 H     1 <1>   0.0800 
 35 H        5.6530     2.5330    -0.5960 H     1 <1>   0.0800 
 36 H        5.6850     2.8380     1.1230 H     1 <1>   0.0800 
 37 H        4.9030     3.9690     0.0480 H     1 <1>   0.0800 
 38 H        4.2600    -1.1780    -1.2260 H     1 <1>   0.3700 
 39 H       -7.7050     2.9310    -0.2240 H     1 <1>   0.0800 
 40 H       -7.3250     2.1480     1.2860 H     1 <1>   0.0800 
 41 H       -6.8450    -0.4950     1.0700 H     1 <1>   0.0800 
 42 H       -7.4930    -1.3260    -0.3160 H     1 <1>   0.0800 
 43 H        6.6020    -1.8330    -1.7750 H     1 <1>   0.0800 
 44 H        5.8670    -2.9960    -0.6840 H     1 <1>   0.0800 
 45 H        6.9660    -1.7850    -0.0640 H     1 <1>   0.0800 
 46 H       -8.0030     0.8730    -1.3630 H     1 <1>   0.0800 
 47 H       -8.8380     0.6800     0.1530 H     1 <1>   0.0800 
@<TRIPOS>BOND
  1   1   2  2   
  2   1   3  2   
  3   1   4  am  
  4   1   5  1   
  5   4   6  1   
  6   4  24  1   
  7   5   7  ar  
  8   5   8  ar  
  9   6   9  1   
 10   6  25  1   
 11   6  26  1   
 12   7  10  ar  
 13   7  27  1   
 14   8  11  ar  
 15   8  28  1   
 16   9  12  1   
 17   9  29  1   
 18   9  30  1   
 19  10  13  ar  
 20  10  14  1   
 21  11  13  ar  
 22  11  31  1   
 23  12  15  2   
 24  12  16  1   
 25  13  17  1   
 26  14  18  2   
 27  14  19  am  
 28  15  20  1   
 29  15  32  1   
 30  16  21  1   
 31  16  33  1   
 32  16  34  1   
 33  17  35  1   
 34  17  36  1   
 35  17  37  1   
 36  19  22  1   
 37  19  38  1   
 38  20  23  1   
 39  20  39  1   
 40  20  40  1   
 41  21  23  1   
 42  21  41  1   
 43  21  42  1   
 44  22  43  1   
 45  22  44  1   
 46  22  45  1   
 47  23  46  1   
 48  23  47  1   
@<TRIPOS>SUBSTRUCTURE
  1 ****   1 GROUP 4 **** **** 0

# MOE 2024.06 (io_trps.svl 2023.06)
