@<TRIPOS>MOLECULE
NONAME
59 62 1 0 0 
SMALL
USER_CHARGES


@<TRIPOS>ATOM
  1 O        0.0130     0.2960     0.7730 O.2   1 <1>  -0.5700 
  2 C        1.0890    -0.1850     1.0450 C.2   1 <1>   0.5690 
  3 N        1.3900    -1.5200     1.0490 N.am  1 <1>  -0.2370 
  4 C        2.2830     0.6590     1.5220 C.3   1 <1>   0.2510 
  5 C        0.5520    -2.5580     0.5760 C.ar  1 <1>   0.1170 
  6 C        2.6220    -1.7040     1.6140 C.2   1 <1>   0.5690 
  7 N        2.9930     1.4560     0.4780 N.3   1 <1>  -0.8100 
  8 C        3.2390    -0.4080     2.0700 C.3   1 <1>  -0.0990 
  9 C       -0.7880    -2.6250     0.9440 C.ar  1 <1>  -0.1500 
 10 C        1.0530    -3.5430    -0.2710 C.ar  1 <1>  -0.1500 
 11 O        3.1870    -2.7550     1.7740 O.2   1 <1>  -0.5700 
 12 C        3.9310     2.4310     1.0960 C.3   1 <1>   0.1100 
 13 C        2.0570     2.1930    -0.4140 C.3   1 <1>   0.1100 
 14 C       -1.6010    -3.6440     0.4820 C.ar  1 <1>  -0.1500 
 15 C        0.2450    -4.5660    -0.7350 C.ar  1 <1>  -0.1500 
 16 C        4.7320     3.2290     0.0510 C.3   1 <1>   0.2090 
 17 C        2.7700     3.0460    -1.4850 C.3   1 <1>   0.2090 
 18 C       -1.0940    -4.6220    -0.3580 C.ar  1 <1>   0.0830 
 19 N        3.8380     3.9180    -0.9180 N.pl3 1 <1>  -0.8380 
 20 O       -1.9580    -5.5880    -0.7630 O.3   1 <1>  -0.3630 
 21 C        3.5780     5.2740    -0.7190 C.ar  1 <1>   0.1000 
 22 C       -1.5320    -6.6430    -1.5940 C.3   1 <1>   0.1200 
 23 C        4.2960     6.2470    -1.4160 C.ar  1 <1>  -0.1430 
 24 C        2.6030     5.6800     0.1860 C.ar  1 <1>  -0.1500 
 25 C       -2.7280    -7.5550    -1.8480 C.3   1 <1>  -0.2400 
 26 C        4.0300     7.5880    -1.1960 C.ar  1 <1>  -0.1500 
 27 C        5.3670     5.8460    -2.4190 C.3   1 <1>  -0.0970 
 28 C        2.3350     7.0200     0.4040 C.ar  1 <1>  -0.1430 
 29 C        3.0560     7.9750    -0.2920 C.ar  1 <1>  -0.1500 
 30 C        1.2680     7.4470     1.3950 C.3   1 <1>  -0.0970 
 31 H        1.9430     1.3090     2.3100 H     1 <1>   0.0800 
 32 H        3.2620    -0.3900     3.1430 H     1 <1>   0.0800 
 33 H        4.2350    -0.3270     1.6750 H     1 <1>   0.0800 
 34 H       -1.2040    -1.8750     1.5940 H     1 <1>   0.1500 
 35 H        2.0870    -3.5140    -0.5640 H     1 <1>   0.1500 
 36 H        4.6330     1.9180     1.7280 H     1 <1>   0.0800 
 37 H        3.3840     3.1270     1.7080 H     1 <1>   0.0800 
 38 H        1.4200     2.8310     0.1720 H     1 <1>   0.0800 
 39 H        1.4270     1.4950    -0.9360 H     1 <1>   0.0800 
 40 H       -2.6360    -3.6890     0.7690 H     1 <1>   0.1500 
 41 H        0.6740    -5.3060    -1.3830 H     1 <1>   0.1500 
 42 H        5.3810     2.5610    -0.4860 H     1 <1>   0.0800 
 43 H        5.3450     3.9590     0.5500 H     1 <1>   0.0800 
 44 H        2.0460     3.6570    -1.9960 H     1 <1>   0.0800 
 45 H        3.2140     2.3900    -2.2130 H     1 <1>   0.0800 
 46 H       -0.7460    -7.1780    -1.0890 H     1 <1>   0.0800 
 47 H       -1.1700    -6.2240    -2.5170 H     1 <1>   0.0800 
 48 H        2.0560     4.9330     0.7230 H     1 <1>   0.1500 
 49 H       -3.0920    -7.9530    -0.9180 H     1 <1>   0.0800 
 50 H       -2.4350    -8.3720    -2.4810 H     1 <1>   0.0800 
 51 H       -3.5140    -7.0050    -2.3360 H     1 <1>   0.0800 
 52 H        4.5790     8.3430    -1.7290 H     1 <1>   0.1500 
 53 H        4.9370     5.2030    -3.1660 H     1 <1>   0.0800 
 54 H        6.1510     5.3110    -1.9160 H     1 <1>   0.0800 
 55 H        5.7890     6.7050    -2.9060 H     1 <1>   0.0800 
 56 H        2.8630     9.0210    -0.1330 H     1 <1>   0.1500 
 57 H        0.5900     6.6370     1.5970 H     1 <1>   0.0800 
 58 H        0.7020     8.2710     0.9980 H     1 <1>   0.0800 
 59 H        1.7290     7.7530     2.3160 H     1 <1>   0.0800 
@<TRIPOS>BOND
  1   1   2  2   
  2   2   3  am  
  3   2   4  1   
  4   3   5  1   
  5   3   6  am  
  6   4   7  1   
  7   4   8  1   
  8   4  31  1   
  9   5   9  ar  
 10   5  10  ar  
 11   6   8  1   
 12   6  11  2   
 13   7  12  1   
 14   7  13  1   
 15   8  32  1   
 16   8  33  1   
 17   9  14  ar  
 18   9  34  1   
 19  10  15  ar  
 20  10  35  1   
 21  12  16  1   
 22  12  36  1   
 23  12  37  1   
 24  13  17  1   
 25  13  38  1   
 26  13  39  1   
 27  14  18  ar  
 28  14  40  1   
 29  15  18  ar  
 30  15  41  1   
 31  16  19  1   
 32  16  42  1   
 33  16  43  1   
 34  17  19  1   
 35  17  44  1   
 36  17  45  1   
 37  18  20  1   
 38  19  21  1   
 39  20  22  1   
 40  21  23  ar  
 41  21  24  ar  
 42  22  25  1   
 43  22  46  1   
 44  22  47  1   
 45  23  26  ar  
 46  23  27  1   
 47  24  28  ar  
 48  24  48  1   
 49  25  49  1   
 50  25  50  1   
 51  25  51  1   
 52  26  29  ar  
 53  26  52  1   
 54  27  53  1   
 55  27  54  1   
 56  27  55  1   
 57  28  29  ar  
 58  28  30  1   
 59  29  56  1   
 60  30  57  1   
 61  30  58  1   
 62  30  59  1   
@<TRIPOS>SUBSTRUCTURE
  1 ****   7 GROUP 4 **** **** 0

# MOE 2024.06 (io_trps.svl 2023.06)
