@<TRIPOS>MOLECULE
NONAME
39 41 1 0 0 
SMALL
USER_CHARGES


@<TRIPOS>ATOM
  1 S       -0.9070     0.0740     1.2010 S.3   1 <1>  -0.3320 
  2 C       -2.1860     0.8690     0.1950 C.ar  1 <1>   0.1020 
  3 C        0.6800     0.8920     0.7400 C.3   1 <1>  -0.0100 
  4 C       -2.2840     2.2530     0.0000 C.ar  1 <1>   0.1170 
  5 C       -3.1090     0.0040    -0.3660 C.ar  1 <1>  -0.1500 
  6 N       -1.4320     3.2110     0.5650 N.am  1 <1>  -0.5470 
  7 C       -3.3360     2.7260    -0.7750 C.ar  1 <1>  -0.1500 
  8 C       -4.1430     0.4980    -1.1420 C.ar  1 <1>  -0.1500 
  9 C       -0.4150     3.8540    -0.0800 C.2   1 <1>   0.5690 
 10 C       -4.2550     1.8630    -1.3450 C.ar  1 <1>  -0.1500 
 11 O        0.0510     3.4230    -1.1110 O.2   1 <1>  -0.5700 
 12 C        0.2230     5.1020     0.5610 C.3   1 <1>  -0.0190 
 13 C       -0.8100     6.3790     0.9510 C.3   1 <1>  -0.1860 
 14 C        1.4110     5.7240    -0.3910 C.3   1 <1>  -0.0800 
 15 C       -2.2810     5.9970     0.9390 C.2   1 <1>   0.9060 
 16 C       -0.3620     7.6780     0.0510 C.3   1 <1>  -0.0800 
 17 C        0.5350     6.7050    -0.1540 C.3   1 <1>  -0.1600 
 18 C        1.8720     7.0300    -1.2590 C.3   1 <1>  -0.1600 
 19 O       -3.0210     6.3080     0.0050 O.co2 1 <1>  -0.9000 
 20 O       -2.6670     5.2800     1.8700 O.co2 1 <1>  -0.9000 
 21 C        0.8330     8.2840    -0.8830 C.3   1 <1>  -0.1600 
 22 H        1.4800     0.2220     0.9940 H     1 <1>   0.0800 
 23 H        0.7560     1.8060     1.2980 H     1 <1>   0.0800 
 24 H        0.6570     1.0800    -0.3190 H     1 <1>   0.0800 
 25 H       -3.0150    -1.0530    -0.1940 H     1 <1>   0.1500 
 26 H       -1.9110     3.8060     1.2710 H     1 <1>   0.3700 
 27 H       -3.4340     3.7910    -0.9190 H     1 <1>   0.1500 
 28 H       -4.8590    -0.1740    -1.5820 H     1 <1>   0.1500 
 29 H       -5.0560     2.2620    -1.9410 H     1 <1>   0.1500 
 30 H        0.6610     4.7490     1.4800 H     1 <1>   0.0800 
 31 H       -0.6300     6.6340     1.9850 H     1 <1>   0.0800 
 32 H        2.2780     5.5740     0.2370 H     1 <1>   0.0800 
 33 H       -1.2150     7.8120    -0.6030 H     1 <1>   0.0800 
 34 H       -0.0990     6.3520    -1.0830 H     1 <1>   0.0800 
 35 H        1.1660     7.0450     0.7760 H     1 <1>   0.0800 
 36 H        1.8120     6.8040    -2.3140 H     1 <1>   0.0800 
 37 H        2.8920     7.3020    -1.0410 H     1 <1>   0.0800 
 38 H        1.3610     9.0610    -0.3510 H     1 <1>   0.0800 
 39 H        0.4300     8.7220    -1.7830 H     1 <1>   0.0800 
@<TRIPOS>BOND
  1   1   2  1   
  2   1   3  1   
  3   2   4  ar  
  4   2   5  ar  
  5   3  22  1   
  6   3  23  1   
  7   3  24  1   
  8   4   6  1   
  9   4   7  ar  
 10   5   8  ar  
 11   5  25  1   
 12   6   9  am  
 13   6  26  1   
 14   7  10  ar  
 15   7  27  1   
 16   8  10  ar  
 17   8  28  1   
 18   9  11  2   
 19   9  12  1   
 20  10  29  1   
 21  12  13  1   
 22  12  14  1   
 23  12  30  1   
 24  13  15  1   
 25  13  16  1   
 26  13  31  1   
 27  14  17  1   
 28  14  18  1   
 29  14  32  1   
 30  15  19  ar  
 31  15  20  ar  
 32  16  17  1   
 33  16  21  1   
 34  16  33  1   
 35  17  34  1   
 36  17  35  1   
 37  18  21  1   
 38  18  36  1   
 39  18  37  1   
 40  21  38  1   
 41  21  39  1   
@<TRIPOS>SUBSTRUCTURE
  1 ****   9 GROUP 4 **** **** 0

# MOE 2024.06 (io_trps.svl 2023.06)
