@<TRIPOS>MOLECULE
NONAME
40 40 1 0 0 
SMALL
USER_CHARGES


@<TRIPOS>ATOM
  1 O       -4.3930     4.2460    -0.1310 O.3   1 <1>  -0.3630 
  2 C       -3.2080     4.8980    -0.0240 C.ar  1 <1>   0.0830 
  3 C       -5.6080     4.8890     0.1600 C.3   1 <1>   0.1200 
  4 C       -3.0810     6.2240     0.3710 C.ar  1 <1>  -0.1500 
  5 C       -2.0690     4.1790    -0.3330 C.ar  1 <1>  -0.1500 
  6 C       -6.7200     3.8630    -0.0670 C.3   1 <1>   0.3430 
  7 C       -1.8270     6.8040     0.4500 C.ar  1 <1>  -0.1500 
  8 C       -0.8190     4.7660    -0.2500 C.ar  1 <1>  -0.1500 
  9 N       -8.0750     4.4340     0.2120 N.4   1 <1>  -0.9060 
 10 C       -0.6670     6.0950     0.1440 C.ar  1 <1>  -0.1430 
 11 C       -9.1570     3.4280    -0.0110 C.3   1 <1>   0.2630 
 12 C        0.7110     6.7990     0.2510 C.3   1 <1>   0.1440 
 13 C        1.8830     5.8500    -0.1300 C.3   1 <1>  -0.1600 
 14 C        0.9030     7.2840     1.7000 C.3   1 <1>  -0.2400 
 15 C        0.7170     8.0150    -0.6940 C.3   1 <1>  -0.2400 
 16 C        3.3130     6.4210    -0.0670 C.3   1 <1>  -0.2400 
 17 H       -5.7080     5.7270    -0.5080 H     1 <1>   0.0800 
 18 H       -5.5760     5.2100     1.1860 H     1 <1>   0.0800 
 19 H       -3.9320     6.8260     0.6210 H     1 <1>   0.1500 
 20 H       -2.1590     3.1530    -0.6390 H     1 <1>   0.1500 
 21 H       -6.5440     3.0180     0.5780 H     1 <1>   0.0800 
 22 H       -6.6730     3.5270    -1.0910 H     1 <1>   0.0800 
 23 H       -1.7650     7.8310     0.7590 H     1 <1>   0.1500 
 24 H        0.0230     4.1520    -0.5040 H     1 <1>   0.1500 
 25 H       -8.2390     5.2510    -0.3930 H     1 <1>   0.4500 
 26 H       -8.1170     4.7690     1.1850 H     1 <1>   0.4500 
 27 H       -9.1480     3.0870    -1.0350 H     1 <1>   0.0800 
 28 H      -10.1220     3.8630     0.1960 H     1 <1>   0.0800 
 29 H       -9.0180     2.5770     0.6360 H     1 <1>   0.0800 
 30 H        1.7250     5.5000    -1.1350 H     1 <1>   0.0800 
 31 H        1.8540     4.9940     0.5220 H     1 <1>   0.0800 
 32 H        0.9250     6.4430     2.3690 H     1 <1>   0.0800 
 33 H        0.1040     7.9330     2.0040 H     1 <1>   0.0800 
 34 H        1.8190     7.8350     1.8080 H     1 <1>   0.0800 
 35 H        0.6070     7.6890    -1.7120 H     1 <1>   0.0800 
 36 H        1.6310     8.5720    -0.6060 H     1 <1>   0.0800 
 37 H       -0.0880     8.6880    -0.4700 H     1 <1>   0.0800 
 38 H        3.4350     7.2480    -0.7420 H     1 <1>   0.0800 
 39 H        4.0130     5.6570    -0.3550 H     1 <1>   0.0800 
 40 H        3.5650     6.7370     0.9290 H     1 <1>   0.0800 
@<TRIPOS>BOND
  1   1   2  1   
  2   1   3  1   
  3   2   4  ar  
  4   2   5  ar  
  5   3   6  1   
  6   3  17  1   
  7   3  18  1   
  8   4   7  ar  
  9   4  19  1   
 10   5   8  ar  
 11   5  20  1   
 12   6   9  1   
 13   6  21  1   
 14   6  22  1   
 15   7  10  ar  
 16   7  23  1   
 17   8  10  ar  
 18   8  24  1   
 19   9  11  1   
 20   9  25  1   
 21   9  26  1   
 22  10  12  1   
 23  11  27  1   
 24  11  28  1   
 25  11  29  1   
 26  12  13  1   
 27  12  14  1   
 28  12  15  1   
 29  13  16  1   
 30  13  30  1   
 31  13  31  1   
 32  14  32  1   
 33  14  33  1   
 34  14  34  1   
 35  15  35  1   
 36  15  36  1   
 37  15  37  1   
 38  16  38  1   
 39  16  39  1   
 40  16  40  1   
@<TRIPOS>SUBSTRUCTURE
  1 ****   4 GROUP 4 **** **** 0

# MOE 2024.06 (io_trps.svl 2023.06)
