@<TRIPOS>MOLECULE
NONAME
53 55 1 0 0 
SMALL
USER_CHARGES


@<TRIPOS>ATOM
  1 S       -0.4150    -0.3780     1.2390 S.o2  1 <1>   1.3330 
  2 O       -1.8510    -0.4940     1.2020 O.2   1 <1>  -0.6500 
  3 O        0.3430    -1.0220     2.2860 O.2   1 <1>  -0.6500 
  4 N       -0.0210     1.3030     1.2710 N.am  1 <1>  -0.6930 
  5 C        0.2490    -0.8740    -0.3360 C.3   1 <1>  -0.1350 
  6 C       -0.7990     2.2510     0.6230 C.ar  1 <1>   0.1990 
  7 C        1.1280     1.7310     2.0920 C.3   1 <1>   0.3390 
  8 C       -1.9890     2.6920     1.1880 C.ar  1 <1>  -0.1500 
  9 C       -0.4030     2.7790    -0.6000 C.ar  1 <1>  -0.1500 
 10 C        2.4300     1.4730     1.3450 C.ar  1 <1>  -0.1430 
 11 C       -2.7600     3.6500     0.5530 C.ar  1 <1>  -0.1500 
 12 C       -1.1690     3.7370    -1.2380 C.ar  1 <1>  -0.1500 
 13 C        2.9100     2.3990     0.4320 C.ar  1 <1>  -0.1500 
 14 C        3.1520     0.3100     1.5610 C.ar  1 <1>  -0.1500 
 15 C       -2.3490     4.1760    -0.6600 C.ar  1 <1>  -0.1500 
 16 C        4.0820     2.1570    -0.2600 C.ar  1 <1>  -0.1500 
 17 C        4.3230     0.0720     0.8650 C.ar  1 <1>  -0.1500 
 18 C        4.8210     0.9910    -0.0590 C.ar  1 <1>   0.0860 
 19 C        6.0580     0.7530    -0.7840 C.2   1 <1>   0.5440 
 20 O        6.2520     1.2590    -1.8730 O.2   1 <1>  -0.5700 
 21 N        7.0830     0.0060    -0.2480 N.am  1 <1>  -0.6600 
 22 C        8.0880    -0.6040    -1.1680 C.3   1 <1>   0.1400 
 23 C        7.6550     0.3940     1.0720 C.3   1 <1>   0.1400 
 24 C        9.2500     0.3800    -1.3930 C.3   1 <1>   0.3430 
 25 C        8.8410     1.3620     0.8650 C.3   1 <1>   0.3430 
 26 N        9.8770     0.8170    -0.0900 N.4   1 <1>  -0.9590 
 27 C       10.9490     1.8280    -0.3400 C.3   1 <1>   0.2630 
 28 H        0.0880    -1.9230    -0.4880 H     1 <1>   0.0800 
 29 H        1.3010    -0.6770    -0.3760 H     1 <1>   0.0800 
 30 H       -0.2350    -0.3340    -1.1250 H     1 <1>   0.0800 
 31 H        1.1220     1.2080     3.0330 H     1 <1>   0.0800 
 32 H        1.0380     2.7820     2.3050 H     1 <1>   0.0800 
 33 H       -2.3100     2.2730     2.1240 H     1 <1>   0.1500 
 34 H        0.5070     2.4320    -1.0530 H     1 <1>   0.1500 
 35 H       -3.6800     3.9830     1.0010 H     1 <1>   0.1500 
 36 H       -0.8530     4.1410    -2.1840 H     1 <1>   0.1500 
 37 H        2.3680     3.3130     0.2550 H     1 <1>   0.1500 
 38 H        2.8010    -0.4220     2.2700 H     1 <1>   0.1500 
 39 H       -2.9480     4.9210    -1.1540 H     1 <1>   0.1500 
 40 H        4.4340     2.8830    -0.9730 H     1 <1>   0.1500 
 41 H        4.8540    -0.8470     1.0380 H     1 <1>   0.1500 
 42 H        7.6240    -0.8320    -2.1140 H     1 <1>   0.0800 
 43 H        8.4510    -1.5270    -0.7510 H     1 <1>   0.0800 
 44 H        7.9820    -0.4870     1.5980 H     1 <1>   0.0800 
 45 H        6.9060     0.8780     1.6750 H     1 <1>   0.0800 
 46 H        8.8590     1.2390    -1.9160 H     1 <1>   0.0800 
 47 H        9.9900    -0.0830    -2.0240 H     1 <1>   0.0800 
 48 H        9.2960     1.5730     1.8190 H     1 <1>   0.0800 
 49 H        8.4490     2.2880     0.4750 H     1 <1>   0.0800 
 50 H       10.2990    -0.0150     0.3450 H     1 <1>   0.4500 
 51 H       10.5310     2.7080    -0.8030 H     1 <1>   0.0800 
 52 H       11.7030     1.4200    -0.9950 H     1 <1>   0.0800 
 53 H       11.4190     2.1150     0.5860 H     1 <1>   0.0800 
@<TRIPOS>BOND
  1   1   2  2   
  2   1   3  2   
  3   1   4  am  
  4   1   5  1   
  5   4   6  1   
  6   4   7  1   
  7   5  28  1   
  8   5  29  1   
  9   5  30  1   
 10   6   8  ar  
 11   6   9  ar  
 12   7  10  1   
 13   7  31  1   
 14   7  32  1   
 15   8  11  ar  
 16   8  33  1   
 17   9  12  ar  
 18   9  34  1   
 19  10  13  ar  
 20  10  14  ar  
 21  11  15  ar  
 22  11  35  1   
 23  12  15  ar  
 24  12  36  1   
 25  13  16  ar  
 26  13  37  1   
 27  14  17  ar  
 28  14  38  1   
 29  15  39  1   
 30  16  18  ar  
 31  16  40  1   
 32  17  18  ar  
 33  17  41  1   
 34  18  19  1   
 35  19  20  2   
 36  19  21  am  
 37  21  22  1   
 38  21  23  1   
 39  22  24  1   
 40  22  42  1   
 41  22  43  1   
 42  23  25  1   
 43  23  44  1   
 44  23  45  1   
 45  24  26  1   
 46  24  46  1   
 47  24  47  1   
 48  25  26  1   
 49  25  48  1   
 50  25  49  1   
 51  26  27  1   
 52  26  50  1   
 53  27  51  1   
 54  27  52  1   
 55  27  53  1   
@<TRIPOS>SUBSTRUCTURE
  1 ****  13 GROUP 4 **** **** 0

# MOE 2024.06 (io_trps.svl 2023.06)
