@<TRIPOS>MOLECULE
NONAME
44 46 1 0 0 
SMALL
USER_CHARGES


@<TRIPOS>ATOM
  1 F        0.6490     0.5460     0.3190 F     1 <1>  -0.3400 
  2 C        1.4560     1.2980    -0.4230 C.3   1 <1>   1.1640 
  3 F        0.8140     2.4440    -0.6130 F     1 <1>  -0.3400 
  4 F        1.5250     0.7060    -1.6090 F     1 <1>  -0.3400 
  5 C        2.8440     1.4870     0.2090 C.ar  1 <1>  -0.1440 
  6 C        3.6340     2.5770    -0.1440 C.ar  1 <1>  -0.1500 
  7 C        3.3440     0.5770     1.1350 C.ar  1 <1>  -0.1500 
  8 C        4.8960     2.7730     0.4070 C.ar  1 <1>   0.1170 
  9 C        4.5960     0.7600     1.6950 C.ar  1 <1>  -0.1500 
 10 N        5.7150     3.8620     0.0790 N.am  1 <1>  -0.5470 
 11 C        5.3630     1.8500     1.3330 C.ar  1 <1>  -0.1500 
 12 C        5.6790     4.7930    -0.9200 C.2   1 <1>   0.5690 
 13 O        4.8490     4.8260    -1.7960 O.2   1 <1>  -0.5700 
 14 C        6.7850     5.8500    -0.8960 C.3   1 <1>   0.1710 
 15 N        8.0030     5.4260    -0.1390 N.3   1 <1>  -0.8100 
 16 C        8.8350     6.5990     0.2110 C.3   1 <1>   0.1100 
 17 C        8.8190     4.4800    -0.9430 C.3   1 <1>   0.1100 
 18 C       10.0980     6.2070     1.0010 C.3   1 <1>   0.2090 
 19 C       10.0880     4.0160    -0.2030 C.3   1 <1>   0.2090 
 20 N       10.9020     5.1820     0.2640 N.pl3 1 <1>  -0.8380 
 21 C       12.2820     5.2020     0.2170 C.ar  1 <1>   0.7200 
 22 N       12.8900     4.1370    -0.3070 N.ar  1 <1>  -0.6200 
 23 N       12.8940     6.2830     0.7020 N.ar  1 <1>  -0.6200 
 24 C       14.1990     4.1680    -0.3440 C.ar  1 <1>   0.1600 
 25 C       14.2030     6.2870     0.6520 C.ar  1 <1>   0.1600 
 26 C       14.9170     5.2370     0.1300 C.ar  1 <1>  -0.1500 
 27 H        3.2590     3.2870    -0.8590 H     1 <1>   0.1500 
 28 H        2.7630    -0.2830     1.4290 H     1 <1>   0.1500 
 29 H        4.9720     0.0500     2.4120 H     1 <1>   0.1500 
 30 H        6.5530     3.9910     0.6560 H     1 <1>   0.3700 
 31 H        6.3340     1.9830     1.7740 H     1 <1>   0.1500 
 32 H        6.3660     6.7260    -0.4330 H     1 <1>   0.0800 
 33 H        7.0470     6.1070    -1.9070 H     1 <1>   0.0800 
 34 H        8.2580     7.2810     0.8100 H     1 <1>   0.0800 
 35 H        9.1380     7.1150    -0.6840 H     1 <1>   0.0800 
 36 H        9.1200     4.9480    -1.8650 H     1 <1>   0.0800 
 37 H        8.2330     3.6120    -1.1910 H     1 <1>   0.0800 
 38 H        9.8080     5.8040     1.9550 H     1 <1>   0.0800 
 39 H       10.6730     7.0980     1.1820 H     1 <1>   0.0800 
 40 H       10.6550     3.3900    -0.8680 H     1 <1>   0.0800 
 41 H        9.8080     3.4230     0.6490 H     1 <1>   0.0800 
 42 H       14.7120     3.3200    -0.7630 H     1 <1>   0.1500 
 43 H       14.7200     7.1500     1.0380 H     1 <1>   0.1500 
 44 H       15.9890     5.2520     0.0950 H     1 <1>   0.1500 
@<TRIPOS>BOND
  1   1   2  1   
  2   2   3  1   
  3   2   4  1   
  4   2   5  1   
  5   5   6  ar  
  6   5   7  ar  
  7   6   8  ar  
  8   6  27  1   
  9   7   9  ar  
 10   7  28  1   
 11   8  10  1   
 12   8  11  ar  
 13   9  11  ar  
 14   9  29  1   
 15  10  12  am  
 16  10  30  1   
 17  11  31  1   
 18  12  13  2   
 19  12  14  1   
 20  14  15  1   
 21  14  32  1   
 22  14  33  1   
 23  15  16  1   
 24  15  17  1   
 25  16  18  1   
 26  16  34  1   
 27  16  35  1   
 28  17  19  1   
 29  17  36  1   
 30  17  37  1   
 31  18  20  1   
 32  18  38  1   
 33  18  39  1   
 34  19  20  1   
 35  19  40  1   
 36  19  41  1   
 37  20  21  1   
 38  21  22  ar  
 39  21  23  ar  
 40  22  24  ar  
 41  23  25  ar  
 42  24  26  ar  
 43  24  42  1   
 44  25  26  ar  
 45  25  43  1   
 46  26  44  1   
@<TRIPOS>SUBSTRUCTURE
  1 ****  10 GROUP 4 **** **** 0

# MOE 2024.06 (io_trps.svl 2023.06)
