@<TRIPOS>MOLECULE
NONAME
34 34 1 0 0 
SMALL
USER_CHARGES


@<TRIPOS>ATOM
  1 BR       0.0830     0.2920    -0.8650 Br    1 <1>  -0.1110 
  2 C        1.9980     0.2320    -0.6590 C.ar  1 <1>   0.1110 
  3 C        2.6620    -0.9390    -0.9610 C.ar  1 <1>  -0.1500 
  4 C        2.6550     1.3600    -0.2160 C.ar  1 <1>  -0.1500 
  5 C        4.0390    -0.9850    -0.8120 C.ar  1 <1>  -0.1440 
  6 C        4.0320     1.3230    -0.0690 C.ar  1 <1>  -0.1440 
  7 C        4.7330     0.1450    -0.3640 C.ar  1 <1>   0.1170 
  8 C        4.7670    -2.2860    -1.1320 C.3   1 <1>  -0.0960 
  9 C        4.7390     2.5840     0.4130 C.3   1 <1>  -0.0960 
 10 N        6.1300     0.0800    -0.2450 N.am  1 <1>  -0.5470 
 11 C        6.8890     0.1430     0.8870 C.2   1 <1>   0.5690 
 12 O        6.4280     0.3140     1.9870 O.2   1 <1>  -0.5700 
 13 C        8.3910    -0.0370     0.7510 C.3   1 <1>  -0.0990 
 14 C        9.1500     1.2800     0.5060 C.3   1 <1>  -0.1600 
 15 C        8.8760     1.8840    -0.8790 C.3   1 <1>  -0.1600 
 16 C        9.7020     3.1550    -1.0930 C.3   1 <1>  -0.2400 
 17 H        2.1030    -1.7910    -1.3010 H     1 <1>   0.1500 
 18 H        2.0910     2.2470     0.0090 H     1 <1>   0.1500 
 19 H        4.0710    -3.0670    -1.3810 H     1 <1>   0.0800 
 20 H        5.3360    -2.6050    -0.2770 H     1 <1>   0.0800 
 21 H        5.4300    -2.1440    -1.9650 H     1 <1>   0.0800 
 22 H        4.0940     3.4410     0.3390 H     1 <1>   0.0800 
 23 H        5.6160     2.7740    -0.1760 H     1 <1>   0.0800 
 24 H        5.0290     2.4670     1.4420 H     1 <1>   0.0800 
 25 H        6.6260    -0.1320    -1.1070 H     1 <1>   0.3700 
 26 H        8.6020    -0.7370    -0.0350 H     1 <1>   0.0800 
 27 H        8.7480    -0.4700     1.6680 H     1 <1>   0.0800 
 28 H       10.2050     1.0870     0.6000 H     1 <1>   0.0800 
 29 H        8.8790     1.9880     1.2710 H     1 <1>   0.0800 
 30 H        7.8330     2.1330    -0.9750 H     1 <1>   0.0800 
 31 H        9.1250     1.1700    -1.6450 H     1 <1>   0.0800 
 32 H        9.4560     3.8930    -0.3490 H     1 <1>   0.0800 
 33 H        9.4970     3.5690    -2.0640 H     1 <1>   0.0800 
 34 H       10.7540     2.9370    -1.0300 H     1 <1>   0.0800 
@<TRIPOS>BOND
  1   1   2  1   
  2   2   3  ar  
  3   2   4  ar  
  4   3   5  ar  
  5   3  17  1   
  6   4   6  ar  
  7   4  18  1   
  8   5   7  ar  
  9   5   8  1   
 10   6   7  ar  
 11   6   9  1   
 12   7  10  1   
 13   8  19  1   
 14   8  20  1   
 15   8  21  1   
 16   9  22  1   
 17   9  23  1   
 18   9  24  1   
 19  10  11  am  
 20  10  25  1   
 21  11  12  2   
 22  11  13  1   
 23  13  14  1   
 24  13  26  1   
 25  13  27  1   
 26  14  15  1   
 27  14  28  1   
 28  14  29  1   
 29  15  16  1   
 30  15  30  1   
 31  15  31  1   
 32  16  32  1   
 33  16  33  1   
 34  16  34  1   
@<TRIPOS>SUBSTRUCTURE
  1 ****   7 GROUP 4 **** **** 0

# MOE 2024.06 (io_trps.svl 2023.06)
