@<TRIPOS>MOLECULE
NONAME
43 44 1 0 0 
SMALL
USER_CHARGES


@<TRIPOS>ATOM
  1 F       -0.6240    -1.3230    -1.9050 F     1 <1>  -0.3400 
  2 C       -1.4330    -1.3670    -0.8470 C.3   1 <1>   1.0200 
  3 F       -1.4260    -0.1390    -0.3390 F     1 <1>  -0.3400 
  4 F       -2.6450    -1.5220    -1.3650 F     1 <1>  -0.3400 
  5 C       -1.0250    -2.4790     0.1770 C.3   1 <1>   0.4990 
  6 N       -1.6770    -2.5680     1.5540 N.am  1 <1>  -0.7300 
  7 C        0.4740    -2.2450     0.3750 C.2   1 <1>   0.5690 
  8 C       -0.9780    -3.8840    -0.4470 C.2   1 <1>  -0.1240 
  9 C       -2.8140    -2.1040     2.1170 C.2   1 <1>   0.5690 
 10 O        0.9370    -1.2660     0.9120 O.2   1 <1>  -0.5700 
 11 N        1.1890    -3.3220    -0.0900 N.am  1 <1>  -0.4690 
 12 C        0.3140    -4.2840    -0.5510 C.2   1 <1>  -0.0290 
 13 C       -2.2110    -4.5120    -0.8100 C.2   1 <1>   0.7060 
 14 O       -2.9660    -2.2760     3.2970 O.2   1 <1>  -0.5700 
 15 C       -3.9050    -1.3800     1.3680 C.3   1 <1>  -0.1790 
 16 C        2.6840    -3.4130    -0.0910 C.3   1 <1>   0.2200 
 17 C        0.8680    -5.6040    -1.0790 C.3   1 <1>  -0.1020 
 18 O       -3.2960    -4.0920    -0.4690 O.2   1 <1>  -0.5700 
 19 O       -2.1730    -5.6020    -1.5790 O.3   1 <1>  -0.4300 
 20 C        3.2490    -3.4780     1.3330 C.3   1 <1>  -0.1600 
 21 C        3.3540    -2.2120    -0.7760 C.3   1 <1>  -0.1600 
 22 C       -3.3530    -6.2670    -1.9930 C.3   1 <1>   0.0400 
 23 C        4.5020    -2.6060     1.3160 C.3   1 <1>  -0.1600 
 24 C        4.1850    -1.5130     0.3010 C.3   1 <1>  -0.1600 
 25 H       -1.0610    -3.0000     2.2450 H     1 <1>   0.3700 
 26 H       -3.5570    -0.4260     1.0250 H     1 <1>   0.0800 
 27 H       -4.7350    -1.2120     2.0290 H     1 <1>   0.0800 
 28 H       -4.2570    -1.9690     0.5450 H     1 <1>   0.0800 
 29 H        2.9980    -4.2940    -0.6190 H     1 <1>   0.0800 
 30 H        1.4260    -5.4330    -1.9820 H     1 <1>   0.0800 
 31 H        0.0970    -6.3170    -1.2940 H     1 <1>   0.0800 
 32 H        1.5160    -6.0490    -0.3460 H     1 <1>   0.0800 
 33 H        3.4810    -4.4880     1.6200 H     1 <1>   0.0800 
 34 H        2.5520    -3.0620     2.0390 H     1 <1>   0.0800 
 35 H        2.6490    -1.5360    -1.2270 H     1 <1>   0.0800 
 36 H        4.0160    -2.5770    -1.5400 H     1 <1>   0.0800 
 37 H       -3.0750    -7.1110    -2.5990 H     1 <1>   0.0800 
 38 H       -3.9570    -5.5840    -2.5650 H     1 <1>   0.0800 
 39 H       -3.8910    -6.5980    -1.1210 H     1 <1>   0.0800 
 40 H        5.3430    -3.1840     0.9710 H     1 <1>   0.0800 
 41 H        4.7250    -2.2000     2.2880 H     1 <1>   0.0800 
 42 H        3.5860    -0.7530     0.7750 H     1 <1>   0.0800 
 43 H        5.0740    -1.0590    -0.1000 H     1 <1>   0.0800 
@<TRIPOS>BOND
  1   1   2  1   
  2   2   3  1   
  3   2   4  1   
  4   2   5  1   
  5   5   6  1   
  6   5   7  1   
  7   5   8  1   
  8   6   9  am  
  9   6  25  1   
 10   7  10  2   
 11   7  11  am  
 12   8  12  2   
 13   8  13  1   
 14   9  14  2   
 15   9  15  1   
 16  11  12  1   
 17  11  16  1   
 18  12  17  1   
 19  13  18  2   
 20  13  19  1   
 21  15  26  1   
 22  15  27  1   
 23  15  28  1   
 24  16  20  1   
 25  16  21  1   
 26  16  29  1   
 27  17  30  1   
 28  17  31  1   
 29  17  32  1   
 30  19  22  1   
 31  20  23  1   
 32  20  33  1   
 33  20  34  1   
 34  21  24  1   
 35  21  35  1   
 36  21  36  1   
 37  22  37  1   
 38  22  38  1   
 39  22  39  1   
 40  23  24  1   
 41  23  40  1   
 42  23  41  1   
 43  24  42  1   
 44  24  43  1   
@<TRIPOS>SUBSTRUCTURE
  1 ****   5 GROUP 4 **** **** 0

# MOE 2024.06 (io_trps.svl 2023.06)
