@<TRIPOS>MOLECULE
NONAME
44 46 1 0 0 
SMALL
USER_CHARGES


@<TRIPOS>ATOM
  1 O       -0.0110    -0.5170    -0.7730 O.2   1 <1>  -0.5700 
  2 C       -0.3760    -1.5010    -0.1640 C.2   1 <1>   0.6340 
  3 O        0.4350    -2.0300     0.7570 O.3   1 <1>  -0.4300 
  4 C       -1.6650    -2.1320    -0.3820 C.ar  1 <1>   0.0860 
  5 C        1.7080    -1.4780     1.0330 C.3   1 <1>   0.0400 
  6 C       -2.0860    -3.2430     0.3540 C.ar  1 <1>  -0.1500 
  7 C       -2.5490    -1.6440    -1.3450 C.ar  1 <1>  -0.1500 
  8 C       -3.3230    -3.8250     0.1500 C.ar  1 <1>  -0.1500 
  9 C       -3.7880    -2.2180    -1.5570 C.ar  1 <1>  -0.1500 
 10 C       -4.1900    -3.3100    -0.8020 C.ar  1 <1>  -0.1440 
 11 C       -5.5640    -3.9190    -1.0100 C.3   1 <1>   0.4860 
 12 N       -6.4410    -3.5030     0.1160 N.4   1 <1>  -0.9590 
 13 C       -7.7840    -4.1980     0.0600 C.3   1 <1>   0.3430 
 14 C       -6.5950    -1.9950     0.1650 C.3   1 <1>   0.3430 
 15 C       -8.7580    -3.7210     1.1600 C.3   1 <1>   0.2090 
 16 C       -7.5570    -1.5360     1.2780 C.3   1 <1>   0.2090 
 17 N       -8.8640    -2.2360     1.1230 N.pl3 1 <1>  -0.8380 
 18 C       -9.8720    -1.6670     0.3780 C.ar  1 <1>   0.7200 
 19 N       -9.5150    -0.7230    -0.4900 N.ar  1 <1>  -0.6200 
 20 N      -11.0930    -2.1490     0.5700 N.ar  1 <1>  -0.6200 
 21 C      -10.4930    -0.1850    -1.1820 C.ar  1 <1>   0.1600 
 22 C      -12.0490    -1.5930    -0.1350 C.ar  1 <1>   0.1600 
 23 C      -11.7980    -0.5890    -1.0370 C.ar  1 <1>  -0.1500 
 24 H        2.1760    -2.0670     1.8020 H     1 <1>   0.0800 
 25 H        1.5830    -0.4630     1.3670 H     1 <1>   0.0800 
 26 H        2.3010    -1.5030     0.1350 H     1 <1>   0.0800 
 27 H       -1.4270    -3.6590     1.0990 H     1 <1>   0.1500 
 28 H       -2.2500    -0.7940    -1.9390 H     1 <1>   0.1500 
 29 H       -3.5950    -4.6840     0.7410 H     1 <1>   0.1500 
 30 H       -4.4290    -1.8020    -2.3170 H     1 <1>   0.1500 
 31 H       -5.4780    -4.9930    -1.0400 H     1 <1>   0.0800 
 32 H       -5.9780    -3.5830    -1.9480 H     1 <1>   0.0800 
 33 H       -5.9700    -3.7770     0.9860 H     1 <1>   0.4500 
 34 H       -7.6520    -5.2640     0.1480 H     1 <1>   0.0800 
 35 H       -8.2490    -4.0020    -0.8930 H     1 <1>   0.0800 
 36 H       -6.9870    -1.6390    -0.7740 H     1 <1>   0.0800 
 37 H       -5.6350    -1.5300     0.3200 H     1 <1>   0.0800 
 38 H       -8.4090    -4.0310     2.1290 H     1 <1>   0.0800 
 39 H       -9.7210    -4.1770     1.0040 H     1 <1>   0.0800 
 40 H       -7.6940    -0.4680     1.2270 H     1 <1>   0.0800 
 41 H       -7.1410    -1.7600     2.2450 H     1 <1>   0.0800 
 42 H      -10.2520     0.5970    -1.8820 H     1 <1>   0.1500 
 43 H      -13.0570    -1.9470     0.0110 H     1 <1>   0.1500 
 44 H      -12.5910    -0.1390    -1.6060 H     1 <1>   0.1500 
@<TRIPOS>BOND
  1   1   2  2   
  2   2   3  1   
  3   2   4  1   
  4   3   5  1   
  5   4   6  ar  
  6   4   7  ar  
  7   5  24  1   
  8   5  25  1   
  9   5  26  1   
 10   6   8  ar  
 11   6  27  1   
 12   7   9  ar  
 13   7  28  1   
 14   8  10  ar  
 15   8  29  1   
 16   9  10  ar  
 17   9  30  1   
 18  10  11  1   
 19  11  12  1   
 20  11  31  1   
 21  11  32  1   
 22  12  13  1   
 23  12  14  1   
 24  12  33  1   
 25  13  15  1   
 26  13  34  1   
 27  13  35  1   
 28  14  16  1   
 29  14  36  1   
 30  14  37  1   
 31  15  17  1   
 32  15  38  1   
 33  15  39  1   
 34  16  17  1   
 35  16  40  1   
 36  16  41  1   
 37  17  18  1   
 38  18  19  ar  
 39  18  20  ar  
 40  19  21  ar  
 41  20  22  ar  
 42  21  23  ar  
 43  21  42  1   
 44  22  23  ar  
 45  22  43  1   
 46  23  44  1   
@<TRIPOS>SUBSTRUCTURE
  1 ****  14 GROUP 4 **** **** 0

# MOE 2024.06 (io_trps.svl 2023.06)
