@<TRIPOS>MOLECULE
NONAME
42 44 1 0 0 
SMALL
USER_CHARGES


@<TRIPOS>ATOM
  1 S        0.5220    -0.4840     1.0940 S.3   1 <1>  -0.4600 
  2 C        0.0520    -1.8150    -0.0520 C.3   1 <1>   0.4600 
  3 C        1.9690     0.2460     0.2880 C.3   1 <1>   0.0700 
  4 S        1.3560    -1.7780    -1.3170 S.3   1 <1>  -0.4600 
  5 C        0.0430    -3.2450     0.6990 C.3   1 <1>  -0.0190 
  6 C       -1.3560    -1.4220    -0.8010 C.3   1 <1>  -0.0800 
  7 C        2.6660    -0.8820    -0.4560 C.3   1 <1>   0.0700 
  8 C        1.4430    -3.6620     1.1250 C.2   1 <1>   0.6590 
  9 C       -0.7790    -4.4630     0.0070 C.3   1 <1>  -0.1600 
 10 C       -2.5610    -1.0090     0.1890 C.3   1 <1>  -0.1600 
 11 C       -1.8430    -2.7160    -1.4930 C.3   1 <1>  -0.1600 
 12 O        1.9120    -3.3130     2.1770 O.2   1 <1>  -0.5700 
 13 O        2.1150    -4.4540     0.2960 O.3   1 <1>  -0.4300 
 14 C       -2.1680    -4.0180    -0.7230 C.3   1 <1>  -0.0190 
 15 C       -3.6860    -2.1240     0.4530 C.3   1 <1>   0.0420 
 16 C        3.4130    -4.9210     0.5980 C.3   1 <1>   0.0400 
 17 C       -3.2910    -3.6340     0.3270 C.2   1 <1>   0.4480 
 18 C       -4.8830    -1.9070    -0.4690 C.2   1 <1>   0.6590 
 19 O       -3.7620    -4.4530     1.0570 O.2   1 <1>  -0.5700 
 20 O       -4.9550    -2.4680    -1.5290 O.2   1 <1>  -0.5700 
 21 O       -5.8430    -1.0480    -0.1240 O.3   1 <1>  -0.4300 
 22 C       -5.9680    -0.3540     1.0990 C.3   1 <1>   0.0400 
 23 H        2.5920     0.6840     1.0470 H     1 <1>   0.0800 
 24 H        1.6120     1.0010    -0.3900 H     1 <1>   0.0800 
 25 H       -0.4820    -3.0560     1.6180 H     1 <1>   0.0800 
 26 H       -1.1810    -0.6390    -1.5190 H     1 <1>   0.0800 
 27 H        3.1410    -1.5670     0.2240 H     1 <1>   0.0800 
 28 H        3.3690    -0.5220    -1.1860 H     1 <1>   0.0800 
 29 H       -0.9830    -5.2280     0.7360 H     1 <1>   0.0800 
 30 H       -0.1560    -4.9050    -0.7520 H     1 <1>   0.0800 
 31 H       -3.0360    -0.1300    -0.2130 H     1 <1>   0.0800 
 32 H       -2.1590    -0.7190     1.1420 H     1 <1>   0.0800 
 33 H       -1.0480    -2.9930    -2.1640 H     1 <1>   0.0800 
 34 H       -1.6790    -2.7360    -0.5780 H     1 <1>   0.0800 
 35 H       -2.5340    -4.7880    -1.3810 H     1 <1>   0.0800 
 36 H       -4.0240    -2.0090     1.4640 H     1 <1>   0.0800 
 37 H        4.0670    -4.0750     0.7200 H     1 <1>   0.0800 
 38 H        3.7520    -5.5370    -0.2160 H     1 <1>   0.0800 
 39 H        3.3740    -5.4940     1.5080 H     1 <1>   0.0800 
 40 H       -6.8340     0.2820     1.0340 H     1 <1>   0.0800 
 41 H       -5.0900     0.2460     1.2610 H     1 <1>   0.0800 
 42 H       -6.1030    -1.0650     1.8960 H     1 <1>   0.0800 
@<TRIPOS>BOND
  1   1   2  1   
  2   1   3  1   
  3   2   4  1   
  4   2   5  1   
  5   2   6  1   
  6   3   7  1   
  7   3  23  1   
  8   3  24  1   
  9   4   7  1   
 10   5   8  1   
 11   5   9  1   
 12   5  25  1   
 13   6  10  1   
 14   6  11  1   
 15   6  26  1   
 16   7  27  1   
 17   7  28  1   
 18   8  12  2   
 19   8  13  1   
 20   9  14  1   
 21   9  29  1   
 22   9  30  1   
 23  10  15  1   
 24  10  31  1   
 25  10  32  1   
 26  11  14  1   
 27  11  33  1   
 28  11  34  1   
 29  13  16  1   
 30  14  17  1   
 31  14  35  1   
 32  15  17  1   
 33  15  18  1   
 34  15  36  1   
 35  16  37  1   
 36  16  38  1   
 37  16  39  1   
 38  17  19  2   
 39  18  20  2   
 40  18  21  1   
 41  21  22  1   
 42  22  40  1   
 43  22  41  1   
 44  22  42  1   
@<TRIPOS>SUBSTRUCTURE
  1 ****   2 GROUP 4 **** **** 0

# MOE 2024.06 (io_trps.svl 2023.06)
