@<TRIPOS>MOLECULE
NONAME
34 35 1 0 0 
SMALL
USER_CHARGES


@<TRIPOS>ATOM
  1 F       -1.1980    -0.3900    -1.4970 F     1 <1>  -0.1900 
  2 C       -2.0410     0.4180    -0.9110 C.ar  1 <1>   0.1900 
  3 C       -3.3450     0.0020    -0.7340 C.ar  1 <1>  -0.1500 
  4 C       -1.5910     1.6550    -0.4920 C.ar  1 <1>  -0.1500 
  5 C       -4.2520     0.8510    -0.1120 C.ar  1 <1>   0.1170 
  6 C       -2.4910     2.5030     0.1300 C.ar  1 <1>  -0.1500 
  7 N       -5.5690     0.4110     0.0750 N.am  1 <1>  -0.5470 
  8 C       -3.8040     2.1010     0.3170 C.ar  1 <1>  -0.1500 
  9 C       -6.7410     1.0960     0.2300 C.2   1 <1>   0.6900 
 10 O       -6.7820     2.3040     0.0930 O.2   1 <1>  -0.5700 
 11 N       -7.8800     0.3820     0.5110 N.am  1 <1>  -0.6600 
 12 C       -9.2240     0.9890     0.3090 C.3   1 <1>   0.1400 
 13 C       -7.8560    -0.9410     1.1930 C.3   1 <1>   0.1400 
 14 C      -10.0920     0.1420    -0.6300 C.3   1 <1>  -0.1600 
 15 C       -8.1010    -2.0500     0.1660 C.3   1 <1>  -0.1600 
 16 C      -10.5700    -1.1770    -0.0020 C.3   1 <1>  -0.1600 
 17 C       -9.5830    -2.3500    -0.1270 C.3   1 <1>  -0.1600 
 18 H       -3.6440    -0.9690    -1.0810 H     1 <1>   0.1500 
 19 H       -0.5670     1.9430    -0.6490 H     1 <1>   0.1500 
 20 H       -2.1740     3.4750     0.4690 H     1 <1>   0.1500 
 21 H       -5.7270    -0.5830    -0.0400 H     1 <1>   0.3700 
 22 H       -4.4900     2.7700     0.8060 H     1 <1>   0.1500 
 23 H       -9.1210     1.9700    -0.1220 H     1 <1>   0.0800 
 24 H       -9.7080     1.1060     1.2630 H     1 <1>   0.0800 
 25 H       -8.5990    -0.9700     1.9720 H     1 <1>   0.0800 
 26 H       -6.8990    -1.0870     1.6630 H     1 <1>   0.0800 
 27 H       -9.5720    -0.0360    -1.5560 H     1 <1>   0.0800 
 28 H      -10.9630     0.7280    -0.8650 H     1 <1>   0.0800 
 29 H       -7.6490    -2.9570     0.5280 H     1 <1>   0.0800 
 30 H       -7.6010    -1.7940    -0.7510 H     1 <1>   0.0800 
 31 H      -11.4870    -1.4710    -0.4830 H     1 <1>   0.0800 
 32 H      -10.8070    -1.0110     1.0360 H     1 <1>   0.0800 
 33 H       -9.9160    -3.1260     0.5410 H     1 <1>   0.0800 
 34 H       -9.6490    -2.7510    -1.1250 H     1 <1>   0.0800 
@<TRIPOS>BOND
  1   1   2  1   
  2   2   3  ar  
  3   2   4  ar  
  4   3   5  ar  
  5   3  18  1   
  6   4   6  ar  
  7   4  19  1   
  8   5   7  1   
  9   5   8  ar  
 10   6   8  ar  
 11   6  20  1   
 12   7   9  am  
 13   7  21  1   
 14   8  22  1   
 15   9  10  2   
 16   9  11  am  
 17  11  12  1   
 18  11  13  1   
 19  12  14  1   
 20  12  23  1   
 21  12  24  1   
 22  13  15  1   
 23  13  25  1   
 24  13  26  1   
 25  14  16  1   
 26  14  27  1   
 27  14  28  1   
 28  15  17  1   
 29  15  29  1   
 30  15  30  1   
 31  16  17  1   
 32  16  31  1   
 33  16  32  1   
 34  17  33  1   
 35  17  34  1   
@<TRIPOS>SUBSTRUCTURE
  1 ****   7 GROUP 4 **** **** 0

# MOE 2024.06 (io_trps.svl 2023.06)
