@<TRIPOS>MOLECULE
NONAME
46 47 1 0 0 
SMALL
USER_CHARGES


@<TRIPOS>ATOM
  1 O        0.7530     2.9300     1.3510 O.2   1 <1>  -0.5700 
  2 C        0.3190     2.5900     0.2720 C.2   1 <1>   0.5690 
  3 N        1.0200     1.7900    -0.5830 N.am  1 <1>  -0.5470 
  4 C       -1.0740     3.0610    -0.1780 C.3   1 <1>  -0.0190 
  5 C        2.3120     1.2490    -0.4940 C.ar  1 <1>   0.1170 
  6 C       -1.5230     4.3630     0.5400 C.3   1 <1>   0.0640 
  7 C       -2.1190     1.9170    -0.0450 C.3   1 <1>  -0.2660 
  8 C        2.5850    -0.0050    -1.0410 C.ar  1 <1>  -0.1430 
  9 C        3.3440     1.9540     0.1170 C.ar  1 <1>  -0.1500 
 10 C       -2.9490     4.7920     0.1810 C.ar  1 <1>  -0.1440 
 11 C       -0.5850     5.5460     0.2430 C.3   1 <1>  -0.2400 
 12 C       -1.8050     0.7220    -0.9130 C.2   1 <1>   0.9060 
 13 C        3.8700    -0.5200    -0.9730 C.ar  1 <1>  -0.1500 
 14 C        1.4840    -0.8260    -1.7040 C.3   1 <1>  -0.0970 
 15 C        4.6270     1.4380     0.1880 C.ar  1 <1>  -0.1440 
 16 C       -3.3280     4.9990    -1.1390 C.ar  1 <1>  -0.1500 
 17 C       -3.8870     4.9850     1.1850 C.ar  1 <1>  -0.1500 
 18 O       -2.1410    -0.3980    -0.5330 O.co2 1 <1>  -0.9000 
 19 O       -1.1800     0.9000    -1.9660 O.co2 1 <1>  -0.9000 
 20 C        4.8860     0.1950    -0.3640 C.ar  1 <1>  -0.1500 
 21 C        5.7370     2.2230     0.8610 C.3   1 <1>  -0.0970 
 22 C       -4.6190     5.3920    -1.4490 C.ar  1 <1>  -0.1500 
 23 C       -5.1780     5.3790     0.8780 C.ar  1 <1>  -0.1500 
 24 C       -5.5450     5.5830    -0.4400 C.ar  1 <1>  -0.1500 
 25 H        0.4130     1.3630    -1.3120 H     1 <1>   0.3700 
 26 H       -0.9940     3.2980    -1.2230 H     1 <1>   0.0800 
 27 H       -1.4890     4.1750     1.6000 H     1 <1>   0.0800 
 28 H       -3.0940     2.2490    -0.3380 H     1 <1>   0.0800 
 29 H       -2.1680     1.5860     0.9750 H     1 <1>   0.0800 
 30 H        3.1310     2.9180     0.5380 H     1 <1>   0.1500 
 31 H       -0.5350     5.7340    -0.8140 H     1 <1>   0.0800 
 32 H        0.4090     5.3530     0.6040 H     1 <1>   0.0800 
 33 H       -0.9510     6.4320     0.7310 H     1 <1>   0.0800 
 34 H        4.0850    -1.4860    -1.3940 H     1 <1>   0.1500 
 35 H        1.1140    -0.3150    -2.5750 H     1 <1>   0.0800 
 36 H        0.6640    -0.9670    -1.0210 H     1 <1>   0.0800 
 37 H        1.8410    -1.7930    -2.0030 H     1 <1>   0.0800 
 38 H       -2.6190     4.8490    -1.9340 H     1 <1>   0.1500 
 39 H       -3.6150     4.8280     2.2140 H     1 <1>   0.1500 
 40 H        5.8770    -0.2200    -0.3210 H     1 <1>   0.1500 
 41 H        5.3260     2.9530     1.5360 H     1 <1>   0.0800 
 42 H        6.3260     2.7290     0.1190 H     1 <1>   0.0800 
 43 H        6.3720     1.5620     1.4230 H     1 <1>   0.0800 
 44 H       -4.9000     5.5440    -2.4750 H     1 <1>   0.1500 
 45 H       -5.8960     5.5240     1.6660 H     1 <1>   0.1500 
 46 H       -6.5490     5.8870    -0.6800 H     1 <1>   0.1500 
@<TRIPOS>BOND
  1   1   2  2   
  2   2   3  am  
  3   2   4  1   
  4   3   5  1   
  5   3  25  1   
  6   4   6  1   
  7   4   7  1   
  8   4  26  1   
  9   5   8  ar  
 10   5   9  ar  
 11   6  10  1   
 12   6  11  1   
 13   6  27  1   
 14   7  12  1   
 15   7  28  1   
 16   7  29  1   
 17   8  13  ar  
 18   8  14  1   
 19   9  15  ar  
 20   9  30  1   
 21  10  16  ar  
 22  10  17  ar  
 23  11  31  1   
 24  11  32  1   
 25  11  33  1   
 26  12  18  ar  
 27  12  19  ar  
 28  13  20  ar  
 29  13  34  1   
 30  14  35  1   
 31  14  36  1   
 32  14  37  1   
 33  15  20  ar  
 34  15  21  1   
 35  16  22  ar  
 36  16  38  1   
 37  17  23  ar  
 38  17  39  1   
 39  20  40  1   
 40  21  41  1   
 41  21  42  1   
 42  21  43  1   
 43  22  24  ar  
 44  22  44  1   
 45  23  24  ar  
 46  23  45  1   
 47  24  46  1   
@<TRIPOS>SUBSTRUCTURE
  1 ****   2 GROUP 4 **** **** 0

# MOE 2024.06 (io_trps.svl 2023.06)
