@<TRIPOS>MOLECULE
NONAME
43 44 1 0 0 
SMALL
USER_CHARGES


@<TRIPOS>ATOM
  1 O        0.7940     1.3300    -1.9810 O.2   1 <1>  -0.5700 
  2 C       -0.0240     2.2190    -2.0310 C.2   1 <1>   0.5690 
  3 N       -1.3640     1.9230    -1.8610 N.am  1 <1>  -0.6600 
  4 C        0.5320     3.6480    -2.2250 C.3   1 <1>   0.2610 
  5 C       -1.7740     0.5540    -1.4340 C.3   1 <1>   0.1400 
  6 C       -2.4510     2.9180    -1.6320 C.3   1 <1>   0.1400 
  7 O        0.0100     4.5770    -1.2810 O.3   1 <1>  -0.3630 
  8 C        0.2540     4.2070    -3.6250 C.3   1 <1>  -0.2400 
  9 C       -2.0500     0.5720     0.0800 C.3   1 <1>   0.3430 
 10 C       -2.7890     2.9690    -0.1280 C.3   1 <1>   0.3430 
 11 C        0.1830     4.4480     0.0590 C.ar  1 <1>   0.0820 
 12 N       -3.0800     1.6070     0.4660 N.4   1 <1>  -0.9590 
 13 C       -0.5030     5.3510     0.8570 C.ar  1 <1>  -0.1500 
 14 C        0.9670     3.4650     0.6580 C.ar  1 <1>  -0.1500 
 15 C       -3.1700     1.7150     1.9410 C.3   1 <1>   0.4810 
 16 C       -0.4390     5.2600     2.2350 C.ar  1 <1>  -0.1500 
 17 C        1.0280     3.3750     2.0380 C.ar  1 <1>  -0.1500 
 18 C       -4.3470     2.6060     2.2720 C.2   1 <1>  -0.2880 
 19 C        0.3220     4.2670     2.8270 C.ar  1 <1>  -0.1500 
 20 C       -4.2600     3.8290     2.8050 C.2   1 <1>  -0.3000 
 21 H        1.5980     3.6200    -2.0800 H     1 <1>   0.0800 
 22 H       -1.0030    -0.1660    -1.6500 H     1 <1>   0.0800 
 23 H       -2.6550     0.2520    -1.9730 H     1 <1>   0.0800 
 24 H       -3.3240     2.6280    -2.1910 H     1 <1>   0.0800 
 25 H       -2.1700     3.8960    -1.9760 H     1 <1>   0.0800 
 26 H       -0.8010     4.2680    -3.8140 H     1 <1>   0.0800 
 27 H        0.6940     5.1840    -3.7240 H     1 <1>   0.0800 
 28 H        0.6950     3.5610    -4.3630 H     1 <1>   0.0800 
 29 H       -1.1190     0.7840     0.5800 H     1 <1>   0.0800 
 30 H       -2.3770    -0.4070     0.3920 H     1 <1>   0.0800 
 31 H       -3.6330     3.6220     0.0240 H     1 <1>   0.0800 
 32 H       -1.9530     3.4020     0.3900 H     1 <1>   0.0800 
 33 H       -3.9970     1.3060     0.1200 H     1 <1>   0.4500 
 34 H       -1.0820     6.1300     0.3930 H     1 <1>   0.1500 
 35 H        1.5450     2.7690     0.0770 H     1 <1>   0.1500 
 36 H       -2.2620     2.1470     2.3330 H     1 <1>   0.0800 
 37 H       -3.3120     0.7440     2.3870 H     1 <1>   0.0800 
 38 H       -0.9700     5.9690     2.8490 H     1 <1>   0.1500 
 39 H        1.6380     2.6160     2.5000 H     1 <1>   0.1500 
 40 H       -5.2950     2.1500     2.0390 H     1 <1>   0.1500 
 41 H        0.3800     4.1990     3.9000 H     1 <1>   0.1500 
 42 H       -5.1150     4.4440     3.0380 H     1 <1>   0.1500 
 43 H       -3.3390     4.3280     3.0630 H     1 <1>   0.1500 
@<TRIPOS>BOND
  1   1   2  2   
  2   2   3  am  
  3   2   4  1   
  4   3   5  1   
  5   3   6  1   
  6   4   7  1   
  7   4   8  1   
  8   4  21  1   
  9   5   9  1   
 10   5  22  1   
 11   5  23  1   
 12   6  10  1   
 13   6  24  1   
 14   6  25  1   
 15   7  11  1   
 16   8  26  1   
 17   8  27  1   
 18   8  28  1   
 19   9  12  1   
 20   9  29  1   
 21   9  30  1   
 22  10  12  1   
 23  10  31  1   
 24  10  32  1   
 25  11  13  ar  
 26  11  14  ar  
 27  12  15  1   
 28  12  33  1   
 29  13  16  ar  
 30  13  34  1   
 31  14  17  ar  
 32  14  35  1   
 33  15  18  1   
 34  15  36  1   
 35  15  37  1   
 36  16  19  ar  
 37  16  38  1   
 38  17  19  ar  
 39  17  39  1   
 40  18  20  2   
 41  18  40  1   
 42  19  41  1   
 43  20  42  1   
 44  20  43  1   
@<TRIPOS>SUBSTRUCTURE
  1 ****  10 GROUP 4 **** **** 0

# MOE 2024.06 (io_trps.svl 2023.06)
