@<TRIPOS>MOLECULE
NONAME
36 38 1 0 0 
SMALL
USER_CHARGES


@<TRIPOS>ATOM
  1 CL      -0.1560    -1.0620     1.8400 Cl    1 <1>  -0.1770 
  2 C       -1.7130    -1.4740     1.1640 C.ar  1 <1>   0.1770 
  3 C       -1.9850    -2.7910     0.8530 C.ar  1 <1>  -0.1500 
  4 C       -2.6450    -0.4760     0.9530 C.ar  1 <1>  -0.1500 
  5 C       -3.2180    -3.1350     0.3150 C.ar  1 <1>   0.1000 
  6 C       -3.8780    -0.8090     0.4170 C.ar  1 <1>  -0.1500 
  7 N       -3.5170    -4.4720    -0.0090 N.pl3 1 <1>  -0.8380 
  8 C       -4.1740    -2.1290     0.0960 C.ar  1 <1>   0.1170 
  9 C       -2.7920    -5.0830    -1.1680 C.3   1 <1>   0.2090 
 10 C       -3.7380    -5.4220     1.1270 C.3   1 <1>   0.2090 
 11 N       -5.3990    -2.5410    -0.4500 N.am  1 <1>  -0.5470 
 12 C       -1.6170    -5.9770    -0.7260 C.3   1 <1>   0.1200 
 13 C       -2.4990    -6.2880     1.4200 C.3   1 <1>   0.1200 
 14 C       -6.5730    -1.9140    -0.7320 C.2   1 <1>   0.6300 
 15 O       -2.0170    -6.8920     0.2530 O.3   1 <1>  -0.5600 
 16 O       -6.7730    -0.7370    -0.5540 O.2   1 <1>  -0.5700 
 17 C       -7.6910    -2.7660    -1.3130 C.3   1 <1>  -0.1000 
 18 C       -8.8950    -3.1050    -0.4830 C.3   1 <1>  -0.2000 
 19 C       -7.9330    -4.1840    -0.8710 C.3   1 <1>  -0.2000 
 20 H       -1.2390    -3.5390     1.0300 H     1 <1>   0.1500 
 21 H       -2.4100     0.5430     1.2040 H     1 <1>   0.1500 
 22 H       -4.6040    -0.0340     0.2510 H     1 <1>   0.1500 
 23 H       -2.4240    -4.3050    -1.8150 H     1 <1>   0.0800 
 24 H       -3.4850    -5.6790    -1.7360 H     1 <1>   0.0800 
 25 H       -4.5630    -6.0680     0.8850 H     1 <1>   0.0800 
 26 H       -4.0040    -4.8700     2.0130 H     1 <1>   0.0800 
 27 H       -5.3730    -3.5480    -0.6300 H     1 <1>   0.3700 
 28 H       -0.8140    -5.3800    -0.3330 H     1 <1>   0.0800 
 29 H       -1.2460    -6.5370    -1.5660 H     1 <1>   0.0800 
 30 H       -2.7530    -7.0700     2.1130 H     1 <1>   0.0800 
 31 H       -1.7130    -5.6940     1.8500 H     1 <1>   0.0800 
 32 H       -7.8680    -2.5230    -2.3450 H     1 <1>   0.1000 
 33 H       -9.8640    -3.0710    -0.9510 H     1 <1>   0.1000 
 34 H       -8.9200    -2.7640     0.5380 H     1 <1>   0.1000 
 35 H       -7.3290    -4.6180    -0.0930 H     1 <1>   0.1000 
 36 H       -8.2410    -4.9090    -1.6050 H     1 <1>   0.1000 
@<TRIPOS>BOND
  1   1   2  1   
  2   2   3  ar  
  3   2   4  ar  
  4   3   5  ar  
  5   3  20  1   
  6   4   6  ar  
  7   4  21  1   
  8   5   7  1   
  9   5   8  ar  
 10   6   8  ar  
 11   6  22  1   
 12   7   9  1   
 13   7  10  1   
 14   8  11  1   
 15   9  12  1   
 16   9  23  1   
 17   9  24  1   
 18  10  13  1   
 19  10  25  1   
 20  10  26  1   
 21  11  14  am  
 22  11  27  1   
 23  12  15  1   
 24  12  28  1   
 25  12  29  1   
 26  13  15  1   
 27  13  30  1   
 28  13  31  1   
 29  14  16  2   
 30  14  17  1   
 31  17  18  1   
 32  17  19  1   
 33  17  32  1   
 34  18  19  1   
 35  18  33  1   
 36  18  34  1   
 37  19  35  1   
 38  19  36  1   
@<TRIPOS>SUBSTRUCTURE
  1 ****   5 GROUP 4 **** **** 0

# MOE 2024.06 (io_trps.svl 2023.06)
