@<TRIPOS>MOLECULE
NONAME
32 32 1 0 0 
SMALL
USER_CHARGES


@<TRIPOS>ATOM
  1 O       -5.0490     0.1160     2.3950 O.co2 1 <1>  -0.9000 
  2 C       -4.6670    -0.0820     1.2330 C.2   1 <1>   0.9060 
  3 O       -4.4400    -1.2310     0.8280 O.co2 1 <1>  -0.9000 
  4 C       -4.5080     1.1300     0.2710 C.3   1 <1>  -0.1060 
  5 C       -3.4040     2.1480     0.7160 C.3   1 <1>   0.0000 
  6 C       -4.0320     0.7200    -1.1450 C.3   1 <1>  -0.1600 
  7 C       -5.9060     1.7910     0.1040 C.3   1 <1>  -0.2400 
  8 C       -3.1000     2.9260    -0.5880 C.3   1 <1>  -0.0190 
  9 C       -3.8440     3.1160     1.8330 C.3   1 <1>  -0.2400 
 10 C       -2.1440     1.4070     1.2280 C.3   1 <1>  -0.2400 
 11 C       -3.2770     1.9160    -1.7370 C.3   1 <1>  -0.1600 
 12 C       -1.8000     3.7320    -0.6200 C.2   1 <1>   0.6590 
 13 O       -1.7940     4.9170    -0.3950 O.2   1 <1>  -0.5700 
 14 O       -0.6790     3.0830    -0.9270 O.3   1 <1>  -0.4300 
 15 C        0.5710     3.7370    -0.9740 C.3   1 <1>   0.0400 
 16 H       -4.8460     0.4000    -1.7710 H     1 <1>   0.0800 
 17 H       -3.3440    -0.1050    -1.0680 H     1 <1>   0.0800 
 18 H       -5.8890     2.6310    -0.5640 H     1 <1>   0.0800 
 19 H       -6.6000     1.0650    -0.2810 H     1 <1>   0.0800 
 20 H       -6.2820     2.1090     1.0600 H     1 <1>   0.0800 
 21 H       -3.8820     3.6530    -0.7080 H     1 <1>   0.0800 
 22 H       -4.1530     2.5570     2.7000 H     1 <1>   0.0800 
 23 H       -4.6640     3.7350     1.5210 H     1 <1>   0.0800 
 24 H       -3.0320     3.7600     2.1170 H     1 <1>   0.0800 
 25 H       -1.7600     0.7300     0.4880 H     1 <1>   0.0800 
 26 H       -2.3780     0.8360     2.1100 H     1 <1>   0.0800 
 27 H       -1.3670     2.0980     1.4950 H     1 <1>   0.0800 
 28 H       -3.8370     2.3620    -2.5400 H     1 <1>   0.0800 
 29 H       -2.3300     1.5790    -2.1210 H     1 <1>   0.0800 
 30 H        0.5260     4.5160    -1.7150 H     1 <1>   0.0800 
 31 H        1.3230     3.0150    -1.2370 H     1 <1>   0.0800 
 32 H        0.7780     4.1560    -0.0050 H     1 <1>   0.0800 
@<TRIPOS>BOND
  1   1   2  ar  
  2   2   3  ar  
  3   2   4  1   
  4   4   5  1   
  5   4   6  1   
  6   4   7  1   
  7   5   8  1   
  8   5   9  1   
  9   5  10  1   
 10   6  11  1   
 11   6  16  1   
 12   6  17  1   
 13   7  18  1   
 14   7  19  1   
 15   7  20  1   
 16   8  11  1   
 17   8  12  1   
 18   8  21  1   
 19   9  22  1   
 20   9  23  1   
 21   9  24  1   
 22  10  25  1   
 23  10  26  1   
 24  10  27  1   
 25  11  28  1   
 26  11  29  1   
 27  12  13  2   
 28  12  14  1   
 29  14  15  1   
 30  15  30  1   
 31  15  31  1   
 32  15  32  1   
@<TRIPOS>SUBSTRUCTURE
  1 ****   5 GROUP 4 **** **** 0

# MOE 2024.06 (io_trps.svl 2023.06)
