@<TRIPOS>MOLECULE
NONAME
49 51 1 0 0 
SMALL
USER_CHARGES


@<TRIPOS>ATOM
  1 CL       1.4930     0.7540    -3.3980 Cl    1 <1>  -0.1770 
  2 C        2.4870     0.5230    -1.9840 C.ar  1 <1>   0.1770 
  3 C        3.3410    -0.5610    -1.9250 C.ar  1 <1>  -0.1500 
  4 C        2.4050     1.4270    -0.9420 C.ar  1 <1>  -0.1500 
  5 C        4.1330    -0.7380    -0.8020 C.ar  1 <1>  -0.1500 
  6 C        3.1990     1.2440     0.1770 C.ar  1 <1>  -0.1500 
  7 C        4.0760     0.1680     0.2500 C.ar  1 <1>  -0.1430 
  8 C        4.9500    -0.0310     1.4860 C.3   1 <1>   0.2540 
  9 N        6.2650     0.6420     1.3780 N.3   1 <1>  -0.8100 
 10 C        6.1600     2.1100     1.2920 C.3   1 <1>   0.1100 
 11 C        7.1080     0.0990     0.2970 C.3   1 <1>   0.1100 
 12 C        7.5520     2.7720     1.3060 C.3   1 <1>   0.3430 
 13 C        8.5080     0.7430     0.3030 C.3   1 <1>   0.3430 
 14 N        8.4460     2.2490     0.2080 N.4   1 <1>  -0.9590 
 15 C        9.7990     2.8890     0.2030 C.3   1 <1>   0.4230 
 16 C        9.6640     4.4190     0.0720 C.3   1 <1>  -0.1600 
 17 C       10.6470     2.3340    -0.9580 C.3   1 <1>  -0.1600 
 18 C       11.0280     5.1150    -0.0440 C.3   1 <1>  -0.1600 
 19 C       12.0080     3.0370    -1.0710 C.3   1 <1>  -0.1600 
 20 C       11.8480     4.5550    -1.2130 C.3   1 <1>  -0.0800 
 21 C       13.2200     5.2340    -1.2760 C.3   1 <1>  -0.2400 
 22 H        3.3780    -1.2550    -2.7460 H     1 <1>   0.1500 
 23 H        1.7240     2.2570    -1.0100 H     1 <1>   0.1500 
 24 H        4.7900    -1.5890    -0.7520 H     1 <1>   0.1500 
 25 H        3.1260     1.9420     0.9930 H     1 <1>   0.1500 
 26 H        5.1060    -1.0850     1.6470 H     1 <1>   0.0800 
 27 H        4.4330     0.3440     2.3530 H     1 <1>   0.0800 
 28 H        5.5930     2.4750     2.1320 H     1 <1>   0.0800 
 29 H        5.6430     2.3950     0.3910 H     1 <1>   0.0800 
 30 H        6.6440     0.2700    -0.6590 H     1 <1>   0.0800 
 31 H        7.2140    -0.9640     0.4310 H     1 <1>   0.0800 
 32 H        8.0070     2.5850     2.2650 H     1 <1>   0.0800 
 33 H        7.4200     3.8350     1.2020 H     1 <1>   0.0800 
 34 H        9.0660     0.3420    -0.5250 H     1 <1>   0.0800 
 35 H        9.0100     0.4580     1.2130 H     1 <1>   0.0800 
 36 H        7.9950     2.4780    -0.6850 H     1 <1>   0.4500 
 37 H       10.3040     2.6690     1.1300 H     1 <1>   0.0800 
 38 H        9.1760     4.8320     0.9350 H     1 <1>   0.0800 
 39 H        9.0840     4.6590    -0.8020 H     1 <1>   0.0800 
 40 H       10.1190     2.4630    -1.8870 H     1 <1>   0.0800 
 41 H       10.8470     1.2880    -0.8160 H     1 <1>   0.0800 
 42 H       11.5770     4.9860     0.8740 H     1 <1>   0.0800 
 43 H       10.8790     6.1720    -0.1860 H     1 <1>   0.0800 
 44 H       12.5380     2.6520    -1.9260 H     1 <1>   0.0800 
 45 H       12.5990     2.8180    -0.1970 H     1 <1>   0.0800 
 46 H       11.3290     4.7660    -2.1340 H     1 <1>   0.0800 
 47 H       13.7810     5.0530    -0.3760 H     1 <1>   0.0800 
 48 H       13.1070     6.2960    -1.4010 H     1 <1>   0.0800 
 49 H       13.7860     4.8580    -2.1120 H     1 <1>   0.0800 
@<TRIPOS>BOND
  1   1   2  1   
  2   2   3  ar  
  3   2   4  ar  
  4   3   5  ar  
  5   3  22  1   
  6   4   6  ar  
  7   4  23  1   
  8   5   7  ar  
  9   5  24  1   
 10   6   7  ar  
 11   6  25  1   
 12   7   8  1   
 13   8   9  1   
 14   8  26  1   
 15   8  27  1   
 16   9  10  1   
 17   9  11  1   
 18  10  12  1   
 19  10  28  1   
 20  10  29  1   
 21  11  13  1   
 22  11  30  1   
 23  11  31  1   
 24  12  14  1   
 25  12  32  1   
 26  12  33  1   
 27  13  14  1   
 28  13  34  1   
 29  13  35  1   
 30  14  15  1   
 31  14  36  1   
 32  15  16  1   
 33  15  17  1   
 34  15  37  1   
 35  16  18  1   
 36  16  38  1   
 37  16  39  1   
 38  17  19  1   
 39  17  40  1   
 40  17  41  1   
 41  18  20  1   
 42  18  42  1   
 43  18  43  1   
 44  19  20  1   
 45  19  44  1   
 46  19  45  1   
 47  20  21  1   
 48  20  46  1   
 49  21  47  1   
 50  21  48  1   
 51  21  49  1   
@<TRIPOS>SUBSTRUCTURE
  1 ****  14 GROUP 4 **** **** 0

# MOE 2024.06 (io_trps.svl 2023.06)
