@<TRIPOS>MOLECULE
NONAME
38 38 1 0 0 
SMALL
USER_CHARGES


@<TRIPOS>ATOM
  1 O        0.2780     0.5730     0.5980 O.2   1 <1>  -0.5700 
  2 C        0.1720     1.7410     0.2780 C.2   1 <1>   0.6160 
  3 N       -1.0220     2.3900     0.4530 N.am  1 <1>  -0.7300 
  4 C        1.3100     2.4630    -0.2830 C.2   1 <1>   0.1230 
  5 C       -2.2910     1.8900     0.9910 C.3   1 <1>   0.3000 
  6 N        1.0330     3.7030    -0.8960 N.am  1 <1>  -0.5390 
  7 C        2.5800     1.9690    -0.2200 C.2   1 <1>  -0.1780 
  8 C       -2.8100     0.7420     0.1240 C.3   1 <1>  -0.2400 
  9 C       -2.1040     1.4550     2.4440 C.3   1 <1>  -0.2400 
 10 C       -3.2740     3.0580     0.9300 C.3   1 <1>  -0.2400 
 11 C        1.4700     4.9550    -0.6050 C.2   1 <1>   0.5690 
 12 C        3.8140     2.4810    -0.7520 C.ar  1 <1>   0.0280 
 13 O        1.0640     5.8840    -1.2500 O.2   1 <1>  -0.5700 
 14 C        2.4270     5.2160     0.5350 C.3   1 <1>  -0.1790 
 15 C        5.0060     2.3290    -0.0390 C.ar  1 <1>   0.1600 
 16 C        3.8990     3.1340    -1.9760 C.ar  1 <1>  -0.1500 
 17 N        6.1970     2.7670    -0.4100 N.ar  1 <1>  -0.6200 
 18 C        5.1300     3.5980    -2.3830 C.ar  1 <1>  -0.1500 
 19 C        6.2340     3.3940    -1.5740 C.ar  1 <1>   0.1600 
 20 H       -1.0330     3.3930     0.2810 H     1 <1>   0.3700 
 21 H        0.3210     3.7000    -1.6300 H     1 <1>   0.3700 
 22 H        2.7150     1.0410     0.3110 H     1 <1>   0.1500 
 23 H       -3.7790     0.4300     0.4650 H     1 <1>   0.0800 
 24 H       -2.1520    -0.1060     0.1820 H     1 <1>   0.0800 
 25 H       -2.8920     1.0510    -0.9020 H     1 <1>   0.0800 
 26 H       -3.0480     1.1650     2.8680 H     1 <1>   0.0800 
 27 H       -1.6990     2.2600     3.0310 H     1 <1>   0.0800 
 28 H       -1.4420     0.6110     2.5060 H     1 <1>   0.0800 
 29 H       -3.4090     3.3880    -0.0850 H     1 <1>   0.0800 
 30 H       -2.9240     3.8810     1.5280 H     1 <1>   0.0800 
 31 H       -4.2320     2.7530     1.3110 H     1 <1>   0.0800 
 32 H        2.2760     4.5120     1.3310 H     1 <1>   0.0800 
 33 H        2.2670     6.2070     0.9160 H     1 <1>   0.0800 
 34 H        3.4380     5.1460     0.1800 H     1 <1>   0.0800 
 35 H        4.9620     1.8140     0.9050 H     1 <1>   0.1500 
 36 H        3.0310     3.2720    -2.5940 H     1 <1>   0.1500 
 37 H        5.2380     4.1130    -3.3200 H     1 <1>   0.1500 
 38 H        7.1920     3.7610    -1.9000 H     1 <1>   0.1500 
@<TRIPOS>BOND
  1   1   2  2   
  2   2   3  am  
  3   2   4  1   
  4   3   5  1   
  5   3  20  1   
  6   4   6  1   
  7   4   7  2   
  8   5   8  1   
  9   5   9  1   
 10   5  10  1   
 11   6  11  am  
 12   6  21  1   
 13   7  12  1   
 14   7  22  1   
 15   8  23  1   
 16   8  24  1   
 17   8  25  1   
 18   9  26  1   
 19   9  27  1   
 20   9  28  1   
 21  10  29  1   
 22  10  30  1   
 23  10  31  1   
 24  11  13  2   
 25  11  14  1   
 26  12  15  ar  
 27  12  16  ar  
 28  14  32  1   
 29  14  33  1   
 30  14  34  1   
 31  15  17  ar  
 32  15  35  1   
 33  16  18  ar  
 34  16  36  1   
 35  17  19  ar  
 36  18  19  ar  
 37  18  37  1   
 38  19  38  1   
@<TRIPOS>SUBSTRUCTURE
  1 ****   4 GROUP 4 **** **** 0

# MOE 2024.06 (io_trps.svl 2023.06)
