@<TRIPOS>MOLECULE
NONAME
41 41 1 0 0 
SMALL
USER_CHARGES


@<TRIPOS>ATOM
  1 S       -0.0560     0.1060     0.0770 S.3   1 <1>  -0.3320 
  2 C       -1.5380    -0.8750     0.2340 C.ar  1 <1>   0.7220 
  3 C        1.3100    -1.0640     0.5370 C.3   1 <1>   0.1310 
  4 N       -2.6440    -0.2410     0.0000 N.ar  1 <1>  -0.6200 
  5 N       -1.3660    -2.1190     0.5650 N.ar  1 <1>  -0.6200 
  6 C        2.6570    -0.3730     0.4590 C.2   1 <1>   0.6590 
  7 C       -3.7080    -0.9990     0.1360 C.ar  1 <1>   0.7200 
  8 C       -2.5040    -2.7560     0.6680 C.ar  1 <1>   0.7200 
  9 O        3.3110    -0.1500     1.4450 O.2   1 <1>  -0.5700 
 10 O        3.0870    -0.0550    -0.7580 O.3   1 <1>  -0.4300 
 11 N       -3.6920    -2.2660     0.4710 N.ar  1 <1>  -0.6200 
 12 N       -4.9350    -0.4130    -0.0950 N.pl3 1 <1>  -0.8380 
 13 N       -2.4820    -4.0590     1.0150 N.pl3 1 <1>  -0.8690 
 14 C        4.3230     0.5970    -0.9620 C.3   1 <1>   0.0400 
 15 C       -5.0980     1.0630    -0.2330 C.3   1 <1>   0.1290 
 16 C       -6.1910    -1.2060    -0.2210 C.3   1 <1>   0.1290 
 17 C       -1.3560    -4.9950     0.8050 C.3   1 <1>   0.2090 
 18 C       -1.8570    -6.2880     0.1390 C.3   1 <1>  -0.0800 
 19 C       -0.7080    -7.2970     0.0120 C.3   1 <1>  -0.2400 
 20 C       -2.4640    -6.0270    -1.2490 C.3   1 <1>  -0.2400 
 21 H        1.2700    -1.8910    -0.1460 H     1 <1>   0.0800 
 22 H        1.1180    -1.4000     1.5400 H     1 <1>   0.0800 
 23 H       -3.4080    -4.4830     1.0300 H     1 <1>   0.4000 
 24 H        4.4560     0.7550    -2.0170 H     1 <1>   0.0800 
 25 H        5.1130    -0.0240    -0.5760 H     1 <1>   0.0800 
 26 H        4.3070     1.5410    -0.4440 H     1 <1>   0.0800 
 27 H       -4.3510     1.5840     0.3430 H     1 <1>   0.0800 
 28 H       -6.0670     1.3650     0.1230 H     1 <1>   0.0800 
 29 H       -4.9960     1.3410    -1.2670 H     1 <1>   0.0800 
 30 H       -5.9800    -2.2030    -0.5680 H     1 <1>   0.0800 
 31 H       -6.8540    -0.7390    -0.9290 H     1 <1>   0.0800 
 32 H       -6.6780    -1.2640     0.7360 H     1 <1>   0.0800 
 33 H       -0.9160    -5.2230     1.7610 H     1 <1>   0.0800 
 34 H       -0.6020    -4.5370     0.1870 H     1 <1>   0.0800 
 35 H       -2.6100    -6.7240     0.7730 H     1 <1>   0.0800 
 36 H        0.0720    -6.9080    -0.6190 H     1 <1>   0.0800 
 37 H       -1.0660    -8.2180    -0.4140 H     1 <1>   0.0800 
 38 H       -0.2910    -7.5150     0.9800 H     1 <1>   0.0800 
 39 H       -1.7380    -5.5730    -1.9000 H     1 <1>   0.0800 
 40 H       -3.3120    -5.3690    -1.1780 H     1 <1>   0.0800 
 41 H       -2.7950    -6.9490    -1.6940 H     1 <1>   0.0800 
@<TRIPOS>BOND
  1   1   2  1   
  2   1   3  1   
  3   2   4  ar  
  4   2   5  ar  
  5   3   6  1   
  6   3  21  1   
  7   3  22  1   
  8   4   7  ar  
  9   5   8  ar  
 10   6   9  2   
 11   6  10  1   
 12   7  11  ar  
 13   7  12  1   
 14   8  11  ar  
 15   8  13  1   
 16  10  14  1   
 17  12  15  1   
 18  12  16  1   
 19  13  17  1   
 20  13  23  1   
 21  14  24  1   
 22  14  25  1   
 23  14  26  1   
 24  15  27  1   
 25  15  28  1   
 26  15  29  1   
 27  16  30  1   
 28  16  31  1   
 29  16  32  1   
 30  17  18  1   
 31  17  33  1   
 32  17  34  1   
 33  18  19  1   
 34  18  20  1   
 35  18  35  1   
 36  19  36  1   
 37  19  37  1   
 38  19  38  1   
 39  20  39  1   
 40  20  40  1   
 41  20  41  1   
@<TRIPOS>SUBSTRUCTURE
  1 ****   5 GROUP 4 **** **** 0

# MOE 2024.06 (io_trps.svl 2023.06)
