@<TRIPOS>MOLECULE
Structure1684
40 40 1 0 0 
SMALL
USER_CHARGES


@<TRIPOS>ATOM
  1 F       -1.1810    -0.3290     1.5670 F     1 <1>  -0.3400 
  2 C       -0.8500     0.9360     1.3370 C.3   1 <1>   1.1640 
  3 F       -0.9080     1.5550     2.5110 F     1 <1>  -0.3400 
  4 F        0.4340     0.9230     0.9940 F     1 <1>  -0.3400 
  5 C       -1.7320     1.5780     0.2560 C.ar  1 <1>  -0.1440 
  6 C       -2.7030     2.5230     0.5740 C.ar  1 <1>  -0.1500 
  7 C       -1.5740     1.2090    -1.0760 C.ar  1 <1>  -0.1500 
  8 C       -3.5000     3.0950    -0.4070 C.ar  1 <1>  -0.1440 
  9 C       -2.3670     1.7690    -2.0610 C.ar  1 <1>  -0.1500 
 10 C       -3.3260     2.7060    -1.7260 C.ar  1 <1>  -0.1500 
 11 C       -4.5560     4.1330    -0.0240 C.3   1 <1>   0.3640 
 12 N       -5.8730     3.7090    -0.5070 N.am  1 <1>  -0.7300 
 13 C       -4.2190     5.4880    -0.6250 C.3   1 <1>  -0.2660 
 14 C       -6.6070     2.7360     0.0600 C.2   1 <1>   0.7800 
 15 C       -5.2580     6.4830    -0.2200 C.2   1 <1>   0.9060 
 16 O       -6.1530     1.9580     0.8780 O.2   1 <1>  -0.5700 
 17 O       -7.8810     2.6840    -0.3220 O.3   1 <1>  -0.4300 
 18 O       -6.3420     6.4550    -0.8110 O.co2 1 <1>  -0.9000 
 19 O       -5.0050     7.2600     0.7010 O.co2 1 <1>  -0.9000 
 20 C       -8.8790     1.8060     0.1460 C.3   1 <1>   0.2800 
 21 C       -8.5160     0.3570    -0.2010 C.3   1 <1>  -0.2400 
 22 C       -9.1020     2.0110     1.6490 C.3   1 <1>  -0.2400 
 23 C      -10.1470     2.2040    -0.6110 C.3   1 <1>  -0.2400 
 24 H       -2.8560     2.8220     1.5980 H     1 <1>   0.1500 
 25 H       -0.8330     0.4780    -1.3540 H     1 <1>   0.1500 
 26 H       -2.2430     1.4750    -3.0890 H     1 <1>   0.1500 
 27 H       -3.9490     3.1340    -2.4930 H     1 <1>   0.1500 
 28 H       -4.6030     4.2320     1.0490 H     1 <1>   0.0800 
 29 H       -6.4070     4.5190    -0.8690 H     1 <1>   0.3700 
 30 H       -4.1830     5.4390    -1.6950 H     1 <1>   0.0800 
 31 H       -3.2660     5.8200    -0.2610 H     1 <1>   0.0800 
 32 H       -9.3390    -0.2940     0.0310 H     1 <1>   0.0800 
 33 H       -7.6680     0.0240     0.3680 H     1 <1>   0.0800 
 34 H       -8.2940     0.2700    -1.2490 H     1 <1>   0.0800 
 35 H       -8.2550     1.6740     2.2160 H     1 <1>   0.0800 
 36 H       -9.9570     1.4480     1.9750 H     1 <1>   0.0800 
 37 H       -9.2750     3.0510     1.8590 H     1 <1>   0.0800 
 38 H       -9.9970     2.0920    -1.6690 H     1 <1>   0.0800 
 39 H      -10.3940     3.2300    -0.4010 H     1 <1>   0.0800 
 40 H      -10.9730     1.5850    -0.3140 H     1 <1>   0.0800 
@<TRIPOS>BOND
  1   1   2  1   
  2   2   3  1   
  3   2   4  1   
  4   2   5  1   
  5   5   6  ar  
  6   5   7  ar  
  7   6   8  ar  
  8   6  24  1   
  9   7   9  ar  
 10   7  25  1   
 11   8  10  ar  
 12   8  11  1   
 13   9  10  ar  
 14   9  26  1   
 15  10  27  1   
 16  11  12  1   
 17  11  13  1   
 18  11  28  1   
 19  12  14  am  
 20  12  29  1   
 21  13  15  1   
 22  13  30  1   
 23  13  31  1   
 24  14  16  2   
 25  14  17  1   
 26  15  18  ar  
 27  15  19  ar  
 28  17  20  1   
 29  20  21  1   
 30  20  22  1   
 31  20  23  1   
 32  21  32  1   
 33  21  33  1   
 34  21  34  1   
 35  22  35  1   
 36  22  36  1   
 37  22  37  1   
 38  23  38  1   
 39  23  39  1   
 40  23  40  1   
@<TRIPOS>SUBSTRUCTURE
  1 ****   8 GROUP 4 **** **** 0

# MOE 2024.06 (io_trps.svl 2023.06)
