@<TRIPOS>MOLECULE
NONAME
44 47 1 0 0 
SMALL
USER_CHARGES


@<TRIPOS>ATOM
  1 CL       1.3060    -1.2910    -2.7850 Cl    1 <1>  -0.1770 
  2 C        2.1980    -1.3560    -1.2860 C.ar  1 <1>   0.1770 
  3 C        3.3790    -0.6500    -1.1750 C.ar  1 <1>  -0.1500 
  4 C        1.7070    -2.1140    -0.2390 C.ar  1 <1>  -0.1500 
  5 C        4.0980    -0.6950     0.0140 C.ar  1 <1>   0.1000 
  6 C        2.4200    -2.1620     0.9480 C.ar  1 <1>  -0.1500 
  7 N        5.2910     0.0010     0.1680 N.pl3 1 <1>  -0.8380 
  8 C        3.6050    -1.4560     1.0680 C.ar  1 <1>  -0.1500 
  9 C        5.1880     1.4860     0.2360 C.3   1 <1>   0.2090 
 10 C        6.4590    -0.5050    -0.6070 C.3   1 <1>   0.2090 
 11 C        6.5120     2.1010     0.7390 C.3   1 <1>   0.3430 
 12 C        7.7690     0.1310    -0.0950 C.3   1 <1>   0.3430 
 13 N        7.7160     1.6460    -0.0620 N.4   1 <1>  -0.9590 
 14 C        8.9920     2.2410     0.4560 C.3   1 <1>   0.4230 
 15 C        8.9670     3.7850     0.4510 C.3   1 <1>  -0.0170 
 16 C       10.2200     1.8210    -0.3800 C.3   1 <1>  -0.0170 
 17 C       10.3560     4.1630     0.0130 C.ar  1 <1>  -0.1430 
 18 C       11.0510     3.0740    -0.4480 C.ar  1 <1>  -0.1430 
 19 C       10.9380     5.4160     0.0360 C.ar  1 <1>  -0.1500 
 20 C       12.3500     3.2030    -0.9010 C.ar  1 <1>  -0.1500 
 21 C       12.2410     5.5570    -0.4160 C.ar  1 <1>  -0.1500 
 22 C       12.9440     4.4560    -0.8820 C.ar  1 <1>  -0.1500 
 23 H        3.7300    -0.0730    -2.0080 H     1 <1>   0.1500 
 24 H        0.7850    -2.6540    -0.3530 H     1 <1>   0.1500 
 25 H        2.0520    -2.7460     1.7740 H     1 <1>   0.1500 
 26 H        4.1600    -1.4920     1.9870 H     1 <1>   0.1500 
 27 H        4.3910     1.7540     0.9100 H     1 <1>   0.0800 
 28 H        4.9450     1.8800    -0.7360 H     1 <1>   0.0800 
 29 H        6.3260    -0.2840    -1.6520 H     1 <1>   0.0800 
 30 H        6.5160    -1.5750    -0.5000 H     1 <1>   0.0800 
 31 H        6.6380     1.8130     1.7700 H     1 <1>   0.0800 
 32 H        6.4270     3.1740     0.7050 H     1 <1>   0.0800 
 33 H        8.5790    -0.1980    -0.7230 H     1 <1>   0.0800 
 34 H        7.9500    -0.2420     0.8990 H     1 <1>   0.0800 
 35 H        7.5890     1.9740    -1.0280 H     1 <1>   0.4500 
 36 H        9.1600     1.9190     1.4710 H     1 <1>   0.0800 
 37 H        8.7660     4.1730     1.4340 H     1 <1>   0.0800 
 38 H        8.2660     4.1780    -0.2620 H     1 <1>   0.0800 
 39 H        9.9520     1.5360    -1.3820 H     1 <1>   0.0800 
 40 H       10.7690     1.0340     0.1040 H     1 <1>   0.0800 
 41 H       10.3970     6.2740     0.3970 H     1 <1>   0.1500 
 42 H       12.9000     2.3520    -1.2640 H     1 <1>   0.1500 
 43 H       12.7110     6.5260    -0.4050 H     1 <1>   0.1500 
 44 H       13.9550     4.5760    -1.2310 H     1 <1>   0.1500 
@<TRIPOS>BOND
  1   1   2  1   
  2   2   3  ar  
  3   2   4  ar  
  4   3   5  ar  
  5   3  23  1   
  6   4   6  ar  
  7   4  24  1   
  8   5   7  1   
  9   5   8  ar  
 10   6   8  ar  
 11   6  25  1   
 12   7   9  1   
 13   7  10  1   
 14   8  26  1   
 15   9  11  1   
 16   9  27  1   
 17   9  28  1   
 18  10  12  1   
 19  10  29  1   
 20  10  30  1   
 21  11  13  1   
 22  11  31  1   
 23  11  32  1   
 24  12  13  1   
 25  12  33  1   
 26  12  34  1   
 27  13  14  1   
 28  13  35  1   
 29  14  15  1   
 30  14  16  1   
 31  14  36  1   
 32  15  17  1   
 33  15  37  1   
 34  15  38  1   
 35  16  18  1   
 36  16  39  1   
 37  16  40  1   
 38  17  18  ar  
 39  17  19  ar  
 40  18  20  ar  
 41  19  21  ar  
 42  19  41  1   
 43  20  22  ar  
 44  20  42  1   
 45  21  22  ar  
 46  21  43  1   
 47  22  44  1   
@<TRIPOS>SUBSTRUCTURE
  1 ****  13 GROUP 4 **** **** 0

# MOE 2024.06 (io_trps.svl 2023.06)
