@<TRIPOS>MOLECULE
NONAME
49 50 1 0 0 
SMALL
USER_CHARGES


@<TRIPOS>ATOM
  1 S        1.1960     0.6220    -0.2940 S.o2  1 <1>   1.4470 
  2 O        1.9870     0.9660     0.8700 O.2   1 <1>  -0.6500 
  3 O        1.6800     0.9630    -1.6080 O.2   1 <1>  -0.6500 
  4 N        1.0940    -1.0490    -0.3340 N.am  1 <1>  -0.9140 
  5 C       -0.5240     1.1510    -0.0780 C.ar  1 <1>  -0.0090 
  6 C        2.1930    -1.7380     0.3470 C.3   1 <1>   0.3370 
  7 C       -1.1320     1.1130     1.1710 C.ar  1 <1>  -0.1500 
  8 C       -1.2850     1.5870    -1.1560 C.ar  1 <1>  -0.1500 
  9 C        3.5970    -1.4810    -0.2620 C.2   1 <1>   0.5690 
 10 C        1.8270    -3.2250     0.3550 C.3   1 <1>  -0.2400 
 11 C       -2.4500     1.5010     1.3410 C.ar  1 <1>  -0.1500 
 12 C       -2.6030     1.9760    -0.9930 C.ar  1 <1>  -0.1500 
 13 O        3.9600    -2.1500    -1.2010 O.2   1 <1>  -0.5700 
 14 N        4.3690    -0.4940     0.2870 N.am  1 <1>  -0.5470 
 15 C       -3.1930     1.9340     0.2580 C.ar  1 <1>  -0.1430 
 16 C        5.6960    -0.1440    -0.0090 C.ar  1 <1>   0.1170 
 17 C       -4.6380     2.3620     0.4410 C.3   1 <1>  -0.0970 
 18 C        5.9720     1.1400    -0.4850 C.ar  1 <1>  -0.1430 
 19 C        6.7520    -1.0380     0.1910 C.ar  1 <1>  -0.1430 
 20 C        7.2770     1.5110    -0.7600 C.ar  1 <1>  -0.1500 
 21 C        4.8580     2.1510    -0.7270 C.3   1 <1>  -0.0970 
 22 C        8.0490    -0.6470    -0.0960 C.ar  1 <1>  -0.1500 
 23 C        6.5290    -2.4470     0.7280 C.3   1 <1>  -0.0970 
 24 C        8.3210     0.6230    -0.5710 C.ar  1 <1>  -0.1430 
 25 C        9.7480     1.0380    -0.8790 C.3   1 <1>  -0.0970 
 26 H        1.2010    -1.2680    -1.3260 H     1 <1>   0.4200 
 27 H        2.2180    -1.4200     1.3750 H     1 <1>   0.0800 
 28 H       -0.5670     0.7760     2.0240 H     1 <1>   0.1500 
 29 H       -0.8430     1.6250    -2.1380 H     1 <1>   0.1500 
 30 H        1.7690    -3.6060    -0.6490 H     1 <1>   0.0800 
 31 H        0.8830    -3.3740     0.8490 H     1 <1>   0.0800 
 32 H        2.5810    -3.7800     0.8830 H     1 <1>   0.0800 
 33 H       -2.8930     1.4640     2.3210 H     1 <1>   0.1500 
 34 H       -3.1680     2.3130    -1.8460 H     1 <1>   0.1500 
 35 H        3.8520     0.2140     0.8230 H     1 <1>   0.3700 
 36 H       -4.6810     3.4120     0.6710 H     1 <1>   0.0800 
 37 H       -5.0950     1.8120     1.2430 H     1 <1>   0.0800 
 38 H       -5.2020     2.1810    -0.4570 H     1 <1>   0.0800 
 39 H        7.4880     2.4990    -1.1280 H     1 <1>   0.1500 
 40 H        4.3090     2.3280     0.1790 H     1 <1>   0.0800 
 41 H        4.1880     1.7760    -1.4790 H     1 <1>   0.0800 
 42 H        5.2530     3.0900    -1.0690 H     1 <1>   0.0800 
 43 H        8.8600    -1.3370     0.0520 H     1 <1>   0.1500 
 44 H        6.1560    -3.0790    -0.0580 H     1 <1>   0.0800 
 45 H        5.8200    -2.4340     1.5350 H     1 <1>   0.0800 
 46 H        7.4460    -2.8680     1.0960 H     1 <1>   0.0800 
 47 H        9.7650     1.7720    -1.6650 H     1 <1>   0.0800 
 48 H       10.3250     0.1890    -1.1960 H     1 <1>   0.0800 
 49 H       10.2010     1.4590     0.0000 H     1 <1>   0.0800 
@<TRIPOS>BOND
  1   1   2  2   
  2   1   3  2   
  3   1   4  am  
  4   1   5  1   
  5   4   6  1   
  6   4  26  1   
  7   5   7  ar  
  8   5   8  ar  
  9   6   9  1   
 10   6  10  1   
 11   6  27  1   
 12   7  11  ar  
 13   7  28  1   
 14   8  12  ar  
 15   8  29  1   
 16   9  13  2   
 17   9  14  am  
 18  10  30  1   
 19  10  31  1   
 20  10  32  1   
 21  11  15  ar  
 22  11  33  1   
 23  12  15  ar  
 24  12  34  1   
 25  14  16  1   
 26  14  35  1   
 27  15  17  1   
 28  16  18  ar  
 29  16  19  ar  
 30  17  36  1   
 31  17  37  1   
 32  17  38  1   
 33  18  20  ar  
 34  18  21  1   
 35  19  22  ar  
 36  19  23  1   
 37  20  24  ar  
 38  20  39  1   
 39  21  40  1   
 40  21  41  1   
 41  21  42  1   
 42  22  24  ar  
 43  22  43  1   
 44  23  44  1   
 45  23  45  1   
 46  23  46  1   
 47  24  25  1   
 48  25  47  1   
 49  25  48  1   
 50  25  49  1   
@<TRIPOS>SUBSTRUCTURE
  1 ****   2 GROUP 4 **** **** 0

# MOE 2024.06 (io_trps.svl 2023.06)
