@<TRIPOS>MOLECULE
NONAME
29 29 1 0 0 
SMALL
USER_CHARGES


@<TRIPOS>ATOM
  1 O       -0.8000     0.9550     0.6500 O.co2 1 <1>  -0.9000 
  2 C       -1.5240    -0.0050     0.3390 C.2   1 <1>   1.0320 
  3 O       -0.9970    -1.1170     0.1590 O.co2 1 <1>  -0.9000 
  4 C       -2.9420     0.1850     0.1950 C.2   1 <1>  -0.3840 
  5 N       -3.8380    -0.7750    -0.1380 N.pl3 1 <1>   0.3140 
  6 C       -3.6700     1.3220     0.3550 C.2   1 <1>  -0.1500 
  7 N       -5.0980    -0.2840    -0.1930 N.2   1 <1>  -0.7070 
  8 C       -3.5260    -2.2050    -0.4170 C.3   1 <1>   0.0960 
  9 C       -4.9900     0.9790     0.1040 C.2   1 <1>   0.1080 
 10 C       -4.7540    -3.0610    -0.7710 C.3   1 <1>  -0.2400 
 11 C       -6.2000     1.9290     0.1580 C.3   1 <1>   0.1810 
 12 C       -5.7880     3.3630     0.5340 C.3   1 <1>  -0.2400 
 13 C       -7.2010     1.4210     1.2060 C.3   1 <1>  -0.2400 
 14 C       -6.8830     1.9640    -1.2170 C.3   1 <1>  -0.2400 
 15 H       -3.2690     2.2820     0.6230 H     1 <1>   0.1500 
 16 H       -3.0430    -2.6090     0.4530 H     1 <1>   0.0800 
 17 H       -2.8210    -2.2320    -1.2280 H     1 <1>   0.0800 
 18 H       -5.4550    -3.0520     0.0450 H     1 <1>   0.0800 
 19 H       -4.4500    -4.0730    -0.9580 H     1 <1>   0.0800 
 20 H       -5.2310    -2.6710    -1.6530 H     1 <1>   0.0800 
 21 H       -5.3170     3.3730     1.5000 H     1 <1>   0.0800 
 22 H       -6.6470     4.0080     0.5650 H     1 <1>   0.0800 
 23 H       -5.0950     3.7520    -0.1900 H     1 <1>   0.0800 
 24 H       -6.7290     1.3740     2.1710 H     1 <1>   0.0800 
 25 H       -7.5300     0.4300     0.9480 H     1 <1>   0.0800 
 26 H       -8.0580     2.0660     1.2650 H     1 <1>   0.0800 
 27 H       -6.1860     2.3000    -1.9630 H     1 <1>   0.0800 
 28 H       -7.7330     2.6200    -1.2090 H     1 <1>   0.0800 
 29 H       -7.2100     0.9760    -1.4880 H     1 <1>   0.0800 
@<TRIPOS>BOND
  1   1   2  ar  
  2   2   3  ar  
  3   2   4  1   
  4   4   5  1   
  5   4   6  2   
  6   5   7  1   
  7   5   8  1   
  8   6   9  1   
  9   6  15  1   
 10   7   9  2   
 11   8  10  1   
 12   8  16  1   
 13   8  17  1   
 14   9  11  1   
 15  10  18  1   
 16  10  19  1   
 17  10  20  1   
 18  11  12  1   
 19  11  13  1   
 20  11  14  1   
 21  12  21  1   
 22  12  22  1   
 23  12  23  1   
 24  13  24  1   
 25  13  25  1   
 26  13  26  1   
 27  14  27  1   
 28  14  28  1   
 29  14  29  1   
@<TRIPOS>SUBSTRUCTURE
  1 ****   9 GROUP 4 **** **** 0

# MOE 2024.06 (io_trps.svl 2023.06)
