@<TRIPOS>MOLECULE
NONAME
38 39 1 0 0 
SMALL
USER_CHARGES


@<TRIPOS>ATOM
  1 S       -0.3160    -0.4040     0.1230 S.3   1 <1>  -0.0800 
  2 C       -1.5100    -1.0420    -0.9880 C.2   1 <1>  -0.1400 
  3 C       -1.5120     0.6260     0.8740 C.2   1 <1>  -0.1100 
  4 C       -2.7110    -0.4820    -0.7620 C.2   1 <1>  -0.1500 
  5 C       -1.0370    -2.0760    -1.9880 C.3   1 <1>  -0.0600 
  6 C       -2.7370     0.4840     0.3110 C.2   1 <1>  -0.0860 
  7 C       -3.9260     1.2030     0.7240 C.2   1 <1>   0.7160 
  8 O       -3.8670     2.0640     1.5790 O.2   1 <1>  -0.5700 
  9 N       -5.1320     0.9150     0.1660 N.am  1 <1>  -0.7300 
 10 C       -6.4190     1.4400     0.6210 C.3   1 <1>   0.3640 
 11 C       -7.4960     0.3860     0.3450 C.ar  1 <1>  -0.1430 
 12 C       -6.6950     2.8000    -0.0190 C.3   1 <1>  -0.2400 
 13 C       -7.8890    -0.0570    -0.9240 C.ar  1 <1>  -0.1430 
 14 C       -8.1080    -0.1680     1.4640 C.ar  1 <1>  -0.1500 
 15 C       -8.8780    -1.0250    -1.0270 C.ar  1 <1>  -0.1500 
 16 C       -7.3110     0.4620    -2.2360 C.3   1 <1>  -0.0970 
 17 C       -9.0900    -1.1360     1.3530 C.ar  1 <1>  -0.1430 
 18 C       -9.4750    -1.5620     0.0970 C.ar  1 <1>  -0.1500 
 19 C       -9.7360    -1.7170     2.5970 C.3   1 <1>  -0.0970 
 20 H       -1.1900     1.2570     1.6830 H     1 <1>   0.1500 
 21 H       -3.5970    -0.7140    -1.3240 H     1 <1>   0.1500 
 22 H       -0.6440    -2.9320    -1.4700 H     1 <1>   0.0800 
 23 H       -0.2640    -1.6590    -2.6080 H     1 <1>   0.0800 
 24 H       -1.8530    -2.3910    -2.6120 H     1 <1>   0.0800 
 25 H       -5.2290     0.0650    -0.3820 H     1 <1>   0.3700 
 26 H       -6.3570     1.5980     1.6860 H     1 <1>   0.0800 
 27 H       -6.5900     2.7700    -1.0850 H     1 <1>   0.0800 
 28 H       -6.0060     3.5250     0.3740 H     1 <1>   0.0800 
 29 H       -7.6930     3.1150     0.2250 H     1 <1>   0.0800 
 30 H       -7.8180     0.1550     2.4480 H     1 <1>   0.1500 
 31 H       -9.1980    -1.3710    -1.9940 H     1 <1>   0.1500 
 32 H       -7.4430    -0.2620    -3.0200 H     1 <1>   0.0800 
 33 H       -7.8240     1.3620    -2.5240 H     1 <1>   0.0800 
 34 H       -6.2610     0.6650    -2.1620 H     1 <1>   0.0800 
 35 H      -10.2390    -2.3100    -0.0130 H     1 <1>   0.1500 
 36 H       -9.0050    -1.8370     3.3760 H     1 <1>   0.0800 
 37 H      -10.1670    -2.6790     2.3870 H     1 <1>   0.0800 
 38 H      -10.5110    -1.0580     2.9450 H     1 <1>   0.0800 
@<TRIPOS>BOND
  1   1   2  1   
  2   1   3  1   
  3   2   4  2   
  4   2   5  1   
  5   3   6  2   
  6   3  20  1   
  7   4   6  1   
  8   4  21  1   
  9   5  22  1   
 10   5  23  1   
 11   5  24  1   
 12   6   7  1   
 13   7   8  2   
 14   7   9  am  
 15   9  10  1   
 16   9  25  1   
 17  10  11  1   
 18  10  12  1   
 19  10  26  1   
 20  11  13  ar  
 21  11  14  ar  
 22  12  27  1   
 23  12  28  1   
 24  12  29  1   
 25  13  15  ar  
 26  13  16  1   
 27  14  17  ar  
 28  14  30  1   
 29  15  18  ar  
 30  15  31  1   
 31  16  32  1   
 32  16  33  1   
 33  16  34  1   
 34  17  18  ar  
 35  17  19  1   
 36  18  35  1   
 37  19  36  1   
 38  19  37  1   
 39  19  38  1   
@<TRIPOS>SUBSTRUCTURE
  1 ****   9 GROUP 4 **** **** 0

# MOE 2024.06 (io_trps.svl 2023.06)
