@<TRIPOS>MOLECULE
NONAME
46 48 1 0 0 
SMALL
USER_CHARGES


@<TRIPOS>ATOM
  1 O       -0.0340    -0.5240    -0.3510 O.2   1 <1>  -0.5700 
  2 C       -0.7180    -1.5290    -0.2830 C.2   1 <1>   0.5440 
  3 N       -0.0910    -2.7540    -0.1770 N.am  1 <1>  -0.6600 
  4 C       -2.1620    -1.4040    -0.3080 C.ar  1 <1>   0.0860 
  5 C       -0.7980    -3.9800     0.3060 C.3   1 <1>   0.1400 
  6 C        1.3890    -2.8500    -0.3610 C.3   1 <1>   0.1400 
  7 C       -2.8200    -0.5220     0.5490 C.ar  1 <1>  -0.1500 
  8 C       -2.9520    -2.1450    -1.1880 C.ar  1 <1>  -0.1500 
  9 C        0.1360    -4.8370     1.1650 C.3   1 <1>  -0.1600 
 10 C        1.8030    -4.2850    -0.6990 C.3   1 <1>  -0.1600 
 11 C       -4.1960    -0.3960     0.5390 C.ar  1 <1>  -0.1500 
 12 C       -4.3280    -2.0210    -1.2030 C.ar  1 <1>  -0.1500 
 13 C        1.3910    -5.2860     0.3950 C.3   1 <1>  -0.1600 
 14 C       -4.9720    -1.1410    -0.3430 C.ar  1 <1>   0.1170 
 15 N       -6.3630    -1.0390    -0.3810 N.am  1 <1>  -0.5470 
 16 C       -7.2120     0.0130    -0.1690 C.2   1 <1>   0.5440 
 17 O       -8.3800    -0.2790    -0.0290 O.2   1 <1>  -0.5700 
 18 C       -6.7800     1.3990    -0.1190 C.ar  1 <1>   0.0860 
 19 C       -7.3410     2.2820     0.8030 C.ar  1 <1>  -0.1500 
 20 C       -5.8060     1.9100    -0.9780 C.ar  1 <1>  -0.1500 
 21 C       -6.9390     3.6030     0.8780 C.ar  1 <1>  -0.1500 
 22 C       -5.3980     3.2290    -0.9060 C.ar  1 <1>  -0.1500 
 23 C       -5.9620     4.0850     0.0240 C.ar  1 <1>  -0.1430 
 24 C       -5.5140     5.5330     0.1060 C.3   1 <1>  -0.0970 
 25 H       -1.1310    -4.5510    -0.5440 H     1 <1>   0.0800 
 26 H       -1.6590    -3.7030     0.8900 H     1 <1>   0.0800 
 27 H        1.8740    -2.5300     0.5460 H     1 <1>   0.0800 
 28 H        1.6940    -2.1880    -1.1540 H     1 <1>   0.0800 
 29 H       -2.2310     0.0700     1.2290 H     1 <1>   0.1500 
 30 H       -2.4680    -2.8220    -1.8720 H     1 <1>   0.1500 
 31 H       -0.3940    -5.7010     1.5270 H     1 <1>   0.0800 
 32 H        0.4290    -4.2560     2.0230 H     1 <1>   0.0800 
 33 H        2.8670    -4.3280    -0.8460 H     1 <1>   0.0800 
 34 H        1.3380    -4.5560    -1.6310 H     1 <1>   0.0800 
 35 H       -4.6680     0.2850     1.2240 H     1 <1>   0.1500 
 36 H       -4.9090    -2.6050    -1.8940 H     1 <1>   0.1500 
 37 H        1.2130    -6.2440    -0.0640 H     1 <1>   0.0800 
 38 H        2.1980    -5.4080     1.0970 H     1 <1>   0.0800 
 39 H       -6.8800    -1.9050    -0.5370 H     1 <1>   0.3700 
 40 H       -8.1070     1.9210     1.4680 H     1 <1>   0.1500 
 41 H       -5.3600     1.2630    -1.7130 H     1 <1>   0.1500 
 42 H       -7.3910     4.2560     1.6050 H     1 <1>   0.1500 
 43 H       -4.6390     3.5880    -1.5790 H     1 <1>   0.1500 
 44 H       -6.3230     6.1580     0.4410 H     1 <1>   0.0800 
 45 H       -5.1940     5.8840    -0.8590 H     1 <1>   0.0800 
 46 H       -4.6960     5.6230     0.7980 H     1 <1>   0.0800 
@<TRIPOS>BOND
  1   1   2  2   
  2   2   3  am  
  3   2   4  1   
  4   3   5  1   
  5   3   6  1   
  6   4   7  ar  
  7   4   8  ar  
  8   5   9  1   
  9   5  25  1   
 10   5  26  1   
 11   6  10  1   
 12   6  27  1   
 13   6  28  1   
 14   7  11  ar  
 15   7  29  1   
 16   8  12  ar  
 17   8  30  1   
 18   9  13  1   
 19   9  31  1   
 20   9  32  1   
 21  10  13  1   
 22  10  33  1   
 23  10  34  1   
 24  11  14  ar  
 25  11  35  1   
 26  12  14  ar  
 27  12  36  1   
 28  13  37  1   
 29  13  38  1   
 30  14  15  1   
 31  15  16  am  
 32  15  39  1   
 33  16  17  2   
 34  16  18  1   
 35  18  19  ar  
 36  18  20  ar  
 37  19  21  ar  
 38  19  40  1   
 39  20  22  ar  
 40  20  41  1   
 41  21  23  ar  
 42  21  42  1   
 43  22  23  ar  
 44  22  43  1   
 45  23  24  1   
 46  24  44  1   
 47  24  45  1   
 48  24  46  1   
@<TRIPOS>SUBSTRUCTURE
  1 ****   7 GROUP 4 **** **** 0

# MOE 2024.06 (io_trps.svl 2023.06)
