@<TRIPOS>MOLECULE
NONAME
38 38 1 0 0 
SMALL
USER_CHARGES


@<TRIPOS>ATOM
  1 BR       0.7870     0.9940     2.4090 Br    1 <1>  -0.1110 
  2 C        2.0250     1.6180     1.0670 C.ar  1 <1>   0.1110 
  3 C        1.8880     2.8940     0.5380 C.ar  1 <1>   0.0830 
  4 C        3.0240     0.7490     0.6700 C.ar  1 <1>  -0.1500 
  5 O        0.8670     3.6820     0.9560 O.3   1 <1>  -0.3630 
  6 C        2.8210     3.3130    -0.4190 C.ar  1 <1>   0.0830 
  7 C        3.9320     1.1630    -0.2930 C.ar  1 <1>  -0.1440 
  8 C       -0.3050     3.6210     0.1740 C.3   1 <1>   0.0400 
  9 O        2.8440     4.5400    -1.0020 O.3   1 <1>  -0.3630 
 10 C        3.8160     2.4380    -0.8320 C.ar  1 <1>  -0.1500 
 11 C        5.0460     0.2460    -0.7480 C.3   1 <1>   0.4860 
 12 C        2.5350     5.6910    -0.2470 C.3   1 <1>   0.1200 
 13 N        6.2270     0.5780     0.0750 N.4   1 <1>  -0.9060 
 14 C        3.1860     6.8910    -0.9280 C.3   1 <1>  -0.2400 
 15 C        7.4250    -0.2230    -0.2580 C.3   1 <1>   0.3430 
 16 C        8.5730     0.2050     0.6540 C.3   1 <1>  -0.1600 
 17 C        9.8430    -0.5980     0.3510 C.3   1 <1>  -0.2400 
 18 H        3.0670    -0.2300     1.1170 H     1 <1>   0.1500 
 19 H       -1.0250     4.3020     0.5920 H     1 <1>   0.0800 
 20 H       -0.6910     2.6180     0.1990 H     1 <1>   0.0800 
 21 H       -0.0680     3.9080    -0.8360 H     1 <1>   0.0800 
 22 H        4.4990     2.7890    -1.5870 H     1 <1>   0.1500 
 23 H        5.2530     0.4110    -1.7930 H     1 <1>   0.0800 
 24 H        4.7600    -0.7840    -0.6050 H     1 <1>   0.0800 
 25 H        2.9140     5.5660     0.7530 H     1 <1>   0.0800 
 26 H        1.4660     5.8090    -0.2220 H     1 <1>   0.0800 
 27 H        5.9760     0.4550     1.0630 H     1 <1>   0.4500 
 28 H        6.4230     1.5800    -0.0400 H     1 <1>   0.4500 
 29 H        4.2540     6.7650    -0.9600 H     1 <1>   0.0800 
 30 H        2.9630     7.7860    -0.3760 H     1 <1>   0.0800 
 31 H        2.8060     7.0010    -1.9270 H     1 <1>   0.0800 
 32 H        7.7050    -0.0650    -1.2880 H     1 <1>   0.0800 
 33 H        7.2230    -1.2730    -0.1150 H     1 <1>   0.0800 
 34 H        8.3040     0.0440     1.6840 H     1 <1>   0.0800 
 35 H        8.7870     1.2500     0.5100 H     1 <1>   0.0800 
 36 H        9.6810    -1.6510     0.5080 H     1 <1>   0.0800 
 37 H       10.6410    -0.2830     1.0030 H     1 <1>   0.0800 
 38 H       10.1630    -0.4440    -0.6660 H     1 <1>   0.0800 
@<TRIPOS>BOND
  1   1   2  1   
  2   2   3  ar  
  3   2   4  ar  
  4   3   5  1   
  5   3   6  ar  
  6   4   7  ar  
  7   4  18  1   
  8   5   8  1   
  9   6   9  1   
 10   6  10  ar  
 11   7  10  ar  
 12   7  11  1   
 13   8  19  1   
 14   8  20  1   
 15   8  21  1   
 16   9  12  1   
 17  10  22  1   
 18  11  13  1   
 19  11  23  1   
 20  11  24  1   
 21  12  14  1   
 22  12  25  1   
 23  12  26  1   
 24  13  15  1   
 25  13  27  1   
 26  13  28  1   
 27  14  29  1   
 28  14  30  1   
 29  14  31  1   
 30  15  16  1   
 31  15  32  1   
 32  15  33  1   
 33  16  17  1   
 34  16  34  1   
 35  16  35  1   
 36  17  36  1   
 37  17  37  1   
 38  17  38  1   
@<TRIPOS>SUBSTRUCTURE
  1 ****  10 GROUP 4 **** **** 0

# MOE 2024.06 (io_trps.svl 2023.06)
