@<TRIPOS>MOLECULE
NONAME
45 48 1 0 0 
SMALL
USER_CHARGES


@<TRIPOS>ATOM
  1 S       -0.0650     0.3360     1.1680 S.3   1 <1>  -0.0800 
  2 C       -1.2190    -0.9350     0.8940 C.2   1 <1>  -0.1120 
  3 C       -1.2350     1.4570     0.4470 C.2   1 <1>   0.1980 
  4 N       -1.2670    -2.2740     1.0910 N.pl3 1 <1>   0.0480 
  5 C       -2.3170    -0.4400     0.3040 C.2   1 <1>   0.2270 
  6 N       -2.3240     0.9230     0.0500 N.2   1 <1>  -0.5650 
  7 C       -0.8340     2.9120     0.3730 C.3   1 <1>  -0.0600 
  8 C       -2.4900    -2.6740     0.5690 C.ar  1 <1>  -0.1520 
  9 C       -0.1080    -3.1260     1.3760 C.3   1 <1>   0.0960 
 10 C       -3.1670    -1.5480     0.0760 C.ar  1 <1>   0.0000 
 11 C       -3.0740    -3.9400     0.4790 C.ar  1 <1>  -0.1500 
 12 C        0.6400    -3.3380     0.0560 C.3   1 <1>   0.3430 
 13 C       -4.4240    -1.6930    -0.5110 C.ar  1 <1>  -0.1500 
 14 C       -4.3160    -4.0680    -0.1040 C.ar  1 <1>  -0.1500 
 15 N        1.9140    -4.1150     0.2150 N.4   1 <1>  -0.9590 
 16 C       -4.9970    -2.9420    -0.6030 C.ar  1 <1>   0.0820 
 17 C        2.6920    -4.0930    -1.0780 C.3   1 <1>   0.3430 
 18 C        1.6820    -5.5420     0.6480 C.3   1 <1>   0.3430 
 19 O       -6.2240    -3.0120    -1.1880 O.3   1 <1>  -0.3620 
 20 C        3.9530    -4.9750    -1.0000 C.3   1 <1>   0.1200 
 21 C        2.9890    -6.3570     0.6490 C.3   1 <1>   0.1200 
 22 C       -6.9540    -4.2180    -1.2100 C.3   1 <1>   0.0400 
 23 O        3.6100    -6.2690    -0.6000 O.3   1 <1>  -0.5600 
 24 H       -0.6530     3.2900     1.3610 H     1 <1>   0.0800 
 25 H       -1.6250     3.4810    -0.0800 H     1 <1>   0.0800 
 26 H        0.0550     3.0170    -0.2190 H     1 <1>   0.0800 
 27 H       -0.4560    -4.0560     1.7850 H     1 <1>   0.0800 
 28 H        0.5150    -2.6220     2.0910 H     1 <1>   0.0800 
 29 H       -2.5720    -4.8070     0.8660 H     1 <1>   0.1500 
 30 H        0.8680    -2.3680    -0.3580 H     1 <1>   0.0800 
 31 H       -0.0100    -3.8490    -0.6370 H     1 <1>   0.0800 
 32 H       -4.9340    -0.8250    -0.8870 H     1 <1>   0.1500 
 33 H       -4.7590    -5.0420    -0.1710 H     1 <1>   0.1500 
 34 H        2.5060    -3.6590     0.9240 H     1 <1>   0.4500 
 35 H        2.9800    -3.0840    -1.3200 H     1 <1>   0.0800 
 36 H        2.0740    -4.4620    -1.8810 H     1 <1>   0.0800 
 37 H        0.9900    -6.0190    -0.0270 H     1 <1>   0.0800 
 38 H        1.2520    -5.5660     1.6360 H     1 <1>   0.0800 
 39 H        4.6720    -4.5740    -0.3070 H     1 <1>   0.0800 
 40 H        4.4160    -5.0460    -1.9690 H     1 <1>   0.0800 
 41 H        2.7800    -7.3960     0.8350 H     1 <1>   0.0800 
 42 H        3.6730    -6.0060     1.4030 H     1 <1>   0.0800 
 43 H       -7.9070    -4.0230    -1.6690 H     1 <1>   0.0800 
 44 H       -7.0990    -4.5580    -0.1990 H     1 <1>   0.0800 
 45 H       -6.4130    -4.9440    -1.7900 H     1 <1>   0.0800 
@<TRIPOS>BOND
  1   1   2  1   
  2   1   3  1   
  3   2   4  1   
  4   2   5  2   
  5   3   6  2   
  6   3   7  1   
  7   4   8  1   
  8   4   9  1   
  9   5   6  1   
 10   5  10  1   
 11   7  24  1   
 12   7  25  1   
 13   7  26  1   
 14   8  10  ar  
 15   8  11  ar  
 16   9  12  1   
 17   9  27  1   
 18   9  28  1   
 19  10  13  ar  
 20  11  14  ar  
 21  11  29  1   
 22  12  15  1   
 23  12  30  1   
 24  12  31  1   
 25  13  16  ar  
 26  13  32  1   
 27  14  16  ar  
 28  14  33  1   
 29  15  17  1   
 30  15  18  1   
 31  15  34  1   
 32  16  19  1   
 33  17  20  1   
 34  17  35  1   
 35  17  36  1   
 36  18  21  1   
 37  18  37  1   
 38  18  38  1   
 39  19  22  1   
 40  20  23  1   
 41  20  39  1   
 42  20  40  1   
 43  21  23  1   
 44  21  41  1   
 45  21  42  1   
 46  22  43  1   
 47  22  44  1   
 48  22  45  1   
@<TRIPOS>SUBSTRUCTURE
  1 ****   4 GROUP 4 **** **** 0

# MOE 2024.06 (io_trps.svl 2023.06)
