@<TRIPOS>MOLECULE
NONAME
46 48 1 0 0 
SMALL
USER_CHARGES


@<TRIPOS>ATOM
  1 O       -1.2270     1.4340     1.8810 O.2   1 <1>  -0.5700 
  2 C       -1.1270     1.8320     0.7440 C.2   1 <1>   0.5690 
  3 N       -1.6300     1.1030    -0.2910 N.am  1 <1>  -0.7300 
  4 C       -0.4360     3.1800     0.4400 C.3   1 <1>   0.0610 
  5 C       -2.2680    -0.2310    -0.1580 C.3   1 <1>   0.1400 
  6 C       -1.4270     4.1510    -0.2500 C.3   1 <1>  -0.1600 
  7 C        0.7760     2.9630    -0.5020 C.3   1 <1>  -0.1600 
  8 C        0.0820     3.8640     1.7320 C.3   1 <1>  -0.1600 
  9 C       -3.6780    -0.1000     0.4180 C.3   1 <1>   0.1200 
 10 C       -0.7530     5.4980    -0.5830 C.3   1 <1>   0.0000 
 11 C        1.4710     4.2980    -0.8380 C.3   1 <1>   0.0000 
 12 C        0.7680     5.2030     1.4150 C.3   1 <1>  -0.0800 
 13 O       -4.3170    -1.3350     0.3120 O.3   1 <1>  -0.5600 
 14 C        0.4490     5.2360    -1.5130 C.3   1 <1>  -0.1600 
 15 C       -0.2420     6.1360     0.7240 C.3   1 <1>  -0.1600 
 16 C       -1.7560     6.4350    -1.2670 C.3   1 <1>  -0.2400 
 17 C        1.9560     4.9510     0.4720 C.3   1 <1>  -0.1600 
 18 C        2.6610     4.0520    -1.7750 C.3   1 <1>  -0.2400 
 19 C       -5.5800    -1.3640     0.8930 C.3   1 <1>   0.0400 
 20 H       -1.5430     1.4650    -1.2400 H     1 <1>   0.3700 
 21 H       -1.6760    -0.8450     0.4990 H     1 <1>   0.0800 
 22 H       -2.3160    -0.6980    -1.1260 H     1 <1>   0.0800 
 23 H       -2.2680     4.3170     0.4020 H     1 <1>   0.0800 
 24 H       -1.8020     3.7100    -1.1560 H     1 <1>   0.0800 
 25 H        0.4520     2.4950    -1.4140 H     1 <1>   0.0800 
 26 H        1.4760     2.2980    -0.0280 H     1 <1>   0.0800 
 27 H        0.7780     3.2120     2.2320 H     1 <1>   0.0800 
 28 H       -0.7400     4.0310     2.4070 H     1 <1>   0.0800 
 29 H       -4.2460     0.6240    -0.1390 H     1 <1>   0.0800 
 30 H       -3.6260     0.1810     1.4560 H     1 <1>   0.0800 
 31 H        1.1170     5.6570     2.3270 H     1 <1>   0.0800 
 32 H        0.1070     4.7970    -2.4330 H     1 <1>   0.0800 
 33 H        0.9250     6.1700    -1.7560 H     1 <1>   0.0800 
 34 H       -1.0670     6.3260     1.3880 H     1 <1>   0.0800 
 35 H        0.2300     7.0800     0.5120 H     1 <1>   0.0800 
 36 H       -2.1170     5.9990    -2.1820 H     1 <1>   0.0800 
 37 H       -1.2920     7.3770    -1.5000 H     1 <1>   0.0800 
 38 H       -2.5980     6.6200    -0.6240 H     1 <1>   0.0800 
 39 H        2.4480     5.8840     0.2570 H     1 <1>   0.0800 
 40 H        2.6710     4.3100     0.9590 H     1 <1>   0.0800 
 41 H        2.3310     3.5980    -2.6920 H     1 <1>   0.0800 
 42 H        3.3770     3.3990    -1.3090 H     1 <1>   0.0800 
 43 H        3.1510     4.9800    -2.0110 H     1 <1>   0.0800 
 44 H       -5.9900    -2.3480     0.7540 H     1 <1>   0.0800 
 45 H       -6.2100    -0.6360     0.4110 H     1 <1>   0.0800 
 46 H       -5.4910    -1.1530     1.9450 H     1 <1>   0.0800 
@<TRIPOS>BOND
  1   1   2  2   
  2   2   3  am  
  3   2   4  1   
  4   3   5  1   
  5   3  20  1   
  6   4   6  1   
  7   4   7  1   
  8   4   8  1   
  9   5   9  1   
 10   5  21  1   
 11   5  22  1   
 12   6  10  1   
 13   6  23  1   
 14   6  24  1   
 15   7  11  1   
 16   7  25  1   
 17   7  26  1   
 18   8  12  1   
 19   8  27  1   
 20   8  28  1   
 21   9  13  1   
 22   9  29  1   
 23   9  30  1   
 24  10  14  1   
 25  10  15  1   
 26  10  16  1   
 27  11  14  1   
 28  11  17  1   
 29  11  18  1   
 30  12  15  1   
 31  12  17  1   
 32  12  31  1   
 33  13  19  1   
 34  14  32  1   
 35  14  33  1   
 36  15  34  1   
 37  15  35  1   
 38  16  36  1   
 39  16  37  1   
 40  16  38  1   
 41  17  39  1   
 42  17  40  1   
 43  18  41  1   
 44  18  42  1   
 45  18  43  1   
 46  19  44  1   
 47  19  45  1   
 48  19  46  1   
@<TRIPOS>SUBSTRUCTURE
  1 ****   4 GROUP 4 **** **** 0

# MOE 2024.06 (io_trps.svl 2023.06)
