@<TRIPOS>MOLECULE
NONAME
39 41 1 0 0 
SMALL
USER_CHARGES


@<TRIPOS>ATOM
  1 S        0.0530     0.0530    -0.4040 S.3   1 <1>  -0.2860 
  2 C        1.8120     0.4010    -0.5180 C.2   1 <1>   0.2420 
  3 C       -0.7230     1.7080    -0.7610 C.3   1 <1>   0.1310 
  4 N        2.2410     1.5830    -0.7770 N.2   1 <1>  -0.3380 
  5 N        2.7840    -0.5000    -0.3400 N.pl3 1 <1>   0.0480 
  6 C       -2.2420     1.6510    -0.6890 C.2   1 <1>   0.5690 
  7 N        3.5660     1.5000    -0.7650 N.2   1 <1>  -0.3380 
  8 C        3.8960     0.2660    -0.4840 C.2   1 <1>   0.1860 
  9 C        2.6940    -1.9740    -0.1070 C.3   1 <1>   0.1760 
 10 O       -2.8650     2.6090    -1.0810 O.2   1 <1>  -0.5700 
 11 N       -2.8530     0.5440    -0.1860 N.am  1 <1>  -0.5790 
 12 C        5.2680    -0.1540    -0.3450 C.2   1 <1>   0.1400 
 13 C        1.9020    -2.6890    -1.2110 C.3   1 <1>  -0.2400 
 14 C        2.1300    -2.2780     1.2860 C.3   1 <1>  -0.2400 
 15 C       -4.3010     0.3410    -0.0490 C.3   1 <1>   0.0490 
 16 O        5.6150    -1.2250     0.3610 O.3   1 <1>  -0.2800 
 17 C        6.4000     0.4230    -0.8340 C.2   1 <1>  -0.1500 
 18 C       -4.7900    -0.4570     1.1130 C.3   1 <1>  -0.2000 
 19 C       -4.8400    -1.0320    -0.2710 C.3   1 <1>  -0.2000 
 20 C        6.9270    -1.3470     0.3280 C.2   1 <1>  -0.0100 
 21 C        7.4750    -0.3540    -0.4000 C.2   1 <1>  -0.1500 
 22 H       -0.4080     2.0020    -1.7440 H     1 <1>   0.0800 
 23 H       -0.3420     2.4030    -0.0360 H     1 <1>   0.0800 
 24 H        3.6840    -2.3830    -0.1490 H     1 <1>   0.0800 
 25 H       -2.2690    -0.2410     0.1100 H     1 <1>   0.3700 
 26 H        0.8540    -2.4640    -1.1620 H     1 <1>   0.0800 
 27 H        2.0130    -3.7530    -1.1010 H     1 <1>   0.0800 
 28 H        2.2820    -2.4120    -2.1790 H     1 <1>   0.0800 
 29 H        2.7280    -1.7970     2.0390 H     1 <1>   0.0800 
 30 H        2.1550    -3.3380     1.4660 H     1 <1>   0.0800 
 31 H        1.1120    -1.9460     1.3760 H     1 <1>   0.0800 
 32 H       -4.8840     1.1870    -0.3800 H     1 <1>   0.1000 
 33 H        6.4670     1.3120    -1.4370 H     1 <1>   0.1500 
 34 H       -5.7170    -0.1720     1.5780 H     1 <1>   0.1000 
 35 H       -4.0740    -0.8430     1.8170 H     1 <1>   0.1000 
 36 H       -4.1590    -1.8210    -0.5370 H     1 <1>   0.1000 
 37 H       -5.8010    -1.1370    -0.7440 H     1 <1>   0.1000 
 38 H        7.3890    -2.1680     0.8510 H     1 <1>   0.1500 
 39 H        8.5130    -0.1690    -0.6170 H     1 <1>   0.1500 
@<TRIPOS>BOND
  1   1   2  1   
  2   1   3  1   
  3   2   4  2   
  4   2   5  1   
  5   3   6  1   
  6   3  22  1   
  7   3  23  1   
  8   4   7  1   
  9   5   8  1   
 10   5   9  1   
 11   6  10  2   
 12   6  11  am  
 13   7   8  2   
 14   8  12  1   
 15   9  13  1   
 16   9  14  1   
 17   9  24  1   
 18  11  15  1   
 19  11  25  1   
 20  12  16  1   
 21  12  17  2   
 22  13  26  1   
 23  13  27  1   
 24  13  28  1   
 25  14  29  1   
 26  14  30  1   
 27  14  31  1   
 28  15  18  1   
 29  15  19  1   
 30  15  32  1   
 31  16  20  1   
 32  17  21  1   
 33  17  33  1   
 34  18  19  1   
 35  18  34  1   
 36  18  35  1   
 37  19  36  1   
 38  19  37  1   
 39  20  21  2   
 40  20  38  1   
 41  21  39  1   
@<TRIPOS>SUBSTRUCTURE
  1 ****   2 GROUP 4 **** **** 0

# MOE 2024.06 (io_trps.svl 2023.06)
