@<TRIPOS>MOLECULE
NONAME
48 50 1 0 0 
SMALL
USER_CHARGES


@<TRIPOS>ATOM
  1 O        0.0430    -0.0960    -0.1420 O.2   1 <1>  -0.5700 
  2 C        1.0300    -0.7950    -0.0640 C.2   1 <1>   0.4950 
  3 C        0.9900    -2.2290    -0.1360 C.2   1 <1>  -0.1240 
  4 C        2.3350    -0.0420     0.1650 C.3   1 <1>  -0.0990 
  5 C       -0.1460    -2.9790    -0.1470 C.2   1 <1>  -0.0500 
  6 C        2.3120    -2.9900    -0.2290 C.3   1 <1>  -0.0220 
  7 C        3.6040    -0.8510    -0.1310 C.3   1 <1>  -0.1600 
  8 N       -1.4190    -2.4650    -0.0840 N.pl3 1 <1>  -0.6000 
  9 C        3.4780    -2.2610     0.4430 C.3   1 <1>  -0.1600 
 10 C       -2.6610    -3.1120    -0.0760 C.ar  1 <1>   0.1000 
 11 C       -2.7960    -4.4690     0.1980 C.ar  1 <1>  -0.1500 
 12 C       -3.8060    -2.3750    -0.3460 C.ar  1 <1>  -0.1500 
 13 C       -4.0420    -5.0680     0.1970 C.ar  1 <1>  -0.1500 
 14 C       -5.0520    -2.9750    -0.3470 C.ar  1 <1>  -0.1500 
 15 C       -5.1880    -4.3310    -0.0730 C.ar  1 <1>   0.1000 
 16 N       -6.4340    -4.9720    -0.0710 N.pl3 1 <1>  -0.6000 
 17 C       -7.6800    -4.4080     0.1170 C.2   1 <1>  -0.0500 
 18 C       -8.8830    -5.0430     0.0690 C.2   1 <1>  -0.1240 
 19 C      -10.1210    -4.3460     0.2570 C.2   1 <1>   0.4950 
 20 C       -8.9250    -6.5470    -0.2190 C.3   1 <1>  -0.0220 
 21 O      -10.1780    -3.1450     0.3870 O.2   1 <1>  -0.5700 
 22 C      -11.4560    -5.0740     0.3370 C.3   1 <1>  -0.0990 
 23 C      -10.1920    -7.2370     0.2950 C.3   1 <1>  -0.1600 
 24 C      -11.4320    -6.5040    -0.2140 C.3   1 <1>  -0.1600 
 25 H        2.3330     0.8470    -0.4390 H     1 <1>   0.0800 
 26 H        2.3470     0.2670     1.1940 H     1 <1>   0.0800 
 27 H       -0.0830    -4.0510    -0.2150 H     1 <1>   0.1500 
 28 H        2.2090    -3.9640     0.2170 H     1 <1>   0.0800 
 29 H        2.5450    -3.1350    -1.2700 H     1 <1>   0.0800 
 30 H        3.7530    -0.9080    -1.1970 H     1 <1>   0.0800 
 31 H        4.4580    -0.3520     0.2960 H     1 <1>   0.0800 
 32 H       -1.4540    -1.4300    -0.0840 H     1 <1>   0.4000 
 33 H        3.3140    -2.2120     1.5070 H     1 <1>   0.0800 
 34 H        4.3900    -2.8060     0.2710 H     1 <1>   0.0800 
 35 H       -1.9280    -5.0570     0.4210 H     1 <1>   0.1500 
 36 H       -3.7190    -1.3260    -0.5610 H     1 <1>   0.1500 
 37 H       -4.1250    -6.1160     0.4160 H     1 <1>   0.1500 
 38 H       -5.9200    -2.3840    -0.5710 H     1 <1>   0.1500 
 39 H       -6.3880    -5.9850    -0.2060 H     1 <1>   0.4000 
 40 H       -7.6740    -3.3490     0.3230 H     1 <1>   0.1500 
 41 H       -8.8610    -6.6850    -1.2850 H     1 <1>   0.0800 
 42 H       -8.0760    -7.0350     0.2250 H     1 <1>   0.0800 
 43 H      -11.7460    -5.0980     1.3720 H     1 <1>   0.0800 
 44 H      -12.1960    -4.5020    -0.1930 H     1 <1>   0.0800 
 45 H      -10.2080    -8.2580    -0.0470 H     1 <1>   0.0800 
 46 H      -10.1890    -7.2470     1.3720 H     1 <1>   0.0800 
 47 H      -12.3230    -7.0250     0.0940 H     1 <1>   0.0800 
 48 H      -11.4180    -6.4760    -1.2900 H     1 <1>   0.0800 
@<TRIPOS>BOND
  1   1   2  2   
  2   2   3  1   
  3   2   4  1   
  4   3   5  2   
  5   3   6  1   
  6   4   7  1   
  7   4  25  1   
  8   4  26  1   
  9   5   8  1   
 10   5  27  1   
 11   6   9  1   
 12   6  28  1   
 13   6  29  1   
 14   7   9  1   
 15   7  30  1   
 16   7  31  1   
 17   8  10  1   
 18   8  32  1   
 19   9  33  1   
 20   9  34  1   
 21  10  11  ar  
 22  10  12  ar  
 23  11  13  ar  
 24  11  35  1   
 25  12  14  ar  
 26  12  36  1   
 27  13  15  ar  
 28  13  37  1   
 29  14  15  ar  
 30  14  38  1   
 31  15  16  1   
 32  16  17  1   
 33  16  39  1   
 34  17  18  2   
 35  17  40  1   
 36  18  19  1   
 37  18  20  1   
 38  19  21  2   
 39  19  22  1   
 40  20  23  1   
 41  20  41  1   
 42  20  42  1   
 43  22  24  1   
 44  22  43  1   
 45  22  44  1   
 46  23  24  1   
 47  23  45  1   
 48  23  46  1   
 49  24  47  1   
 50  24  48  1   
@<TRIPOS>SUBSTRUCTURE
  1 ****  14 GROUP 4 **** **** 0

# MOE 2024.06 (io_trps.svl 2023.06)
