@<TRIPOS>MOLECULE
NONAME
39 41 1 0 0 
SMALL
USER_CHARGES


@<TRIPOS>ATOM
  1 O      -11.0950    -0.6900     0.5760 O.3   1 <1>  -0.5600 
  2 C      -12.3400    -1.0890     1.0930 C.3   1 <1>   0.4870 
  3 C      -10.0440    -1.5920     0.6190 C.3   1 <1>   0.1200 
  4 C      -12.8530    -2.4020     0.4950 C.ar  1 <1>  -0.1440 
  5 C      -13.3610    -0.0990     0.5550 C.ar  1 <1>  -0.1440 
  6 C       -8.8110    -0.8600     0.0750 C.3   1 <1>   0.3430 
  7 C      -13.9360    -2.1440    -0.3280 C.ar  1 <1>   0.0000 
  8 C      -12.4190    -3.7030     0.7010 C.ar  1 <1>  -0.1500 
  9 C      -14.2490    -0.7440    -0.2860 C.ar  1 <1>   0.0000 
 10 C      -13.4570     1.2600     0.7930 C.ar  1 <1>  -0.1500 
 11 N       -7.6410    -1.7720    -0.1690 N.4   1 <1>  -0.9590 
 12 C      -14.5570    -3.1840    -1.0050 C.ar  1 <1>  -0.1500 
 13 C      -13.0460    -4.7410     0.0300 C.ar  1 <1>  -0.1500 
 14 C      -15.2550    -0.0190    -0.9100 C.ar  1 <1>  -0.1500 
 15 C      -14.4650     1.9810     0.1710 C.ar  1 <1>  -0.1500 
 16 C       -6.4150    -0.9610    -0.4450 C.3   1 <1>   0.2630 
 17 C       -7.9000    -2.7130    -1.3080 C.3   1 <1>   0.2630 
 18 C      -14.1050    -4.4800    -0.8270 C.ar  1 <1>  -0.1500 
 19 C      -15.3590     1.3430    -0.6780 C.ar  1 <1>  -0.1500 
 20 H      -12.3100    -1.1020     2.1690 H     1 <1>   0.0800 
 21 H      -10.2900    -2.4220    -0.0170 H     1 <1>   0.0800 
 22 H       -9.8960    -1.9090     1.6370 H     1 <1>   0.0800 
 23 H       -8.5340    -0.0970     0.7840 H     1 <1>   0.0800 
 24 H       -9.0840    -0.3760    -0.8490 H     1 <1>   0.0800 
 25 H      -11.6100    -3.9180     1.3760 H     1 <1>   0.1500 
 26 H      -12.7580     1.7530     1.4450 H     1 <1>   0.1500 
 27 H       -7.4730    -2.3230     0.6870 H     1 <1>   0.4500 
 28 H      -15.3890    -2.9800    -1.6550 H     1 <1>   0.1500 
 29 H      -12.7160    -5.7560     0.1750 H     1 <1>   0.1500 
 30 H      -15.9470    -0.5150    -1.5650 H     1 <1>   0.1500 
 31 H      -14.5530     3.0390     0.3450 H     1 <1>   0.1500 
 32 H       -6.5530    -0.3640    -1.3320 H     1 <1>   0.0800 
 33 H       -5.5640    -1.6060    -0.5930 H     1 <1>   0.0800 
 34 H       -6.2060    -0.3030     0.3830 H     1 <1>   0.0800 
 35 H       -8.1030    -2.1600    -2.2110 H     1 <1>   0.0800 
 36 H       -8.7470    -3.3440    -1.0950 H     1 <1>   0.0800 
 37 H       -7.0410    -3.3420    -1.4760 H     1 <1>   0.0800 
 38 H      -14.5850    -5.2910    -1.3480 H     1 <1>   0.1500 
 39 H      -16.1370     1.9110    -1.1580 H     1 <1>   0.1500 
@<TRIPOS>BOND
  1   1   2  1   
  2   1   3  1   
  3   2   4  1   
  4   2   5  1   
  5   2  20  1   
  6   3   6  1   
  7   3  21  1   
  8   3  22  1   
  9   4   7  ar  
 10   4   8  ar  
 11   5   9  ar  
 12   5  10  ar  
 13   6  11  1   
 14   6  23  1   
 15   6  24  1   
 16   7   9  1   
 17   7  12  ar  
 18   8  13  ar  
 19   8  25  1   
 20   9  14  ar  
 21  10  15  ar  
 22  10  26  1   
 23  11  16  1   
 24  11  17  1   
 25  11  27  1   
 26  12  18  ar  
 27  12  28  1   
 28  13  18  ar  
 29  13  29  1   
 30  14  19  ar  
 31  14  30  1   
 32  15  19  ar  
 33  15  31  1   
 34  16  32  1   
 35  16  33  1   
 36  16  34  1   
 37  17  35  1   
 38  17  36  1   
 39  17  37  1   
 40  18  38  1   
 41  19  39  1   
@<TRIPOS>SUBSTRUCTURE
  1 ****   2 GROUP 4 **** **** 0

# MOE 2024.06 (io_trps.svl 2023.06)
