@<TRIPOS>MOLECULE
NONAME
50 51 1 0 0 
SMALL
USER_CHARGES


@<TRIPOS>ATOM
  1 S        0.4670    -0.0660     0.3510 S.o2  1 <1>   1.3330 
  2 O        1.4390    -0.4860    -0.6270 O.2   1 <1>  -0.6500 
  3 O        0.6380    -0.3960     1.7440 O.2   1 <1>  -0.6500 
  4 N        0.3450     1.6520     0.2210 N.am  1 <1>  -0.6930 
  5 C       -1.1330    -0.6180    -0.2020 C.3   1 <1>  -0.1350 
  6 C       -0.7910     2.2990     0.7090 C.ar  1 <1>   0.1990 
  7 C        1.6730     2.3460     0.2500 C.3   1 <1>   0.3370 
  8 C       -1.6390     2.9540    -0.1770 C.ar  1 <1>  -0.1500 
  9 C       -1.1240     2.2820     2.0580 C.ar  1 <1>  -0.1500 
 10 C        2.3690     2.3210     1.6360 C.2   1 <1>   0.5690 
 11 C        1.5400     3.7800    -0.2860 C.3   1 <1>  -0.2400 
 12 C       -2.7920     3.5790     0.2670 C.ar  1 <1>  -0.1500 
 13 C       -2.2750     2.9040     2.5080 C.ar  1 <1>  -0.1500 
 14 O        1.8710     2.8770     2.5860 O.2   1 <1>  -0.5700 
 15 N        3.5670     1.6980     1.8090 N.am  1 <1>  -0.5470 
 16 C       -3.1160     3.5550     1.6200 C.ar  1 <1>   0.0830 
 17 C        4.4190     1.1340     0.8560 C.ar  1 <1>   0.1170 
 18 O       -4.2260     4.1390     2.1460 O.3   1 <1>  -0.3630 
 19 C        4.6110    -0.2470     0.7530 C.ar  1 <1>  -0.1430 
 20 C        5.0940     1.9880    -0.0060 C.ar  1 <1>  -0.1500 
 21 C       -5.0950     4.9000     1.3370 C.3   1 <1>   0.0400 
 22 C        5.4680    -0.7470    -0.2250 C.ar  1 <1>  -0.1430 
 23 C        3.8830    -1.2190     1.6840 C.3   1 <1>  -0.0970 
 24 C        5.9450     1.4890    -0.9710 C.ar  1 <1>  -0.1500 
 25 C        6.1280     0.1240    -1.0790 C.ar  1 <1>  -0.1500 
 26 C        5.6990    -2.2430    -0.3970 C.3   1 <1>  -0.0970 
 27 H       -1.1670    -1.6890    -0.2110 H     1 <1>   0.0800 
 28 H       -1.3260    -0.2580    -1.1930 H     1 <1>   0.0800 
 29 H       -1.9000    -0.2570     0.4550 H     1 <1>   0.0800 
 30 H        2.3120     1.8280    -0.4420 H     1 <1>   0.0800 
 31 H       -1.3870     2.9690    -1.2210 H     1 <1>   0.1500 
 32 H       -0.4770     1.7840     2.7590 H     1 <1>   0.1500 
 33 H        0.9500     4.3800     0.3840 H     1 <1>   0.0800 
 34 H        1.0910     3.7720    -1.2610 H     1 <1>   0.0800 
 35 H        2.5150     4.2250    -0.3620 H     1 <1>   0.0800 
 36 H       -3.4200     4.0740    -0.4490 H     1 <1>   0.1500 
 37 H       -2.5240     2.8900     3.5540 H     1 <1>   0.1500 
 38 H        3.8450     1.6100     2.7860 H     1 <1>   0.3700 
 39 H        4.9560     3.0500     0.0830 H     1 <1>   0.1500 
 40 H       -5.5190     4.2630     0.5820 H     1 <1>   0.0800 
 41 H       -4.5410     5.7090     0.8950 H     1 <1>   0.0800 
 42 H       -5.8760     5.2930     1.9640 H     1 <1>   0.0800 
 43 H        4.5940    -1.8350     2.2030 H     1 <1>   0.0800 
 44 H        3.2830    -0.7220     2.4220 H     1 <1>   0.0800 
 45 H        3.2300    -1.8490     1.1080 H     1 <1>   0.0800 
 46 H        6.4640     2.1560    -1.6360 H     1 <1>   0.1500 
 47 H        6.7910    -0.2570    -1.8360 H     1 <1>   0.1500 
 48 H        4.7660    -2.7380    -0.5970 H     1 <1>   0.0800 
 49 H        6.1340    -2.6550     0.4950 H     1 <1>   0.0800 
 50 H        6.3640    -2.4400    -1.2180 H     1 <1>   0.0800 
@<TRIPOS>BOND
  1   1   2  2   
  2   1   3  2   
  3   1   4  am  
  4   1   5  1   
  5   4   6  1   
  6   4   7  1   
  7   5  27  1   
  8   5  28  1   
  9   5  29  1   
 10   6   8  ar  
 11   6   9  ar  
 12   7  10  1   
 13   7  11  1   
 14   7  30  1   
 15   8  12  ar  
 16   8  31  1   
 17   9  13  ar  
 18   9  32  1   
 19  10  14  2   
 20  10  15  am  
 21  11  33  1   
 22  11  34  1   
 23  11  35  1   
 24  12  16  ar  
 25  12  36  1   
 26  13  16  ar  
 27  13  37  1   
 28  15  17  1   
 29  15  38  1   
 30  16  18  1   
 31  17  19  ar  
 32  17  20  ar  
 33  18  21  1   
 34  19  22  ar  
 35  19  23  1   
 36  20  24  ar  
 37  20  39  1   
 38  21  40  1   
 39  21  41  1   
 40  21  42  1   
 41  22  25  ar  
 42  22  26  1   
 43  23  43  1   
 44  23  44  1   
 45  23  45  1   
 46  24  25  ar  
 47  24  46  1   
 48  25  47  1   
 49  26  48  1   
 50  26  49  1   
 51  26  50  1   
@<TRIPOS>SUBSTRUCTURE
  1 ****   7 GROUP 4 **** **** 0

# MOE 2024.06 (io_trps.svl 2023.06)
