@<TRIPOS>MOLECULE
NONAME
30 31 1 0 0 
SMALL
USER_CHARGES


@<TRIPOS>ATOM
  1 O        0.4980     0.1140    -0.0700 O.2   1 <1>  -0.5700 
  2 C        1.6330     0.5310    -0.0680 C.2   1 <1>   0.5690 
  3 N        2.7310    -0.3070    -0.0500 N.am  1 <1>  -0.2980 
  4 C        1.8550     2.0260    -0.0860 C.3   1 <1>  -0.1790 
  5 N        4.0550     0.0550    -0.0460 N.2   1 <1>  -0.5120 
  6 C        2.5720    -1.7680    -0.0330 C.3   1 <1>   0.1400 
  7 C        4.8060    -0.9740    -0.0280 C.2   1 <1>   0.3030 
  8 C        4.0110    -2.2650    -0.0170 C.3   1 <1>  -0.0990 
  9 C        6.2520    -0.9820    -0.0180 C.ar  1 <1>   0.0860 
 10 C        7.0070    -2.1610     0.0020 C.ar  1 <1>  -0.1500 
 11 C        6.9660     0.2200    -0.0290 C.ar  1 <1>  -0.1500 
 12 C        8.3900    -2.1430     0.0110 C.ar  1 <1>  -0.1500 
 13 C        8.3470     0.2470    -0.0200 C.ar  1 <1>  -0.1500 
 14 C        9.0730    -0.9320     0.0000 C.ar  1 <1>   0.0830 
 15 O       10.4220    -0.8220     0.0080 O.3   1 <1>  -0.3630 
 16 C       11.2550    -1.9600     0.0280 C.3   1 <1>   0.0400 
 17 H        2.4160     2.2930    -0.9610 H     1 <1>   0.0800 
 18 H        2.4050     2.3150     0.7900 H     1 <1>   0.0800 
 19 H        0.9110     2.5380    -0.0980 H     1 <1>   0.0800 
 20 H        2.0470    -2.0870    -0.9160 H     1 <1>   0.0800 
 21 H        2.0350    -2.0650     0.8510 H     1 <1>   0.0800 
 22 H        4.2170    -2.8550    -0.8910 H     1 <1>   0.0800 
 23 H        4.2050    -2.8330     0.8750 H     1 <1>   0.0800 
 24 H        6.5140    -3.1150     0.0110 H     1 <1>   0.1500 
 25 H        6.4250     1.1500    -0.0440 H     1 <1>   0.1500 
 26 H        8.9200    -3.0760     0.0260 H     1 <1>   0.1500 
 27 H        8.8740     1.1840    -0.0280 H     1 <1>   0.1500 
 28 H       12.2770    -1.6260     0.0300 H     1 <1>   0.0800 
 29 H       11.0650    -2.5470    -0.8530 H     1 <1>   0.0800 
 30 H       11.0530    -2.5250     0.9210 H     1 <1>   0.0800 
@<TRIPOS>BOND
  1   1   2  2   
  2   2   3  am  
  3   2   4  1   
  4   3   5  1   
  5   3   6  1   
  6   4  17  1   
  7   4  18  1   
  8   4  19  1   
  9   5   7  2   
 10   6   8  1   
 11   6  20  1   
 12   6  21  1   
 13   7   8  1   
 14   7   9  1   
 15   8  22  1   
 16   8  23  1   
 17   9  10  ar  
 18   9  11  ar  
 19  10  12  ar  
 20  10  24  1   
 21  11  13  ar  
 22  11  25  1   
 23  12  14  ar  
 24  12  26  1   
 25  13  14  ar  
 26  13  27  1   
 27  14  15  1   
 28  15  16  1   
 29  16  28  1   
 30  16  29  1   
 31  16  30  1   
@<TRIPOS>SUBSTRUCTURE
  1 ****   9 GROUP 4 **** **** 0

# MOE 2024.06 (io_trps.svl 2023.06)
