@<TRIPOS>MOLECULE
NONAME
43 46 1 0 0 
SMALL
USER_CHARGES


@<TRIPOS>ATOM
  1 N        0.8860    -0.7080    -0.4620 N.ar  1 <1>  -0.6200 
  2 C        0.2210    -1.8260    -0.1710 C.ar  1 <1>   0.7200 
  3 C        0.4410    -0.0330    -1.4970 C.ar  1 <1>   0.1600 
  4 N       -0.7950    -2.3440    -0.8490 N.ar  1 <1>  -0.6200 
  5 N        0.6610    -2.5440     0.9160 N.pl3 1 <1>  -0.8380 
  6 C       -0.6260    -0.4640    -2.2470 C.ar  1 <1>  -0.1500 
  7 C       -1.2170    -1.6470    -1.8770 C.ar  1 <1>   0.1600 
  8 C        0.9630    -3.9900     0.7280 C.3   1 <1>   0.2090 
  9 C        1.5110    -1.8900     1.9510 C.3   1 <1>   0.2090 
 10 C        2.4500    -4.1620     0.3500 C.3   1 <1>   0.3430 
 11 C        2.9960    -2.0410     1.5660 C.3   1 <1>   0.3430 
 12 N        3.3950    -3.4830     1.3250 N.4   1 <1>  -0.9590 
 13 C        4.8310    -3.6400     0.9170 C.3   1 <1>   0.3430 
 14 C        5.2270    -2.8570    -0.3560 C.3   1 <1>  -0.0800 
 15 C        6.6060    -3.5060    -1.0030 C.3   1 <1>   0.0580 
 16 C        5.5600    -1.1980    -0.0930 C.3   1 <1>  -0.1600 
 17 C        8.1300    -3.1010    -1.3450 C.2   1 <1>  -0.2880 
 18 C        6.7200    -2.1940    -0.8000 C.3   1 <1>  -0.1600 
 19 C        7.1050    -0.9320    -0.6180 C.3   1 <1>   0.0580 
 20 C        8.3910    -1.7530    -1.1430 C.2   1 <1>  -0.2880 
 21 H        0.9370     0.8880    -1.7550 H     1 <1>   0.1500 
 22 H       -0.9830     0.0990    -3.0890 H     1 <1>   0.1500 
 23 H       -2.0550    -2.0290    -2.4370 H     1 <1>   0.1500 
 24 H        0.3470    -4.4100    -0.0500 H     1 <1>   0.0800 
 25 H        0.7430    -4.5240     1.6360 H     1 <1>   0.0800 
 26 H        1.3260    -2.3430     2.9090 H     1 <1>   0.0800 
 27 H        1.2590    -0.8460     2.0350 H     1 <1>   0.0800 
 28 H        2.5820    -3.7410    -0.6320 H     1 <1>   0.0800 
 29 H        2.6770    -5.2130     0.2900 H     1 <1>   0.0800 
 30 H        3.6090    -1.6130     2.3410 H     1 <1>   0.0800 
 31 H        3.1510    -1.4690     0.6660 H     1 <1>   0.0800 
 32 H        3.2760    -3.9680     2.2240 H     1 <1>   0.4500 
 33 H        5.0280    -4.6850     0.7430 H     1 <1>   0.0800 
 34 H        5.4740    -3.3250     1.7240 H     1 <1>   0.0800 
 35 H        4.4350    -2.9530    -1.0860 H     1 <1>   0.0800 
 36 H        6.2620    -3.8880    -1.9550 H     1 <1>   0.0800 
 37 H        5.4930    -0.9360     0.9530 H     1 <1>   0.0800 
 38 H        4.8610    -0.5740    -0.6320 H     1 <1>   0.0800 
 39 H        8.8040    -3.8680    -1.6910 H     1 <1>   0.1500 
 40 H        6.4070    -1.9650    -1.9040 H     1 <1>   0.0800 
 41 H        7.1350    -2.4430     0.3190 H     1 <1>   0.0800 
 42 H        6.9680    -0.1950    -1.3990 H     1 <1>   0.0800 
 43 H        9.3150    -1.2180    -1.2920 H     1 <1>   0.1500 
@<TRIPOS>BOND
  1   1   2  ar  
  2   1   3  ar  
  3   2   4  ar  
  4   2   5  1   
  5   3   6  ar  
  6   3  21  1   
  7   4   7  ar  
  8   5   8  1   
  9   5   9  1   
 10   6   7  ar  
 11   6  22  1   
 12   7  23  1   
 13   8  10  1   
 14   8  24  1   
 15   8  25  1   
 16   9  11  1   
 17   9  26  1   
 18   9  27  1   
 19  10  12  1   
 20  10  28  1   
 21  10  29  1   
 22  11  12  1   
 23  11  30  1   
 24  11  31  1   
 25  12  13  1   
 26  12  32  1   
 27  13  14  1   
 28  13  33  1   
 29  13  34  1   
 30  14  15  1   
 31  14  16  1   
 32  14  35  1   
 33  15  17  1   
 34  15  18  1   
 35  15  36  1   
 36  16  19  1   
 37  16  37  1   
 38  16  38  1   
 39  17  20  2   
 40  17  39  1   
 41  18  19  1   
 42  18  40  1   
 43  18  41  1   
 44  19  20  1   
 45  19  42  1   
 46  20  43  1   
@<TRIPOS>SUBSTRUCTURE
  1 ****  11 GROUP 4 **** **** 0

# MOE 2024.06 (io_trps.svl 2023.06)
