@<TRIPOS>MOLECULE
NONAME
33 33 1 0 0 
SMALL
USER_CHARGES


@<TRIPOS>ATOM
  1 CL      -0.3840    -0.4820    -0.7740 Cl    1 <1>  -0.1770 
  2 C       -1.7340     0.5300    -0.3070 C.ar  1 <1>   0.1770 
  3 C       -3.0260     0.0210    -0.2350 C.ar  1 <1>  -0.1440 
  4 C       -1.4490     1.8500    -0.0090 C.ar  1 <1>  -0.1500 
  5 C       -4.0580     0.8750     0.1670 C.ar  1 <1>   0.1170 
  6 C       -3.3200    -1.4390    -0.5890 C.3   1 <1>  -0.0960 
  7 C       -2.4730     2.6930     0.3780 C.ar  1 <1>  -0.1500 
  8 N       -5.3680     0.3860     0.2940 N.am  1 <1>  -0.5470 
  9 C       -3.7620     2.2030     0.4660 C.ar  1 <1>  -0.1500 
 10 C       -6.5690     1.0050     0.1210 C.2   1 <1>   0.6900 
 11 O       -6.6580     2.1410    -0.2980 O.2   1 <1>  -0.5700 
 12 N       -7.6830     0.2950     0.4250 N.am  1 <1>  -0.7300 
 13 C       -9.0690     0.7890     0.2600 C.3   1 <1>   0.1400 
 14 C       -9.9880    -0.3370    -0.2390 C.3   1 <1>  -0.0800 
 15 C      -11.3990     0.2110    -0.4840 C.3   1 <1>  -0.2400 
 16 C      -10.0590    -1.5150     0.7470 C.3   1 <1>  -0.2400 
 17 H       -0.4380     2.2080    -0.0790 H     1 <1>   0.1500 
 18 H       -2.5350    -1.8760    -1.1750 H     1 <1>   0.0800 
 19 H       -4.2210    -1.5110    -1.1710 H     1 <1>   0.0800 
 20 H       -3.4330    -2.0170     0.3110 H     1 <1>   0.0800 
 21 H       -2.2700     3.7240     0.6120 H     1 <1>   0.1500 
 22 H       -5.4390    -0.6180     0.4030 H     1 <1>   0.3700 
 23 H       -4.5510     2.8660     0.7750 H     1 <1>   0.1500 
 24 H       -7.5970    -0.5720     0.9480 H     1 <1>   0.3700 
 25 H       -9.0780     1.6020    -0.4480 H     1 <1>   0.0800 
 26 H       -9.4230     1.1660     1.2040 H     1 <1>   0.0800 
 27 H       -9.6030    -0.6910    -1.1820 H     1 <1>   0.0800 
 28 H      -11.8290     0.5790     0.4320 H     1 <1>   0.0800 
 29 H      -12.0380    -0.5610    -0.8770 H     1 <1>   0.0800 
 30 H      -11.3690     1.0160    -1.1970 H     1 <1>   0.0800 
 31 H      -10.3960    -1.1800     1.7120 H     1 <1>   0.0800 
 32 H       -9.0980    -1.9830     0.8570 H     1 <1>   0.0800 
 33 H      -10.7470    -2.2590     0.3860 H     1 <1>   0.0800 
@<TRIPOS>BOND
  1   1   2  1   
  2   2   3  ar  
  3   2   4  ar  
  4   3   5  ar  
  5   3   6  1   
  6   4   7  ar  
  7   4  17  1   
  8   5   8  1   
  9   5   9  ar  
 10   6  18  1   
 11   6  19  1   
 12   6  20  1   
 13   7   9  ar  
 14   7  21  1   
 15   8  10  am  
 16   8  22  1   
 17   9  23  1   
 18  10  11  2   
 19  10  12  am  
 20  12  13  1   
 21  12  24  1   
 22  13  14  1   
 23  13  25  1   
 24  13  26  1   
 25  14  15  1   
 26  14  16  1   
 27  14  27  1   
 28  15  28  1   
 29  15  29  1   
 30  15  30  1   
 31  16  31  1   
 32  16  32  1   
 33  16  33  1   
@<TRIPOS>SUBSTRUCTURE
  1 ****   8 GROUP 4 **** **** 0

# MOE 2024.06 (io_trps.svl 2023.06)
