@<TRIPOS>MOLECULE
NONAME
36 36 1 0 0 
SMALL
USER_CHARGES


@<TRIPOS>ATOM
  1 O       -8.2950    -4.5680     1.6350 O.3   1 <1>  -0.6800 
  2 C       -7.6830    -4.8890     0.4480 C.3   1 <1>   0.4000 
  3 C       -6.5450    -3.9410     0.2880 C.1   1 <1>  -0.2000 
  4 C       -8.7150    -4.7210    -0.6580 C.3   1 <1>  -0.2400 
  5 C       -5.6940    -3.1190     0.1700 C.1   1 <1>  -0.2000 
  6 C       -4.7340    -1.9910     0.0470 C.3   1 <1>   0.5430 
  7 N       -5.4170    -0.7810     0.5750 N.4   1 <1>  -0.9590 
  8 C       -6.5280    -0.3660    -0.3340 C.3   1 <1>   0.4230 
  9 C       -4.4990     0.3390     0.9080 C.3   1 <1>   0.4230 
 10 C       -6.1880     0.8910    -1.1590 C.3   1 <1>  -0.1600 
 11 C       -7.7700    -0.1480     0.5210 C.3   1 <1>  -0.2400 
 12 C       -3.7850     0.8460    -0.3560 C.3   1 <1>  -0.1600 
 13 C       -3.5220    -0.0630     2.0100 C.3   1 <1>  -0.2400 
 14 C       -4.7120     0.9270    -1.5850 C.3   1 <1>  -0.1600 
 15 H       -7.6790    -4.7400     2.3710 H     1 <1>   0.4000 
 16 H       -7.3380    -5.9090     0.5030 H     1 <1>   0.0800 
 17 H       -9.0820    -3.7110    -0.6800 H     1 <1>   0.0800 
 18 H       -9.5370    -5.3940    -0.4960 H     1 <1>   0.0800 
 19 H       -8.2710    -4.9490    -1.6100 H     1 <1>   0.0800 
 20 H       -4.4490    -1.8470    -0.9820 H     1 <1>   0.0800 
 21 H       -3.8540    -2.2160     0.6240 H     1 <1>   0.0800 
 22 H       -5.8680    -1.0920     1.4420 H     1 <1>   0.4500 
 23 H       -6.7370    -1.1700    -1.0230 H     1 <1>   0.0800 
 24 H       -5.1010     1.1510     1.2880 H     1 <1>   0.0800 
 25 H       -6.4120     1.7780    -0.5900 H     1 <1>   0.0800 
 26 H       -6.8180     0.9150    -2.0310 H     1 <1>   0.0800 
 27 H       -7.6150     0.6300     1.2460 H     1 <1>   0.0800 
 28 H       -8.0470    -1.0600     1.0220 H     1 <1>   0.0800 
 29 H       -8.5940     0.1380    -0.1090 H     1 <1>   0.0800 
 30 H       -2.9330     0.2300    -0.5880 H     1 <1>   0.0800 
 31 H       -3.4040     1.8300    -0.1420 H     1 <1>   0.0800 
 32 H       -2.8060    -0.7900     1.6720 H     1 <1>   0.0800 
 33 H       -4.0500    -0.4440     2.8650 H     1 <1>   0.0800 
 34 H       -2.9730     0.8070     2.3250 H     1 <1>   0.0800 
 35 H       -4.5100     1.8290    -2.1390 H     1 <1>   0.0800 
 36 H       -4.5160     0.0970    -2.2420 H     1 <1>   0.0800 
@<TRIPOS>BOND
  1   1   2  1   
  2   1  15  1   
  3   2   3  1   
  4   2   4  1   
  5   2  16  1   
  6   3   5  3   
  7   4  17  1   
  8   4  18  1   
  9   4  19  1   
 10   5   6  1   
 11   6   7  1   
 12   6  20  1   
 13   6  21  1   
 14   7   8  1   
 15   7   9  1   
 16   7  22  1   
 17   8  10  1   
 18   8  11  1   
 19   8  23  1   
 20   9  12  1   
 21   9  13  1   
 22   9  24  1   
 23  10  14  1   
 24  10  25  1   
 25  10  26  1   
 26  11  27  1   
 27  11  28  1   
 28  11  29  1   
 29  12  14  1   
 30  12  30  1   
 31  12  31  1   
 32  13  32  1   
 33  13  33  1   
 34  13  34  1   
 35  14  35  1   
 36  14  36  1   
@<TRIPOS>SUBSTRUCTURE
  1 ****   7 GROUP 4 **** **** 0

# MOE 2024.06 (io_trps.svl 2023.06)
