@<TRIPOS>MOLECULE
NONAME
42 43 1 0 0 
SMALL
USER_CHARGES


@<TRIPOS>ATOM
  1 S       -0.5520     0.5950     0.9010 S.o2  1 <1>   1.4470 
  2 O       -0.7080     2.0200     1.0790 O.2   1 <1>  -0.6500 
  3 O       -1.1380    -0.2950     1.8760 O.2   1 <1>  -0.6500 
  4 N       -1.2540     0.3090    -0.5960 N.am  1 <1>  -0.9140 
  5 C        1.2020     0.2080     0.6490 C.ar  1 <1>  -0.0090 
  6 C       -1.6790    -1.0250    -0.9560 C.3   1 <1>   0.4190 
  7 C        1.8840    -0.6460     1.5070 C.ar  1 <1>  -0.1500 
  8 C        1.9100     0.7560    -0.4130 C.ar  1 <1>  -0.1500 
  9 C       -3.0950    -1.2730    -0.4420 C.ar  1 <1>  -0.1440 
 10 C       -0.6500    -2.1190    -0.6570 C.3   1 <1>  -0.2400 
 11 C        3.2200    -0.9500     1.3070 C.ar  1 <1>  -0.1500 
 12 C        3.2450     0.4560    -0.6180 C.ar  1 <1>  -0.1500 
 13 C       -3.3680    -1.9730     0.7270 C.ar  1 <1>  -0.1500 
 14 C       -4.1610    -0.7750    -1.1820 C.ar  1 <1>  -0.1500 
 15 C        3.9140    -0.4030     0.2400 C.ar  1 <1>  -0.1430 
 16 C       -4.6730    -2.1720     1.1440 C.ar  1 <1>  -0.1500 
 17 C       -5.4670    -0.9730    -0.7670 C.ar  1 <1>  -0.1500 
 18 C        5.3870    -0.7470     0.0310 C.3   1 <1>   0.0630 
 19 C       -5.7240    -1.6730     0.3970 C.ar  1 <1>  -0.1500 
 20 C        6.2600     0.5090     0.1230 C.3   1 <1>  -0.2400 
 21 C        5.5960    -1.4580    -1.3100 C.3   1 <1>  -0.2400 
 22 H       -2.1150     0.8470    -0.5370 H     1 <1>   0.4200 
 23 H       -1.7660    -1.0170    -2.0310 H     1 <1>   0.0800 
 24 H        1.3630    -1.0810     2.3440 H     1 <1>   0.1500 
 25 H        1.4060     1.4270    -1.0880 H     1 <1>   0.1500 
 26 H       -0.4980    -2.2640     0.3950 H     1 <1>   0.0800 
 27 H        0.2870    -1.8840    -1.1280 H     1 <1>   0.0800 
 28 H       -1.0040    -3.0480    -1.0650 H     1 <1>   0.0800 
 29 H        3.7150    -1.6170     1.9920 H     1 <1>   0.1500 
 30 H        3.7610     0.8980    -1.4520 H     1 <1>   0.1500 
 31 H       -2.5720    -2.3650     1.3340 H     1 <1>   0.1500 
 32 H       -3.9840    -0.2280    -2.0910 H     1 <1>   0.1500 
 33 H       -4.8680    -2.7130     2.0530 H     1 <1>   0.1500 
 34 H       -6.2840    -0.5830    -1.3500 H     1 <1>   0.1500 
 35 H        5.7000    -1.4210     0.8110 H     1 <1>   0.0800 
 36 H       -6.7380    -1.8280     0.7220 H     1 <1>   0.1500 
 37 H        6.0260     1.1990    -0.6670 H     1 <1>   0.0800 
 38 H        7.3000     0.2450     0.0510 H     1 <1>   0.0800 
 39 H        6.0970     0.9990     1.0660 H     1 <1>   0.0800 
 40 H        5.3460    -0.8100    -2.1310 H     1 <1>   0.0800 
 41 H        4.9720    -2.3320    -1.3610 H     1 <1>   0.0800 
 42 H        6.6220    -1.7630    -1.4140 H     1 <1>   0.0800 
@<TRIPOS>BOND
  1   1   2  2   
  2   1   3  2   
  3   1   4  am  
  4   1   5  1   
  5   4   6  1   
  6   4  22  1   
  7   5   7  ar  
  8   5   8  ar  
  9   6   9  1   
 10   6  10  1   
 11   6  23  1   
 12   7  11  ar  
 13   7  24  1   
 14   8  12  ar  
 15   8  25  1   
 16   9  13  ar  
 17   9  14  ar  
 18  10  26  1   
 19  10  27  1   
 20  10  28  1   
 21  11  15  ar  
 22  11  29  1   
 23  12  15  ar  
 24  12  30  1   
 25  13  16  ar  
 26  13  31  1   
 27  14  17  ar  
 28  14  32  1   
 29  15  18  1   
 30  16  19  ar  
 31  16  33  1   
 32  17  19  ar  
 33  17  34  1   
 34  18  20  1   
 35  18  21  1   
 36  18  35  1   
 37  19  36  1   
 38  20  37  1   
 39  20  38  1   
 40  20  39  1   
 41  21  40  1   
 42  21  41  1   
 43  21  42  1   
@<TRIPOS>SUBSTRUCTURE
  1 ****   1 GROUP 4 **** **** 0

# MOE 2024.06 (io_trps.svl 2023.06)
