@<TRIPOS>MOLECULE
NONAME
50 52 1 0 0 
SMALL
USER_CHARGES


@<TRIPOS>ATOM
  1 BR      -0.0230     1.7830     2.9410 Br    1 <1>  -0.1110 
  2 C        0.4000     3.3960     1.9780 C.ar  1 <1>   0.1110 
  3 C        0.8530     3.2940     0.6760 C.ar  1 <1>  -0.1500 
  4 C        0.2380     4.6130     2.6120 C.ar  1 <1>  -0.1500 
  5 C        1.1570     4.4550    -0.0160 C.ar  1 <1>  -0.1500 
  6 C        0.5440     5.7670     1.9120 C.ar  1 <1>  -0.1500 
  7 C        1.0050     5.6960     0.6040 C.ar  1 <1>   0.0830 
  8 O        1.2870     6.8780     0.0000 O.3   1 <1>  -0.3630 
  9 C        1.7430     6.9260    -1.3450 C.3   1 <1>   0.1810 
 10 C        1.9900     8.3630    -1.8070 C.2   1 <1>   0.5690 
 11 O        1.5710     8.6650    -2.8980 O.2   1 <1>  -0.5700 
 12 N        2.6790     9.2860    -1.0460 N.am  1 <1>  -0.6600 
 13 C        3.3840     8.9770     0.2380 C.3   1 <1>   0.1400 
 14 C        2.6780    10.7330    -1.4330 C.3   1 <1>   0.1400 
 15 C        4.7800     9.6320     0.2910 C.3   1 <1>   0.3430 
 16 C        4.0920    11.3330    -1.3740 C.3   1 <1>   0.3430 
 17 N        4.7440    11.1010    -0.0340 N.4   1 <1>  -0.9590 
 18 C        6.1130    11.6950     0.0420 C.3   1 <1>   0.3430 
 19 C        6.0880    13.2310     0.0000 C.3   1 <1>  -0.0800 
 20 C        7.5360    13.7580     0.0680 C.3   1 <1>  -0.0220 
 21 C        5.2350    13.8560     1.1280 C.3   1 <1>  -0.1600 
 22 C        7.5640    15.2620     0.2570 C.2   1 <1>  -0.2880 
 23 C        5.1580    15.3860     0.9960 C.3   1 <1>  -0.0220 
 24 C        6.5120    15.9790     0.6570 C.2   1 <1>  -0.2880 
 25 H        0.9610     2.3270     0.2180 H     1 <1>   0.1500 
 26 H       -0.1200     4.6530     3.6260 H     1 <1>   0.1500 
 27 H        1.5040     4.3660    -1.0280 H     1 <1>   0.1500 
 28 H        0.4220     6.7280     2.3780 H     1 <1>   0.1500 
 29 H        0.9880     6.4810    -1.9680 H     1 <1>   0.0800 
 30 H        2.6540     6.3630    -1.4200 H     1 <1>   0.0800 
 31 H        3.5090     7.9150     0.3540 H     1 <1>   0.0800 
 32 H        2.7840     9.3250     1.0610 H     1 <1>   0.0800 
 33 H        2.0260    11.2740    -0.7700 H     1 <1>   0.0800 
 34 H        2.2940    10.8610    -2.4310 H     1 <1>   0.0800 
 35 H        5.4170     9.1240    -0.4150 H     1 <1>   0.0800 
 36 H        5.1970     9.4840     1.2740 H     1 <1>   0.0800 
 37 H        4.0280    12.3890    -1.5760 H     1 <1>   0.0800 
 38 H        4.6860    10.8820    -2.1520 H     1 <1>   0.0800 
 39 H        4.1640    11.5630     0.6780 H     1 <1>   0.4500 
 40 H        6.7150    11.3250    -0.7730 H     1 <1>   0.0800 
 41 H        6.5840    11.3900     0.9630 H     1 <1>   0.0800 
 42 H        5.6890    13.5530    -0.9460 H     1 <1>   0.0800 
 43 H        8.0510    13.5120    -0.8460 H     1 <1>   0.0800 
 44 H        8.0700    13.3070     0.8870 H     1 <1>   0.0800 
 45 H        5.6810    13.6200     2.0800 H     1 <1>   0.0800 
 46 H        4.2310    13.4730     1.1260 H     1 <1>   0.0800 
 47 H        8.5240    15.7050     0.0410 H     1 <1>   0.1500 
 48 H        4.8050    15.8050     1.9230 H     1 <1>   0.0800 
 49 H        4.4610    15.6580     0.2230 H     1 <1>   0.0800 
 50 H        6.5470    17.0510     0.7720 H     1 <1>   0.1500 
@<TRIPOS>BOND
  1   1   2  1   
  2   2   3  ar  
  3   2   4  ar  
  4   3   5  ar  
  5   3  25  1   
  6   4   6  ar  
  7   4  26  1   
  8   5   7  ar  
  9   5  27  1   
 10   6   7  ar  
 11   6  28  1   
 12   7   8  1   
 13   8   9  1   
 14   9  10  1   
 15   9  29  1   
 16   9  30  1   
 17  10  11  2   
 18  10  12  am  
 19  12  13  1   
 20  12  14  1   
 21  13  15  1   
 22  13  31  1   
 23  13  32  1   
 24  14  16  1   
 25  14  33  1   
 26  14  34  1   
 27  15  17  1   
 28  15  35  1   
 29  15  36  1   
 30  16  17  1   
 31  16  37  1   
 32  16  38  1   
 33  17  18  1   
 34  17  39  1   
 35  18  19  1   
 36  18  40  1   
 37  18  41  1   
 38  19  20  1   
 39  19  21  1   
 40  19  42  1   
 41  20  22  1   
 42  20  43  1   
 43  20  44  1   
 44  21  23  1   
 45  21  45  1   
 46  21  46  1   
 47  22  24  2   
 48  22  47  1   
 49  23  24  1   
 50  23  48  1   
 51  23  49  1   
 52  24  50  1   
@<TRIPOS>SUBSTRUCTURE
  1 ****  13 GROUP 4 **** **** 0

# MOE 2024.06 (io_trps.svl 2023.06)
