@<TRIPOS>MOLECULE
NONAME
35 35 1 0 0 
SMALL
USER_CHARGES


@<TRIPOS>ATOM
  1 S       -0.1260    -0.4260     0.0880 S.o2  1 <1>   1.4470 
  2 O       -0.7480    -0.9450     1.2850 O.2   1 <1>  -0.6500 
  3 O       -0.3850    -1.0470    -1.1900 O.2   1 <1>  -0.6500 
  4 N       -0.6630     1.1460    -0.1360 N.am  1 <1>  -0.9140 
  5 C        1.6520    -0.2170     0.3510 C.ar  1 <1>  -0.0090 
  6 C       -2.0730     1.3150     0.0900 C.3   1 <1>   0.2760 
  7 C        2.5820    -0.8450    -0.4720 C.ar  1 <1>  -0.1500 
  8 C        2.1260     0.5800     1.3870 C.ar  1 <1>  -0.1500 
  9 C       -2.5840     2.2960    -0.9580 C.3   1 <1>  -0.2400 
 10 C       -2.2760     1.8800     1.4930 C.3   1 <1>  -0.2400 
 11 C        3.9450    -0.6860    -0.2850 C.ar  1 <1>  -0.1430 
 12 C        3.4830     0.7530     1.5880 C.ar  1 <1>  -0.1500 
 13 C        4.3900     0.1310     0.7490 C.ar  1 <1>   0.0820 
 14 C        4.9240    -1.4040    -1.2050 C.3   1 <1>  -0.0970 
 15 O        5.7030     0.3300     0.9700 O.3   1 <1>  -0.3630 
 16 C        6.3620     1.2650     0.1140 C.3   1 <1>   0.0140 
 17 C        7.7050     0.7690    -0.4030 C.2   1 <1>   0.9060 
 18 O        7.7460     0.1430    -1.4710 O.co2 1 <1>  -0.9000 
 19 O        8.7320     1.0690     0.2190 O.co2 1 <1>  -0.9000 
 20 H       -0.5260     1.2790    -1.1340 H     1 <1>   0.4200 
 21 H       -2.6000     0.3770    -0.0170 H     1 <1>   0.0800 
 22 H        2.2310    -1.4710    -1.2750 H     1 <1>   0.1500 
 23 H        1.4230     1.0700     2.0400 H     1 <1>   0.1500 
 24 H       -2.0660     3.2360    -0.8850 H     1 <1>   0.0800 
 25 H       -3.6340     2.4750    -0.8060 H     1 <1>   0.0800 
 26 H       -2.4580     1.8900    -1.9450 H     1 <1>   0.0800 
 27 H       -1.7460     2.8090     1.6070 H     1 <1>   0.0800 
 28 H       -1.9270     1.1830     2.2330 H     1 <1>   0.0800 
 29 H       -3.3210     2.0560     1.6700 H     1 <1>   0.0800 
 30 H        3.8510     1.3680     2.3890 H     1 <1>   0.1500 
 31 H        4.4710    -2.2630    -1.6610 H     1 <1>   0.0800 
 32 H        5.7880    -1.7310    -0.6520 H     1 <1>   0.0800 
 33 H        5.2590    -0.7350    -1.9780 H     1 <1>   0.0800 
 34 H        6.5220     2.1650     0.6740 H     1 <1>   0.0800 
 35 H        5.7350     1.4760    -0.7310 H     1 <1>   0.0800 
@<TRIPOS>BOND
  1   1   2  2   
  2   1   3  2   
  3   1   4  am  
  4   1   5  1   
  5   4   6  1   
  6   4  20  1   
  7   5   7  ar  
  8   5   8  ar  
  9   6   9  1   
 10   6  10  1   
 11   6  21  1   
 12   7  11  ar  
 13   7  22  1   
 14   8  12  ar  
 15   8  23  1   
 16   9  24  1   
 17   9  25  1   
 18   9  26  1   
 19  10  27  1   
 20  10  28  1   
 21  10  29  1   
 22  11  13  ar  
 23  11  14  1   
 24  12  13  ar  
 25  12  30  1   
 26  13  15  1   
 27  14  31  1   
 28  14  32  1   
 29  14  33  1   
 30  15  16  1   
 31  16  17  1   
 32  16  34  1   
 33  16  35  1   
 34  17  18  ar  
 35  17  19  ar  
@<TRIPOS>SUBSTRUCTURE
  1 ****   5 GROUP 4 **** **** 0

# MOE 2024.06 (io_trps.svl 2023.06)
