@<TRIPOS>MOLECULE
NONAME
52 55 1 0 0 
SMALL
USER_CHARGES


@<TRIPOS>ATOM
  1 O       -0.0920     0.9250    -1.3170 O.2   1 <1>  -0.5700 
  2 C       -0.3950     1.4440    -0.2730 C.2   1 <1>   0.6590 
  3 O        0.4310     1.4870     0.7620 O.3   1 <1>  -0.4300 
  4 C       -1.7560     2.0870    -0.0560 C.3   1 <1>  -0.0190 
  5 C        1.7240     0.9320     0.6970 C.3   1 <1>   0.1200 
  6 C       -2.7260     1.6820    -1.1760 C.3   1 <1>   0.2090 
  7 C       -1.6510     3.6230     0.0310 C.3   1 <1>  -0.1600 
  8 C        2.4020     1.1540     2.0450 C.3   1 <1>  -0.2400 
  9 N       -4.0790     2.2930    -0.9240 N.pl3 1 <1>  -0.8380 
 10 C       -3.0410     4.2730     0.1240 C.3   1 <1>  -0.1600 
 11 C       -5.1940     1.5780    -0.6330 C.ar  1 <1>   0.4610 
 12 C       -3.9760     3.7890    -0.9910 C.3   1 <1>   0.2090 
 13 N       -6.3800     2.1880    -0.6040 N.ar  1 <1>  -0.1790 
 14 C       -5.2030     0.1860    -0.3440 C.ar  1 <1>  -0.1500 
 15 C       -7.5880     1.5730    -0.3350 C.ar  1 <1>   0.3610 
 16 C       -6.3490    -0.4980    -0.0700 C.ar  1 <1>  -0.1430 
 17 C       -7.6000     0.1910    -0.0600 C.ar  1 <1>   0.0000 
 18 C       -8.7790     2.3100    -0.3380 C.ar  1 <1>  -0.1500 
 19 C       -6.2990    -1.9910     0.2330 C.3   1 <1>  -0.0970 
 20 C       -8.8380    -0.4200     0.2070 C.ar  1 <1>  -0.1500 
 21 C       -9.9660     1.6760    -0.0720 C.ar  1 <1>  -0.1430 
 22 C       -9.9910     0.3230     0.1970 C.ar  1 <1>  -0.1430 
 23 C      -11.3560     2.2650    -0.0210 C.3   1 <1>  -0.0170 
 24 C      -11.4000    -0.1500     0.4610 C.3   1 <1>  -0.0170 
 25 C      -12.1880     1.1570     0.6460 C.3   1 <1>  -0.1600 
 26 H       -2.1410     1.7060     0.8720 H     1 <1>   0.0800 
 27 H        2.2670     1.4220    -0.0950 H     1 <1>   0.0800 
 28 H        1.6350    -0.1190     0.4760 H     1 <1>   0.0800 
 29 H       -2.7670     0.6120    -1.2580 H     1 <1>   0.0800 
 30 H       -2.3480     2.0440    -2.1190 H     1 <1>   0.0800 
 31 H       -1.1450     3.9940    -0.8460 H     1 <1>   0.0800 
 32 H       -1.0620     3.9000     0.8900 H     1 <1>   0.0800 
 33 H        2.4760     2.2050     2.2550 H     1 <1>   0.0800 
 34 H        3.3940     0.7380     2.0240 H     1 <1>   0.0800 
 35 H        1.8440     0.6680     2.8250 H     1 <1>   0.0800 
 36 H       -2.9370     5.3420     0.0620 H     1 <1>   0.0800 
 37 H       -3.4830     4.0440     1.0790 H     1 <1>   0.0800 
 38 H       -4.9310     4.2680    -0.8770 H     1 <1>   0.0800 
 39 H       -3.5750     4.0780    -1.9490 H     1 <1>   0.0800 
 40 H       -6.3920     3.1740    -0.8270 H     1 <1>   0.4570 
 41 H       -4.2710    -0.3410    -0.3300 H     1 <1>   0.1500 
 42 H       -8.7770     3.3640    -0.5460 H     1 <1>   0.1500 
 43 H       -5.2900    -2.3640     0.1940 H     1 <1>   0.0800 
 44 H       -6.8840    -2.5370    -0.4860 H     1 <1>   0.0800 
 45 H       -6.6870    -2.1850     1.2180 H     1 <1>   0.0800 
 46 H       -8.8940    -1.4720     0.4220 H     1 <1>   0.1500 
 47 H      -11.7090     2.4470    -1.0210 H     1 <1>   0.0800 
 48 H      -11.3880     3.1770     0.5490 H     1 <1>   0.0800 
 49 H      -11.4560    -0.7730     1.3370 H     1 <1>   0.0800 
 50 H      -11.7640    -0.6920    -0.3950 H     1 <1>   0.0800 
 51 H      -13.1780     1.0910     0.2300 H     1 <1>   0.0800 
 52 H      -12.2650     1.3680     1.6990 H     1 <1>   0.0800 
@<TRIPOS>BOND
  1   1   2  2   
  2   2   3  1   
  3   2   4  1   
  4   3   5  1   
  5   4   6  1   
  6   4   7  1   
  7   4  26  1   
  8   5   8  1   
  9   5  27  1   
 10   5  28  1   
 11   6   9  1   
 12   6  29  1   
 13   6  30  1   
 14   7  10  1   
 15   7  31  1   
 16   7  32  1   
 17   8  33  1   
 18   8  34  1   
 19   8  35  1   
 20   9  11  1   
 21   9  12  1   
 22  10  12  1   
 23  10  36  1   
 24  10  37  1   
 25  11  13  ar  
 26  11  14  ar  
 27  12  38  1   
 28  12  39  1   
 29  13  15  ar  
 30  13  40  1   
 31  14  16  ar  
 32  14  41  1   
 33  15  17  ar  
 34  15  18  ar  
 35  16  17  ar  
 36  16  19  1   
 37  17  20  ar  
 38  18  21  ar  
 39  18  42  1   
 40  19  43  1   
 41  19  44  1   
 42  19  45  1   
 43  20  22  ar  
 44  20  46  1   
 45  21  22  ar  
 46  21  23  1   
 47  22  24  1   
 48  23  25  1   
 49  23  47  1   
 50  23  48  1   
 51  24  25  1   
 52  24  49  1   
 53  24  50  1   
 54  25  51  1   
 55  25  52  1   
@<TRIPOS>SUBSTRUCTURE
  1 ****  11 GROUP 4 **** **** 0

# MOE 2024.06 (io_trps.svl 2023.06)
