@<TRIPOS>MOLECULE
NONAME
34 35 1 0 0 
SMALL
USER_CHARGES


@<TRIPOS>ATOM
  1 O       -0.4790    -0.2160    -0.3000 O.3   1 <1>  -0.3630 
  2 C       -0.0530     1.0710    -0.1830 C.ar  1 <1>   0.0830 
  3 C        0.4430    -1.2850    -0.3000 C.3   1 <1>   0.0400 
  4 C       -0.8990     2.0850    -0.6250 C.ar  1 <1>  -0.1440 
  5 C        1.1820     1.3940     0.3760 C.ar  1 <1>  -0.1500 
  6 C       -0.4970     3.4070    -0.4930 C.ar  1 <1>  -0.1500 
  7 C       -2.2610     1.7580    -1.2370 C.3   1 <1>   0.5240 
  8 C        1.5720     2.7150     0.4980 C.ar  1 <1>  -0.1500 
  9 C        0.7290     3.7320     0.0630 C.ar  1 <1>   0.0830 
 10 O       -2.3480     2.3510    -2.4790 O.3   1 <1>  -0.6800 
 11 C       -3.4230     2.3130    -0.4060 C.2   1 <1>   0.0060 
 12 O        1.0300     5.0540     0.1500 O.3   1 <1>  -0.3630 
 13 N       -4.3100     3.1540    -0.8590 N.2   1 <1>  -0.5650 
 14 N       -3.6270     1.9660     0.8910 N.pl3 1 <1>   0.0480 
 15 C        2.2820     5.4870     0.6330 C.3   1 <1>   0.0400 
 16 C       -5.1230     3.3650     0.1900 C.2   1 <1>   0.0770 
 17 C       -4.7230     2.6500     1.2630 C.2   1 <1>  -0.3020 
 18 C       -2.8450     1.0580     1.7510 C.3   1 <1>   0.0160 
 19 H       -0.0820    -2.1790    -0.5830 H     1 <1>   0.0800 
 20 H        0.8490    -1.3990     0.6890 H     1 <1>   0.0800 
 21 H        1.2200    -1.0760    -1.0150 H     1 <1>   0.0800 
 22 H        1.8490     0.6310     0.7270 H     1 <1>   0.1500 
 23 H       -1.1400     4.2020    -0.8280 H     1 <1>   0.1500 
 24 H       -2.3950     0.7020    -1.3840 H     1 <1>   0.0800 
 25 H        2.5290     2.9330     0.9320 H     1 <1>   0.1500 
 26 H       -3.1220     2.9530    -2.3950 H     1 <1>   0.4000 
 27 H        2.3050     6.5600     0.5830 H     1 <1>   0.0800 
 28 H        3.0570     5.0750     0.0110 H     1 <1>   0.0800 
 29 H        2.3930     5.1660     1.6530 H     1 <1>   0.0800 
 30 H       -5.9670     4.0310     0.1180 H     1 <1>   0.1500 
 31 H       -5.1520     2.5970     2.2470 H     1 <1>   0.1500 
 32 H       -1.9110     1.5250     2.0040 H     1 <1>   0.0800 
 33 H       -2.6590     0.1380     1.2290 H     1 <1>   0.0800 
 34 H       -3.3950     0.8500     2.6510 H     1 <1>   0.0800 
@<TRIPOS>BOND
  1   1   2  1   
  2   1   3  1   
  3   2   4  ar  
  4   2   5  ar  
  5   3  19  1   
  6   3  20  1   
  7   3  21  1   
  8   4   6  ar  
  9   4   7  1   
 10   5   8  ar  
 11   5  22  1   
 12   6   9  ar  
 13   6  23  1   
 14   7  10  1   
 15   7  11  1   
 16   7  24  1   
 17   8   9  ar  
 18   8  25  1   
 19   9  12  1   
 20  10  26  1   
 21  11  13  2   
 22  11  14  1   
 23  12  15  1   
 24  13  16  1   
 25  14  17  1   
 26  14  18  1   
 27  15  27  1   
 28  15  28  1   
 29  15  29  1   
 30  16  17  2   
 31  16  30  1   
 32  17  31  1   
 33  18  32  1   
 34  18  33  1   
 35  18  34  1   
@<TRIPOS>SUBSTRUCTURE
  1 ****   4 GROUP 4 **** **** 0

# MOE 2024.06 (io_trps.svl 2023.06)
