@<TRIPOS>MOLECULE
NONAME
34 35 1 0 0 
SMALL
USER_CHARGES


@<TRIPOS>ATOM
  1 BR       0.7700    -0.4170     2.3520 Br    1 <1>  -0.1110 
  2 C        2.4160    -0.2420     1.3800 C.ar  1 <1>   0.1110 
  3 C        2.5780     0.8270     0.5210 C.ar  1 <1>  -0.1500 
  4 C        3.4040    -1.1900     1.5590 C.ar  1 <1>  -0.1500 
  5 C        3.7680     0.9440    -0.1740 C.ar  1 <1>  -0.1500 
  6 C        4.5880    -1.0570     0.8550 C.ar  1 <1>  -0.1500 
  7 C        4.8030     0.0110    -0.0270 C.ar  1 <1>   0.0860 
  8 C        6.0420     0.1630    -0.7680 C.2   1 <1>   0.6340 
  9 O        6.2210     1.0340    -1.5910 O.2   1 <1>  -0.5700 
 10 O        7.0430    -0.6970    -0.5290 O.3   1 <1>  -0.4300 
 11 C        8.2900    -0.5950    -1.2070 C.3   1 <1>   0.2000 
 12 C        8.9690    -1.9760    -1.1790 C.3   1 <1>   0.3430 
 13 C        9.1790     0.4370    -0.4840 C.3   1 <1>  -0.1600 
 14 N        9.1500    -2.5010     0.2290 N.4   1 <1>  -0.9590 
 15 C       10.0280    -0.1850     0.6470 C.3   1 <1>  -0.1600 
 16 C        9.3710    -1.4260     1.2590 C.3   1 <1>   0.3430 
 17 C       10.2270    -3.5350     0.2780 C.3   1 <1>   0.2630 
 18 H        1.7890     1.5490     0.4020 H     1 <1>   0.1500 
 19 H        3.2400    -2.0110     2.2350 H     1 <1>   0.1500 
 20 H        3.9010     1.7760    -0.8460 H     1 <1>   0.1500 
 21 H        5.3540    -1.7980     0.9940 H     1 <1>   0.1500 
 22 H        8.1110    -0.2980    -2.2270 H     1 <1>   0.0800 
 23 H        9.9340    -1.8760    -1.6480 H     1 <1>   0.0800 
 24 H        8.3910    -2.6710    -1.7650 H     1 <1>   0.0800 
 25 H        8.5650     1.2330    -0.0970 H     1 <1>   0.0800 
 26 H        9.8470     0.8830    -1.2000 H     1 <1>   0.0800 
 27 H        8.2580    -2.9510     0.4820 H     1 <1>   0.4500 
 28 H       10.1820     0.5520     1.4170 H     1 <1>   0.0800 
 29 H       10.9990    -0.4560     0.2710 H     1 <1>   0.0800 
 30 H        9.9740    -1.8030     2.0700 H     1 <1>   0.0800 
 31 H        8.4170    -1.1300     1.6680 H     1 <1>   0.0800 
 32 H       11.1790    -3.0950     0.0250 H     1 <1>   0.0800 
 33 H       10.0180    -4.3290    -0.4210 H     1 <1>   0.0800 
 34 H       10.2960    -3.9590     1.2670 H     1 <1>   0.0800 
@<TRIPOS>BOND
  1   1   2  1   
  2   2   3  ar  
  3   2   4  ar  
  4   3   5  ar  
  5   3  18  1   
  6   4   6  ar  
  7   4  19  1   
  8   5   7  ar  
  9   5  20  1   
 10   6   7  ar  
 11   6  21  1   
 12   7   8  1   
 13   8   9  2   
 14   8  10  1   
 15  10  11  1   
 16  11  12  1   
 17  11  13  1   
 18  11  22  1   
 19  12  14  1   
 20  12  23  1   
 21  12  24  1   
 22  13  15  1   
 23  13  25  1   
 24  13  26  1   
 25  14  16  1   
 26  14  17  1   
 27  14  27  1   
 28  15  16  1   
 29  15  28  1   
 30  15  29  1   
 31  16  30  1   
 32  16  31  1   
 33  17  32  1   
 34  17  33  1   
 35  17  34  1   
@<TRIPOS>SUBSTRUCTURE
  1 ****  10 GROUP 4 **** **** 0

# MOE 2024.06 (io_trps.svl 2023.06)
