@<TRIPOS>MOLECULE
NONAME
49 50 1 0 0 
SMALL
USER_CHARGES


@<TRIPOS>ATOM
  1 O        7.2840    -3.8850     0.2030 O.3   1 <1>  -0.5600 
  2 C        7.1760    -2.8310     1.1210 C.3   1 <1>   0.2000 
  3 C        7.1180    -3.5950    -1.1620 C.3   1 <1>   0.2000 
  4 C        5.7750    -2.1670     1.0320 C.3   1 <1>   0.3430 
  5 C        8.3380    -1.8510     0.9160 C.3   1 <1>  -0.2400 
  6 C        6.0360    -2.5090    -1.4060 C.3   1 <1>   0.3430 
  7 C        6.7430    -4.9190    -1.8270 C.3   1 <1>  -0.2400 
  8 N        5.0710    -2.4490    -0.2660 N.4   1 <1>  -0.9590 
  9 C        3.8520    -1.6190    -0.5080 C.3   1 <1>   0.3430 
 10 C        2.6720    -2.1360     0.3430 C.3   1 <1>   0.2000 
 11 O        2.7400    -3.5280     0.4120 O.3   1 <1>  -0.6800 
 12 C        1.3080    -1.7340    -0.2300 C.3   1 <1>   0.1200 
 13 O        0.3050    -2.3990     0.5070 O.3   1 <1>  -0.3630 
 14 C       -1.0140    -2.2420     0.2210 C.ar  1 <1>   0.0830 
 15 C       -1.9320    -2.9220     1.0160 C.ar  1 <1>  -0.1430 
 16 C       -1.4720    -1.4390    -0.8220 C.ar  1 <1>  -0.1500 
 17 C       -3.2880    -2.7920     0.7600 C.ar  1 <1>  -0.1500 
 18 C       -1.4670    -3.8080     2.1630 C.3   1 <1>  -0.0970 
 19 C       -2.8280    -1.3190    -1.0650 C.ar  1 <1>  -0.1500 
 20 C       -3.7430    -1.9930    -0.2750 C.ar  1 <1>  -0.1430 
 21 C       -5.2310    -1.8640    -0.5420 C.3   1 <1>  -0.0970 
 22 H        7.2810    -3.2670     2.1000 H     1 <1>   0.0800 
 23 H        8.0640    -3.2610    -1.5520 H     1 <1>   0.0800 
 24 H        5.8930    -1.1050     1.1680 H     1 <1>   0.0800 
 25 H        5.1720    -2.5310     1.8470 H     1 <1>   0.0800 
 26 H        8.2650    -1.3220    -0.0150 H     1 <1>   0.0800 
 27 H        9.2720    -2.3860     0.9480 H     1 <1>   0.0800 
 28 H        8.3470    -1.1270     1.7110 H     1 <1>   0.0800 
 29 H        5.5210    -2.7270    -2.3270 H     1 <1>   0.0800 
 30 H        6.5210    -1.5550    -1.5200 H     1 <1>   0.0800 
 31 H        5.8140    -5.2930    -1.4350 H     1 <1>   0.0800 
 32 H        7.5160    -5.6460    -1.6480 H     1 <1>   0.0800 
 33 H        6.6450    -4.7910    -2.8900 H     1 <1>   0.0800 
 34 H        4.6970    -3.4130    -0.1520 H     1 <1>   0.4500 
 35 H        3.5720    -1.6990    -1.5450 H     1 <1>   0.0800 
 36 H        4.0440    -0.5810    -0.2940 H     1 <1>   0.0800 
 37 H        2.7540    -1.7540     1.3460 H     1 <1>   0.0800 
 38 H        1.8640    -3.8640     0.7210 H     1 <1>   0.4000 
 39 H        1.2240    -2.0310    -1.2610 H     1 <1>   0.0800 
 40 H        1.1500    -0.6730    -0.1370 H     1 <1>   0.0800 
 41 H       -0.7990    -0.8990    -1.4580 H     1 <1>   0.1500 
 42 H       -4.0010    -3.3180     1.3710 H     1 <1>   0.1500 
 43 H       -0.8740    -3.2340     2.8510 H     1 <1>   0.0800 
 44 H       -0.8720    -4.6170     1.7800 H     1 <1>   0.0800 
 45 H       -2.3030    -4.2220     2.6970 H     1 <1>   0.0800 
 46 H       -3.1700    -0.6980    -1.8740 H     1 <1>   0.1500 
 47 H       -5.5580    -2.6680    -1.1760 H     1 <1>   0.0800 
 48 H       -5.4490    -0.9290    -1.0270 H     1 <1>   0.0800 
 49 H       -5.7810    -1.9030     0.3810 H     1 <1>   0.0800 
@<TRIPOS>BOND
  1   1   2  1   
  2   1   3  1   
  3   2   4  1   
  4   2   5  1   
  5   2  22  1   
  6   3   6  1   
  7   3   7  1   
  8   3  23  1   
  9   4   8  1   
 10   4  24  1   
 11   4  25  1   
 12   5  26  1   
 13   5  27  1   
 14   5  28  1   
 15   6   8  1   
 16   6  29  1   
 17   6  30  1   
 18   7  31  1   
 19   7  32  1   
 20   7  33  1   
 21   8   9  1   
 22   8  34  1   
 23   9  10  1   
 24   9  35  1   
 25   9  36  1   
 26  10  11  1   
 27  10  12  1   
 28  10  37  1   
 29  11  38  1   
 30  12  13  1   
 31  12  39  1   
 32  12  40  1   
 33  13  14  1   
 34  14  15  ar  
 35  14  16  ar  
 36  15  17  ar  
 37  15  18  1   
 38  16  19  ar  
 39  16  41  1   
 40  17  20  ar  
 41  17  42  1   
 42  18  43  1   
 43  18  44  1   
 44  18  45  1   
 45  19  20  ar  
 46  19  46  1   
 47  20  21  1   
 48  21  47  1   
 49  21  48  1   
 50  21  49  1   
@<TRIPOS>SUBSTRUCTURE
  1 ****  10 GROUP 4 **** **** 0

# MOE 2024.06 (io_trps.svl 2023.06)
