@<TRIPOS>MOLECULE
NONAME
47 48 1 0 0 
SMALL
USER_CHARGES


@<TRIPOS>ATOM
  1 O       -0.0080    -2.4360     2.5260 O.2   1 <1>  -0.5700 
  2 C        0.4700    -1.7480     1.6580 C.2   1 <1>   0.5690 
  3 N       -0.3070    -0.9670     0.8630 N.am  1 <1>  -0.7300 
  4 C        1.9750    -1.7600     1.4380 C.3   1 <1>   0.0440 
  5 C       -1.7640    -0.8590     0.9510 C.3   1 <1>   0.2200 
  6 C        2.3790    -0.9950     0.1740 C.ar  1 <1>  -0.1440 
  7 C       -2.3880    -1.6420    -0.2000 C.3   1 <1>  -0.1600 
  8 C       -2.1620     0.6120     0.8920 C.3   1 <1>  -0.1600 
  9 C        2.3100    -1.5700    -1.0920 C.ar  1 <1>  -0.1440 
 10 C        2.7980     0.3220     0.3050 C.ar  1 <1>  -0.1500 
 11 C       -3.9030    -1.4700    -0.1990 C.3   1 <1>   0.3430 
 12 C       -3.6820     0.7480     0.8760 C.3   1 <1>   0.3430 
 13 C        2.6580    -0.8150    -2.2030 C.ar  1 <1>  -0.1500 
 14 C        1.8640    -3.0110    -1.3000 C.3   1 <1>  -0.0960 
 15 C        3.1420     1.0670    -0.8070 C.ar  1 <1>  -0.1500 
 16 N       -4.2490    -0.0160    -0.2750 N.4   1 <1>  -0.9590 
 17 C        3.0710     0.4970    -2.0640 C.ar  1 <1>  -0.1500 
 18 C       -5.7190     0.2040    -0.3630 C.3   1 <1>   0.3430 
 19 C       -6.2430    -0.2160    -1.7380 C.3   1 <1>  -0.1600 
 20 C       -7.7320     0.1190    -1.8810 C.3   1 <1>  -0.2400 
 21 H        0.1710    -0.4560     0.1120 H     1 <1>   0.3700 
 22 H        2.3090    -2.7790     1.3850 H     1 <1>   0.0800 
 23 H        2.4410    -1.3210     2.3000 H     1 <1>   0.0800 
 24 H       -2.0950    -1.2800     1.8890 H     1 <1>   0.0800 
 25 H       -2.1560    -2.6860    -0.0800 H     1 <1>   0.0800 
 26 H       -1.9870    -1.3140    -1.1430 H     1 <1>   0.0800 
 27 H       -1.7490     1.0830     0.0180 H     1 <1>   0.0800 
 28 H       -1.7760     1.1170     1.7610 H     1 <1>   0.0800 
 29 H        2.8590     0.7800     1.2780 H     1 <1>   0.1500 
 30 H       -4.3120    -1.8960     0.7030 H     1 <1>   0.0800 
 31 H       -4.3190    -1.9980    -1.0410 H     1 <1>   0.0800 
 32 H       -3.9470     1.7910     0.7940 H     1 <1>   0.0800 
 33 H       -4.0860     0.3690     1.8010 H     1 <1>   0.0800 
 34 H        2.6160    -1.2460    -3.1880 H     1 <1>   0.1500 
 35 H        0.9040    -3.1800    -0.8470 H     1 <1>   0.0800 
 36 H        2.5810    -3.6830    -0.8630 H     1 <1>   0.0800 
 37 H        1.7850    -3.2440    -2.3470 H     1 <1>   0.0800 
 38 H        3.4680     2.0860    -0.6960 H     1 <1>   0.1500 
 39 H       -3.8280     0.3610    -1.1350 H     1 <1>   0.4500 
 40 H        3.3420     1.0720    -2.9320 H     1 <1>   0.1500 
 41 H       -5.9360     1.2510    -0.2210 H     1 <1>   0.0800 
 42 H       -6.2270    -0.3510     0.4100 H     1 <1>   0.0800 
 43 H       -6.1220    -1.2750    -1.8810 H     1 <1>   0.0800 
 44 H       -5.7010     0.3030    -2.5100 H     1 <1>   0.0800 
 45 H       -8.3160    -0.3990    -1.1390 H     1 <1>   0.0800 
 46 H       -8.0850    -0.1800    -2.8530 H     1 <1>   0.0800 
 47 H       -7.9000     1.1780    -1.7760 H     1 <1>   0.0800 
@<TRIPOS>BOND
  1   1   2  2   
  2   2   3  am  
  3   2   4  1   
  4   3   5  1   
  5   3  21  1   
  6   4   6  1   
  7   4  22  1   
  8   4  23  1   
  9   5   7  1   
 10   5   8  1   
 11   5  24  1   
 12   6   9  ar  
 13   6  10  ar  
 14   7  11  1   
 15   7  25  1   
 16   7  26  1   
 17   8  12  1   
 18   8  27  1   
 19   8  28  1   
 20   9  13  ar  
 21   9  14  1   
 22  10  15  ar  
 23  10  29  1   
 24  11  16  1   
 25  11  30  1   
 26  11  31  1   
 27  12  16  1   
 28  12  32  1   
 29  12  33  1   
 30  13  17  ar  
 31  13  34  1   
 32  14  35  1   
 33  14  36  1   
 34  14  37  1   
 35  15  17  ar  
 36  15  38  1   
 37  16  18  1   
 38  16  39  1   
 39  17  40  1   
 40  18  19  1   
 41  18  41  1   
 42  18  42  1   
 43  19  20  1   
 44  19  43  1   
 45  19  44  1   
 46  20  45  1   
 47  20  46  1   
 48  20  47  1   
@<TRIPOS>SUBSTRUCTURE
  1 ****   3 GROUP 4 **** **** 0

# MOE 2024.06 (io_trps.svl 2023.06)
