@<TRIPOS>MOLECULE
NONAME
53 57 1 0 0 
SMALL
USER_CHARGES


@<TRIPOS>ATOM
  1 O       -0.7190     0.3100     0.9800 O.2   1 <1>  -0.5700 
  2 C       -1.5430    -0.4850     0.5810 C.2   1 <1>   0.5690 
  3 N       -1.3670    -1.8190     0.8890 N.am  1 <1>  -0.6600 
  4 C       -2.7460     0.0780    -0.2360 C.3   1 <1>   0.0610 
  5 C       -0.2200    -2.2390     1.7330 C.3   1 <1>   0.1400 
  6 C       -2.1910    -3.0010     0.5410 C.3   1 <1>   0.1400 
  7 C       -4.0540     0.0060     0.5940 C.3   1 <1>  -0.1600 
  8 C       -2.9560    -0.6540    -1.5900 C.3   1 <1>  -0.1600 
  9 C       -2.5140     1.5800    -0.5760 C.3   1 <1>  -0.1600 
 10 C       -0.2800    -3.7610     1.7840 C.3   1 <1>  -0.1600 
 11 C       -1.7400    -4.0930     1.5010 C.3   1 <1>  -0.1600 
 12 C       -5.2720     0.5690    -0.1760 C.3   1 <1>   0.1430 
 13 C       -4.1430    -0.0640    -2.3720 C.3   1 <1>  -0.0800 
 14 C       -3.6930     2.1820    -1.3560 C.3   1 <1>  -0.0800 
 15 C       -6.5530     0.3880     0.6710 C.ar  1 <1>  -0.1440 
 16 C       -5.4180    -0.1890    -1.5170 C.3   1 <1>  -0.1600 
 17 C       -4.9700     2.0500    -0.5100 C.3   1 <1>  -0.1600 
 18 C       -3.8720     1.4170    -2.6740 C.3   1 <1>  -0.1600 
 19 C       -7.3300     1.4570     1.1120 C.ar  1 <1>  -0.1500 
 20 C       -6.9700    -0.8930     1.0230 C.ar  1 <1>  -0.1500 
 21 C       -8.4700     1.2520     1.8690 C.ar  1 <1>  -0.1500 
 22 C       -8.1100    -1.1010     1.7790 C.ar  1 <1>  -0.1500 
 23 C       -8.8680    -0.0280     2.2090 C.ar  1 <1>  -0.1440 
 24 C      -10.1200    -0.2510     3.0370 C.3   1 <1>  -0.0970 
 25 H       -0.3430    -1.8220     2.7180 H     1 <1>   0.0800 
 26 H        0.7090    -1.8930     1.3130 H     1 <1>   0.0800 
 27 H       -1.9650    -3.2980    -0.4690 H     1 <1>   0.0800 
 28 H       -3.2420    -2.8150     0.6430 H     1 <1>   0.0800 
 29 H       -3.9270     0.5610     1.5070 H     1 <1>   0.0800 
 30 H       -4.2490    -1.0070     0.8760 H     1 <1>   0.0800 
 31 H       -3.1570    -1.6940    -1.4400 H     1 <1>   0.0800 
 32 H       -2.0580    -0.5800    -2.1790 H     1 <1>   0.0800 
 33 H       -1.6110     1.6830    -1.1530 H     1 <1>   0.0800 
 34 H       -2.3740     2.1410     0.3330 H     1 <1>   0.0800 
 35 H        0.0530    -4.1420     2.7330 H     1 <1>   0.0800 
 36 H        0.3460    -4.1610     1.0050 H     1 <1>   0.0800 
 37 H       -1.8650    -5.0750     1.0810 H     1 <1>   0.0800 
 38 H       -2.3140    -4.0210     2.4090 H     1 <1>   0.0800 
 39 H       -4.2720    -0.6010    -3.2960 H     1 <1>   0.0800 
 40 H       -3.4980     3.2210    -1.5620 H     1 <1>   0.0800 
 41 H       -6.2590     0.2090    -2.0590 H     1 <1>   0.0800 
 42 H       -5.6150    -1.2300    -1.3410 H     1 <1>   0.0800 
 43 H       -4.8410     2.6100     0.4000 H     1 <1>   0.0800 
 44 H       -5.7950     2.4780    -1.0520 H     1 <1>   0.0800 
 45 H       -2.9860     1.5120    -3.2760 H     1 <1>   0.0800 
 46 H       -4.6930     1.8340    -3.2310 H     1 <1>   0.0800 
 47 H       -7.0710     2.4720     0.8810 H     1 <1>   0.1500 
 48 H       -6.4080    -1.7530     0.7100 H     1 <1>   0.1500 
 49 H       -9.0480     2.0990     2.1930 H     1 <1>   0.1500 
 50 H       -8.4030    -2.1040     2.0310 H     1 <1>   0.1500 
 51 H      -10.2840     0.5780     3.7020 H     1 <1>   0.0800 
 52 H      -10.0260    -1.1450     3.6280 H     1 <1>   0.0800 
 53 H      -10.9710    -0.3510     2.3880 H     1 <1>   0.0800 
@<TRIPOS>BOND
  1   1   2  2   
  2   2   3  am  
  3   2   4  1   
  4   3   5  1   
  5   3   6  1   
  6   4   7  1   
  7   4   8  1   
  8   4   9  1   
  9   5  10  1   
 10   5  25  1   
 11   5  26  1   
 12   6  11  1   
 13   6  27  1   
 14   6  28  1   
 15   7  12  1   
 16   7  29  1   
 17   7  30  1   
 18   8  13  1   
 19   8  31  1   
 20   8  32  1   
 21   9  14  1   
 22   9  33  1   
 23   9  34  1   
 24  10  11  1   
 25  10  35  1   
 26  10  36  1   
 27  11  37  1   
 28  11  38  1   
 29  12  15  1   
 30  12  16  1   
 31  12  17  1   
 32  13  16  1   
 33  13  18  1   
 34  13  39  1   
 35  14  17  1   
 36  14  18  1   
 37  14  40  1   
 38  15  19  ar  
 39  15  20  ar  
 40  16  41  1   
 41  16  42  1   
 42  17  43  1   
 43  17  44  1   
 44  18  45  1   
 45  18  46  1   
 46  19  21  ar  
 47  19  47  1   
 48  20  22  ar  
 49  20  48  1   
 50  21  23  ar  
 51  21  49  1   
 52  22  23  ar  
 53  22  50  1   
 54  23  24  1   
 55  24  51  1   
 56  24  52  1   
 57  24  53  1   
@<TRIPOS>SUBSTRUCTURE
  1 ****   7 GROUP 4 **** **** 0

# MOE 2024.06 (io_trps.svl 2023.06)
