@<TRIPOS>MOLECULE
NONAME
33 33 1 0 0 
SMALL
USER_CHARGES


@<TRIPOS>ATOM
  1 S        0.1200    -0.1970    -0.7690 S.3   1 <1>  -0.0800 
  2 C        1.3020     0.9970    -0.2200 C.2   1 <1>  -0.1400 
  3 C       -1.2230     0.8630    -0.3720 C.2   1 <1>  -0.1400 
  4 C        0.6640     2.1050     0.2240 C.2   1 <1>   0.0830 
  5 C        2.7550     0.5570    -0.3600 C.3   1 <1>   0.0200 
  6 C       -0.7630     2.0200     0.1360 C.2   1 <1>  -0.1500 
  7 C       -2.6310     0.3640    -0.6510 C.3   1 <1>   0.0200 
  8 N        1.2480     3.2650     0.7280 N.pl3 1 <1>  -0.8830 
  9 C        3.7740     1.6390     0.0140 C.3   1 <1>  -0.1600 
 10 C       -3.0330    -0.7920     0.2730 C.3   1 <1>  -0.1600 
 11 C        5.2230     1.1770    -0.2180 C.3   1 <1>  -0.2660 
 12 C       -4.4730    -1.2590    -0.0160 C.3   1 <1>  -0.2660 
 13 C        6.2300     2.2450     0.1480 C.2   1 <1>   0.9060 
 14 C       -4.9100    -2.4030     0.8700 C.2   1 <1>   0.9060 
 15 O        7.1080     1.9700     0.9690 O.co2 1 <1>  -0.9000 
 16 O        6.1350     3.3530    -0.3890 O.co2 1 <1>  -0.9000 
 17 O       -5.5680    -2.1470     1.8820 O.co2 1 <1>  -0.9000 
 18 O       -4.6090    -3.5530     0.5380 O.co2 1 <1>  -0.9000 
 19 H        2.9220     0.2630    -1.3810 H     1 <1>   0.0800 
 20 H        2.9140    -0.3060     0.2620 H     1 <1>   0.0800 
 21 H       -1.3700     2.8400     0.4680 H     1 <1>   0.1500 
 22 H       -2.6920     0.0440    -1.6760 H     1 <1>   0.0800 
 23 H       -3.3210     1.1770    -0.5140 H     1 <1>   0.0800 
 24 H        0.8860     4.1140     0.2910 H     1 <1>   0.4000 
 25 H        2.2710     3.2530     0.6280 H     1 <1>   0.4000 
 26 H        3.6590     1.9030     1.0510 H     1 <1>   0.0800 
 27 H        3.6010     2.5150    -0.5870 H     1 <1>   0.0800 
 28 H       -2.9630    -0.4780     1.3000 H     1 <1>   0.0800 
 29 H       -2.3630    -1.6240     0.1350 H     1 <1>   0.0800 
 30 H        5.3760     0.9360    -1.2520 H     1 <1>   0.0800 
 31 H        5.4340     0.3060     0.3730 H     1 <1>   0.0800 
 32 H       -4.5550    -1.5920    -1.0330 H     1 <1>   0.0800 
 33 H       -5.1620    -0.4500     0.1350 H     1 <1>   0.0800 
@<TRIPOS>BOND
  1   1   2  1   
  2   1   3  1   
  3   2   4  2   
  4   2   5  1   
  5   3   6  2   
  6   3   7  1   
  7   4   6  1   
  8   4   8  1   
  9   5   9  1   
 10   5  19  1   
 11   5  20  1   
 12   6  21  1   
 13   7  10  1   
 14   7  22  1   
 15   7  23  1   
 16   8  24  1   
 17   8  25  1   
 18   9  11  1   
 19   9  26  1   
 20   9  27  1   
 21  10  12  1   
 22  10  28  1   
 23  10  29  1   
 24  11  13  1   
 25  11  30  1   
 26  11  31  1   
 27  12  14  1   
 28  12  32  1   
 29  12  33  1   
 30  13  15  ar  
 31  13  16  ar  
 32  14  17  ar  
 33  14  18  ar  
@<TRIPOS>SUBSTRUCTURE
  1 ****   2 GROUP 4 **** **** 0

# MOE 2024.06 (io_trps.svl 2023.06)
