@<TRIPOS>MOLECULE
NONAME
43 46 1 0 0 
SMALL
USER_CHARGES


@<TRIPOS>ATOM
  1 O       -3.5420     2.5340    -1.0550 O.3   1 <1>  -0.4300 
  2 C       -4.0130     2.4090     0.1830 C.2   1 <1>   0.5390 
  3 C       -2.2030     2.1120    -1.0550 C.3   1 <1>   0.1200 
  4 N       -3.2090     1.9820     1.0480 N.2   1 <1>  -0.6960 
  5 C       -5.4550     2.8120     0.4200 C.3   1 <1>  -0.0990 
  6 C       -1.9470     1.7150     0.4090 C.3   1 <1>   0.2460 
  7 C       -6.5010     1.7330     0.0580 C.3   1 <1>   0.0000 
  8 C       -0.8770     2.5800     1.0730 C.3   1 <1>  -0.2400 
  9 C       -1.6380     0.2260     0.5660 C.3   1 <1>  -0.2400 
 10 C       -7.9110     2.2690     0.4040 C.3   1 <1>  -0.1600 
 11 C       -6.2630     0.4340     0.8640 C.3   1 <1>  -0.1600 
 12 C       -6.4710     1.3860    -1.4500 C.3   1 <1>  -0.1600 
 13 C       -8.9940     1.2260     0.0720 C.3   1 <1>  -0.0800 
 14 C       -7.3380    -0.6190     0.5330 C.3   1 <1>  -0.0800 
 15 C       -7.5480     0.3390    -1.7920 C.3   1 <1>  -0.0800 
 16 C       -8.7260    -0.0550     0.8840 C.3   1 <1>  -0.1600 
 17 C       -8.9350     0.8980    -1.4310 C.3   1 <1>  -0.1600 
 18 C       -7.2860    -0.9390    -0.9720 C.3   1 <1>  -0.1600 
 19 H       -1.5810     2.9290    -1.3730 H     1 <1>   0.0800 
 20 H       -2.1010     1.2800    -1.7290 H     1 <1>   0.0800 
 21 H       -5.6470     3.7090    -0.1380 H     1 <1>   0.0800 
 22 H       -5.5530     3.0540     1.4620 H     1 <1>   0.0800 
 23 H       -1.1330     3.6210     0.9900 H     1 <1>   0.0800 
 24 H        0.0760     2.4210     0.6020 H     1 <1>   0.0800 
 25 H       -0.7910     2.3260     2.1150 H     1 <1>   0.0800 
 26 H       -2.4230    -0.3660     0.1300 H     1 <1>   0.0800 
 27 H       -1.5520    -0.0250     1.6080 H     1 <1>   0.0800 
 28 H       -0.7120    -0.0160     0.0770 H     1 <1>   0.0800 
 29 H       -8.1050     3.1710    -0.1500 H     1 <1>   0.0800 
 30 H       -7.9630     2.5120     1.4510 H     1 <1>   0.0800 
 31 H       -5.2930     0.0280     0.6360 H     1 <1>   0.0800 
 32 H       -6.2820     0.6490     1.9180 H     1 <1>   0.0800 
 33 H       -5.5090     0.9890    -1.7220 H     1 <1>   0.0800 
 34 H       -6.6330     2.2750    -2.0350 H     1 <1>   0.0800 
 35 H       -9.9650     1.6180     0.3210 H     1 <1>   0.0800 
 36 H       -7.1540    -1.5150     1.1020 H     1 <1>   0.0800 
 37 H       -7.5100     0.1100    -2.8430 H     1 <1>   0.0800 
 38 H       -9.4830    -0.7880     0.6670 H     1 <1>   0.0800 
 39 H       -8.7750     0.1640     1.9370 H     1 <1>   0.0800 
 40 H       -9.6940     0.1760    -1.6760 H     1 <1>   0.0800 
 41 H       -9.1310     1.7870    -2.0060 H     1 <1>   0.0800 
 42 H       -8.0250    -1.6830    -1.2120 H     1 <1>   0.0800 
 43 H       -6.3210    -1.3420    -1.2250 H     1 <1>   0.0800 
@<TRIPOS>BOND
  1   1   2  1   
  2   1   3  1   
  3   2   4  2   
  4   2   5  1   
  5   3   6  1   
  6   3  19  1   
  7   3  20  1   
  8   4   6  1   
  9   5   7  1   
 10   5  21  1   
 11   5  22  1   
 12   6   8  1   
 13   6   9  1   
 14   7  10  1   
 15   7  11  1   
 16   7  12  1   
 17   8  23  1   
 18   8  24  1   
 19   8  25  1   
 20   9  26  1   
 21   9  27  1   
 22   9  28  1   
 23  10  13  1   
 24  10  29  1   
 25  10  30  1   
 26  11  14  1   
 27  11  31  1   
 28  11  32  1   
 29  12  15  1   
 30  12  33  1   
 31  12  34  1   
 32  13  16  1   
 33  13  17  1   
 34  13  35  1   
 35  14  16  1   
 36  14  18  1   
 37  14  36  1   
 38  15  17  1   
 39  15  18  1   
 40  15  37  1   
 41  16  38  1   
 42  16  39  1   
 43  17  40  1   
 44  17  41  1   
 45  18  42  1   
 46  18  43  1   
@<TRIPOS>SUBSTRUCTURE
  1 ****   7 GROUP 4 **** **** 0

# MOE 2024.06 (io_trps.svl 2023.06)
