@<TRIPOS>MOLECULE
NONAME
38 38 1 0 0 
SMALL
USER_CHARGES


@<TRIPOS>ATOM
  1 O       -5.1480     6.4750    -0.1690 O.3   1 <1>  -0.3630 
  2 C       -6.3510     5.8590    -0.0470 C.ar  1 <1>   0.0830 
  3 C       -3.9420     5.7670     0.0100 C.3   1 <1>   0.1200 
  4 C       -7.4760     6.6440    -0.2430 C.ar  1 <1>  -0.1500 
  5 C       -6.5030     4.5080     0.2580 C.ar  1 <1>  -0.1500 
  6 C       -2.7880     6.7440    -0.1950 C.3   1 <1>   0.1200 
  7 C       -8.7420     6.0960    -0.1370 C.ar  1 <1>  -0.1500 
  8 C       -7.7710     3.9620     0.3630 C.ar  1 <1>  -0.1500 
  9 O       -1.5810     6.0610    -0.0200 O.3   1 <1>  -0.5600 
 10 C       -8.8900     4.7540     0.1670 C.ar  1 <1>  -0.1500 
 11 C       -0.4520     6.8510    -0.1810 C.3   1 <1>   0.1200 
 12 C        0.7670     5.9500     0.0430 C.3   1 <1>   0.3430 
 13 N        2.0510     6.7050    -0.0960 N.4   1 <1>  -0.9060 
 14 C        3.2400     5.8760     0.1400 C.3   1 <1>   0.4230 
 15 C        4.4230     6.8180     0.3180 C.3   1 <1>  -0.2400 
 16 C        3.4590     4.9520    -1.0540 C.3   1 <1>  -0.2400 
 17 H       -3.9020     4.9770    -0.7200 H     1 <1>   0.0800 
 18 H       -3.9280     5.3710     1.0100 H     1 <1>   0.0800 
 19 H       -7.3540     7.6860    -0.4780 H     1 <1>   0.1500 
 20 H       -5.6560     3.8700     0.4160 H     1 <1>   0.1500 
 21 H       -2.8490     7.5370     0.5300 H     1 <1>   0.0800 
 22 H       -2.8210     7.1440    -1.1940 H     1 <1>   0.0800 
 23 H       -9.6100     6.7130    -0.2900 H     1 <1>   0.1500 
 24 H       -7.8890     2.9180     0.5990 H     1 <1>   0.1500 
 25 H       -9.8730     4.3260     0.2490 H     1 <1>   0.1500 
 26 H       -0.4860     7.6430     0.5490 H     1 <1>   0.0800 
 27 H       -0.4570     7.2520    -1.1800 H     1 <1>   0.0800 
 28 H        0.7350     5.1490    -0.6780 H     1 <1>   0.0800 
 29 H        0.7020     5.5240     1.0300 H     1 <1>   0.0800 
 30 H        2.0680     7.4830     0.5740 H     1 <1>   0.4500 
 31 H        2.1270     7.1100    -1.0360 H     1 <1>   0.4500 
 32 H        3.1140     5.2900     1.0390 H     1 <1>   0.0800 
 33 H        4.5830     7.4190    -0.5610 H     1 <1>   0.0800 
 34 H        5.3160     6.2440     0.4930 H     1 <1>   0.0800 
 35 H        4.2790     7.4580     1.1700 H     1 <1>   0.0800 
 36 H        3.5690     5.5100    -1.9670 H     1 <1>   0.0800 
 37 H        2.6540     4.2480    -1.1570 H     1 <1>   0.0800 
 38 H        4.3610     4.3840    -0.9060 H     1 <1>   0.0800 
@<TRIPOS>BOND
  1   1   2  1   
  2   1   3  1   
  3   2   4  ar  
  4   2   5  ar  
  5   3   6  1   
  6   3  17  1   
  7   3  18  1   
  8   4   7  ar  
  9   4  19  1   
 10   5   8  ar  
 11   5  20  1   
 12   6   9  1   
 13   6  21  1   
 14   6  22  1   
 15   7  10  ar  
 16   7  23  1   
 17   8  10  ar  
 18   8  24  1   
 19   9  11  1   
 20  10  25  1   
 21  11  12  1   
 22  11  26  1   
 23  11  27  1   
 24  12  13  1   
 25  12  28  1   
 26  12  29  1   
 27  13  14  1   
 28  13  30  1   
 29  13  31  1   
 30  14  15  1   
 31  14  16  1   
 32  14  32  1   
 33  15  33  1   
 34  15  34  1   
 35  15  35  1   
 36  16  36  1   
 37  16  37  1   
 38  16  38  1   
@<TRIPOS>SUBSTRUCTURE
  1 ****   6 GROUP 4 **** **** 0

# MOE 2024.06 (io_trps.svl 2023.06)
