@<TRIPOS>MOLECULE
NONAME
50 51 1 0 0 
SMALL
USER_CHARGES


@<TRIPOS>ATOM
  1 S        0.5510     1.1030     1.5530 S.o2  1 <1>   1.3330 
  2 O        1.8510     1.3280     2.1420 O.2   1 <1>  -0.6500 
  3 O        0.1600    -0.2220     1.1440 O.2   1 <1>  -0.6500 
  4 N        0.4760     2.1290     0.1660 N.am  1 <1>  -0.6930 
  5 C       -0.6960     1.7930     2.6190 C.3   1 <1>  -0.1350 
  6 C       -0.6320     2.0970    -0.6830 C.ar  1 <1>   0.1990 
  7 C        1.4040     3.3010     0.0930 C.3   1 <1>   0.2570 
  8 C       -1.6820     3.0220    -0.5750 C.ar  1 <1>   0.0830 
  9 C       -0.6930     1.1180    -1.6630 C.ar  1 <1>  -0.1500 
 10 C        2.7550     2.9870    -0.5580 C.2   1 <1>   0.5690 
 11 O       -1.6050     3.9670     0.4130 O.3   1 <1>  -0.3630 
 12 C       -2.7580     2.9460    -1.4550 C.ar  1 <1>  -0.1500 
 13 C       -1.7660     1.0480    -2.5330 C.ar  1 <1>  -0.1500 
 14 O        3.0690     3.6170    -1.5400 O.2   1 <1>  -0.5700 
 15 N        3.5490     2.0300     0.0170 N.am  1 <1>  -0.5470 
 16 C       -2.5500     5.0120     0.4980 C.3   1 <1>   0.0400 
 17 C       -2.7970     1.9630    -2.4300 C.ar  1 <1>  -0.1500 
 18 C        4.8010     1.4930    -0.3220 C.ar  1 <1>   0.1170 
 19 C        5.2600     0.4020     0.4050 C.ar  1 <1>  -0.1500 
 20 C        5.6110     1.9900    -1.3370 C.ar  1 <1>  -0.1500 
 21 C        6.4850    -0.1770     0.1280 C.ar  1 <1>  -0.1500 
 22 C        6.8360     1.4110    -1.6160 C.ar  1 <1>  -0.1500 
 23 C        7.2880     0.3210    -0.8880 C.ar  1 <1>  -0.1430 
 24 C        8.6440    -0.3040    -1.2120 C.3   1 <1>   0.0630 
 25 C        8.4800    -1.7600    -1.6610 C.3   1 <1>  -0.2400 
 26 C        9.5930    -0.2070    -0.0130 C.3   1 <1>  -0.2400 
 27 H       -0.7250     1.2550     3.5460 H     1 <1>   0.0800 
 28 H       -1.6580     1.7240     2.1510 H     1 <1>   0.0800 
 29 H       -0.4840     2.8240     2.8210 H     1 <1>   0.0800 
 30 H        1.5780     3.6880     1.0800 H     1 <1>   0.0800 
 31 H        0.9380     4.0820    -0.4810 H     1 <1>   0.0800 
 32 H        0.1090     0.4050    -1.7380 H     1 <1>   0.1500 
 33 H       -3.5790     3.6360    -1.4030 H     1 <1>   0.1500 
 34 H       -1.7950     0.2810    -3.2880 H     1 <1>   0.1500 
 35 H        3.1290     1.5960     0.8500 H     1 <1>   0.3700 
 36 H       -2.2600     5.6620     1.3040 H     1 <1>   0.0800 
 37 H       -3.5200     4.5930     0.7000 H     1 <1>   0.0800 
 38 H       -2.5520     5.5600    -0.4280 H     1 <1>   0.0800 
 39 H       -3.6320     1.9090    -3.1080 H     1 <1>   0.1500 
 40 H        4.6510    -0.0010     1.1940 H     1 <1>   0.1500 
 41 H        5.2930     2.8330    -1.9200 H     1 <1>   0.1500 
 42 H        6.8100    -1.0220     0.7080 H     1 <1>   0.1500 
 43 H        7.4360     1.8200    -2.4090 H     1 <1>   0.1500 
 44 H        9.0880     0.2420    -2.0270 H     1 <1>   0.0800 
 45 H        8.0850    -2.3640    -0.8640 H     1 <1>   0.0800 
 46 H        9.4290    -2.1650    -1.9630 H     1 <1>   0.0800 
 47 H        7.8040    -1.8090    -2.4960 H     1 <1>   0.0800 
 48 H        9.2210    -0.7780     0.8180 H     1 <1>   0.0800 
 49 H        9.6880     0.8200     0.2930 H     1 <1>   0.0800 
 50 H       10.5660    -0.5780    -0.2780 H     1 <1>   0.0800 
@<TRIPOS>BOND
  1   1   2  2   
  2   1   3  2   
  3   1   4  am  
  4   1   5  1   
  5   4   6  1   
  6   4   7  1   
  7   5  27  1   
  8   5  28  1   
  9   5  29  1   
 10   6   8  ar  
 11   6   9  ar  
 12   7  10  1   
 13   7  30  1   
 14   7  31  1   
 15   8  11  1   
 16   8  12  ar  
 17   9  13  ar  
 18   9  32  1   
 19  10  14  2   
 20  10  15  am  
 21  11  16  1   
 22  12  17  ar  
 23  12  33  1   
 24  13  17  ar  
 25  13  34  1   
 26  15  18  1   
 27  15  35  1   
 28  16  36  1   
 29  16  37  1   
 30  16  38  1   
 31  17  39  1   
 32  18  19  ar  
 33  18  20  ar  
 34  19  21  ar  
 35  19  40  1   
 36  20  22  ar  
 37  20  41  1   
 38  21  23  ar  
 39  21  42  1   
 40  22  23  ar  
 41  22  43  1   
 42  23  24  1   
 43  24  25  1   
 44  24  26  1   
 45  24  44  1   
 46  25  45  1   
 47  25  46  1   
 48  25  47  1   
 49  26  48  1   
 50  26  49  1   
 51  26  50  1   
@<TRIPOS>SUBSTRUCTURE
  1 ****  15 GROUP 4 **** **** 0

# MOE 2024.06 (io_trps.svl 2023.06)
