@<TRIPOS>MOLECULE
NONAME
49 50 1 0 0 
SMALL
USER_CHARGES


@<TRIPOS>ATOM
  1 O        0.2890    -0.3480     1.0810 O.2   1 <1>  -0.5700 
  2 C       -0.5090    -1.1010     0.5520 C.2   1 <1>   0.7800 
  3 O       -0.1000    -2.0580    -0.2780 O.3   1 <1>  -0.4300 
  4 N       -1.8520    -1.0210     0.7900 N.am  1 <1>  -0.6600 
  5 C        1.1990    -2.5730    -0.4360 C.3   1 <1>   0.2800 
  6 C       -2.7900    -2.0660     0.2890 C.3   1 <1>   0.3640 
  7 C       -2.4330    -0.0470     1.7430 C.3   1 <1>   0.1400 
  8 C        1.7270    -3.0780     0.9110 C.3   1 <1>  -0.2400 
  9 C        2.1130    -1.5190    -1.0710 C.3   1 <1>  -0.2400 
 10 C        1.0410    -3.7570    -1.3900 C.3   1 <1>  -0.2400 
 11 C       -4.1830    -1.4730     0.0140 C.ar  1 <1>  -0.1440 
 12 C       -2.8570    -3.2060     1.3090 C.3   1 <1>  -0.2660 
 13 C       -3.5320     0.7450     1.0390 C.3   1 <1>  -0.0170 
 14 C       -4.5400    -0.1760     0.3670 C.ar  1 <1>  -0.1440 
 15 C       -5.1190    -2.2780    -0.6180 C.ar  1 <1>  -0.1500 
 16 C       -2.4270    -4.4840     0.6550 C.2   1 <1>   0.9060 
 17 C       -5.8160     0.2930     0.0910 C.ar  1 <1>  -0.1500 
 18 C       -6.4040    -1.8220    -0.8920 C.ar  1 <1>   0.0820 
 19 O       -3.0850    -4.9060    -0.3010 O.co2 1 <1>  -0.9000 
 20 O       -1.4470    -5.0830     1.1030 O.co2 1 <1>  -0.9000 
 21 C       -6.7570    -0.5190    -0.5360 C.ar  1 <1>   0.0820 
 22 O       -7.3410    -2.6090    -1.5000 O.3   1 <1>  -0.3630 
 23 O       -8.0220    -0.0910    -0.8210 O.3   1 <1>  -0.3630 
 24 C       -7.0740    -3.9670    -1.7780 C.3   1 <1>   0.0400 
 25 C       -8.4370     1.2300    -0.5600 C.3   1 <1>   0.0400 
 26 H       -2.4210    -2.4450    -0.6510 H     1 <1>   0.0800 
 27 H       -1.6770     0.6240     2.1120 H     1 <1>   0.0800 
 28 H       -2.8490    -0.5830     2.5790 H     1 <1>   0.0800 
 29 H        1.8920    -2.2650     1.5940 H     1 <1>   0.0800 
 30 H        2.6600    -3.5910     0.7730 H     1 <1>   0.0800 
 31 H        1.0210    -3.7670     1.3440 H     1 <1>   0.0800 
 32 H        3.0630    -1.9580    -1.3130 H     1 <1>   0.0800 
 33 H        1.6690    -1.1390    -1.9720 H     1 <1>   0.0800 
 34 H        2.2910    -0.7050    -0.3920 H     1 <1>   0.0800 
 35 H        0.6370    -3.4290    -2.3300 H     1 <1>   0.0800 
 36 H        1.9880    -4.2310    -1.5650 H     1 <1>   0.0800 
 37 H        0.3710    -4.4840    -0.9600 H     1 <1>   0.0800 
 38 H       -3.8570    -3.3460     1.6670 H     1 <1>   0.0800 
 39 H       -2.2120    -3.0270     2.1470 H     1 <1>   0.0800 
 40 H       -3.0830     1.3790     0.2960 H     1 <1>   0.0800 
 41 H       -4.0260     1.3700     1.7600 H     1 <1>   0.0800 
 42 H       -4.8180    -3.2730    -0.8890 H     1 <1>   0.1500 
 43 H       -6.0600     1.2980     0.3710 H     1 <1>   0.1500 
 44 H       -6.2630    -4.0270    -2.4820 H     1 <1>   0.0800 
 45 H       -7.9600    -4.4030    -2.2010 H     1 <1>   0.0800 
 46 H       -6.8180    -4.4690    -0.8610 H     1 <1>   0.0800 
 47 H       -8.3840     1.4090     0.4990 H     1 <1>   0.0800 
 48 H       -9.4530     1.3300    -0.8970 H     1 <1>   0.0800 
 49 H       -7.8030     1.9070    -1.1030 H     1 <1>   0.0800 
@<TRIPOS>BOND
  1   1   2  2   
  2   2   3  1   
  3   2   4  am  
  4   3   5  1   
  5   4   6  1   
  6   4   7  1   
  7   5   8  1   
  8   5   9  1   
  9   5  10  1   
 10   6  11  1   
 11   6  12  1   
 12   6  26  1   
 13   7  13  1   
 14   7  27  1   
 15   7  28  1   
 16   8  29  1   
 17   8  30  1   
 18   8  31  1   
 19   9  32  1   
 20   9  33  1   
 21   9  34  1   
 22  10  35  1   
 23  10  36  1   
 24  10  37  1   
 25  11  14  ar  
 26  11  15  ar  
 27  12  16  1   
 28  12  38  1   
 29  12  39  1   
 30  13  14  1   
 31  13  40  1   
 32  13  41  1   
 33  14  17  ar  
 34  15  18  ar  
 35  15  42  1   
 36  16  19  ar  
 37  16  20  ar  
 38  17  21  ar  
 39  17  43  1   
 40  18  21  ar  
 41  18  22  1   
 42  21  23  1   
 43  22  24  1   
 44  23  25  1   
 45  24  44  1   
 46  24  45  1   
 47  24  46  1   
 48  25  47  1   
 49  25  48  1   
 50  25  49  1   
@<TRIPOS>SUBSTRUCTURE
  1 ****   6 GROUP 4 **** **** 0

# MOE 2024.06 (io_trps.svl 2023.06)
