@<TRIPOS>MOLECULE
NONAME
36 37 1 0 0 
SMALL
USER_CHARGES


@<TRIPOS>ATOM
  1 BR      -1.3580    -1.3430    -2.8790 Br    1 <1>  -0.1110 
  2 C       -0.4550    -2.1440    -1.3820 C.ar  1 <1>   0.1110 
  3 C        0.8600    -2.5360    -1.5310 C.ar  1 <1>  -0.1500 
  4 C       -1.1500    -2.3040    -0.1980 C.ar  1 <1>  -0.1500 
  5 C        1.5440    -3.1250    -0.4650 C.ar  1 <1>   0.0860 
  6 C       -0.4870    -2.8770     0.8720 C.ar  1 <1>  -0.1500 
  7 C        0.8330    -3.2740     0.7340 C.ar  1 <1>   0.1770 
  8 C        2.9220    -3.5400    -0.6430 C.2   1 <1>   0.5440 
  9 CL       1.5910    -3.9660     2.1510 Cl    1 <1>  -0.1770 
 10 O        3.6840    -2.8700    -1.3110 O.2   1 <1>  -0.5700 
 11 N        3.4170    -4.6940    -0.1000 N.am  1 <1>  -0.7300 
 12 C        4.7820    -5.2270    -0.3410 C.3   1 <1>   0.1400 
 13 C        5.8520    -4.2240     0.1330 C.3   1 <1>   0.3430 
 14 N        7.2390    -4.6300    -0.2570 N.4   1 <1>  -0.9590 
 15 C        7.7520    -5.8630     0.4360 C.3   1 <1>   0.3430 
 16 C        8.2110    -3.4970    -0.1030 C.3   1 <1>   0.3430 
 17 C        9.2350    -6.1360     0.0900 C.3   1 <1>   0.1200 
 18 C        9.6290    -3.9080    -0.5630 C.3   1 <1>   0.1200 
 19 O        9.6860    -5.2670    -0.9120 O.3   1 <1>  -0.5600 
 20 H        1.3580    -2.3840    -2.4730 H     1 <1>   0.1500 
 21 H       -2.1760    -1.9860    -0.1200 H     1 <1>   0.1500 
 22 H       -0.9910    -3.0140     1.8140 H     1 <1>   0.1500 
 23 H        2.7900    -5.2690     0.4750 H     1 <1>   0.3700 
 24 H        4.8930    -5.3980    -1.3990 H     1 <1>   0.0800 
 25 H        4.8890    -6.1620     0.1800 H     1 <1>   0.0800 
 26 H        5.7870    -4.1150     1.2030 H     1 <1>   0.0800 
 27 H        5.6370    -3.2670    -0.3130 H     1 <1>   0.0800 
 28 H        7.2600    -4.8450    -1.2660 H     1 <1>   0.4500 
 29 H        7.1650    -6.7180     0.1450 H     1 <1>   0.0800 
 30 H        7.6590    -5.7540     1.5040 H     1 <1>   0.0800 
 31 H        8.2540    -3.1890     0.9290 H     1 <1>   0.0800 
 32 H        7.8850    -2.6480    -0.6810 H     1 <1>   0.0800 
 33 H        9.3530    -7.1440    -0.2690 H     1 <1>   0.0800 
 34 H        9.8590    -6.0140     0.9590 H     1 <1>   0.0800 
 35 H       10.3510    -3.7200     0.2130 H     1 <1>   0.0800 
 36 H        9.9150    -3.3380    -1.4310 H     1 <1>   0.0800 
@<TRIPOS>BOND
  1   1   2  1   
  2   2   3  ar  
  3   2   4  ar  
  4   3   5  ar  
  5   3  20  1   
  6   4   6  ar  
  7   4  21  1   
  8   5   7  ar  
  9   5   8  1   
 10   6   7  ar  
 11   6  22  1   
 12   7   9  1   
 13   8  10  2   
 14   8  11  am  
 15  11  12  1   
 16  11  23  1   
 17  12  13  1   
 18  12  24  1   
 19  12  25  1   
 20  13  14  1   
 21  13  26  1   
 22  13  27  1   
 23  14  15  1   
 24  14  16  1   
 25  14  28  1   
 26  15  17  1   
 27  15  29  1   
 28  15  30  1   
 29  16  18  1   
 30  16  31  1   
 31  16  32  1   
 32  17  19  1   
 33  17  33  1   
 34  17  34  1   
 35  18  19  1   
 36  18  35  1   
 37  18  36  1   
@<TRIPOS>SUBSTRUCTURE
  1 ****   8 GROUP 4 **** **** 0

# MOE 2024.06 (io_trps.svl 2023.06)
