@<TRIPOS>MOLECULE
NONAME
54 58 1 0 0 
SMALL
USER_CHARGES


@<TRIPOS>ATOM
  1 O       -5.2700     5.3800     2.5350 O.2   1 <1>  -0.5740 
  2 C       -5.8980     5.8910     1.6480 C.2   1 <1>   0.4430 
  3 C       -5.2540     6.7410     0.5370 C.3   1 <1>   0.0540 
  4 C       -7.4090     5.6540     1.5930 C.3   1 <1>   0.4100 
  5 C       -3.7060     6.7000     0.6440 C.3   1 <1>  -0.1670 
  6 C       -5.6460     6.2120    -0.8690 C.3   1 <1>  -0.1670 
  7 C       -5.6990     8.2220     0.6540 C.3   1 <1>  -0.1670 
  8 N       -7.7800     4.3400     0.9740 N.pl3 1 <1>  -0.7670 
  9 C       -3.0490     7.5490    -0.4580 C.3   1 <1>  -0.0870 
 10 C       -5.0010     7.0640    -1.9760 C.3   1 <1>  -0.0870 
 11 C       -5.0550     9.0760    -0.4530 C.3   1 <1>  -0.0870 
 12 C       -7.3180     3.1280     1.2890 C.cat 1 <1>   1.0690 
 13 C       -8.7260     4.1740    -0.0300 C.ar  1 <1>   0.3030 
 14 C       -3.4700     7.0050    -1.8340 C.3   1 <1>  -0.1670 
 15 C       -3.5230     9.0060    -0.3200 C.3   1 <1>  -0.1670 
 16 C       -5.4690     8.5230    -1.8290 C.3   1 <1>  -0.1670 
 17 N       -6.3980     2.8910     2.1910 N.pl3 1 <1>  -0.8390 
 18 N       -7.9110     2.1840     0.5620 N.pl3 1 <1>  -0.7670 
 19 C       -8.8080     2.8160    -0.2890 C.ar  1 <1>   0.3030 
 20 C       -9.5140     5.0800    -0.7340 C.ar  1 <1>  -0.1160 
 21 C       -7.7590     0.7200     0.6830 C.3   1 <1>   0.4880 
 22 C       -9.6810     2.3320    -1.2590 C.ar  1 <1>  -0.1160 
 23 C      -10.3790     4.5990    -1.6970 C.ar  1 <1>  -0.1570 
 24 C       -6.2840     0.3640     0.6910 C.2   1 <1>  -0.2940 
 25 C      -10.4630     3.2320    -1.9580 C.ar  1 <1>  -0.1570 
 26 C       -5.6210    -0.2080     1.7030 C.2   1 <1>  -0.3060 
 27 H       -7.8810     6.4570     1.0600 H     1 <1>   0.0730 
 28 H       -7.7870     5.6750     2.6000 H     1 <1>   0.0730 
 29 H       -3.3950     7.0700     1.6060 H     1 <1>   0.0730 
 30 H       -3.3590     5.6840     0.5620 H     1 <1>   0.0730 
 31 H       -6.7110     6.2420    -1.0060 H     1 <1>   0.0730 
 32 H       -5.3270     5.1900    -0.9770 H     1 <1>   0.0730 
 33 H       -5.4100     8.6130     1.6150 H     1 <1>   0.0730 
 34 H       -6.7670     8.3120     0.5730 H     1 <1>   0.0730 
 35 H       -1.9770     7.5060    -0.3620 H     1 <1>   0.0730 
 36 H       -5.2870     6.6860    -2.9430 H     1 <1>   0.0730 
 37 H       -5.3780    10.0990    -0.3610 H     1 <1>   0.0730 
 38 H       -3.1290     5.9910    -1.9460 H     1 <1>   0.0730 
 39 H       -3.0100     7.5900    -2.6110 H     1 <1>   0.0730 
 40 H       -3.0640     9.6110    -1.0830 H     1 <1>   0.0730 
 41 H       -3.2200     9.4010     0.6340 H     1 <1>   0.0730 
 42 H       -6.5370     8.5810    -1.9430 H     1 <1>   0.0730 
 43 H       -5.0280     9.1230    -2.6060 H     1 <1>   0.0730 
 44 H       -5.9910     1.9610     2.2860 H     1 <1>   0.4450 
 45 H       -5.8610     3.6530     2.6280 H     1 <1>   0.4450 
 46 H       -9.4550     6.1350    -0.5380 H     1 <1>   0.1430 
 47 H       -8.2370     0.2240    -0.1430 H     1 <1>   0.0730 
 48 H       -8.2290     0.3870     1.5940 H     1 <1>   0.0730 
 49 H       -9.7490     1.2800    -1.4670 H     1 <1>   0.1430 
 50 H      -11.0000     5.2810    -2.2570 H     1 <1>   0.1430 
 51 H       -5.8020     0.6210    -0.2390 H     1 <1>   0.1430 
 52 H      -11.1470     2.8810    -2.7150 H     1 <1>   0.1430 
 53 H       -4.5700    -0.4520     1.6650 H     1 <1>   0.1430 
 54 H       -6.0560    -0.4980     2.6460 H     1 <1>   0.1430 
@<TRIPOS>BOND
  1   1   2  2   
  2   2   3  1   
  3   2   4  1   
  4   3   5  1   
  5   3   6  1   
  6   3   7  1   
  7   4   8  1   
  8   4  27  1   
  9   4  28  1   
 10   5   9  1   
 11   5  29  1   
 12   5  30  1   
 13   6  10  1   
 14   6  31  1   
 15   6  32  1   
 16   7  11  1   
 17   7  33  1   
 18   7  34  1   
 19   8  12  ar  
 20   8  13  1   
 21   9  14  1   
 22   9  15  1   
 23   9  35  1   
 24  10  14  1   
 25  10  16  1   
 26  10  36  1   
 27  11  15  1   
 28  11  16  1   
 29  11  37  1   
 30  12  17  ar  
 31  12  18  ar  
 32  13  19  ar  
 33  13  20  ar  
 34  14  38  1   
 35  14  39  1   
 36  15  40  1   
 37  15  41  1   
 38  16  42  1   
 39  16  43  1   
 40  17  44  1   
 41  17  45  1   
 42  18  19  1   
 43  18  21  1   
 44  19  22  ar  
 45  20  23  ar  
 46  20  46  1   
 47  21  24  1   
 48  21  47  1   
 49  21  48  1   
 50  22  25  ar  
 51  22  49  1   
 52  23  25  ar  
 53  23  50  1   
 54  24  26  2   
 55  24  51  1   
 56  25  52  1   
 57  26  53  1   
 58  26  54  1   
@<TRIPOS>SUBSTRUCTURE
  1 ****   8 GROUP 4 **** **** 0

# MOE 2024.06 (io_trps.svl 2023.06)
