@<TRIPOS>MOLECULE
NONAME
50 52 1 0 0 
SMALL
USER_CHARGES


@<TRIPOS>ATOM
  1 CL       1.0310     0.3130    -1.3120 Cl    1 <1>  -0.1770 
  2 C        2.6480     0.3620    -0.6580 C.ar  1 <1>   0.1770 
  3 C        2.8610     0.9440     0.5790 C.ar  1 <1>  -0.1500 
  4 C        3.6880    -0.1860    -1.3850 C.ar  1 <1>  -0.1500 
  5 C        4.1410     0.9920     1.1090 C.ar  1 <1>  -0.1440 
  6 C        4.9700    -0.1390    -0.8660 C.ar  1 <1>  -0.1500 
  7 C        5.1970     0.4620     0.3660 C.ar  1 <1>   0.0830 
  8 C        4.3500     1.6040     2.4870 C.3   1 <1>  -0.0960 
  9 O        6.4640     0.5120     0.8340 O.3   1 <1>  -0.3630 
 10 C        7.1600     1.7280     0.6470 C.3   1 <1>   0.1200 
 11 C        7.8580     1.7160    -0.7210 C.3   1 <1>   0.2000 
 12 O        8.5790     0.5250    -0.8510 O.3   1 <1>  -0.6800 
 13 C        8.8070     2.9180    -0.9390 C.3   1 <1>   0.3430 
 14 N       10.2240     2.5700    -0.6010 N.4   1 <1>  -0.9590 
 15 C       10.5640     2.7220     0.8600 C.3   1 <1>   0.3430 
 16 C       11.2180     3.2870    -1.4790 C.3   1 <1>   0.3430 
 17 C       12.0270     2.3430     1.1720 C.3   1 <1>   0.2090 
 18 C       12.6780     2.9090    -1.1580 C.3   1 <1>   0.2090 
 19 N       12.9780     3.0850     0.2930 N.pl3 1 <1>  -0.8380 
 20 C       14.3040     2.9030     0.6200 C.ar  1 <1>   0.4100 
 21 N       14.7840     1.6780     0.4550 N.ar  1 <1>  -0.6200 
 22 C       15.0570     3.9730     1.0900 C.ar  1 <1>  -0.1500 
 23 C       16.0600     1.5180     0.7710 C.ar  1 <1>   0.1600 
 24 C       16.3810     3.7920     1.4150 C.ar  1 <1>  -0.1500 
 25 C       16.8890     2.5190     1.2460 C.ar  1 <1>  -0.1500 
 26 H        2.0210     1.3470     1.1160 H     1 <1>   0.1500 
 27 H        3.4900    -0.6430    -2.3380 H     1 <1>   0.1500 
 28 H        5.7860    -0.5710    -1.4150 H     1 <1>   0.1500 
 29 H        3.4400     1.5610     3.0600 H     1 <1>   0.0800 
 30 H        4.6500     2.6310     2.3970 H     1 <1>   0.0800 
 31 H        5.1060     1.0620     3.0280 H     1 <1>   0.0800 
 32 H        7.8750     1.8110     1.4440 H     1 <1>   0.0800 
 33 H        6.4640     2.5460     0.7180 H     1 <1>   0.0800 
 34 H        7.1000     1.7310    -1.4860 H     1 <1>   0.0800 
 35 H        8.0120    -0.2200    -0.5420 H     1 <1>   0.4000 
 36 H        8.4740     3.7730    -0.3750 H     1 <1>   0.0800 
 37 H        8.7520     3.1800    -1.9820 H     1 <1>   0.0800 
 38 H       10.2800     1.5530    -0.8130 H     1 <1>   0.4500 
 39 H        9.9170     2.1000     1.4540 H     1 <1>   0.0800 
 40 H       10.4150     3.7460     1.1610 H     1 <1>   0.0800 
 41 H       11.1140     4.3500    -1.3450 H     1 <1>   0.0800 
 42 H       11.0210     3.0610    -2.5140 H     1 <1>   0.0800 
 43 H       12.1630     1.2830     1.0370 H     1 <1>   0.0800 
 44 H       12.2450     2.5720     2.2010 H     1 <1>   0.0800 
 45 H       13.3440     3.5300    -1.7330 H     1 <1>   0.0800 
 46 H       12.8600     1.8860    -1.4430 H     1 <1>   0.0800 
 47 H       14.5900     4.9340     1.1940 H     1 <1>   0.1500 
 48 H       16.4710     0.5310     0.6450 H     1 <1>   0.1500 
 49 H       16.9920     4.5990     1.7820 H     1 <1>   0.1500 
 50 H       17.9160     2.3070     1.4810 H     1 <1>   0.1500 
@<TRIPOS>BOND
  1   1   2  1   
  2   2   3  ar  
  3   2   4  ar  
  4   3   5  ar  
  5   3  26  1   
  6   4   6  ar  
  7   4  27  1   
  8   5   7  ar  
  9   5   8  1   
 10   6   7  ar  
 11   6  28  1   
 12   7   9  1   
 13   8  29  1   
 14   8  30  1   
 15   8  31  1   
 16   9  10  1   
 17  10  11  1   
 18  10  32  1   
 19  10  33  1   
 20  11  12  1   
 21  11  13  1   
 22  11  34  1   
 23  12  35  1   
 24  13  14  1   
 25  13  36  1   
 26  13  37  1   
 27  14  15  1   
 28  14  16  1   
 29  14  38  1   
 30  15  17  1   
 31  15  39  1   
 32  15  40  1   
 33  16  18  1   
 34  16  41  1   
 35  16  42  1   
 36  17  19  1   
 37  17  43  1   
 38  17  44  1   
 39  18  19  1   
 40  18  45  1   
 41  18  46  1   
 42  19  20  1   
 43  20  21  ar  
 44  20  22  ar  
 45  21  23  ar  
 46  22  24  ar  
 47  22  47  1   
 48  23  25  ar  
 49  23  48  1   
 50  24  25  ar  
 51  24  49  1   
 52  25  50  1   
@<TRIPOS>SUBSTRUCTURE
  1 ****  14 GROUP 4 **** **** 0

# MOE 2024.06 (io_trps.svl 2023.06)
