@<TRIPOS>MOLECULE
NONAME
50 54 1 0 0 
SMALL
USER_CHARGES


@<TRIPOS>ATOM
  1 O        0.3220     0.7360     3.0000 O.2   1 <1>  -0.5700 
  2 C        0.0490     1.1080     1.8840 C.2   1 <1>   0.5690 
  3 N        0.9840     1.2020     0.9060 N.am  1 <1>  -0.7300 
  4 C       -1.3960     1.4810     1.5740 C.3   1 <1>   0.1810 
  5 C        2.4210     0.8850     1.0250 C.3   1 <1>   0.2200 
  6 O       -1.5510     1.8960     0.2210 O.3   1 <1>  -0.3630 
  7 C        3.2700     2.1370     0.7200 C.3   1 <1>  -0.0800 
  8 C        2.8000    -0.2440     0.0420 C.3   1 <1>  -0.0800 
  9 C       -2.7600     2.2720    -0.2620 C.ar  1 <1>   0.0820 
 10 C        4.7570     1.7830     0.9300 C.3   1 <1>  -0.1600 
 11 C        3.0740     2.5920    -0.7450 C.3   1 <1>  -0.1600 
 12 C        4.2870    -0.5960     0.2530 C.3   1 <1>  -0.1600 
 13 C        2.6050     0.2120    -1.4220 C.3   1 <1>  -0.1600 
 14 C       -3.9220     2.2920     0.4730 C.ar  1 <1>  -0.1500 
 15 C       -2.7870     2.6600    -1.6070 C.ar  1 <1>  -0.1500 
 16 C        5.1670     0.6410    -0.0220 C.3   1 <1>  -0.0800 
 17 C        3.4700     1.4550    -1.7070 C.3   1 <1>  -0.0800 
 18 C       -5.1430     2.6960    -0.1020 C.ar  1 <1>   0.0000 
 19 C       -3.9580     3.0560    -2.1900 C.ar  1 <1>  -0.1500 
 20 C        4.9510     1.0970    -1.4770 C.3   1 <1>  -0.1600 
 21 C       -5.1630     3.0860    -1.4590 C.ar  1 <1>   0.0000 
 22 C       -6.3500     2.7260     0.6270 C.ar  1 <1>  -0.1500 
 23 C       -6.3860     3.4890    -2.0320 C.ar  1 <1>  -0.1500 
 24 C       -7.5230     3.1230     0.0450 C.ar  1 <1>  -0.1500 
 25 C       -7.5410     3.5090    -1.2990 C.ar  1 <1>  -0.1500 
 26 H        0.6850     1.5230    -0.0170 H     1 <1>   0.3700 
 27 H       -1.6960     2.2900     2.2140 H     1 <1>   0.0800 
 28 H       -2.0240     0.6260     1.7410 H     1 <1>   0.0800 
 29 H        2.6220     0.5580     2.0320 H     1 <1>   0.0800 
 30 H        2.9940     2.9280     1.3960 H     1 <1>   0.0800 
 31 H        2.1980    -1.1120     0.2470 H     1 <1>   0.0800 
 32 H        4.9190     1.4820     1.9510 H     1 <1>   0.0800 
 33 H        5.3680     2.6490     0.7450 H     1 <1>   0.0800 
 34 H        3.6840     3.4570    -0.9380 H     1 <1>   0.0800 
 35 H        2.0520     2.8780    -0.9150 H     1 <1>   0.0800 
 36 H        4.5700    -1.3980    -0.4060 H     1 <1>   0.0800 
 37 H        4.4420    -0.9350     1.2630 H     1 <1>   0.0800 
 38 H        1.5700     0.4340    -1.6100 H     1 <1>   0.0800 
 39 H        2.8860    -0.5850    -2.0880 H     1 <1>   0.0800 
 40 H       -3.9420     2.0020     1.5050 H     1 <1>   0.1500 
 41 H       -1.8690     2.6370    -2.1650 H     1 <1>   0.1500 
 42 H        6.2030     0.3930     0.1320 H     1 <1>   0.0800 
 43 H        3.3280     1.7730    -2.7260 H     1 <1>   0.0800 
 44 H       -3.9790     3.3540    -3.2230 H     1 <1>   0.1500 
 45 H        5.2460     0.3120    -2.1520 H     1 <1>   0.0800 
 46 H        5.5690     1.9530    -1.6850 H     1 <1>   0.0800 
 47 H       -6.3330     2.4290     1.6600 H     1 <1>   0.1500 
 48 H       -6.3950     3.7850    -3.0650 H     1 <1>   0.1500 
 49 H       -8.4410     3.1440     0.6070 H     1 <1>   0.1500 
 50 H       -8.4720     3.8180    -1.7420 H     1 <1>   0.1500 
@<TRIPOS>BOND
  1   1   2  2   
  2   2   3  am  
  3   2   4  1   
  4   3   5  1   
  5   3  26  1   
  6   4   6  1   
  7   4  27  1   
  8   4  28  1   
  9   5   7  1   
 10   5   8  1   
 11   5  29  1   
 12   6   9  1   
 13   7  10  1   
 14   7  11  1   
 15   7  30  1   
 16   8  12  1   
 17   8  13  1   
 18   8  31  1   
 19   9  14  ar  
 20   9  15  ar  
 21  10  16  1   
 22  10  32  1   
 23  10  33  1   
 24  11  17  1   
 25  11  34  1   
 26  11  35  1   
 27  12  16  1   
 28  12  36  1   
 29  12  37  1   
 30  13  17  1   
 31  13  38  1   
 32  13  39  1   
 33  14  18  ar  
 34  14  40  1   
 35  15  19  ar  
 36  15  41  1   
 37  16  20  1   
 38  16  42  1   
 39  17  20  1   
 40  17  43  1   
 41  18  21  ar  
 42  18  22  ar  
 43  19  21  ar  
 44  19  44  1   
 45  20  45  1   
 46  20  46  1   
 47  21  23  ar  
 48  22  24  ar  
 49  22  47  1   
 50  23  25  ar  
 51  23  48  1   
 52  24  25  ar  
 53  24  49  1   
 54  25  50  1   
@<TRIPOS>SUBSTRUCTURE
  1 ****   6 GROUP 4 **** **** 0

# MOE 2024.06 (io_trps.svl 2023.06)
