@<TRIPOS>MOLECULE
NONAME
39 40 1 0 0 
SMALL
USER_CHARGES


@<TRIPOS>ATOM
  1 CL      -1.6050     3.1280     2.3570 Cl    1 <1>  -0.1770 
  2 C       -0.3090     2.9610     1.1920 C.ar  1 <1>   0.1770 
  3 C       -0.5920     2.6240    -0.1240 C.ar  1 <1>  -0.1440 
  4 C        0.9890     3.1720     1.6190 C.ar  1 <1>  -0.1500 
  5 C        0.4590     2.4960    -1.0200 C.ar  1 <1>  -0.1500 
  6 C       -2.0250     2.3810    -0.5780 C.3   1 <1>   0.0890 
  7 C        2.0300     3.0460     0.7150 C.ar  1 <1>  -0.1500 
  8 C        1.7620     2.7070    -0.6010 C.ar  1 <1>  -0.1500 
  9 S       -2.5590     0.6740    -0.3690 S.o2  1 <1>   1.3330 
 10 O       -2.1150     0.1080     0.8830 O.2   1 <1>  -0.6500 
 11 O       -2.3200    -0.0410    -1.6010 O.2   1 <1>  -0.6500 
 12 N       -4.2500     0.7820    -0.2150 N.am  1 <1>  -0.8490 
 13 C       -4.8790    -0.5030    -0.6080 C.3   1 <1>   0.1960 
 14 C       -4.6690     1.1390     1.1620 C.3   1 <1>   0.1960 
 15 C       -6.3990    -0.5670    -0.3120 C.3   1 <1>   0.3430 
 16 C       -6.2040     1.3080     1.2890 C.3   1 <1>   0.3430 
 17 N       -6.9470     0.7750     0.0880 N.4   1 <1>  -0.9590 
 18 C       -8.4240     0.7610     0.2450 C.3   1 <1>   0.3430 
 19 C       -8.9490     2.1910     0.2930 C.3   1 <1>  -0.2400 
 20 H        1.1800     3.4310     2.6450 H     1 <1>   0.1500 
 21 H        0.2750     2.2260    -2.0470 H     1 <1>   0.1500 
 22 H       -2.1180     2.6500    -1.6120 H     1 <1>   0.0800 
 23 H       -2.6750     3.0320    -0.0310 H     1 <1>   0.0800 
 24 H        3.0450     3.2070     1.0350 H     1 <1>   0.1500 
 25 H        2.5730     2.6050    -1.3020 H     1 <1>   0.1500 
 26 H       -4.3920    -1.3210    -0.1010 H     1 <1>   0.0800 
 27 H       -4.7320    -0.6580    -1.6650 H     1 <1>   0.0800 
 28 H       -4.1920     2.0540     1.4710 H     1 <1>   0.0800 
 29 H       -4.3540     0.3720     1.8520 H     1 <1>   0.0800 
 30 H       -6.5680    -1.2780     0.4790 H     1 <1>   0.0800 
 31 H       -6.9090    -0.9310    -1.1900 H     1 <1>   0.0800 
 32 H       -6.4250     2.3560     1.4100 H     1 <1>   0.0800 
 33 H       -6.5340     0.8040     2.1820 H     1 <1>   0.0800 
 34 H       -6.6960     1.4050    -0.6890 H     1 <1>   0.4500 
 35 H       -8.7000     0.2340     1.1450 H     1 <1>   0.0800 
 36 H       -8.8720     0.2540    -0.5950 H     1 <1>   0.0800 
 37 H       -8.6070     2.7080     1.1700 H     1 <1>   0.0800 
 38 H      -10.0240     2.1680     0.3290 H     1 <1>   0.0800 
 39 H       -8.6610     2.7360    -0.5880 H     1 <1>   0.0800 
@<TRIPOS>BOND
  1   1   2  1   
  2   2   3  ar  
  3   2   4  ar  
  4   3   5  ar  
  5   3   6  1   
  6   4   7  ar  
  7   4  20  1   
  8   5   8  ar  
  9   5  21  1   
 10   6   9  1   
 11   6  22  1   
 12   6  23  1   
 13   7   8  ar  
 14   7  24  1   
 15   8  25  1   
 16   9  10  2   
 17   9  11  2   
 18   9  12  am  
 19  12  13  1   
 20  12  14  1   
 21  13  15  1   
 22  13  26  1   
 23  13  27  1   
 24  14  16  1   
 25  14  28  1   
 26  14  29  1   
 27  15  17  1   
 28  15  30  1   
 29  15  31  1   
 30  16  17  1   
 31  16  32  1   
 32  16  33  1   
 33  17  18  1   
 34  17  34  1   
 35  18  19  1   
 36  18  35  1   
 37  18  36  1   
 38  19  37  1   
 39  19  38  1   
 40  19  39  1   
@<TRIPOS>SUBSTRUCTURE
  1 ****   9 GROUP 4 **** **** 0

# MOE 2024.06 (io_trps.svl 2023.06)
