@<TRIPOS>MOLECULE
NONAME
32 32 1 0 0 
SMALL
USER_CHARGES


@<TRIPOS>ATOM
  1 S      -12.0370     1.7200    -1.1930 S.3   1 <1>  -0.3310 
  2 C      -10.3600     1.6840    -0.5420 C.ar  1 <1>   0.1020 
  3 C      -13.0410     2.7630    -0.0460 C.3   1 <1>  -0.0100 
  4 C       -9.9900     2.3890     0.5920 C.ar  1 <1>  -0.1500 
  5 C       -9.4400     0.9140    -1.2270 C.ar  1 <1>  -0.1500 
  6 C       -8.6800     2.3210     1.0360 C.ar  1 <1>  -0.1500 
  7 C       -8.1320     0.8480    -0.7810 C.ar  1 <1>  -0.1500 
  8 C       -7.7460     1.5560     0.3490 C.ar  1 <1>  -0.1430 
  9 C       -6.3110     1.5050     0.8200 C.3   1 <1>   0.4860 
 10 N       -5.6080     2.5900     0.1090 N.4   1 <1>  -0.9060 
 11 C       -4.1630     2.6910     0.4700 C.3   1 <1>   0.3430 
 12 C       -3.4450     3.8490    -0.2530 C.3   1 <1>   0.2000 
 13 O       -2.1670     3.8920     0.2500 O.3   1 <1>  -0.6800 
 14 C       -4.0680     5.2240    -0.0050 C.3   1 <1>  -0.2400 
 15 H      -14.0500     2.7730    -0.4170 H     1 <1>   0.0800 
 16 H      -12.6260     3.7550    -0.0470 H     1 <1>   0.0800 
 17 H      -13.0000     2.3180     0.9320 H     1 <1>   0.0800 
 18 H      -10.7030     2.9830     1.1300 H     1 <1>   0.1500 
 19 H       -9.7540     0.3710    -2.1020 H     1 <1>   0.1500 
 20 H       -8.4090     2.8700     1.9220 H     1 <1>   0.1500 
 21 H       -7.4330     0.2360    -1.3270 H     1 <1>   0.1500 
 22 H       -5.8770     0.5470     0.5810 H     1 <1>   0.0800 
 23 H       -6.2650     1.6550     1.8870 H     1 <1>   0.0800 
 24 H       -6.0940     3.4690     0.3230 H     1 <1>   0.4500 
 25 H       -5.7300     2.4360    -0.8990 H     1 <1>   0.4500 
 26 H       -3.6590     1.7710     0.2230 H     1 <1>   0.0800 
 27 H       -4.0700     2.8530     1.5320 H     1 <1>   0.0800 
 28 H       -3.3720     3.6450    -1.3080 H     1 <1>   0.0800 
 29 H       -1.6520     4.6240    -0.1510 H     1 <1>   0.4000 
 30 H       -4.1270     5.4320     1.0500 H     1 <1>   0.0800 
 31 H       -5.0560     5.2790    -0.4240 H     1 <1>   0.0800 
 32 H       -3.4760     5.9900    -0.4770 H     1 <1>   0.0800 
@<TRIPOS>BOND
  1   1   2  1   
  2   1   3  1   
  3   2   4  ar  
  4   2   5  ar  
  5   3  15  1   
  6   3  16  1   
  7   3  17  1   
  8   4   6  ar  
  9   4  18  1   
 10   5   7  ar  
 11   5  19  1   
 12   6   8  ar  
 13   6  20  1   
 14   7   8  ar  
 15   7  21  1   
 16   8   9  1   
 17   9  10  1   
 18   9  22  1   
 19   9  23  1   
 20  10  11  1   
 21  10  24  1   
 22  10  25  1   
 23  11  12  1   
 24  11  26  1   
 25  11  27  1   
 26  12  13  1   
 27  12  14  1   
 28  12  28  1   
 29  13  29  1   
 30  14  30  1   
 31  14  31  1   
 32  14  32  1   
@<TRIPOS>SUBSTRUCTURE
  1 ****   8 GROUP 4 **** **** 0

# MOE 2024.06 (io_trps.svl 2023.06)
