@<TRIPOS>MOLECULE
NONAME
38 40 1 0 0 
SMALL
USER_CHARGES


@<TRIPOS>ATOM
  1 S        0.0910    -0.6440    -1.3970 S.3   1 <1>  -0.0800 
  2 C        0.2050    -1.4760     0.1610 C.2   1 <1>  -0.0450 
  3 C       -1.6230    -0.3480    -1.2000 C.2   1 <1>  -0.1100 
  4 C        1.4600    -2.0320     0.6110 C.2   1 <1>   0.7150 
  5 C       -1.0310    -1.4990     0.7240 C.2   1 <1>  -0.1500 
  6 C       -2.0560    -0.8610    -0.0350 C.2   1 <1>  -0.1500 
  7 O        1.4430    -3.0940     1.2090 O.2   1 <1>  -0.5700 
  8 N        2.6800    -1.4180     0.4200 N.am  1 <1>  -0.6600 
  9 C        3.9240    -2.2230     0.6320 C.3   1 <1>   0.2840 
 10 C        2.8200     0.0430     0.1350 C.3   1 <1>   0.1400 
 11 C        5.2170    -1.4650     0.3360 C.ar  1 <1>  -0.1430 
 12 C        4.0140     0.6500     0.8720 C.3   1 <1>  -0.0160 
 13 C        5.2760    -0.0870     0.4690 C.ar  1 <1>  -0.1430 
 14 C        6.3510    -2.1620    -0.0510 C.ar  1 <1>  -0.1500 
 15 C        6.4600     0.5890     0.2240 C.ar  1 <1>  -0.1500 
 16 C        7.5460    -1.4940    -0.3050 C.ar  1 <1>   0.0830 
 17 C        7.6020    -0.1050    -0.1630 C.ar  1 <1>   0.0830 
 18 O        8.6820    -2.1460    -0.6900 O.3   1 <1>  -0.3630 
 19 O        8.7900     0.5190    -0.4160 O.3   1 <1>  -0.3630 
 20 C        8.7130    -3.5420    -0.8800 C.3   1 <1>   0.0400 
 21 C        8.9440     1.9120    -0.2730 C.3   1 <1>   0.0400 
 22 H       -2.1320     0.1810    -1.9860 H     1 <1>   0.1500 
 23 H       -1.2510    -1.9650     1.6690 H     1 <1>   0.1500 
 24 H       -3.0690    -0.8190     0.3270 H     1 <1>   0.1500 
 25 H        3.8730    -3.0980     0.0070 H     1 <1>   0.0800 
 26 H        3.9490    -2.5530     1.6560 H     1 <1>   0.0800 
 27 H        1.9260     0.5640     0.4320 H     1 <1>   0.0800 
 28 H        2.9570     0.1750    -0.9250 H     1 <1>   0.0800 
 29 H        3.8660     0.5720     1.9340 H     1 <1>   0.0800 
 30 H        4.0920     1.6910     0.6180 H     1 <1>   0.0800 
 31 H        6.2880    -3.2280    -0.1480 H     1 <1>   0.1500 
 32 H        6.4760     1.6550     0.3370 H     1 <1>   0.1500 
 33 H        9.7060    -3.8120    -1.1890 H     1 <1>   0.0800 
 34 H        8.0070    -3.8060    -1.6460 H     1 <1>   0.0800 
 35 H        8.4760    -4.0260     0.0510 H     1 <1>   0.0800 
 36 H        9.9620     2.1590    -0.5160 H     1 <1>   0.0800 
 37 H        8.7360     2.1840     0.7460 H     1 <1>   0.0800 
 38 H        8.2760     2.4090    -0.9540 H     1 <1>   0.0800 
@<TRIPOS>BOND
  1   1   2  1   
  2   1   3  1   
  3   2   4  1   
  4   2   5  2   
  5   3   6  2   
  6   3  22  1   
  7   4   7  2   
  8   4   8  am  
  9   5   6  1   
 10   5  23  1   
 11   6  24  1   
 12   8   9  1   
 13   8  10  1   
 14   9  11  1   
 15   9  25  1   
 16   9  26  1   
 17  10  12  1   
 18  10  27  1   
 19  10  28  1   
 20  11  13  ar  
 21  11  14  ar  
 22  12  13  1   
 23  12  29  1   
 24  12  30  1   
 25  13  15  ar  
 26  14  16  ar  
 27  14  31  1   
 28  15  17  ar  
 29  15  32  1   
 30  16  17  ar  
 31  16  18  1   
 32  17  19  1   
 33  18  20  1   
 34  19  21  1   
 35  20  33  1   
 36  20  34  1   
 37  20  35  1   
 38  21  36  1   
 39  21  37  1   
 40  21  38  1   
@<TRIPOS>SUBSTRUCTURE
  1 ****  11 GROUP 4 **** **** 0

# MOE 2024.06 (io_trps.svl 2023.06)
