@<TRIPOS>MOLECULE
NONAME
47 49 1 0 0 
SMALL
USER_CHARGES


@<TRIPOS>ATOM
  1 S        0.3980    -0.1230    -0.0940 S.o2  1 <1>   1.3330 
  2 O        0.2640    -0.9550     1.0810 O.2   1 <1>  -0.6500 
  3 O        0.6660    -0.7360    -1.3760 O.2   1 <1>  -0.6500 
  4 N       -1.0160     0.8030    -0.2310 N.am  1 <1>  -0.8490 
  5 C        1.6560     1.1300     0.1980 C.3   1 <1>  -0.0550 
  6 C       -1.6180     1.0980     1.0740 C.3   1 <1>   0.1960 
  7 C       -1.9840     0.1920    -1.1470 C.3   1 <1>   0.1960 
  8 C        3.0820     0.5750     0.3640 C.3   1 <1>  -0.2400 
  9 C       -2.7880     2.0710     0.9140 C.3   1 <1>  -0.1600 
 10 C       -3.1780     1.1260    -1.3650 C.3   1 <1>  -0.1600 
 11 C       -3.8550     1.4920    -0.0330 C.3   1 <1>  -0.0190 
 12 C       -5.0300     2.4510    -0.2500 C.2   1 <1>   0.5690 
 13 O       -4.7680     3.6210    -0.4220 O.2   1 <1>  -0.5700 
 14 N       -6.3390     2.0150    -0.2210 N.am  1 <1>  -0.4770 
 15 C       -6.9060     0.7360    -0.0870 C.ar  1 <1>   0.1170 
 16 C       -7.4230     3.0160    -0.0170 C.3   1 <1>   0.2200 
 17 C       -8.1640     0.8100     0.4730 C.ar  1 <1>  -0.1440 
 18 C       -6.4100    -0.5090    -0.4590 C.ar  1 <1>  -0.1500 
 19 C       -8.5330     2.2500     0.7250 C.3   1 <1>  -0.0170 
 20 C       -7.8950     3.5260    -1.3820 C.3   1 <1>  -0.2400 
 21 C       -8.9240    -0.3170     0.7200 C.ar  1 <1>  -0.1500 
 22 C       -7.1590    -1.6500    -0.2170 C.ar  1 <1>  -0.1500 
 23 C       -8.4090    -1.5560     0.3760 C.ar  1 <1>  -0.1500 
 24 H        1.4010     1.6820     1.0810 H     1 <1>   0.0800 
 25 H        1.6500     1.8180    -0.6250 H     1 <1>   0.0800 
 26 H       -0.8820     1.5410     1.7230 H     1 <1>   0.0800 
 27 H       -1.9630     0.1860     1.5350 H     1 <1>   0.0800 
 28 H       -2.3140    -0.7550    -0.7510 H     1 <1>   0.0800 
 29 H       -1.5200     0.0120    -2.1030 H     1 <1>   0.0800 
 30 H        3.1210    -0.1020     1.2010 H     1 <1>   0.0800 
 31 H        3.7780     1.3770     0.5320 H     1 <1>   0.0800 
 32 H        3.3760     0.0400    -0.5230 H     1 <1>   0.0800 
 33 H       -2.4140     3.0040     0.5280 H     1 <1>   0.0800 
 34 H       -3.2280     2.2650     1.8760 H     1 <1>   0.0800 
 35 H       -3.8840     0.6570    -2.0250 H     1 <1>   0.0800 
 36 H       -2.8300     2.0220    -1.8500 H     1 <1>   0.0800 
 37 H       -4.2190     0.6000     0.4370 H     1 <1>   0.0800 
 38 H       -7.0700     3.8370     0.5840 H     1 <1>   0.0800 
 39 H       -5.4610    -0.6020    -0.9430 H     1 <1>   0.1500 
 40 H       -9.5120     2.4870     0.3500 H     1 <1>   0.0800 
 41 H       -8.4890     2.4620     1.7780 H     1 <1>   0.0800 
 42 H       -8.2430     2.7110    -1.9920 H     1 <1>   0.0800 
 43 H       -7.0860     4.0240    -1.8860 H     1 <1>   0.0800 
 44 H       -8.6960     4.2310    -1.2550 H     1 <1>   0.0800 
 45 H       -9.9000    -0.2350     1.1660 H     1 <1>   0.1500 
 46 H       -6.7720    -2.6150    -0.4940 H     1 <1>   0.1500 
 47 H       -8.9840    -2.4470     0.5630 H     1 <1>   0.1500 
@<TRIPOS>BOND
  1   1   2  2   
  2   1   3  2   
  3   1   4  am  
  4   1   5  1   
  5   4   6  1   
  6   4   7  1   
  7   5   8  1   
  8   5  24  1   
  9   5  25  1   
 10   6   9  1   
 11   6  26  1   
 12   6  27  1   
 13   7  10  1   
 14   7  28  1   
 15   7  29  1   
 16   8  30  1   
 17   8  31  1   
 18   8  32  1   
 19   9  11  1   
 20   9  33  1   
 21   9  34  1   
 22  10  11  1   
 23  10  35  1   
 24  10  36  1   
 25  11  12  1   
 26  11  37  1   
 27  12  13  2   
 28  12  14  am  
 29  14  15  1   
 30  14  16  1   
 31  15  17  ar  
 32  15  18  ar  
 33  16  19  1   
 34  16  20  1   
 35  16  38  1   
 36  17  19  1   
 37  17  21  ar  
 38  18  22  ar  
 39  18  39  1   
 40  19  40  1   
 41  19  41  1   
 42  20  42  1   
 43  20  43  1   
 44  20  44  1   
 45  21  23  ar  
 46  21  45  1   
 47  22  23  ar  
 48  22  46  1   
 49  23  47  1   
@<TRIPOS>SUBSTRUCTURE
  1 ****  11 GROUP 4 **** **** 0

# MOE 2024.06 (io_trps.svl 2023.06)
