@<TRIPOS>MOLECULE
NONAME
47 50 1 0 0 
SMALL
USER_CHARGES


@<TRIPOS>ATOM
  1 O        1.0270    -0.2550     2.4300 O.2   1 <1>  -0.5700 
  2 C        0.6270    -1.2150     1.7870 C.2   1 <1>   0.7670 
  3 N       -0.6700    -1.5860     2.0310 N.2   1 <1>  -0.6610 
  4 C        1.4490    -1.9360     0.8610 C.2   1 <1>  -0.1240 
  5 C       -1.1020    -2.6460     1.4630 C.2   1 <1>   0.4390 
  6 C        0.9550    -3.0900     0.3230 C.2   1 <1>   0.0720 
  7 C        2.8810    -1.4920     0.4820 C.3   1 <1>   0.1380 
  8 N       -0.3390    -3.4050     0.6410 N.pl3 1 <1>  -0.5500 
  9 C       -2.5340    -3.1360     1.6850 C.3   1 <1>   0.1710 
 10 C        1.7180    -3.9730    -0.5330 C.ar  1 <1>   0.0280 
 11 C        3.2400    -2.0230    -0.9290 C.3   1 <1>  -0.0170 
 12 C        3.8550    -2.0750     1.5180 C.3   1 <1>  -0.2400 
 13 C        3.0810     0.0360     0.4220 C.3   1 <1>  -0.2400 
 14 N       -3.0560    -3.9450     0.5460 N.3   1 <1>  -0.8100 
 15 C        2.8680    -3.4820    -1.1460 C.ar  1 <1>  -0.1430 
 16 C        1.3770    -5.3070    -0.7550 C.ar  1 <1>  -0.1500 
 17 C       -4.2760    -4.6770     0.9410 C.3   1 <1>   0.1100 
 18 C       -3.3700    -3.0810    -0.6160 C.3   1 <1>   0.1100 
 19 C        3.6450    -4.2940    -1.9540 C.ar  1 <1>  -0.1500 
 20 C        2.1510    -6.1190    -1.5640 C.ar  1 <1>  -0.1500 
 21 C       -4.8690    -5.4500    -0.2510 C.3   1 <1>   0.1200 
 22 C       -3.9890    -3.8970    -1.7640 C.3   1 <1>   0.1200 
 23 C        3.2880    -5.6130    -2.1640 C.ar  1 <1>  -0.1500 
 24 O       -5.1240    -4.5840    -1.3190 O.3   1 <1>  -0.5600 
 25 H       -0.8350    -4.1920     0.2060 H     1 <1>   0.4000 
 26 H       -3.1750    -2.2910     1.8680 H     1 <1>   0.0800 
 27 H       -2.5260    -3.7420     2.5730 H     1 <1>   0.0800 
 28 H        4.2910    -1.8850    -1.1130 H     1 <1>   0.0800 
 29 H        2.7050    -1.4480    -1.6650 H     1 <1>   0.0800 
 30 H        3.7840    -3.1490     1.5420 H     1 <1>   0.0800 
 31 H        3.6210    -1.7000     2.4990 H     1 <1>   0.0800 
 32 H        4.8690    -1.8060     1.2840 H     1 <1>   0.0800 
 33 H        2.2920     0.4970    -0.1460 H     1 <1>   0.0800 
 34 H        4.0210     0.2800    -0.0400 H     1 <1>   0.0800 
 35 H        3.0940     0.4720     1.4040 H     1 <1>   0.0800 
 36 H        0.5060    -5.7260    -0.2870 H     1 <1>   0.1500 
 37 H       -5.0170    -3.9900     1.3130 H     1 <1>   0.0800 
 38 H       -4.0380    -5.3730     1.7270 H     1 <1>   0.0800 
 39 H       -2.4730    -2.6030    -0.9710 H     1 <1>   0.0800 
 40 H       -4.0640    -2.3100    -0.3270 H     1 <1>   0.0800 
 41 H        4.5310    -3.9050    -2.4260 H     1 <1>   0.1500 
 42 H        1.8720    -7.1460    -1.7240 H     1 <1>   0.1500 
 43 H       -5.8000    -5.9100     0.0280 H     1 <1>   0.0800 
 44 H       -4.1890    -6.2150    -0.5820 H     1 <1>   0.0800 
 45 H       -3.2810    -4.6120    -2.1460 H     1 <1>   0.0800 
 46 H       -4.2930    -3.2460    -2.5640 H     1 <1>   0.0800 
 47 H        3.8940    -6.2430    -2.7930 H     1 <1>   0.1500 
@<TRIPOS>BOND
  1   1   2  2   
  2   2   3  1   
  3   2   4  1   
  4   3   5  2   
  5   4   6  2   
  6   4   7  1   
  7   5   8  1   
  8   5   9  1   
  9   6   8  1   
 10   6  10  1   
 11   7  11  1   
 12   7  12  1   
 13   7  13  1   
 14   8  25  1   
 15   9  14  1   
 16   9  26  1   
 17   9  27  1   
 18  10  15  ar  
 19  10  16  ar  
 20  11  15  1   
 21  11  28  1   
 22  11  29  1   
 23  12  30  1   
 24  12  31  1   
 25  12  32  1   
 26  13  33  1   
 27  13  34  1   
 28  13  35  1   
 29  14  17  1   
 30  14  18  1   
 31  15  19  ar  
 32  16  20  ar  
 33  16  36  1   
 34  17  21  1   
 35  17  37  1   
 36  17  38  1   
 37  18  22  1   
 38  18  39  1   
 39  18  40  1   
 40  19  23  ar  
 41  19  41  1   
 42  20  23  ar  
 43  20  42  1   
 44  21  24  1   
 45  21  43  1   
 46  21  44  1   
 47  22  24  1   
 48  22  45  1   
 49  22  46  1   
 50  23  47  1   
@<TRIPOS>SUBSTRUCTURE
  1 ****   8 GROUP 4 **** **** 0

# MOE 2024.06 (io_trps.svl 2023.06)
