@<TRIPOS>MOLECULE
NONAME
36 38 1 0 0 
SMALL
USER_CHARGES


@<TRIPOS>ATOM
  1 S       -0.6090    -0.6720    -1.5910 S.3   1 <1>  -0.0800 
  2 C       -1.6580     0.6320    -1.0220 C.2   1 <1>  -0.0450 
  3 C        0.6010     0.4530    -2.1740 C.2   1 <1>  -0.1100 
  4 C       -2.9040     0.2950    -0.4000 C.2   1 <1>   0.4740 
  5 C       -1.0540     1.8200    -1.2970 C.2   1 <1>  -0.1500 
  6 C        0.2120     1.7190    -1.9420 C.2   1 <1>  -0.1500 
  7 N       -3.3880    -0.8650    -0.1940 N.2   1 <1>  -0.5120 
  8 C       -3.8030     1.4000     0.0890 C.3   1 <1>  -0.0990 
  9 N       -4.6180    -0.7830     0.4210 N.am  1 <1>  -0.2980 
 10 C       -4.9890     0.6290     0.6520 C.3   1 <1>   0.4010 
 11 C       -5.4100    -1.8630     0.7930 C.2   1 <1>   0.5690 
 12 C       -6.2910     1.0300    -0.0370 C.2   1 <1>  -0.1810 
 13 O       -5.1170    -3.0090     0.5490 O.2   1 <1>  -0.5700 
 14 C       -6.7060    -1.6480     1.5490 C.3   1 <1>  -0.1790 
 15 C       -7.3120     1.7440     0.4930 C.2   1 <1>  -0.0400 
 16 C       -6.6870     0.7370    -1.3570 C.2   1 <1>  -0.1810 
 17 O       -8.2740     1.9030    -0.3900 O.3   1 <1>  -0.2800 
 18 C       -7.5220     2.3620     1.8600 C.3   1 <1>  -0.0600 
 19 C       -7.9040     1.3010    -1.4990 C.2   1 <1>  -0.0100 
 20 C       -5.9210    -0.0540    -2.4030 C.3   1 <1>  -0.0590 
 21 H        1.4830     0.0400    -2.6320 H     1 <1>   0.1500 
 22 H       -1.4630     2.7880    -1.0640 H     1 <1>   0.1500 
 23 H        0.7770     2.5980    -2.2040 H     1 <1>   0.1500 
 24 H       -4.0950     2.0420    -0.7220 H     1 <1>   0.0800 
 25 H       -3.3220     1.9740     0.8580 H     1 <1>   0.0800 
 26 H       -5.0550     0.7950     1.7120 H     1 <1>   0.0800 
 27 H       -7.4590    -1.2760     0.8800 H     1 <1>   0.0800 
 28 H       -6.5650    -0.9620     2.3610 H     1 <1>   0.0800 
 29 H       -7.0450    -2.5850     1.9510 H     1 <1>   0.0800 
 30 H       -6.6800     2.1910     2.5010 H     1 <1>   0.0800 
 31 H       -8.3990     1.9370     2.3140 H     1 <1>   0.0800 
 32 H       -7.6700     3.4220     1.7550 H     1 <1>   0.0800 
 33 H       -8.5700     1.3210    -2.3440 H     1 <1>   0.1500 
 34 H       -4.9590     0.3900    -2.5820 H     1 <1>   0.0800 
 35 H       -6.4660    -0.0720    -3.3290 H     1 <1>   0.0800 
 36 H       -5.7790    -1.0690    -2.0760 H     1 <1>   0.0800 
@<TRIPOS>BOND
  1   1   2  1   
  2   1   3  1   
  3   2   4  1   
  4   2   5  2   
  5   3   6  2   
  6   3  21  1   
  7   4   7  2   
  8   4   8  1   
  9   5   6  1   
 10   5  22  1   
 11   6  23  1   
 12   7   9  1   
 13   8  10  1   
 14   8  24  1   
 15   8  25  1   
 16   9  10  1   
 17   9  11  am  
 18  10  12  1   
 19  10  26  1   
 20  11  13  2   
 21  11  14  1   
 22  12  15  2   
 23  12  16  1   
 24  14  27  1   
 25  14  28  1   
 26  14  29  1   
 27  15  17  1   
 28  15  18  1   
 29  16  19  2   
 30  16  20  1   
 31  17  19  1   
 32  18  30  1   
 33  18  31  1   
 34  18  32  1   
 35  19  33  1   
 36  20  34  1   
 37  20  35  1   
 38  20  36  1   
@<TRIPOS>SUBSTRUCTURE
  1 ****  10 GROUP 4 **** **** 0

# MOE 2024.06 (io_trps.svl 2023.06)
