@<TRIPOS>MOLECULE
NONAME
48 49 1 0 0 
SMALL
USER_CHARGES


@<TRIPOS>ATOM
  1 O        6.4800     4.5360     1.1060 O.2   1 <1>  -0.5700 
  2 C        6.7720     3.6660     0.3270 C.2   1 <1>   0.6590 
  3 O        8.0210     3.4080    -0.0240 O.3   1 <1>  -0.4300 
  4 C        5.7080     2.7930    -0.3160 C.3   1 <1>  -0.0190 
  5 C        9.1040     4.1380     0.5060 C.3   1 <1>   0.1200 
  6 C        4.3350     3.4830    -0.1960 C.3   1 <1>   0.3430 
  7 C        5.6920     1.3720     0.2820 C.3   1 <1>  -0.1600 
  8 C       10.3890     3.5820    -0.1000 C.3   1 <1>  -0.2400 
  9 N        3.1930     2.5110    -0.0420 N.4   1 <1>  -0.9590 
 10 C        4.5990     0.5060    -0.3740 C.3   1 <1>  -0.1600 
 11 C        3.3880     1.2980    -0.8880 C.3   1 <1>   0.3430 
 12 C        1.8880     3.2070    -0.3010 C.3   1 <1>   0.3430 
 13 C        0.6730     2.3870     0.1430 C.3   1 <1>   0.1200 
 14 O       -0.4720     3.1420    -0.1660 O.3   1 <1>  -0.3630 
 15 C       -1.7200     2.6730     0.0900 C.ar  1 <1>   0.0820 
 16 C       -2.7780     3.4720    -0.3100 C.ar  1 <1>  -0.1500 
 17 C       -1.9780     1.4580     0.7190 C.ar  1 <1>  -0.1500 
 18 C       -4.0860     3.0760    -0.0950 C.ar  1 <1>   0.0820 
 19 C       -3.2850     1.0570     0.9370 C.ar  1 <1>  -0.1500 
 20 O       -5.0580     3.9210    -0.5220 O.3   1 <1>  -0.3630 
 21 C       -4.3390     1.8590     0.5330 C.ar  1 <1>  -0.1500 
 22 C       -6.4240     3.6150    -0.3490 C.3   1 <1>   0.0400 
 23 H        5.9540     2.7230    -1.3600 H     1 <1>   0.0800 
 24 H        9.1030     4.0250     1.5770 H     1 <1>   0.0800 
 25 H        8.9760     5.1770     0.2520 H     1 <1>   0.0800 
 26 H        4.1840     4.0950    -1.0700 H     1 <1>   0.0800 
 27 H        4.3360     4.1410     0.6590 H     1 <1>   0.0800 
 28 H        5.5100     1.4410     1.3420 H     1 <1>   0.0800 
 29 H        6.6550     0.9020     0.1530 H     1 <1>   0.0800 
 30 H       10.5020     2.5430     0.1540 H     1 <1>   0.0800 
 31 H       11.2340     4.1210     0.2880 H     1 <1>   0.0800 
 32 H       10.3760     3.6930    -1.1690 H     1 <1>   0.0800 
 33 H        3.2070     2.2010     0.9400 H     1 <1>   0.4500 
 34 H        4.2680    -0.2390     0.3290 H     1 <1>   0.0800 
 35 H        5.0200    -0.0270    -1.2100 H     1 <1>   0.0800 
 36 H        3.5610     1.5990    -1.9090 H     1 <1>   0.0800 
 37 H        2.5130     0.6680    -0.8670 H     1 <1>   0.0800 
 38 H        1.7960     3.4230    -1.3530 H     1 <1>   0.0800 
 39 H        1.8700     4.1420     0.2370 H     1 <1>   0.0800 
 40 H        0.6860     2.2220     1.2060 H     1 <1>   0.0800 
 41 H        0.6060     1.4570    -0.3940 H     1 <1>   0.0800 
 42 H       -2.5880     4.4110    -0.7950 H     1 <1>   0.1500 
 43 H       -1.1890     0.8100     1.0480 H     1 <1>   0.1500 
 44 H       -3.4870     0.1180     1.4230 H     1 <1>   0.1500 
 45 H       -5.3420     1.5230     0.7150 H     1 <1>   0.1500 
 46 H       -7.0010     4.4240    -0.7600 H     1 <1>   0.0800 
 47 H       -6.6300     3.5160     0.7020 H     1 <1>   0.0800 
 48 H       -6.6470     2.7040    -0.8750 H     1 <1>   0.0800 
@<TRIPOS>BOND
  1   1   2  2   
  2   2   3  1   
  3   2   4  1   
  4   3   5  1   
  5   4   6  1   
  6   4   7  1   
  7   4  23  1   
  8   5   8  1   
  9   5  24  1   
 10   5  25  1   
 11   6   9  1   
 12   6  26  1   
 13   6  27  1   
 14   7  10  1   
 15   7  28  1   
 16   7  29  1   
 17   8  30  1   
 18   8  31  1   
 19   8  32  1   
 20   9  11  1   
 21   9  12  1   
 22   9  33  1   
 23  10  11  1   
 24  10  34  1   
 25  10  35  1   
 26  11  36  1   
 27  11  37  1   
 28  12  13  1   
 29  12  38  1   
 30  12  39  1   
 31  13  14  1   
 32  13  40  1   
 33  13  41  1   
 34  14  15  1   
 35  15  16  ar  
 36  15  17  ar  
 37  16  18  ar  
 38  16  42  1   
 39  17  19  ar  
 40  17  43  1   
 41  18  20  1   
 42  18  21  ar  
 43  19  21  ar  
 44  19  44  1   
 45  20  22  1   
 46  21  45  1   
 47  22  46  1   
 48  22  47  1   
 49  22  48  1   
@<TRIPOS>SUBSTRUCTURE
  1 ****  12 GROUP 4 **** **** 0

# MOE 2024.06 (io_trps.svl 2023.06)
