@<TRIPOS>MOLECULE
NONAME
41 41 1 0 0 
SMALL
USER_CHARGES


@<TRIPOS>ATOM
  1 O        4.0520    -5.4010    -0.0510 O.3   1 <1>  -0.3630 
  2 C        5.4090    -5.4180     0.0360 C.ar  1 <1>   0.0830 
  3 C        3.3130    -6.5770    -0.2520 C.3   1 <1>   0.1200 
  4 C        6.0550    -4.2020     0.2310 C.ar  1 <1>  -0.1440 
  5 C        6.1580    -6.5900    -0.0610 C.ar  1 <1>  -0.1500 
  6 C        1.8390    -6.1760    -0.2960 C.3   1 <1>   0.3430 
  7 C        7.4360    -4.1740     0.3260 C.ar  1 <1>  -0.1500 
  8 C        5.2700    -2.9020     0.3420 C.3   1 <1>  -0.0960 
  9 C        7.5410    -6.5600     0.0340 C.ar  1 <1>  -0.1440 
 10 N        0.9510    -7.3550    -0.5140 N.4   1 <1>  -0.9060 
 11 C        8.1720    -5.3410     0.2280 C.ar  1 <1>  -0.1500 
 12 C        8.3750    -7.8360    -0.0700 C.3   1 <1>   0.0630 
 13 C       -0.4740    -6.9960    -0.5340 C.3   1 <1>   0.4810 
 14 C        8.1920    -8.5000    -1.4380 C.3   1 <1>  -0.2400 
 15 C        8.0290    -8.8100     1.0600 C.3   1 <1>  -0.2400 
 16 C       -1.2180    -8.3020    -0.6420 C.2   1 <1>  -0.2880 
 17 C       -1.9150    -8.8760     0.3440 C.2   1 <1>  -0.3000 
 18 H        3.5120    -7.2390     0.5730 H     1 <1>   0.0800 
 19 H        3.6280    -7.0120    -1.1850 H     1 <1>   0.0800 
 20 H        5.6870    -7.5390    -0.2100 H     1 <1>   0.1500 
 21 H        1.7020    -5.4640    -1.0950 H     1 <1>   0.0800 
 22 H        1.5860    -5.6980     0.6360 H     1 <1>   0.0800 
 23 H        7.9520    -3.2420     0.4760 H     1 <1>   0.1500 
 24 H        4.7070    -2.7380    -0.5590 H     1 <1>   0.0800 
 25 H        5.9260    -2.0640     0.4910 H     1 <1>   0.0800 
 26 H        4.5910    -2.9560     1.1740 H     1 <1>   0.0800 
 27 H        1.0690    -8.0500     0.2340 H     1 <1>   0.4500 
 28 H        1.1750    -7.8300    -1.3970 H     1 <1>   0.4500 
 29 H        9.2440    -5.2900     0.3050 H     1 <1>   0.1500 
 30 H        9.4160    -7.5770     0.0300 H     1 <1>   0.0800 
 31 H       -0.7060    -6.3540    -1.3700 H     1 <1>   0.0800 
 32 H       -0.7460    -6.4960     0.3820 H     1 <1>   0.0800 
 33 H        7.1790    -8.8320    -1.5740 H     1 <1>   0.0800 
 34 H        8.8460    -9.3480    -1.5300 H     1 <1>   0.0800 
 35 H        8.4310    -7.7990    -2.2180 H     1 <1>   0.0800 
 36 H        7.0130    -9.1490     0.9820 H     1 <1>   0.0800 
 37 H        8.1570    -8.3240     2.0110 H     1 <1>   0.0800 
 38 H        8.6800    -9.6660     1.0250 H     1 <1>   0.0800 
 39 H       -1.1450    -8.7500    -1.6210 H     1 <1>   0.1500 
 40 H       -2.4440    -9.8110     0.2370 H     1 <1>   0.1500 
 41 H       -2.0330    -8.4770     1.3390 H     1 <1>   0.1500 
@<TRIPOS>BOND
  1   1   2  1   
  2   1   3  1   
  3   2   4  ar  
  4   2   5  ar  
  5   3   6  1   
  6   3  18  1   
  7   3  19  1   
  8   4   7  ar  
  9   4   8  1   
 10   5   9  ar  
 11   5  20  1   
 12   6  10  1   
 13   6  21  1   
 14   6  22  1   
 15   7  11  ar  
 16   7  23  1   
 17   8  24  1   
 18   8  25  1   
 19   8  26  1   
 20   9  11  ar  
 21   9  12  1   
 22  10  13  1   
 23  10  27  1   
 24  10  28  1   
 25  11  29  1   
 26  12  14  1   
 27  12  15  1   
 28  12  30  1   
 29  13  16  1   
 30  13  31  1   
 31  13  32  1   
 32  14  33  1   
 33  14  34  1   
 34  14  35  1   
 35  15  36  1   
 36  15  37  1   
 37  15  38  1   
 38  16  17  2   
 39  16  39  1   
 40  17  40  1   
 41  17  41  1   
@<TRIPOS>SUBSTRUCTURE
  1 ****   1 GROUP 4 **** **** 0

# MOE 2024.06 (io_trps.svl 2023.06)
