@<TRIPOS>MOLECULE
NONAME
42 43 1 0 0 
SMALL
USER_CHARGES


@<TRIPOS>ATOM
  1 O        0.3260    -0.4360    -0.3080 O.2   1 <1>  -0.5700 
  2 C        0.3120    -1.6110    -0.5870 C.2   1 <1>   0.5690 
  3 N        1.2630    -2.1590    -1.3840 N.am  1 <1>  -0.7300 
  4 C       -0.7830    -2.5170    -0.0260 C.3   1 <1>  -0.0190 
  5 C        2.4320    -1.4280    -1.9610 C.3   1 <1>   0.2010 
  6 C       -2.1900    -1.9950    -0.3780 C.3   1 <1>  -0.1600 
  7 C       -0.6340    -2.6850     1.4990 C.3   1 <1>  -0.1600 
  8 C        3.7630    -2.1000    -1.6070 C.2   1 <1>   0.5690 
  9 C       -3.2880    -2.8980     0.2000 C.3   1 <1>  -0.1600 
 10 C       -1.7340    -3.5870     2.0780 C.3   1 <1>  -0.1600 
 11 O        3.9950    -3.1900    -2.0710 O.2   1 <1>  -0.5700 
 12 N        4.6920    -1.5100    -0.8050 N.am  1 <1>  -0.5470 
 13 C       -3.1290    -3.0610     1.7170 C.3   1 <1>  -0.1600 
 14 C        4.6720    -0.2960    -0.1110 C.ar  1 <1>   0.1170 
 15 C        5.7700     0.5520    -0.1880 C.ar  1 <1>  -0.1500 
 16 C        3.5900     0.0810     0.6750 C.ar  1 <1>  -0.1500 
 17 C        5.7870     1.7610     0.4870 C.ar  1 <1>  -0.1440 
 18 C        3.5970     1.2870     1.3490 C.ar  1 <1>  -0.1500 
 19 C        4.6940     2.1260     1.2560 C.ar  1 <1>  -0.1500 
 20 C        6.9860     2.6880     0.3970 C.3   1 <1>  -0.0970 
 21 H        1.2690    -3.1660    -1.5610 H     1 <1>   0.3700 
 22 H       -0.6740    -3.4870    -0.4760 H     1 <1>   0.0800 
 23 H        2.4310    -0.4040    -1.6360 H     1 <1>   0.0800 
 24 H        2.3370    -1.4240    -3.0320 H     1 <1>   0.0800 
 25 H       -2.2950    -1.9370    -1.4480 H     1 <1>   0.0800 
 26 H       -2.3070    -0.9990     0.0160 H     1 <1>   0.0800 
 27 H       -0.6870    -1.7170     1.9670 H     1 <1>   0.0800 
 28 H        0.3310    -3.1050     1.7230 H     1 <1>   0.0800 
 29 H       -3.2410    -3.8660    -0.2710 H     1 <1>   0.0800 
 30 H       -4.2530    -2.4730    -0.0170 H     1 <1>   0.0800 
 31 H       -1.6330    -3.6340     3.1490 H     1 <1>   0.0800 
 32 H       -1.6180    -4.5860     1.6920 H     1 <1>   0.0800 
 33 H        5.5530    -2.0520    -0.7370 H     1 <1>   0.3700 
 34 H       -3.8780    -3.7390     2.0880 H     1 <1>   0.0800 
 35 H       -3.2820    -2.1080     2.1940 H     1 <1>   0.0800 
 36 H        6.6120     0.2610    -0.7880 H     1 <1>   0.1500 
 37 H        2.7360    -0.5660     0.7660 H     1 <1>   0.1500 
 38 H        2.7480     1.5720     1.9460 H     1 <1>   0.1500 
 39 H        4.6920     3.0630     1.7850 H     1 <1>   0.1500 
 40 H        7.6870     2.3410    -0.3410 H     1 <1>   0.0800 
 41 H        7.4830     2.7340     1.3490 H     1 <1>   0.0800 
 42 H        6.6660     3.6770     0.1240 H     1 <1>   0.0800 
@<TRIPOS>BOND
  1   1   2  2   
  2   2   3  am  
  3   2   4  1   
  4   3   5  1   
  5   3  21  1   
  6   4   6  1   
  7   4   7  1   
  8   4  22  1   
  9   5   8  1   
 10   5  23  1   
 11   5  24  1   
 12   6   9  1   
 13   6  25  1   
 14   6  26  1   
 15   7  10  1   
 16   7  27  1   
 17   7  28  1   
 18   8  11  2   
 19   8  12  am  
 20   9  13  1   
 21   9  29  1   
 22   9  30  1   
 23  10  13  1   
 24  10  31  1   
 25  10  32  1   
 26  12  14  1   
 27  12  33  1   
 28  13  34  1   
 29  13  35  1   
 30  14  15  ar  
 31  14  16  ar  
 32  15  17  ar  
 33  15  36  1   
 34  16  18  ar  
 35  16  37  1   
 36  17  19  ar  
 37  17  20  1   
 38  18  19  ar  
 39  18  38  1   
 40  19  39  1   
 41  20  40  1   
 42  20  41  1   
 43  20  42  1   
@<TRIPOS>SUBSTRUCTURE
  1 ****   1 GROUP 4 **** **** 0

# MOE 2024.06 (io_trps.svl 2023.06)
