@<TRIPOS>MOLECULE
NONAME
47 50 1 0 0 
SMALL
USER_CHARGES


@<TRIPOS>ATOM
  1 F        0.0430     0.6200    -0.4410 F     1 <1>  -0.3400 
  2 C       -1.1720     0.7240    -0.9660 C.3   1 <1>   1.1580 
  3 F       -1.8980    -0.2120    -0.3690 F     1 <1>  -0.3400 
  4 F       -1.0420     0.3760    -2.2390 F     1 <1>  -0.3400 
  5 C       -1.7240     2.1200    -0.7770 C.2   1 <1>  -0.1690 
  6 N       -2.9830     2.3380    -1.2760 N.pl3 1 <1>   0.6010 
  7 C       -1.0940     3.1660    -0.1700 C.2   1 <1>  -0.1360 
  8 N       -3.8080     1.4970    -1.9250 N.2   1 <1>  -0.7070 
  9 C       -3.5520     3.5820    -1.1390 C.2   1 <1>  -0.0260 
 10 C       -1.7270     4.4400    -0.0560 C.2   1 <1>   0.3490 
 11 C       -4.8610     2.2090    -2.1980 C.2   1 <1>   0.1390 
 12 N       -2.9270     4.6390    -0.5320 N.2   1 <1>  -0.5760 
 13 C       -4.7900     3.5160    -1.7310 C.2   1 <1>  -0.0860 
 14 C       -1.0430     5.5310     0.6000 C.ar  1 <1>   0.0860 
 15 C       -5.8110     4.5070    -1.9140 C.2   1 <1>   0.7160 
 16 C       -0.5290     5.4010     1.8900 C.ar  1 <1>  -0.1500 
 17 C       -0.8900     6.7620    -0.0380 C.ar  1 <1>  -0.1500 
 18 O       -6.4350     4.5260    -2.9580 O.2   1 <1>  -0.5700 
 19 N       -6.1290     5.4590    -0.9620 N.am  1 <1>  -0.6600 
 20 C        0.1080     6.4570     2.5170 C.ar  1 <1>  -0.1500 
 21 C       -0.2530     7.8200     0.5830 C.ar  1 <1>  -0.1500 
 22 C       -5.7910     5.3480     0.4880 C.3   1 <1>   0.1400 
 23 C       -6.7720     6.7520    -1.3420 C.3   1 <1>   0.1400 
 24 C        0.2460     7.6690     1.8640 C.ar  1 <1>  -0.1500 
 25 C       -4.9250     6.5440     0.9350 C.3   1 <1>   0.3430 
 26 C       -5.8970     7.9360    -0.8870 C.3   1 <1>   0.3430 
 27 N       -5.5520     7.8680     0.5810 N.4   1 <1>  -0.9590 
 28 C       -4.6460     8.9910     0.9690 C.3   1 <1>   0.2630 
 29 H       -0.1010     3.0730     0.2380 H     1 <1>   0.1500 
 30 H       -5.7090     1.8180    -2.7400 H     1 <1>   0.1500 
 31 H       -0.6300     4.4670     2.4140 H     1 <1>   0.1500 
 32 H       -1.2700     6.8820    -1.0390 H     1 <1>   0.1500 
 33 H        0.5010     6.3390     3.5130 H     1 <1>   0.1500 
 34 H       -0.1340     8.7600     0.0700 H     1 <1>   0.1500 
 35 H       -5.2730     4.4280     0.6920 H     1 <1>   0.0800 
 36 H       -6.7020     5.3310     1.0600 H     1 <1>   0.0800 
 37 H       -7.7470     6.8140    -0.8900 H     1 <1>   0.0800 
 38 H       -6.9050     6.8090    -2.4100 H     1 <1>   0.0800 
 39 H        0.7480     8.4900     2.3500 H     1 <1>   0.1500 
 40 H       -3.9630     6.4690     0.4590 H     1 <1>   0.0800 
 41 H       -4.7670     6.4840     1.9990 H     1 <1>   0.0800 
 42 H       -6.4130     8.8570    -1.1010 H     1 <1>   0.0800 
 43 H       -4.9900     7.9240    -1.4700 H     1 <1>   0.0800 
 44 H       -6.4310     7.9500     1.1120 H     1 <1>   0.4500 
 45 H       -3.7140     8.9220     0.4300 H     1 <1>   0.0800 
 46 H       -4.4340     8.9530     2.0250 H     1 <1>   0.0800 
 47 H       -5.1050     9.9400     0.7450 H     1 <1>   0.0800 
@<TRIPOS>BOND
  1   1   2  1   
  2   2   3  1   
  3   2   4  1   
  4   2   5  1   
  5   5   6  1   
  6   5   7  2   
  7   6   8  1   
  8   6   9  1   
  9   7  10  1   
 10   7  29  1   
 11   8  11  2   
 12   9  12  1   
 13   9  13  2   
 14  10  12  2   
 15  10  14  1   
 16  11  13  1   
 17  11  30  1   
 18  13  15  1   
 19  14  16  ar  
 20  14  17  ar  
 21  15  18  2   
 22  15  19  am  
 23  16  20  ar  
 24  16  31  1   
 25  17  21  ar  
 26  17  32  1   
 27  19  22  1   
 28  19  23  1   
 29  20  24  ar  
 30  20  33  1   
 31  21  24  ar  
 32  21  34  1   
 33  22  25  1   
 34  22  35  1   
 35  22  36  1   
 36  23  26  1   
 37  23  37  1   
 38  23  38  1   
 39  24  39  1   
 40  25  27  1   
 41  25  40  1   
 42  25  41  1   
 43  26  27  1   
 44  26  42  1   
 45  26  43  1   
 46  27  28  1   
 47  27  44  1   
 48  28  45  1   
 49  28  46  1   
 50  28  47  1   
@<TRIPOS>SUBSTRUCTURE
  1 ****  12 GROUP 4 **** **** 0

# MOE 2024.06 (io_trps.svl 2023.06)
