@<TRIPOS>MOLECULE
NONAME
40 41 1 0 0 
SMALL
USER_CHARGES


@<TRIPOS>ATOM
  1 O       -0.3580     1.1850     1.6890 O.2   1 <1>  -0.5700 
  2 C       -0.3460     1.8410     0.6600 C.2   1 <1>   0.5440 
  3 N       -1.4990     1.9180    -0.1020 N.am  1 <1>  -0.6600 
  4 C        0.8780     2.4920     0.2560 C.ar  1 <1>   0.0860 
  5 C       -1.5370     2.6090    -1.4230 C.3   1 <1>   0.1400 
  6 C       -2.7770     1.3510     0.4050 C.3   1 <1>   0.1400 
  7 C        1.8060     1.8950    -0.6160 C.ar  1 <1>   0.0830 
  8 C        1.1440     3.7910     0.7110 C.ar  1 <1>   0.0830 
  9 C       -2.7830     3.4830    -1.6300 C.3   1 <1>  -0.1600 
 10 C       -3.4790     2.3800     1.2970 C.3   1 <1>  -0.1600 
 11 O        1.6740     0.6540    -1.1440 O.3   1 <1>  -0.3630 
 12 C        2.9390     2.5840    -1.0150 C.ar  1 <1>  -0.1500 
 13 O        0.2340     4.3670     1.5360 O.3   1 <1>  -0.3630 
 14 C        2.2960     4.4620     0.3110 C.ar  1 <1>  -0.1500 
 15 C       -3.1940     4.3120    -0.4010 C.3   1 <1>  -0.1600 
 16 C       -4.1370     3.5450     0.5390 C.3   1 <1>  -0.1600 
 17 C        1.2780    -0.4440    -0.3480 C.3   1 <1>   0.0400 
 18 C        3.1900     3.8600    -0.5530 C.ar  1 <1>  -0.1500 
 19 C        0.4250     5.6300     2.1320 C.3   1 <1>   0.0400 
 20 H       -1.4830     1.8700    -2.2030 H     1 <1>   0.0800 
 21 H       -0.6750     3.2450    -1.5240 H     1 <1>   0.0800 
 22 H       -2.5670     0.4680     0.9840 H     1 <1>   0.0800 
 23 H       -3.4090     1.0590    -0.4150 H     1 <1>   0.0800 
 24 H       -3.6040     2.8700    -1.9550 H     1 <1>   0.0800 
 25 H       -2.5660     4.1570    -2.4400 H     1 <1>   0.0800 
 26 H       -2.7690     2.7630     2.0100 H     1 <1>   0.0800 
 27 H       -4.2430     1.8710     1.8560 H     1 <1>   0.0800 
 28 H        3.6280     2.1080    -1.6900 H     1 <1>   0.1500 
 29 H        2.5140     5.4550     0.6550 H     1 <1>   0.1500 
 30 H       -3.7150     5.1890    -0.7450 H     1 <1>   0.0800 
 31 H       -2.3210     4.6450     0.1360 H     1 <1>   0.0800 
 32 H       -4.5270     4.2360     1.2670 H     1 <1>   0.0800 
 33 H       -4.9750     3.1740    -0.0240 H     1 <1>   0.0800 
 34 H        1.6890    -1.3380    -0.7800 H     1 <1>   0.0800 
 35 H        0.2050    -0.5060    -0.3430 H     1 <1>   0.0800 
 36 H        1.6540    -0.3130     0.6520 H     1 <1>   0.0800 
 37 H        4.0790     4.3820    -0.8660 H     1 <1>   0.1500 
 38 H       -0.4200     5.8290     2.7660 H     1 <1>   0.0800 
 39 H        0.4870     6.3760     1.3600 H     1 <1>   0.0800 
 40 H        1.3250     5.6050     2.7200 H     1 <1>   0.0800 
@<TRIPOS>BOND
  1   1   2  2   
  2   2   3  am  
  3   2   4  1   
  4   3   5  1   
  5   3   6  1   
  6   4   7  ar  
  7   4   8  ar  
  8   5   9  1   
  9   5  20  1   
 10   5  21  1   
 11   6  10  1   
 12   6  22  1   
 13   6  23  1   
 14   7  11  1   
 15   7  12  ar  
 16   8  13  1   
 17   8  14  ar  
 18   9  15  1   
 19   9  24  1   
 20   9  25  1   
 21  10  16  1   
 22  10  26  1   
 23  10  27  1   
 24  11  17  1   
 25  12  18  ar  
 26  12  28  1   
 27  13  19  1   
 28  14  18  ar  
 29  14  29  1   
 30  15  16  1   
 31  15  30  1   
 32  15  31  1   
 33  16  32  1   
 34  16  33  1   
 35  17  34  1   
 36  17  35  1   
 37  17  36  1   
 38  18  37  1   
 39  19  38  1   
 40  19  39  1   
 41  19  40  1   
@<TRIPOS>SUBSTRUCTURE
  1 ****   2 GROUP 4 **** **** 0

# MOE 2024.06 (io_trps.svl 2023.06)
