@<TRIPOS>MOLECULE
NONAME
43 45 1 0 0 
SMALL
USER_CHARGES


@<TRIPOS>ATOM
  1 O       -1.8120     0.2230    -1.7980 O.3   1 <1>  -0.3630 
  2 C       -2.2760     0.8800    -0.7080 C.ar  1 <1>   0.0830 
  3 C       -2.2970    -1.0480    -2.1710 C.3   1 <1>   0.0400 
  4 C       -3.3840     0.4730     0.0290 C.ar  1 <1>  -0.1500 
  5 C       -1.5850     2.0180    -0.3300 C.ar  1 <1>  -0.1500 
  6 C       -3.7960     1.2080     1.1330 C.ar  1 <1>  -0.1430 
  7 C       -1.9840     2.7460     0.7750 C.ar  1 <1>  -0.1500 
  8 C       -3.0860     2.3410     1.5070 C.ar  1 <1>  -0.1500 
  9 C       -5.0180     0.7880     1.9240 C.3   1 <1>   0.4860 
 10 N       -6.2360     1.1240     1.1390 N.4   1 <1>  -0.9590 
 11 C       -6.3370     2.6060     0.8590 C.3   1 <1>   0.3430 
 12 C       -7.4910     0.6180     1.8010 C.3   1 <1>   0.3430 
 13 C       -7.6010     2.9700     0.0550 C.3   1 <1>   0.2090 
 14 C       -8.7620     0.9670     1.0010 C.3   1 <1>   0.2090 
 15 N       -8.8350     2.4280     0.6970 N.pl3 1 <1>  -0.8380 
 16 C      -10.0000     2.8120     0.0710 C.ar  1 <1>   0.4100 
 17 N      -10.2240     2.2810    -1.1230 N.ar  1 <1>  -0.6200 
 18 C      -10.8590     3.7120     0.6930 C.ar  1 <1>  -0.1500 
 19 C      -11.3460     2.6610    -1.7140 C.ar  1 <1>   0.1600 
 20 C      -12.0200     4.0970     0.0660 C.ar  1 <1>  -0.1500 
 21 C      -12.2620     3.5480    -1.1770 C.ar  1 <1>  -0.1500 
 22 H       -1.7180    -1.3910    -3.0100 H     1 <1>   0.0800 
 23 H       -3.3300    -0.9610    -2.4540 H     1 <1>   0.0800 
 24 H       -2.1740    -1.7260    -1.3450 H     1 <1>   0.0800 
 25 H       -3.9200    -0.4110    -0.2580 H     1 <1>   0.1500 
 26 H       -0.7290     2.3260    -0.9050 H     1 <1>   0.1500 
 27 H       -1.4300     3.6250     1.0630 H     1 <1>   0.1500 
 28 H       -3.3750     2.9210     2.3680 H     1 <1>   0.1500 
 29 H       -5.0340     1.3000     2.8730 H     1 <1>   0.0800 
 30 H       -4.9750    -0.2730     2.1090 H     1 <1>   0.0800 
 31 H       -6.1460     0.6660     0.2240 H     1 <1>   0.4500 
 32 H       -5.4700     2.9360     0.3090 H     1 <1>   0.0800 
 33 H       -6.3640     3.1490     1.7890 H     1 <1>   0.0800 
 34 H       -7.5850     1.0580     2.7810 H     1 <1>   0.0800 
 35 H       -7.4390    -0.4510     1.9220 H     1 <1>   0.0800 
 36 H       -7.5170     2.5840    -0.9480 H     1 <1>   0.0800 
 37 H       -7.6810     4.0410    -0.0150 H     1 <1>   0.0800 
 38 H       -9.6310     0.6840     1.5690 H     1 <1>   0.0800 
 39 H       -8.7760     0.4060     0.0820 H     1 <1>   0.0800 
 40 H      -10.6020     4.0950     1.6620 H     1 <1>   0.1500 
 41 H      -11.5480     2.2420    -2.6850 H     1 <1>   0.1500 
 42 H      -12.7080     4.7910     0.5190 H     1 <1>   0.1500 
 43 H      -13.1510     3.8060    -1.7240 H     1 <1>   0.1500 
@<TRIPOS>BOND
  1   1   2  1   
  2   1   3  1   
  3   2   4  ar  
  4   2   5  ar  
  5   3  22  1   
  6   3  23  1   
  7   3  24  1   
  8   4   6  ar  
  9   4  25  1   
 10   5   7  ar  
 11   5  26  1   
 12   6   8  ar  
 13   6   9  1   
 14   7   8  ar  
 15   7  27  1   
 16   8  28  1   
 17   9  10  1   
 18   9  29  1   
 19   9  30  1   
 20  10  11  1   
 21  10  12  1   
 22  10  31  1   
 23  11  13  1   
 24  11  32  1   
 25  11  33  1   
 26  12  14  1   
 27  12  34  1   
 28  12  35  1   
 29  13  15  1   
 30  13  36  1   
 31  13  37  1   
 32  14  15  1   
 33  14  38  1   
 34  14  39  1   
 35  15  16  1   
 36  16  17  ar  
 37  16  18  ar  
 38  17  19  ar  
 39  18  20  ar  
 40  18  40  1   
 41  19  21  ar  
 42  19  41  1   
 43  20  21  ar  
 44  20  42  1   
 45  21  43  1   
@<TRIPOS>SUBSTRUCTURE
  1 ****  11 GROUP 4 **** **** 0

# MOE 2024.06 (io_trps.svl 2023.06)
