@<TRIPOS>MOLECULE
NONAME
49 51 1 0 0 
SMALL
USER_CHARGES


@<TRIPOS>ATOM
  1 O        0.3520    -0.4920     0.9000 O.2   1 <1>  -0.5700 
  2 C       -0.3730     0.4490     0.7420 C.2   1 <1>   0.8520 
  3 N        0.0260     1.7300     0.4960 N.pl3 1 <1>  -0.7210 
  4 C       -1.8960     0.4170     0.7760 C.3   1 <1>   0.3090 
  5 C        1.3640     2.1250     0.4070 C.ar  1 <1>   0.3110 
  6 C       -1.0510     2.4900     0.3420 C.cat 1 <1>   1.2000 
  7 N       -2.1920     1.8380     0.4770 N.pl3 1 <1>  -0.7050 
  8 C       -2.4770     0.0310     2.1440 C.3   1 <1>  -0.2400 
  9 C        2.0010     2.1730    -0.8250 C.ar  1 <1>  -0.1500 
 10 C        2.0600     2.5000     1.5480 C.ar  1 <1>  -0.1500 
 11 N       -0.9400     3.7550     0.0680 N.pl3 1 <1>  -0.9670 
 12 C       -3.4600     2.2970     0.2230 C.ar  1 <1>   0.9310 
 13 C        3.3130     2.6020    -0.9180 C.ar  1 <1>  -0.1500 
 14 C        3.3720     2.9290     1.4570 C.ar  1 <1>  -0.1500 
 15 N       -3.7100     3.5250     0.5570 N.ar  1 <1>  -0.6200 
 16 N       -4.2660     1.4500    -0.3340 N.ar  1 <1>  -0.6200 
 17 C        3.9970     2.9830     0.2230 C.ar  1 <1>  -0.1500 
 18 C       -4.9260     3.9050     0.2650 C.ar  1 <1>   0.7200 
 19 C       -5.4530     1.9400    -0.5810 C.ar  1 <1>   0.7200 
 20 N       -5.8280     3.1610    -0.3090 N.ar  1 <1>  -0.6200 
 21 N       -5.2570     5.2020     0.5740 N.pl3 1 <1>  -0.8380 
 22 N       -6.3680     1.1050    -1.1800 N.pl3 1 <1>  -0.8380 
 23 C       -4.7090     5.9130     1.7650 C.3   1 <1>   0.1290 
 24 C       -6.4340     5.8740    -0.0540 C.3   1 <1>   0.1290 
 25 C       -7.6450     1.6180    -1.7580 C.3   1 <1>   0.1290 
 26 C       -6.2180    -0.3780    -1.2340 C.3   1 <1>   0.1290 
 27 H       -2.2600    -0.2300    -0.0040 H     1 <1>   0.0800 
 28 H       -2.1270     0.6940     2.9160 H     1 <1>   0.0800 
 29 H       -2.1720    -0.9700     2.3960 H     1 <1>   0.0800 
 30 H       -3.5520     0.0500     2.1170 H     1 <1>   0.0800 
 31 H        1.4780     1.8710    -1.7150 H     1 <1>   0.1500 
 32 H        1.5820     2.4540     2.5100 H     1 <1>   0.1500 
 33 H       -0.0420     4.2230    -0.0380 H     1 <1>   0.4500 
 34 H       -1.7750     4.3460     0.0070 H     1 <1>   0.4500 
 35 H        3.8070     2.6370    -1.8750 H     1 <1>   0.1500 
 36 H        3.9120     3.2180     2.3440 H     1 <1>   0.1500 
 37 H        5.0200     3.3150     0.1520 H     1 <1>   0.1500 
 38 H       -4.1020     5.2580     2.3640 H     1 <1>   0.0800 
 39 H       -5.5170     6.2750     2.3770 H     1 <1>   0.0800 
 40 H       -4.1120     6.7490     1.4440 H     1 <1>   0.0800 
 41 H       -6.5970     5.4970    -1.0500 H     1 <1>   0.0800 
 42 H       -6.2640     6.9340    -0.1170 H     1 <1>   0.0800 
 43 H       -7.3150     5.6900     0.5360 H     1 <1>   0.0800 
 44 H       -8.4190     1.5850    -1.0110 H     1 <1>   0.0800 
 45 H       -7.9400     1.0160    -2.6000 H     1 <1>   0.0800 
 46 H       -7.5310     2.6340    -2.0970 H     1 <1>   0.0800 
 47 H       -5.5150    -0.7250    -0.4960 H     1 <1>   0.0800 
 48 H       -5.8740    -0.6710    -2.2110 H     1 <1>   0.0800 
 49 H       -7.1660    -0.8500    -1.0390 H     1 <1>   0.0800 
@<TRIPOS>BOND
  1   1   2  2   
  2   2   3  1   
  3   2   4  1   
  4   3   5  1   
  5   3   6  ar  
  6   4   7  1   
  7   4   8  1   
  8   4  27  1   
  9   5   9  ar  
 10   5  10  ar  
 11   6   7  ar  
 12   6  11  ar  
 13   7  12  1   
 14   8  28  1   
 15   8  29  1   
 16   8  30  1   
 17   9  13  ar  
 18   9  31  1   
 19  10  14  ar  
 20  10  32  1   
 21  11  33  1   
 22  11  34  1   
 23  12  15  ar  
 24  12  16  ar  
 25  13  17  ar  
 26  13  35  1   
 27  14  17  ar  
 28  14  36  1   
 29  15  18  ar  
 30  16  19  ar  
 31  17  37  1   
 32  18  20  ar  
 33  18  21  1   
 34  19  20  ar  
 35  19  22  1   
 36  21  23  1   
 37  21  24  1   
 38  22  25  1   
 39  22  26  1   
 40  23  38  1   
 41  23  39  1   
 42  23  40  1   
 43  24  41  1   
 44  24  42  1   
 45  24  43  1   
 46  25  44  1   
 47  25  45  1   
 48  25  46  1   
 49  26  47  1   
 50  26  48  1   
 51  26  49  1   
@<TRIPOS>SUBSTRUCTURE
  1 ****   7 GROUP 4 **** **** 0

# MOE 2024.06 (io_trps.svl 2023.06)
