@<TRIPOS>MOLECULE
NONAME
53 55 1 0 0 
SMALL
USER_CHARGES


@<TRIPOS>ATOM
  1 S       -0.3410    -0.0260     1.6250 S.o2  1 <1>   1.4470 
  2 O        0.2900    -1.0110     2.4790 O.2   1 <1>  -0.6500 
  3 O       -1.0820     1.0580     2.2330 O.2   1 <1>  -0.6500 
  4 N        0.9010     0.6720     0.7040 N.am  1 <1>  -0.8490 
  5 C       -1.3800    -0.8430     0.3820 C.ar  1 <1>  -0.0090 
  6 C        1.7940    -0.3420     0.1330 C.3   1 <1>   0.1960 
  7 C        1.6400     1.6690     1.4820 C.3   1 <1>   0.1960 
  8 C       -1.7980    -2.1590     0.5420 C.ar  1 <1>  -0.1500 
  9 C       -1.7880    -0.1700    -0.7640 C.ar  1 <1>  -0.1500 
 10 C        2.8120     0.3140    -0.8000 C.3   1 <1>  -0.1600 
 11 C        2.6690     2.3810     0.6000 C.3   1 <1>  -0.1600 
 12 C       -2.5880    -2.7830    -0.4080 C.ar  1 <1>  -0.1500 
 13 C       -2.5780    -0.7870    -1.7180 C.ar  1 <1>  -0.1500 
 14 C        3.6350     1.3810    -0.0550 C.3   1 <1>  -0.0190 
 15 C       -2.9830    -2.0990    -1.5450 C.ar  1 <1>  -0.1430 
 16 C        4.6440     2.0960    -0.9640 C.2   1 <1>   0.5690 
 17 C       -3.8480    -2.7790    -2.5900 C.3   1 <1>  -0.0970 
 18 O        4.3130     2.3170    -2.1070 O.2   1 <1>  -0.5700 
 19 N        5.8790     2.4790    -0.4940 N.am  1 <1>  -0.6600 
 20 C        6.8630     3.1430    -1.3930 C.3   1 <1>   0.1400 
 21 C        6.3630     2.3250     0.9040 C.3   1 <1>   0.1400 
 22 C        7.9070     2.1460    -1.9060 C.3   1 <1>  -0.1600 
 23 C        7.0410     0.9670     1.1360 C.3   1 <1>  -0.1600 
 24 C        8.6900     1.3930    -0.8140 C.3   1 <1>  -0.1600 
 25 C        7.8210     0.3780    -0.0540 C.3   1 <1>  -0.1600 
 26 H        1.2190    -1.0580    -0.4310 H     1 <1>   0.0800 
 27 H        2.3070    -0.8700     0.9210 H     1 <1>   0.0800 
 28 H        2.1290     1.1910     2.3150 H     1 <1>   0.0800 
 29 H        0.9560     2.4050     1.8710 H     1 <1>   0.0800 
 30 H       -1.5000    -2.7040     1.4230 H     1 <1>   0.1500 
 31 H       -1.4790     0.8520    -0.9080 H     1 <1>   0.1500 
 32 H        2.2870     0.7600    -1.6270 H     1 <1>   0.0800 
 33 H        3.4720    -0.4360    -1.1980 H     1 <1>   0.0800 
 34 H        3.2210     3.0860     1.1960 H     1 <1>   0.0800 
 35 H        2.1500     2.9350    -0.1630 H     1 <1>   0.0800 
 36 H       -2.8940    -3.8040    -0.2570 H     1 <1>   0.1500 
 37 H       -2.8750    -0.2400    -2.5960 H     1 <1>   0.1500 
 38 H        4.1690     0.8690     0.7200 H     1 <1>   0.0800 
 39 H       -3.2250    -3.2330    -3.3390 H     1 <1>   0.0800 
 40 H       -4.4960    -2.0640    -3.0640 H     1 <1>   0.0800 
 41 H       -4.4580    -3.5400    -2.1380 H     1 <1>   0.0800 
 42 H        7.3510     3.9450    -0.8670 H     1 <1>   0.0800 
 43 H        6.3540     3.5820    -2.2360 H     1 <1>   0.0800 
 44 H        5.5500     2.4530     1.5970 H     1 <1>   0.0800 
 45 H        7.0740     3.1060     1.1140 H     1 <1>   0.0800 
 46 H        8.6080     2.6920    -2.5120 H     1 <1>   0.0800 
 47 H        7.4170     1.4420    -2.5560 H     1 <1>   0.0800 
 48 H        6.2990     0.2510     1.4400 H     1 <1>   0.0800 
 49 H        7.7140     1.0790     1.9680 H     1 <1>   0.0800 
 50 H        9.1500     2.0850    -0.1310 H     1 <1>   0.0800 
 51 H        9.4820     0.8500    -1.3020 H     1 <1>   0.0800 
 52 H        7.1300    -0.0810    -0.7410 H     1 <1>   0.0800 
 53 H        8.4550    -0.4070     0.3220 H     1 <1>   0.0800 
@<TRIPOS>BOND
  1   1   2  2   
  2   1   3  2   
  3   1   4  am  
  4   1   5  1   
  5   4   6  1   
  6   4   7  1   
  7   5   8  ar  
  8   5   9  ar  
  9   6  10  1   
 10   6  26  1   
 11   6  27  1   
 12   7  11  1   
 13   7  28  1   
 14   7  29  1   
 15   8  12  ar  
 16   8  30  1   
 17   9  13  ar  
 18   9  31  1   
 19  10  14  1   
 20  10  32  1   
 21  10  33  1   
 22  11  14  1   
 23  11  34  1   
 24  11  35  1   
 25  12  15  ar  
 26  12  36  1   
 27  13  15  ar  
 28  13  37  1   
 29  14  16  1   
 30  14  38  1   
 31  15  17  1   
 32  16  18  2   
 33  16  19  am  
 34  17  39  1   
 35  17  40  1   
 36  17  41  1   
 37  19  20  1   
 38  19  21  1   
 39  20  22  1   
 40  20  42  1   
 41  20  43  1   
 42  21  23  1   
 43  21  44  1   
 44  21  45  1   
 45  22  24  1   
 46  22  46  1   
 47  22  47  1   
 48  23  25  1   
 49  23  48  1   
 50  23  49  1   
 51  24  25  1   
 52  24  50  1   
 53  24  51  1   
 54  25  52  1   
 55  25  53  1   
@<TRIPOS>SUBSTRUCTURE
  1 ****  10 GROUP 4 **** **** 0

# MOE 2024.06 (io_trps.svl 2023.06)
