@<TRIPOS>MOLECULE
NONAME
39 40 1 0 0 
SMALL
USER_CHARGES


@<TRIPOS>ATOM
  1 O        0.3020    -0.3460     0.4910 O.3   1 <1>  -0.3630 
  2 C        1.6010    -0.2780     0.1080 C.ar  1 <1>   0.0820 
  3 C       -0.5410    -1.3830     0.0400 C.3   1 <1>   0.1200 
  4 C        2.2150    -1.2070    -0.7260 C.ar  1 <1>  -0.1500 
  5 C        2.3380     0.7910     0.5910 C.ar  1 <1>  -0.1500 
  6 C       -1.9450    -1.1770     0.6200 C.3   1 <1>  -0.1600 
  7 C        3.5490    -1.0600    -1.0650 C.ar  1 <1>  -0.1500 
  8 C        3.6710     0.9360     0.2510 C.ar  1 <1>  -0.1500 
  9 C       -2.5870     0.1400     0.1640 C.3   1 <1>  -0.2400 
 10 C        4.2840     0.0100    -0.5780 C.ar  1 <1>  -0.1430 
 11 C        5.7520     0.1650    -0.9420 C.3   1 <1>  -0.0170 
 12 C        6.6310    -0.4670     0.1350 C.3   1 <1>   0.2090 
 13 N        8.0540    -0.3760    -0.2650 N.pl3 1 <1>  -0.8690 
 14 C        8.9410     0.5620     0.1290 C.ar  1 <1>   0.7200 
 15 N       10.1820     0.3070    -0.1750 N.ar  1 <1>  -0.6200 
 16 N        8.4950     1.6260     0.7610 N.ar  1 <1>  -0.6200 
 17 C       11.0040     1.2320     0.2220 C.ar  1 <1>   0.7200 
 18 C        9.4340     2.4690     1.0890 C.ar  1 <1>   0.4700 
 19 N       10.7090     2.3400     0.8500 N.ar  1 <1>  -0.6200 
 20 N       12.2940     1.0400    -0.0540 N.pl3 1 <1>  -0.9000 
 21 H       -0.1310    -2.3190     0.3750 H     1 <1>   0.0800 
 22 H       -0.5690    -1.3540    -1.0350 H     1 <1>   0.0800 
 23 H        1.6750    -2.0470    -1.1190 H     1 <1>   0.1500 
 24 H        1.8600     1.5070     1.2340 H     1 <1>   0.1500 
 25 H       -1.8880    -1.2040     1.6940 H     1 <1>   0.0800 
 26 H       -2.5690    -1.9960     0.3060 H     1 <1>   0.0800 
 27 H        4.0140    -1.7850    -1.7100 H     1 <1>   0.1500 
 28 H        4.2280     1.7730     0.6360 H     1 <1>   0.1500 
 29 H       -2.0030     0.9790     0.5020 H     1 <1>   0.0800 
 30 H       -3.5780     0.2290     0.5710 H     1 <1>   0.0800 
 31 H       -2.6500     0.1770    -0.9100 H     1 <1>   0.0800 
 32 H        5.9950     1.2090    -1.0310 H     1 <1>   0.0800 
 33 H        5.9450    -0.3080    -1.8880 H     1 <1>   0.0800 
 34 H        6.3630    -1.5010     0.2660 H     1 <1>   0.0800 
 35 H        6.4750     0.0400     1.0730 H     1 <1>   0.0800 
 36 H        8.4740    -1.1950    -0.7020 H     1 <1>   0.4000 
 37 H        9.1250     3.3610     1.6090 H     1 <1>   0.1500 
 38 H       12.9160     1.8400     0.0280 H     1 <1>   0.4000 
 39 H       12.5270     0.3270    -0.7390 H     1 <1>   0.4000 
@<TRIPOS>BOND
  1   1   2  1   
  2   1   3  1   
  3   2   4  ar  
  4   2   5  ar  
  5   3   6  1   
  6   3  21  1   
  7   3  22  1   
  8   4   7  ar  
  9   4  23  1   
 10   5   8  ar  
 11   5  24  1   
 12   6   9  1   
 13   6  25  1   
 14   6  26  1   
 15   7  10  ar  
 16   7  27  1   
 17   8  10  ar  
 18   8  28  1   
 19   9  29  1   
 20   9  30  1   
 21   9  31  1   
 22  10  11  1   
 23  11  12  1   
 24  11  32  1   
 25  11  33  1   
 26  12  13  1   
 27  12  34  1   
 28  12  35  1   
 29  13  14  1   
 30  13  36  1   
 31  14  15  ar  
 32  14  16  ar  
 33  15  17  ar  
 34  16  18  ar  
 35  17  19  ar  
 36  17  20  1   
 37  18  19  ar  
 38  18  37  1   
 39  20  38  1   
 40  20  39  1   
@<TRIPOS>SUBSTRUCTURE
  1 ****  11 GROUP 4 **** **** 0

# MOE 2024.06 (io_trps.svl 2023.06)
