@<TRIPOS>MOLECULE
NONAME
33 33 1 0 0 
SMALL
USER_CHARGES


@<TRIPOS>ATOM
  1 O       -0.3730    -0.7910     1.8800 O.2   1 <1>  -0.5700 
  2 C       -0.7830    -1.4790     0.9630 C.2   1 <1>   0.5440 
  3 N        0.0860    -2.3040     0.3180 N.am  1 <1>  -0.7300 
  4 C       -2.1780    -1.4330     0.5570 C.ar  1 <1>   0.0860 
  5 C        1.5730    -2.1480     0.2140 C.3   1 <1>   0.1140 
  6 C       -2.5830    -1.7710    -0.7370 C.ar  1 <1>  -0.1500 
  7 C       -3.1750    -1.0450     1.4520 C.ar  1 <1>  -0.1500 
  8 C        2.0140    -2.3740    -1.2540 C.2   1 <1>   0.9060 
  9 C        2.2440    -3.0890     1.2460 C.3   1 <1>  -0.0800 
 10 C       -3.9140    -1.7330    -1.1110 C.ar  1 <1>  -0.1500 
 11 C       -4.5080    -1.0040     1.0830 C.ar  1 <1>  -0.1500 
 12 O        3.1070    -1.9520    -1.6550 O.co2 1 <1>  -0.9000 
 13 O        1.2160    -2.9500    -2.0180 O.co2 1 <1>  -0.9000 
 14 C        3.7500    -2.8150     1.3690 C.3   1 <1>  -0.2400 
 15 C        2.0150    -4.5780     0.9380 C.3   1 <1>  -0.2400 
 16 C       -4.8860    -1.3490    -0.2040 C.ar  1 <1>  -0.1430 
 17 C       -6.3480    -1.3080    -0.6120 C.3   1 <1>  -0.0970 
 18 H       -0.2200    -2.8030    -0.5310 H     1 <1>   0.3700 
 19 H        1.8240    -1.1330     0.4600 H     1 <1>   0.0800 
 20 H       -1.8430    -2.0620    -1.4640 H     1 <1>   0.1500 
 21 H       -2.8900    -0.7720     2.4530 H     1 <1>   0.1500 
 22 H        1.8020    -2.8700     2.2030 H     1 <1>   0.0800 
 23 H       -4.1860    -2.0030    -2.1160 H     1 <1>   0.1500 
 24 H       -5.2480    -0.7020     1.8020 H     1 <1>   0.1500 
 25 H        4.2540    -3.0520     0.4480 H     1 <1>   0.0800 
 26 H        4.1770    -3.4070     2.1580 H     1 <1>   0.0800 
 27 H        3.9190    -1.7760     1.5880 H     1 <1>   0.0800 
 28 H        2.4460    -4.8360    -0.0150 H     1 <1>   0.0800 
 29 H        0.9620    -4.7940     0.9020 H     1 <1>   0.0800 
 30 H        2.4630    -5.1920     1.6980 H     1 <1>   0.0800 
 31 H       -6.8090    -2.2570    -0.4050 H     1 <1>   0.0800 
 32 H       -6.4390    -1.0990    -1.6630 H     1 <1>   0.0800 
 33 H       -6.8680    -0.5420    -0.0680 H     1 <1>   0.0800 
@<TRIPOS>BOND
  1   1   2  2   
  2   2   3  am  
  3   2   4  1   
  4   3   5  1   
  5   3  18  1   
  6   4   6  ar  
  7   4   7  ar  
  8   5   8  1   
  9   5   9  1   
 10   5  19  1   
 11   6  10  ar  
 12   6  20  1   
 13   7  11  ar  
 14   7  21  1   
 15   8  12  ar  
 16   8  13  ar  
 17   9  14  1   
 18   9  15  1   
 19   9  22  1   
 20  10  16  ar  
 21  10  23  1   
 22  11  16  ar  
 23  11  24  1   
 24  14  25  1   
 25  14  26  1   
 26  14  27  1   
 27  15  28  1   
 28  15  29  1   
 29  15  30  1   
 30  16  17  1   
 31  17  31  1   
 32  17  32  1   
 33  17  33  1   
@<TRIPOS>SUBSTRUCTURE
  1 ****   3 GROUP 4 **** **** 0

# MOE 2024.06 (io_trps.svl 2023.06)
