@<TRIPOS>MOLECULE
NONAME
59 62 1 0 0 
SMALL
USER_CHARGES


@<TRIPOS>ATOM
  1 N        0.0070     0.1590     0.2980 N.3   1 <1>  -0.8100 
  2 C       -1.2010     0.7400    -0.3770 C.3   1 <1>   0.1900 
  3 C        0.0080    -1.3310     0.2140 C.3   1 <1>   0.1100 
  4 C        1.3160     0.6890    -0.1680 C.3   1 <1>   0.2540 
  5 C       -1.3160     2.2940    -0.3680 C.3   1 <1>  -0.0800 
  6 C       -2.5020     0.1770     0.2850 C.3   1 <1>   0.4230 
  7 C       -1.3700    -1.9930     0.4170 C.3   1 <1>   0.3430 
  8 C        2.5030    -0.0630     0.4330 C.ar  1 <1>  -0.1440 
  9 C       -0.5390     3.0020    -1.5010 C.3   1 <1>  -0.1600 
 10 C       -1.0360     2.9420     1.0060 C.3   1 <1>  -0.1600 
 11 N       -2.3240    -1.0640     1.0900 N.4   1 <1>  -0.9590 
 12 C       -3.6220    -0.1830    -0.6870 C.3   1 <1>  -0.1600 
 13 C        2.8780     0.0890     1.7660 C.ar  1 <1>  -0.1430 
 14 C        3.2230    -0.9250    -0.3830 C.ar  1 <1>  -0.1500 
 15 C       -0.8300     4.5090    -1.5100 C.3   1 <1>  -0.1600 
 16 C       -1.3080     4.4520     0.9770 C.3   1 <1>  -0.1600 
 17 C       -3.6710    -1.6520     1.2800 C.3   1 <1>   0.3430 
 18 C       -4.4870    -1.1970     0.0680 C.3   1 <1>  -0.1600 
 19 C        3.9550    -0.6330     2.2550 C.ar  1 <1>  -0.1500 
 20 C        2.1400     1.0330     2.7050 C.3   1 <1>  -0.0970 
 21 C        4.2990    -1.6440     0.1080 C.ar  1 <1>  -0.1430 
 22 C       -0.5220     5.1400    -0.1470 C.3   1 <1>  -0.1600 
 23 C        4.6590    -1.4960     1.4350 C.ar  1 <1>  -0.1500 
 24 C        5.0780    -2.5840    -0.7930 C.3   1 <1>  -0.0970 
 25 H       -1.1870     0.4250    -1.4060 H     1 <1>   0.0800 
 26 H        0.6680    -1.7200     0.9710 H     1 <1>   0.0800 
 27 H        0.3980    -1.6470    -0.7380 H     1 <1>   0.0800 
 28 H        1.4170     1.7190     0.1140 H     1 <1>   0.0800 
 29 H        1.3640     0.6350    -1.2420 H     1 <1>   0.0800 
 30 H       -2.3470     2.5140    -0.5910 H     1 <1>   0.0800 
 31 H       -2.8860     0.9360     0.9470 H     1 <1>   0.0800 
 32 H       -1.2460    -2.8930     0.9970 H     1 <1>   0.0800 
 33 H       -1.7620    -2.2750    -0.5460 H     1 <1>   0.0800 
 34 H       -0.8230     2.5880    -2.4530 H     1 <1>   0.0800 
 35 H        0.5200     2.8780    -1.3950 H     1 <1>   0.0800 
 36 H       -0.0120     2.7890     1.2900 H     1 <1>   0.0800 
 37 H       -1.6480     2.4940     1.7670 H     1 <1>   0.0800 
 38 H       -1.8770    -0.7790     1.9720 H     1 <1>   0.4500 
 39 H       -3.2130    -0.6360    -1.5730 H     1 <1>   0.0800 
 40 H       -4.1820     0.6900    -0.9750 H     1 <1>   0.0800 
 41 H        2.9470    -1.0400    -1.4160 H     1 <1>   0.1500 
 42 H       -1.8650     4.6770    -1.7550 H     1 <1>   0.0800 
 43 H       -0.2330     4.9860    -2.2680 H     1 <1>   0.0800 
 44 H       -1.0330     4.8870     1.9230 H     1 <1>   0.0800 
 45 H       -2.3610     4.6270     0.8300 H     1 <1>   0.0800 
 46 H       -4.1170    -1.2580     2.1790 H     1 <1>   0.0800 
 47 H       -3.6280    -2.7270     1.3490 H     1 <1>   0.0800 
 48 H       -4.7340    -2.0370    -0.5580 H     1 <1>   0.0800 
 49 H       -5.4050    -0.7460     0.4060 H     1 <1>   0.0800 
 50 H        4.2570    -0.5280     3.2820 H     1 <1>   0.1500 
 51 H        2.2450     2.0460     2.3620 H     1 <1>   0.0800 
 52 H        2.5360     0.9730     3.7020 H     1 <1>   0.0800 
 53 H        1.0970     0.7800     2.7410 H     1 <1>   0.0800 
 54 H       -0.7720     6.1870    -0.1710 H     1 <1>   0.0800 
 55 H        0.5330     5.0590     0.0540 H     1 <1>   0.0800 
 56 H        5.4910    -2.0470     1.8350 H     1 <1>   0.1500 
 57 H        4.6950    -3.5840    -0.6940 H     1 <1>   0.0800 
 58 H        6.1180    -2.5820    -0.5230 H     1 <1>   0.0800 
 59 H        4.9960    -2.2800    -1.8210 H     1 <1>   0.0800 
@<TRIPOS>BOND
  1   1   2  1   
  2   1   3  1   
  3   1   4  1   
  4   2   5  1   
  5   2   6  1   
  6   2  25  1   
  7   3   7  1   
  8   3  26  1   
  9   3  27  1   
 10   4   8  1   
 11   4  28  1   
 12   4  29  1   
 13   5   9  1   
 14   5  10  1   
 15   5  30  1   
 16   6  11  1   
 17   6  12  1   
 18   6  31  1   
 19   7  11  1   
 20   7  32  1   
 21   7  33  1   
 22   8  13  ar  
 23   8  14  ar  
 24   9  15  1   
 25   9  34  1   
 26   9  35  1   
 27  10  16  1   
 28  10  36  1   
 29  10  37  1   
 30  11  17  1   
 31  11  38  1   
 32  12  18  1   
 33  12  39  1   
 34  12  40  1   
 35  13  19  ar  
 36  13  20  1   
 37  14  21  ar  
 38  14  41  1   
 39  15  22  1   
 40  15  42  1   
 41  15  43  1   
 42  16  22  1   
 43  16  44  1   
 44  16  45  1   
 45  17  18  1   
 46  17  46  1   
 47  17  47  1   
 48  18  48  1   
 49  18  49  1   
 50  19  23  ar  
 51  19  50  1   
 52  20  51  1   
 53  20  52  1   
 54  20  53  1   
 55  21  23  ar  
 56  21  24  1   
 57  22  54  1   
 58  22  55  1   
 59  23  56  1   
 60  24  57  1   
 61  24  58  1   
 62  24  59  1   
@<TRIPOS>SUBSTRUCTURE
  1 ****   1 GROUP 4 **** **** 0

# MOE 2024.06 (io_trps.svl 2023.06)
