@<TRIPOS>MOLECULE
NONAME
49 51 1 0 0 
SMALL
USER_CHARGES


@<TRIPOS>ATOM
  1 CL       3.0060     3.5570    -4.8970 Cl    1 <1>  -0.1770 
  2 C        3.0660     2.8460    -3.2980 C.ar  1 <1>   0.1770 
  3 C        2.3220     3.3930    -2.2580 C.ar  1 <1>   0.0830 
  4 C        3.8680     1.7390    -3.1120 C.ar  1 <1>  -0.1500 
  5 O        1.5510     4.4870    -2.5180 O.3   1 <1>  -0.3630 
  6 C        2.4020     2.7950    -1.0020 C.ar  1 <1>  -0.1500 
  7 C        3.9550     1.1470    -1.8580 C.ar  1 <1>   0.1990 
  8 C        0.6210     4.9670    -1.5710 C.3   1 <1>   0.0400 
  9 C        3.2110     1.6860    -0.8140 C.ar  1 <1>  -0.1500 
 10 N        4.7760     0.0430    -1.6460 N.am  1 <1>  -0.6930 
 11 S        4.1040    -1.5460    -1.4380 S.o2  1 <1>   1.4470 
 12 C        6.2120     0.1010    -2.0750 C.3   1 <1>   0.2570 
 13 O        2.6700    -1.3760    -1.4120 O.2   1 <1>  -0.6500 
 14 O        4.7160    -2.3680    -2.4550 O.2   1 <1>  -0.6500 
 15 C        4.6600    -2.0390     0.2190 C.ar  1 <1>  -0.0090 
 16 C        7.2070    -0.3580    -1.0020 C.2   1 <1>   0.5690 
 17 C        5.7260    -2.9160     0.3930 C.ar  1 <1>  -0.1500 
 18 C        4.0390    -1.5440     1.3610 C.ar  1 <1>  -0.1500 
 19 O        7.9180    -1.2960    -1.2750 O.2   1 <1>  -0.5700 
 20 N        7.2850     0.2640     0.2220 N.am  1 <1>  -0.6600 
 21 C        6.1600    -3.2820     1.6550 C.ar  1 <1>  -0.1500 
 22 C        4.4690    -1.9000     2.6270 C.ar  1 <1>  -0.1500 
 23 C        6.5210     1.4820     0.6280 C.3   1 <1>   0.1400 
 24 C        8.1140    -0.3000     1.3310 C.3   1 <1>   0.1400 
 25 C        5.5310    -2.7720     2.7750 C.ar  1 <1>  -0.1500 
 26 C        7.4300     2.4800     1.3650 C.3   1 <1>   0.1200 
 27 C        8.9290     0.8020     2.0240 C.3   1 <1>   0.1200 
 28 O        8.0970     1.8540     2.4230 O.3   1 <1>  -0.5600 
 29 H        4.4150     1.3360    -3.9430 H     1 <1>   0.1500 
 30 H        1.8450     3.1760    -0.1670 H     1 <1>   0.1500 
 31 H        0.0780     5.7790    -2.0210 H     1 <1>   0.0800 
 32 H        1.1520     5.3210    -0.7050 H     1 <1>   0.0800 
 33 H       -0.0580     4.1730    -1.3130 H     1 <1>   0.0800 
 34 H        3.2640     1.2290     0.1560 H     1 <1>   0.1500 
 35 H        6.4670     1.1070    -2.3510 H     1 <1>   0.0800 
 36 H        6.3440    -0.5140    -2.9480 H     1 <1>   0.0800 
 37 H        6.2300    -3.3160    -0.4730 H     1 <1>   0.1500 
 38 H        3.2010    -0.8760     1.2580 H     1 <1>   0.1500 
 39 H        6.9870    -3.9630     1.7600 H     1 <1>   0.1500 
 40 H        3.9740    -1.5050     3.4980 H     1 <1>   0.1500 
 41 H        5.7170     1.1900     1.2810 H     1 <1>   0.0800 
 42 H        6.0980     1.9740    -0.2280 H     1 <1>   0.0800 
 43 H        8.7830    -1.0560     0.9600 H     1 <1>   0.0800 
 44 H        7.4650    -0.7610     2.0540 H     1 <1>   0.0800 
 45 H        5.8660    -3.0550     3.7590 H     1 <1>   0.1500 
 46 H        6.8440     3.2830     1.7770 H     1 <1>   0.0800 
 47 H        8.1620     2.8950     0.6950 H     1 <1>   0.0800 
 48 H        9.6840     1.1890     1.3610 H     1 <1>   0.0800 
 49 H        9.4090     0.4110     2.9030 H     1 <1>   0.0800 
@<TRIPOS>BOND
  1   1   2  1   
  2   2   3  ar  
  3   2   4  ar  
  4   3   5  1   
  5   3   6  ar  
  6   4   7  ar  
  7   4  29  1   
  8   5   8  1   
  9   6   9  ar  
 10   6  30  1   
 11   7   9  ar  
 12   7  10  1   
 13   8  31  1   
 14   8  32  1   
 15   8  33  1   
 16   9  34  1   
 17  10  11  am  
 18  10  12  1   
 19  11  13  2   
 20  11  14  2   
 21  11  15  1   
 22  12  16  1   
 23  12  35  1   
 24  12  36  1   
 25  15  17  ar  
 26  15  18  ar  
 27  16  19  2   
 28  16  20  am  
 29  17  21  ar  
 30  17  37  1   
 31  18  22  ar  
 32  18  38  1   
 33  20  23  1   
 34  20  24  1   
 35  21  25  ar  
 36  21  39  1   
 37  22  25  ar  
 38  22  40  1   
 39  23  26  1   
 40  23  41  1   
 41  23  42  1   
 42  24  27  1   
 43  24  43  1   
 44  24  44  1   
 45  25  45  1   
 46  26  28  1   
 47  26  46  1   
 48  26  47  1   
 49  27  28  1   
 50  27  48  1   
 51  27  49  1   
@<TRIPOS>SUBSTRUCTURE
  1 ****  10 GROUP 4 **** **** 0

# MOE 2024.06 (io_trps.svl 2023.06)
