@<TRIPOS>MOLECULE
NONAME
41 43 1 0 0 
SMALL
USER_CHARGES


@<TRIPOS>ATOM
  1 N       -0.1290    -0.1720    -0.5460 N.ar  1 <1>  -0.6200 
  2 C        1.0230    -0.8520    -0.4140 C.ar  1 <1>   0.6200 
  3 C       -1.2470    -0.8000    -0.3250 C.ar  1 <1>   0.3100 
  4 N        2.1120    -0.1110    -0.6490 N.ar  1 <1>  -0.6200 
  5 C        1.1050    -2.2140    -0.0560 C.ar  1 <1>   0.0000 
  6 C       -2.4700    -0.0510    -0.4680 C.ar  1 <1>   0.0000 
  7 C       -1.2730    -2.1510     0.0510 C.ar  1 <1>  -0.1500 
  8 C        3.2520    -0.6940    -0.5510 C.ar  1 <1>   0.4760 
  9 C        2.4300    -2.7170     0.0090 C.ar  1 <1>   0.1660 
 10 C       -0.1280    -2.8790     0.1910 C.ar  1 <1>  -0.1440 
 11 C       -3.4580    -0.4590    -1.3920 C.ar  1 <1>   0.4100 
 12 C       -2.7220     1.1010     0.2490 C.ar  1 <1>   0.2170 
 13 N        3.4600    -1.9750    -0.2320 N.ar  1 <1>  -0.6200 
 14 C        4.4980     0.1150    -0.8170 C.3   1 <1>  -0.0960 
 15 C        2.7800    -4.1530     0.3580 C.3   1 <1>  -0.0970 
 16 C       -0.2690    -4.3410     0.6030 C.3   1 <1>  -0.0970 
 17 N       -4.6030     0.2060    -1.5510 N.ar  1 <1>  -0.6200 
 18 N       -3.3380    -1.5120    -2.1930 N.pl3 1 <1>  -0.9000 
 19 N       -3.8770     1.7550     0.0230 N.ar  1 <1>  -0.1790 
 20 C       -1.7790     1.6960     1.2910 C.3   1 <1>  -0.0970 
 21 C       -4.7820     1.2880    -0.8620 C.ar  1 <1>   0.5280 
 22 C       -6.0690     2.0640    -1.0560 C.3   1 <1>  -0.0970 
 23 H       -2.2360    -2.6000     0.2280 H     1 <1>   0.1500 
 24 H        4.2430     1.1280    -1.0690 H     1 <1>   0.0800 
 25 H        5.0420    -0.3230    -1.6320 H     1 <1>   0.0800 
 26 H        5.1180     0.1170     0.0600 H     1 <1>   0.0800 
 27 H        3.8460    -4.2970     0.3270 H     1 <1>   0.0800 
 28 H        2.4540    -4.3880     1.3530 H     1 <1>   0.0800 
 29 H        2.3450    -4.8290    -0.3520 H     1 <1>   0.0800 
 30 H       -1.3020    -4.6070     0.7400 H     1 <1>   0.0800 
 31 H        0.1270    -4.9890    -0.1570 H     1 <1>   0.0800 
 32 H        0.2310    -4.5210     1.5360 H     1 <1>   0.0800 
 33 H       -4.0830    -1.7440    -2.8570 H     1 <1>   0.4000 
 34 H       -2.4970    -2.0900    -2.2850 H     1 <1>   0.4000 
 35 H       -4.0840     2.6200     0.5240 H     1 <1>   0.4570 
 36 H       -1.1340     0.9430     1.7090 H     1 <1>   0.0800 
 37 H       -2.3250     2.1380     2.1050 H     1 <1>   0.0800 
 38 H       -1.1580     2.4480     0.8360 H     1 <1>   0.0800 
 39 H       -6.6890     1.5720    -1.7850 H     1 <1>   0.0800 
 40 H       -5.8580     3.0560    -1.4110 H     1 <1>   0.0800 
 41 H       -6.6170     2.1210    -0.1330 H     1 <1>   0.0800 
@<TRIPOS>BOND
  1   1   2  ar  
  2   1   3  ar  
  3   2   4  ar  
  4   2   5  ar  
  5   3   6  1   
  6   3   7  ar  
  7   4   8  ar  
  8   5   9  ar  
  9   5  10  ar  
 10   6  11  ar  
 11   6  12  ar  
 12   7  10  ar  
 13   7  23  1   
 14   8  13  ar  
 15   8  14  1   
 16   9  13  ar  
 17   9  15  1   
 18  10  16  1   
 19  11  17  ar  
 20  11  18  1   
 21  12  19  ar  
 22  12  20  1   
 23  14  24  1   
 24  14  25  1   
 25  14  26  1   
 26  15  27  1   
 27  15  28  1   
 28  15  29  1   
 29  16  30  1   
 30  16  31  1   
 31  16  32  1   
 32  17  21  ar  
 33  18  33  1   
 34  18  34  1   
 35  19  21  ar  
 36  19  35  1   
 37  20  36  1   
 38  20  37  1   
 39  20  38  1   
 40  21  22  1   
 41  22  39  1   
 42  22  40  1   
 43  22  41  1   
@<TRIPOS>SUBSTRUCTURE
  1 ****   3 GROUP 4 **** **** 0

# MOE 2024.06 (io_trps.svl 2023.06)
