@<TRIPOS>MOLECULE
NONAME
39 41 1 0 0 
SMALL
USER_CHARGES


@<TRIPOS>ATOM
  1 O       -0.2370     0.9000    -0.2320 O.2   1 <1>  -0.5700 
  2 C       -0.6750     1.9310     0.2330 C.2   1 <1>   0.5440 
  3 N        0.0970     2.9390     0.7500 N.am  1 <1>  -0.4200 
  4 C       -2.0560     2.3040     0.3480 C.ar  1 <1>   0.0860 
  5 C       -0.7310     3.9330     1.2040 C.2   1 <1>   0.5440 
  6 C        1.5770     2.9500     0.8040 C.3   1 <1>   0.1400 
  7 C       -2.0890     3.5500     0.9540 C.ar  1 <1>   0.0860 
  8 C       -3.2300     1.6660    -0.0200 C.ar  1 <1>  -0.1500 
  9 O       -0.3440     4.9560     1.7310 O.2   1 <1>  -0.5700 
 10 C        2.1940     3.2680    -0.5720 C.3   1 <1>  -0.0800 
 11 C       -3.3090     4.1670     1.1970 C.ar  1 <1>  -0.1500 
 12 C       -4.4600     2.2710     0.2130 C.ar  1 <1>   0.1170 
 13 C        3.7240     3.2050    -0.4840 C.3   1 <1>  -0.2400 
 14 C        1.7680     4.6490    -1.0970 C.3   1 <1>  -0.2400 
 15 C       -4.4790     3.5260     0.8300 C.ar  1 <1>  -0.1500 
 16 N       -5.6200     1.5890    -0.1700 N.am  1 <1>  -0.5470 
 17 C       -6.9050     2.0170    -0.3610 C.2   1 <1>   0.6300 
 18 O       -7.2610     3.1620    -0.2490 O.2   1 <1>  -0.5700 
 19 C       -7.9280     0.9650    -0.7610 C.3   1 <1>  -0.1000 
 20 C       -9.0680     0.6260     0.1540 C.3   1 <1>  -0.2000 
 21 C       -7.9890    -0.3810    -0.0930 C.3   1 <1>  -0.2000 
 22 H        1.9150     1.9830     1.1340 H     1 <1>   0.0800 
 23 H        1.8990     3.6810     1.5250 H     1 <1>   0.0800 
 24 H       -3.1700     0.7000    -0.4910 H     1 <1>   0.1500 
 25 H        1.8720     2.5140    -1.2710 H     1 <1>   0.0800 
 26 H       -3.3310     5.1350     1.6700 H     1 <1>   0.1500 
 27 H        4.0970     3.9450     0.2030 H     1 <1>   0.0800 
 28 H        4.1610     3.3840    -1.4510 H     1 <1>   0.0800 
 29 H        4.0390     2.2320    -0.1490 H     1 <1>   0.0800 
 30 H        2.0240     5.4180    -0.3890 H     1 <1>   0.0800 
 31 H        0.7070     4.6820    -1.2660 H     1 <1>   0.0800 
 32 H        2.2580     4.8620    -2.0300 H     1 <1>   0.0800 
 33 H       -5.4170     4.0120     1.0300 H     1 <1>   0.1500 
 34 H       -5.4950     0.5990    -0.3730 H     1 <1>   0.3700 
 35 H       -8.1570     1.0230    -1.8100 H     1 <1>   0.1000 
 36 H      -10.0420     0.4690    -0.2770 H     1 <1>   0.1000 
 37 H       -9.1180     1.1210     1.1100 H     1 <1>   0.1000 
 38 H       -7.3320    -0.6120     0.7280 H     1 <1>   0.1000 
 39 H       -8.2250    -1.2470    -0.6880 H     1 <1>   0.1000 
@<TRIPOS>BOND
  1   1   2  2   
  2   2   3  am  
  3   2   4  1   
  4   3   5  am  
  5   3   6  1   
  6   4   7  ar  
  7   4   8  ar  
  8   5   7  1   
  9   5   9  2   
 10   6  10  1   
 11   6  22  1   
 12   6  23  1   
 13   7  11  ar  
 14   8  12  ar  
 15   8  24  1   
 16  10  13  1   
 17  10  14  1   
 18  10  25  1   
 19  11  15  ar  
 20  11  26  1   
 21  12  15  ar  
 22  12  16  1   
 23  13  27  1   
 24  13  28  1   
 25  13  29  1   
 26  14  30  1   
 27  14  31  1   
 28  14  32  1   
 29  15  33  1   
 30  16  17  am  
 31  16  34  1   
 32  17  18  2   
 33  17  19  1   
 34  19  20  1   
 35  19  21  1   
 36  19  35  1   
 37  20  21  1   
 38  20  36  1   
 39  20  37  1   
 40  21  38  1   
 41  21  39  1   
@<TRIPOS>SUBSTRUCTURE
  1 ****   4 GROUP 4 **** **** 0

# MOE 2024.06 (io_trps.svl 2023.06)
