@<TRIPOS>MOLECULE
NONAME
37 37 1 0 0 
SMALL
USER_CHARGES


@<TRIPOS>ATOM
  1 O       -0.3070     0.8970    -0.0190 O.2   1 <1>  -0.5700 
  2 C       -0.3460     2.1010    -0.1800 C.2   1 <1>   0.5440 
  3 N        0.8080     2.7420    -0.5370 N.am  1 <1>  -0.7300 
  4 C       -1.5860     2.8370    -0.0030 C.ar  1 <1>   0.0860 
  5 C        2.1110     2.0670    -0.7580 C.3   1 <1>   0.1400 
  6 C       -2.8180     2.2110    -0.1890 C.ar  1 <1>  -0.1500 
  7 C       -1.6020     4.1840     0.3560 C.ar  1 <1>  -0.1500 
  8 C        2.8160     1.8340     0.5800 C.3   1 <1>   0.1200 
  9 C       -4.0280     2.8830    -0.0380 C.ar  1 <1>   0.0830 
 10 C       -2.7900     4.8700     0.5040 C.ar  1 <1>  -0.1500 
 11 O        4.0350     1.2130     0.3560 O.3   1 <1>  -0.6800 
 12 O       -5.2150     2.2340    -0.2240 O.3   1 <1>  -0.3630 
 13 C       -4.0110     4.2460     0.3100 C.ar  1 <1>   0.0830 
 14 C       -5.2980     0.8370    -0.3850 C.3   1 <1>   0.1200 
 15 O       -5.0850     5.0630     0.4900 O.3   1 <1>  -0.3630 
 16 C       -6.7750     0.4590    -0.4330 C.3   1 <1>  -0.2400 
 17 C       -6.4230     4.6590     0.3190 C.3   1 <1>   0.1200 
 18 C       -7.3190     5.8660     0.5820 C.3   1 <1>  -0.2400 
 19 H        0.7790     3.7380    -0.7570 H     1 <1>   0.3700 
 20 H        2.7270     2.6810    -1.3920 H     1 <1>   0.0800 
 21 H        1.9390     1.1220    -1.2440 H     1 <1>   0.0800 
 22 H       -2.7930     1.1730    -0.4600 H     1 <1>   0.1500 
 23 H       -0.6770     4.7040     0.5300 H     1 <1>   0.1500 
 24 H        2.2240     1.2010     1.2200 H     1 <1>   0.0800 
 25 H        3.0100     2.7710     1.0720 H     1 <1>   0.0800 
 26 H       -2.7830     5.9100     0.7790 H     1 <1>   0.1500 
 27 H        3.8990     0.2830     0.0850 H     1 <1>   0.4000 
 28 H       -4.8080     0.5680    -1.3050 H     1 <1>   0.0800 
 29 H       -4.8120     0.3650     0.4520 H     1 <1>   0.0800 
 30 H       -6.8740    -0.6050    -0.5570 H     1 <1>   0.0800 
 31 H       -7.2540     0.9470    -1.2630 H     1 <1>   0.0800 
 32 H       -7.2600     0.7450     0.4830 H     1 <1>   0.0800 
 33 H       -6.5450     4.3060    -0.6910 H     1 <1>   0.0800 
 34 H       -6.6320     3.8700     1.0190 H     1 <1>   0.0800 
 35 H       -7.0890     6.6540    -0.1130 H     1 <1>   0.0800 
 36 H       -7.1760     6.2190     1.5880 H     1 <1>   0.0800 
 37 H       -8.3490     5.5870     0.4580 H     1 <1>   0.0800 
@<TRIPOS>BOND
  1   1   2  2   
  2   2   3  am  
  3   2   4  1   
  4   3   5  1   
  5   3  19  1   
  6   4   6  ar  
  7   4   7  ar  
  8   5   8  1   
  9   5  20  1   
 10   5  21  1   
 11   6   9  ar  
 12   6  22  1   
 13   7  10  ar  
 14   7  23  1   
 15   8  11  1   
 16   8  24  1   
 17   8  25  1   
 18   9  12  1   
 19   9  13  ar  
 20  10  13  ar  
 21  10  26  1   
 22  11  27  1   
 23  12  14  1   
 24  13  15  1   
 25  14  16  1   
 26  14  28  1   
 27  14  29  1   
 28  15  17  1   
 29  16  30  1   
 30  16  31  1   
 31  16  32  1   
 32  17  18  1   
 33  17  33  1   
 34  17  34  1   
 35  18  35  1   
 36  18  36  1   
 37  18  37  1   
@<TRIPOS>SUBSTRUCTURE
  1 ****   6 GROUP 4 **** **** 0

# MOE 2024.06 (io_trps.svl 2023.06)
