@<TRIPOS>MOLECULE
NONAME
57 60 1 0 0 
SMALL
USER_CHARGES


@<TRIPOS>ATOM
  1 O       -3.9390     2.6650     1.3500 O.3   1 <1>  -0.6830 
  2 C       -5.1240     2.4870     0.6360 C.3   1 <1>   0.3380 
  3 C       -5.7500     1.1250     0.9960 C.ar  1 <1>  -0.1500 
  4 C       -4.8120     2.6420    -0.8790 C.3   1 <1>   0.3490 
  5 C       -5.2530     0.3040     2.0070 C.ar  1 <1>  -0.1560 
  6 C       -6.8660     0.6870     0.2900 C.ar  1 <1>  -0.1560 
  7 N       -4.3380     1.3870    -1.5550 N.pl3 1 <1>  -0.7670 
  8 C       -5.8500    -0.9100     2.2990 C.ar  1 <1>  -0.1560 
  9 C       -7.4570    -0.5310     0.5720 C.ar  1 <1>  -0.1560 
 10 C       -3.4680     0.4870    -1.1020 C.cat 1 <1>   1.0690 
 11 C       -4.9850     0.8200    -2.6460 C.ar  1 <1>   0.3040 
 12 C       -6.9530    -1.3310     1.5800 C.ar  1 <1>  -0.1560 
 13 N       -2.6350     0.6910    -0.1120 N.pl3 1 <1>  -0.8390 
 14 N       -3.5750    -0.6700    -1.7590 N.pl3 1 <1>  -0.7670 
 15 C       -4.5050    -0.4710    -2.7750 C.ar  1 <1>   0.3040 
 16 C       -5.9480     1.3070    -3.5250 C.ar  1 <1>  -0.1160 
 17 C       -3.1760    -2.0140    -1.2710 C.3   1 <1>   0.3490 
 18 C       -4.9730    -1.3080    -3.7840 C.ar  1 <1>  -0.1160 
 19 C       -6.4180     0.4760    -4.5230 C.ar  1 <1>  -0.1560 
 20 C       -4.3000    -2.6000    -0.3760 C.3   1 <1>   0.3380 
 21 C       -5.9330    -0.8260    -4.6520 C.ar  1 <1>  -0.1560 
 22 N       -4.0990    -4.0240     0.0670 N.4   1 <1>  -0.9610 
 23 C       -5.3460    -4.5120     0.7330 C.3   1 <1>   0.3380 
 24 C       -2.9230    -4.2100     0.9730 C.3   1 <1>   0.3380 
 25 C       -5.2230    -6.0070     1.0270 C.3   1 <1>  -0.1660 
 26 C       -2.7350    -5.6970     1.2710 C.3   1 <1>  -0.1660 
 27 C       -3.9940    -6.3140     1.8910 C.3   1 <1>  -0.1660 
 28 H       -4.1630     2.8420     2.2910 H     1 <1>   0.3950 
 29 H       -5.7880     3.2800     0.9360 H     1 <1>   0.0730 
 30 H       -4.0890     3.4270    -1.0220 H     1 <1>   0.0730 
 31 H       -5.7200     2.9620    -1.3560 H     1 <1>   0.0730 
 32 H       -4.4050     0.5980     2.6010 H     1 <1>   0.1440 
 33 H       -7.3010     1.2940    -0.4860 H     1 <1>   0.1440 
 34 H       -5.4690    -1.5170     3.1030 H     1 <1>   0.1440 
 35 H       -8.3280    -0.8470     0.0200 H     1 <1>   0.1440 
 36 H       -7.4370    -2.2630     1.8190 H     1 <1>   0.1440 
 37 H       -1.8380     0.1110     0.1190 H     1 <1>   0.4450 
 38 H       -2.7310     1.5530     0.4430 H     1 <1>   0.4450 
 39 H       -6.3180     2.3130    -3.4380 H     1 <1>   0.1440 
 40 H       -2.2600    -1.9390    -0.7130 H     1 <1>   0.0730 
 41 H       -3.0090    -2.6580    -2.1170 H     1 <1>   0.0730 
 42 H       -4.5940    -2.3070    -3.8970 H     1 <1>   0.1440 
 43 H       -7.1650     0.8310    -5.2160 H     1 <1>   0.1440 
 44 H       -5.2230    -2.5430    -0.9290 H     1 <1>   0.0730 
 45 H       -4.4060    -1.9750     0.4940 H     1 <1>   0.0730 
 46 H       -6.3140    -1.4510    -5.4440 H     1 <1>   0.1440 
 47 H       -3.9620    -4.6450    -0.7430 H     1 <1>   0.4450 
 48 H       -6.1980    -4.3450     0.0940 H     1 <1>   0.0730 
 49 H       -5.5020    -3.9760     1.6550 H     1 <1>   0.0730 
 50 H       -3.0860    -3.6790     1.8970 H     1 <1>   0.0730 
 51 H       -2.0280    -3.8300     0.5100 H     1 <1>   0.0730 
 52 H       -5.1680    -6.5530     0.1010 H     1 <1>   0.0730 
 53 H       -6.1080    -6.3380     1.5410 H     1 <1>   0.0730 
 54 H       -1.9110    -5.8190     1.9530 H     1 <1>   0.0730 
 55 H       -2.4790    -6.2180     0.3640 H     1 <1>   0.0730 
 56 H       -3.8710    -7.3800     1.9890 H     1 <1>   0.0730 
 57 H       -4.1410    -5.9100     2.8790 H     1 <1>   0.0730 
@<TRIPOS>BOND
  1   1   2  1   
  2   1  28  1   
  3   2   3  1   
  4   2   4  1   
  5   2  29  1   
  6   3   5  ar  
  7   3   6  ar  
  8   4   7  1   
  9   4  30  1   
 10   4  31  1   
 11   5   8  ar  
 12   5  32  1   
 13   6   9  ar  
 14   6  33  1   
 15   7  10  ar  
 16   7  11  1   
 17   8  12  ar  
 18   8  34  1   
 19   9  12  ar  
 20   9  35  1   
 21  10  13  ar  
 22  10  14  ar  
 23  11  15  ar  
 24  11  16  ar  
 25  12  36  1   
 26  13  37  1   
 27  13  38  1   
 28  14  15  1   
 29  14  17  1   
 30  15  18  ar  
 31  16  19  ar  
 32  16  39  1   
 33  17  20  1   
 34  17  40  1   
 35  17  41  1   
 36  18  21  ar  
 37  18  42  1   
 38  19  21  ar  
 39  19  43  1   
 40  20  22  1   
 41  20  44  1   
 42  20  45  1   
 43  21  46  1   
 44  22  23  1   
 45  22  24  1   
 46  22  47  1   
 47  23  25  1   
 48  23  48  1   
 49  23  49  1   
 50  24  26  1   
 51  24  50  1   
 52  24  51  1   
 53  25  27  1   
 54  25  52  1   
 55  25  53  1   
 56  26  27  1   
 57  26  54  1   
 58  26  55  1   
 59  27  56  1   
 60  27  57  1   
@<TRIPOS>SUBSTRUCTURE
  1 ****  20 GROUP 4 **** **** 0

# MOE 2024.06 (io_trps.svl 2023.06)
