@<TRIPOS>MOLECULE
NONAME
41 43 1 0 0 
SMALL
USER_CHARGES


@<TRIPOS>ATOM
  1 O       -0.2180    -0.4980    -0.6800 O.2   1 <1>  -0.5700 
  2 C       -0.8800    -1.5000    -0.4630 C.2   1 <1>   0.6900 
  3 N       -0.2430    -2.6610    -0.0370 N.am  1 <1>  -0.4200 
  4 N       -2.2510    -1.4790    -0.6420 N.am  1 <1>  -0.4230 
  5 C       -0.9630    -3.8250     0.1720 C.2   1 <1>   0.7150 
  6 C        1.2370    -2.6540     0.1530 C.3   1 <1>   0.0600 
  7 C       -2.9790    -2.6400    -0.4150 C.2   1 <1>   0.2900 
  8 C       -2.9830    -0.2680    -1.1000 C.3   1 <1>   0.0600 
  9 O       -0.4050    -4.8550     0.5120 O.2   1 <1>  -0.5700 
 10 C       -2.3630    -3.7760    -0.0240 C.2   1 <1>  -0.2370 
 11 N       -4.3010    -2.7880    -0.5470 N.2   1 <1>  -0.5650 
 12 N       -3.3480    -4.7050     0.0990 N.pl3 1 <1>   0.0480 
 13 C       -4.4820    -4.0410    -0.2290 C.2   1 <1>   0.2490 
 14 C       -3.1840    -6.1160     0.5040 C.3   1 <1>   0.0160 
 15 O       -5.6730    -4.6850    -0.2190 O.3   1 <1>  -0.1450 
 16 C       -6.8780    -4.0600    -0.2700 C.ar  1 <1>   0.0820 
 17 C       -7.1470    -2.8990     0.4430 C.ar  1 <1>  -0.1500 
 18 C       -7.8740    -4.6340    -1.0410 C.ar  1 <1>  -0.1500 
 19 C       -8.3990    -2.3050     0.3820 C.ar  1 <1>  -0.1430 
 20 C       -9.1240    -4.0460    -1.1050 C.ar  1 <1>  -0.1500 
 21 C       -9.3950    -2.8830    -0.4000 C.ar  1 <1>  -0.1430 
 22 C       -8.6480    -1.0300     1.1740 C.3   1 <1>  -0.0970 
 23 C      -10.7830    -2.2670    -0.4990 C.3   1 <1>  -0.0970 
 24 H        1.7210    -2.7920    -0.7970 H     1 <1>   0.0800 
 25 H        1.5430    -3.4400     0.8220 H     1 <1>   0.0800 
 26 H        1.5520    -1.7130     0.5720 H     1 <1>   0.0800 
 27 H       -2.3200     0.5740    -1.1960 H     1 <1>   0.0800 
 28 H       -3.7540    -0.0260    -0.3900 H     1 <1>   0.0800 
 29 H       -3.4390    -0.4670    -2.0540 H     1 <1>   0.0800 
 30 H       -2.5430    -6.6140    -0.2010 H     1 <1>   0.0800 
 31 H       -4.1390    -6.6080     0.5290 H     1 <1>   0.0800 
 32 H       -2.7350    -6.1560     1.4790 H     1 <1>   0.0800 
 33 H       -6.3730    -2.4630     1.0470 H     1 <1>   0.1500 
 34 H       -7.6690    -5.5350    -1.5880 H     1 <1>   0.1500 
 35 H       -9.8850    -4.5020    -1.7120 H     1 <1>   0.1500 
 36 H       -7.7640    -0.7260     1.7030 H     1 <1>   0.0800 
 37 H       -9.4330    -1.1890     1.8910 H     1 <1>   0.0800 
 38 H       -8.9330    -0.2340     0.5100 H     1 <1>   0.0800 
 39 H      -10.7160    -1.2750    -0.9080 H     1 <1>   0.0800 
 40 H      -11.2350    -2.2170     0.4750 H     1 <1>   0.0800 
 41 H      -11.4210    -2.8520    -1.1370 H     1 <1>   0.0800 
@<TRIPOS>BOND
  1   1   2  2   
  2   2   3  am  
  3   2   4  am  
  4   3   5  am  
  5   3   6  1   
  6   4   7  1   
  7   4   8  1   
  8   5   9  2   
  9   5  10  1   
 10   6  24  1   
 11   6  25  1   
 12   6  26  1   
 13   7  10  2   
 14   7  11  1   
 15   8  27  1   
 16   8  28  1   
 17   8  29  1   
 18  10  12  1   
 19  11  13  2   
 20  12  13  1   
 21  12  14  1   
 22  13  15  1   
 23  14  30  1   
 24  14  31  1   
 25  14  32  1   
 26  15  16  1   
 27  16  17  ar  
 28  16  18  ar  
 29  17  19  ar  
 30  17  33  1   
 31  18  20  ar  
 32  18  34  1   
 33  19  21  ar  
 34  19  22  1   
 35  20  21  ar  
 36  20  35  1   
 37  21  23  1   
 38  22  36  1   
 39  22  37  1   
 40  22  38  1   
 41  23  39  1   
 42  23  40  1   
 43  23  41  1   
@<TRIPOS>SUBSTRUCTURE
  1 ****  11 GROUP 4 **** **** 0

# MOE 2024.06 (io_trps.svl 2023.06)
