@<TRIPOS>MOLECULE
NONAME
47 49 1 0 0 
SMALL
USER_CHARGES


@<TRIPOS>ATOM
  1 O       -0.6760     0.0440    -0.9330 O.2   1 <1>  -0.5700 
  2 C       -0.0220    -0.8210    -0.3730 C.2   1 <1>   0.5440 
  3 N        1.1880    -0.4650     0.1460 N.am  1 <1>  -0.7300 
  4 C       -0.5030    -2.1870    -0.2490 C.ar  1 <1>   0.0860 
  5 C        1.8680     0.8430     0.0030 C.3   1 <1>   0.1400 
  6 C       -1.8710    -2.4880    -0.1010 C.ar  1 <1>   0.1170 
  7 C        0.4070    -3.2500    -0.2670 C.ar  1 <1>  -0.1500 
  8 C        3.3530     0.6260    -0.3290 C.3   1 <1>   0.2000 
  9 N       -2.8090    -1.4450    -0.1060 N.am  1 <1>  -0.5470 
 10 C       -2.2670    -3.8170     0.0280 C.ar  1 <1>  -0.1500 
 11 C       -0.0030    -4.5610    -0.1330 C.ar  1 <1>  -0.1500 
 12 O        3.9080    -0.3220     0.5320 O.3   1 <1>  -0.5600 
 13 C        4.2240     1.8590    -0.1510 C.3   1 <1>  -0.1600 
 14 C       -4.0760    -1.2960     0.4090 C.2   1 <1>   0.5440 
 15 C       -1.3470    -4.8450     0.0170 C.ar  1 <1>  -0.1500 
 16 C        5.2870    -0.1440     0.6380 C.3   1 <1>   0.1200 
 17 C        5.5930     1.2570     0.1120 C.3   1 <1>  -0.1600 
 18 O       -4.6130    -2.2270     0.9770 O.2   1 <1>  -0.5700 
 19 C       -4.7620    -0.0200     0.2730 C.ar  1 <1>   0.0860 
 20 C       -6.1510     0.0580     0.3850 C.ar  1 <1>  -0.1500 
 21 C       -4.0800     1.1760     0.0270 C.ar  1 <1>  -0.1500 
 22 C       -6.8270     1.2570     0.2490 C.ar  1 <1>  -0.1500 
 23 C       -4.7520     2.3770    -0.1110 C.ar  1 <1>  -0.1500 
 24 C       -6.1310     2.4260    -0.0030 C.ar  1 <1>  -0.1430 
 25 C       -6.8710     3.7430    -0.1520 C.3   1 <1>  -0.0970 
 26 H        1.7700    -1.1520     0.6370 H     1 <1>   0.3700 
 27 H        1.7790     1.3840     0.9280 H     1 <1>   0.0800 
 28 H        1.4030     1.4250    -0.7740 H     1 <1>   0.0800 
 29 H        1.4560    -3.0480    -0.3940 H     1 <1>   0.1500 
 30 H        3.4520     0.2460    -1.3320 H     1 <1>   0.0800 
 31 H       -2.4220    -0.5860    -0.5190 H     1 <1>   0.3700 
 32 H       -3.3090    -4.0570     0.1340 H     1 <1>   0.1500 
 33 H        0.7170    -5.3620    -0.1470 H     1 <1>   0.1500 
 34 H        3.8970     2.4200     0.7070 H     1 <1>   0.0800 
 35 H        4.2080     2.4930    -1.0200 H     1 <1>   0.0800 
 36 H       -1.6770    -5.8650     0.1220 H     1 <1>   0.1500 
 37 H        5.7750    -0.9020     0.0510 H     1 <1>   0.0800 
 38 H        5.5580    -0.2490     1.6740 H     1 <1>   0.0800 
 39 H        6.1590     1.8330     0.8230 H     1 <1>   0.0800 
 40 H        6.1560     1.1790    -0.8020 H     1 <1>   0.0800 
 41 H       -6.7080    -0.8420     0.5820 H     1 <1>   0.1500 
 42 H       -3.0080     1.1840    -0.0550 H     1 <1>   0.1500 
 43 H       -7.8990     1.2750     0.3430 H     1 <1>   0.1500 
 44 H       -4.1940     3.2780    -0.3010 H     1 <1>   0.1500 
 45 H       -7.8360     3.5830    -0.6000 H     1 <1>   0.0800 
 46 H       -6.3160     4.4190    -0.7770 H     1 <1>   0.0800 
 47 H       -7.0070     4.1950     0.8140 H     1 <1>   0.0800 
@<TRIPOS>BOND
  1   1   2  2   
  2   2   3  am  
  3   2   4  1   
  4   3   5  1   
  5   3  26  1   
  6   4   6  ar  
  7   4   7  ar  
  8   5   8  1   
  9   5  27  1   
 10   5  28  1   
 11   6   9  1   
 12   6  10  ar  
 13   7  11  ar  
 14   7  29  1   
 15   8  12  1   
 16   8  13  1   
 17   8  30  1   
 18   9  14  am  
 19   9  31  1   
 20  10  15  ar  
 21  10  32  1   
 22  11  15  ar  
 23  11  33  1   
 24  12  16  1   
 25  13  17  1   
 26  13  34  1   
 27  13  35  1   
 28  14  18  2   
 29  14  19  1   
 30  15  36  1   
 31  16  17  1   
 32  16  37  1   
 33  16  38  1   
 34  17  39  1   
 35  17  40  1   
 36  19  20  ar  
 37  19  21  ar  
 38  20  22  ar  
 39  20  41  1   
 40  21  23  ar  
 41  21  42  1   
 42  22  24  ar  
 43  22  43  1   
 44  23  24  ar  
 45  23  44  1   
 46  24  25  1   
 47  25  45  1   
 48  25  46  1   
 49  25  47  1   
@<TRIPOS>SUBSTRUCTURE
  1 ****   1 GROUP 4 **** **** 0

# MOE 2024.06 (io_trps.svl 2023.06)
