@<TRIPOS>MOLECULE
NONAME
50 51 1 0 0 
SMALL
USER_CHARGES


@<TRIPOS>ATOM
  1 S        0.7120     1.2340     1.5700 S.o2  1 <1>   1.3330 
  2 O       -0.0080     0.0000     1.3820 O.2   1 <1>  -0.6500 
  3 O        2.0660     1.2170     2.0760 O.2   1 <1>  -0.6500 
  4 N        0.7610     2.0550     0.0520 N.am  1 <1>  -0.6930 
  5 C       -0.2570     2.3370     2.5750 C.3   1 <1>  -0.1350 
  6 C       -0.3930     2.1870    -0.7230 C.ar  1 <1>   0.1990 
  7 C        1.9220     2.9550    -0.2330 C.3   1 <1>   0.2570 
  8 C       -1.1820     3.3470    -0.6950 C.ar  1 <1>   0.0830 
  9 C       -0.7700     1.1350    -1.5460 C.ar  1 <1>  -0.1500 
 10 C        3.1150     2.2440    -0.8790 C.2   1 <1>   0.5690 
 11 O       -0.7970     4.3590     0.1420 O.3   1 <1>  -0.3630 
 12 C       -2.3170     3.4290    -1.4970 C.ar  1 <1>  -0.1500 
 13 C       -1.9000     1.2220    -2.3390 C.ar  1 <1>  -0.1500 
 14 O        3.4920     2.6290    -1.9610 O.2   1 <1>  -0.5700 
 15 N        3.7180     1.2310    -0.1980 N.am  1 <1>  -0.7300 
 16 C       -1.4210     5.6200     0.1000 C.3   1 <1>   0.1200 
 17 C       -2.6710     2.3690    -2.3160 C.ar  1 <1>  -0.1500 
 18 C        4.9060     0.4230    -0.5260 C.3   1 <1>   0.3640 
 19 C       -0.6870     6.5370     1.0740 C.3   1 <1>  -0.2400 
 20 C        6.1720     1.1540    -0.0860 C.ar  1 <1>  -0.1430 
 21 C        4.9400    -0.0050    -1.9940 C.3   1 <1>  -0.2400 
 22 C        6.9260     0.6540     0.9680 C.ar  1 <1>  -0.1500 
 23 C        6.5930     2.3180    -0.7160 C.ar  1 <1>  -0.1500 
 24 C        8.0780     1.3000     1.3800 C.ar  1 <1>  -0.1500 
 25 C        7.7450     2.9660    -0.3060 C.ar  1 <1>  -0.1500 
 26 C        8.4900     2.4570     0.7430 C.ar  1 <1>  -0.1500 
 27 H       -0.3370     1.9520     3.5730 H     1 <1>   0.0800 
 28 H       -1.2430     2.4380     2.1660 H     1 <1>   0.0800 
 29 H        0.2000     3.3060     2.6120 H     1 <1>   0.0800 
 30 H        2.2510     3.4210     0.6770 H     1 <1>   0.0800 
 31 H        1.6070     3.7370    -0.9010 H     1 <1>   0.0800 
 32 H       -0.1690     0.2430    -1.5570 H     1 <1>   0.1500 
 33 H       -2.9420     4.3010    -1.5010 H     1 <1>   0.1500 
 34 H       -2.1760     0.3960    -2.9720 H     1 <1>   0.1500 
 35 H        3.3560     1.0380     0.7460 H     1 <1>   0.3700 
 36 H       -2.4510     5.5040     0.3910 H     1 <1>   0.0800 
 37 H       -1.3560     6.0020    -0.9050 H     1 <1>   0.0800 
 38 H       -3.5500     2.4360    -2.9350 H     1 <1>   0.1500 
 39 H        4.8280    -0.4820     0.0520 H     1 <1>   0.0800 
 40 H       -0.7470     6.1430     2.0720 H     1 <1>   0.0800 
 41 H       -1.1380     7.5130     1.0640 H     1 <1>   0.0800 
 42 H        0.3440     6.6340     0.7850 H     1 <1>   0.0800 
 43 H        5.1050     0.8340    -2.6430 H     1 <1>   0.0800 
 44 H        4.0160    -0.4840    -2.2590 H     1 <1>   0.0800 
 45 H        5.7460    -0.7000    -2.1420 H     1 <1>   0.0800 
 46 H        6.6190    -0.2430     1.4760 H     1 <1>   0.1500 
 47 H        6.0200     2.7270    -1.5300 H     1 <1>   0.1500 
 48 H        8.6540     0.9040     2.1980 H     1 <1>   0.1500 
 49 H        8.0590     3.8660    -0.8040 H     1 <1>   0.1500 
 50 H        9.3850     2.9600     1.0620 H     1 <1>   0.1500 
@<TRIPOS>BOND
  1   1   2  2   
  2   1   3  2   
  3   1   4  am  
  4   1   5  1   
  5   4   6  1   
  6   4   7  1   
  7   5  27  1   
  8   5  28  1   
  9   5  29  1   
 10   6   8  ar  
 11   6   9  ar  
 12   7  10  1   
 13   7  30  1   
 14   7  31  1   
 15   8  11  1   
 16   8  12  ar  
 17   9  13  ar  
 18   9  32  1   
 19  10  14  2   
 20  10  15  am  
 21  11  16  1   
 22  12  17  ar  
 23  12  33  1   
 24  13  17  ar  
 25  13  34  1   
 26  15  18  1   
 27  15  35  1   
 28  16  19  1   
 29  16  36  1   
 30  16  37  1   
 31  17  38  1   
 32  18  20  1   
 33  18  21  1   
 34  18  39  1   
 35  19  40  1   
 36  19  41  1   
 37  19  42  1   
 38  20  22  ar  
 39  20  23  ar  
 40  21  43  1   
 41  21  44  1   
 42  21  45  1   
 43  22  24  ar  
 44  22  46  1   
 45  23  25  ar  
 46  23  47  1   
 47  24  26  ar  
 48  24  48  1   
 49  25  26  ar  
 50  25  49  1   
 51  26  50  1   
@<TRIPOS>SUBSTRUCTURE
  1 ****   7 GROUP 4 **** **** 0

# MOE 2024.06 (io_trps.svl 2023.06)
