@<TRIPOS>MOLECULE
NONAME
34 34 1 0 0 
SMALL
USER_CHARGES


@<TRIPOS>ATOM
  1 O        1.9400    -1.6830    -1.8230 O.2   1 <1>  -0.5700 
  2 C        2.0820    -1.3580    -0.6740 C.2   1 <1>   0.6590 
  3 O        1.2100    -1.6780     0.2730 O.3   1 <1>  -0.4300 
  4 C        3.2910    -0.5680    -0.2270 C.3   1 <1>  -0.0990 
  5 C        0.0440    -2.4210    -0.0160 C.3   1 <1>   0.0400 
  6 C        4.3930    -1.4920     0.3130 C.3   1 <1>  -0.0990 
  7 C        5.6260    -0.7030     0.6940 C.2   1 <1>   0.5690 
  8 O        5.6960    -0.2570     1.8100 O.2   1 <1>  -0.5700 
  9 N        6.5910    -0.5320    -0.2560 N.am  1 <1>  -0.5470 
 10 C        7.8150     0.1430    -0.1460 C.ar  1 <1>   0.1170 
 11 C        7.9060     1.5140     0.1070 C.ar  1 <1>  -0.1430 
 12 C        8.9820    -0.5900    -0.3250 C.ar  1 <1>  -0.1500 
 13 C        9.1540     2.1110     0.1840 C.ar  1 <1>  -0.1500 
 14 C        6.6710     2.3850     0.2980 C.3   1 <1>  -0.0970 
 15 C       10.2260     0.0100    -0.2540 C.ar  1 <1>  -0.1430 
 16 C       10.3070     1.3660     0.0050 C.ar  1 <1>  -0.1500 
 17 C       11.4950    -0.8010    -0.4450 C.3   1 <1>  -0.0970 
 18 H        2.9930     0.1290     0.5350 H     1 <1>   0.0800 
 19 H        3.6620    -0.0090    -1.0670 H     1 <1>   0.0800 
 20 H       -0.5080    -2.5580     0.8970 H     1 <1>   0.0800 
 21 H        0.3310    -3.3750    -0.4240 H     1 <1>   0.0800 
 22 H       -0.5490    -1.8750    -0.7290 H     1 <1>   0.0800 
 23 H        4.6500    -2.2300    -0.4260 H     1 <1>   0.0800 
 24 H        4.0340    -2.0090     1.1860 H     1 <1>   0.0800 
 25 H        6.4580    -1.0300    -1.1330 H     1 <1>   0.3700 
 26 H        8.9090    -1.6440    -0.5160 H     1 <1>   0.1500 
 27 H        9.2390     3.1640     0.3850 H     1 <1>   0.1500 
 28 H        5.9030     2.1100    -0.4010 H     1 <1>   0.0800 
 29 H        6.9060     3.4220     0.1470 H     1 <1>   0.0800 
 30 H        6.2940     2.2620     1.2980 H     1 <1>   0.0800 
 31 H       11.2660     1.8490     0.0700 H     1 <1>   0.1500 
 32 H       11.2750    -1.7630    -0.8710 H     1 <1>   0.0800 
 33 H       11.9790    -0.9460     0.5040 H     1 <1>   0.0800 
 34 H       12.1690    -0.2830    -1.1040 H     1 <1>   0.0800 
@<TRIPOS>BOND
  1   1   2  2   
  2   2   3  1   
  3   2   4  1   
  4   3   5  1   
  5   4   6  1   
  6   4  18  1   
  7   4  19  1   
  8   5  20  1   
  9   5  21  1   
 10   5  22  1   
 11   6   7  1   
 12   6  23  1   
 13   6  24  1   
 14   7   8  2   
 15   7   9  am  
 16   9  10  1   
 17   9  25  1   
 18  10  11  ar  
 19  10  12  ar  
 20  11  13  ar  
 21  11  14  1   
 22  12  15  ar  
 23  12  26  1   
 24  13  16  ar  
 25  13  27  1   
 26  14  28  1   
 27  14  29  1   
 28  14  30  1   
 29  15  16  ar  
 30  15  17  1   
 31  16  31  1   
 32  17  32  1   
 33  17  33  1   
 34  17  34  1   
@<TRIPOS>SUBSTRUCTURE
  1 ****   9 GROUP 4 **** **** 0

# MOE 2024.06 (io_trps.svl 2023.06)
