@<TRIPOS>MOLECULE
NONAME
37 38 1 0 0 
SMALL
USER_CHARGES


@<TRIPOS>ATOM
  1 S        0.0590     0.2840     0.6880 S.o2  1 <1>   1.4470 
  2 O       -0.0120     0.5730     2.1050 O.2   1 <1>  -0.6500 
  3 O       -0.6110    -0.8900     0.1730 O.2   1 <1>  -0.6500 
  4 N       -0.5770     1.6380    -0.1160 N.am  1 <1>  -0.8490 
  5 C        1.7910     0.2530     0.1460 C.ar  1 <1>  -0.0090 
  6 C       -0.0510     2.8880     0.4470 C.3   1 <1>   0.1960 
  7 C       -2.0430     1.5850    -0.1340 C.3   1 <1>   0.1960 
  8 C        2.1200     0.3920    -1.1990 C.ar  1 <1>  -0.1500 
  9 C        2.8290     0.0850     1.0590 C.ar  1 <1>  -0.1500 
 10 C       -0.0620     3.9960    -0.6090 C.3   1 <1>  -0.1600 
 11 C       -2.6860     2.6580    -1.0230 C.3   1 <1>  -0.1600 
 12 C        3.4390     0.3710    -1.6210 C.ar  1 <1>  -0.1500 
 13 C        4.1530     0.0620     0.6510 C.ar  1 <1>  -0.1500 
 14 C       -1.3520     4.8310    -0.6620 C.3   1 <1>  -0.1600 
 15 C       -2.6550     4.0630    -0.4060 C.3   1 <1>  -0.1600 
 16 C        4.4490     0.2070    -0.6930 C.ar  1 <1>   0.1010 
 17 S        6.1390     0.1930    -1.3140 S.3   1 <1>  -0.3310 
 18 C        7.2410    -0.0740     0.1440 C.3   1 <1>  -0.0100 
 19 H        0.9760     2.7410     0.7370 H     1 <1>   0.0800 
 20 H       -0.5950     3.1750     1.3320 H     1 <1>   0.0800 
 21 H       -2.4240     1.6560     0.8720 H     1 <1>   0.0800 
 22 H       -2.3500     0.6300    -0.5270 H     1 <1>   0.0800 
 23 H        1.3310     0.5180    -1.9220 H     1 <1>   0.1500 
 24 H        2.5950    -0.0300     2.1050 H     1 <1>   0.1500 
 25 H        0.1310     3.5580    -1.5740 H     1 <1>   0.0800 
 26 H        0.7530     4.6680    -0.4050 H     1 <1>   0.0800 
 27 H       -3.7180     2.3820    -1.1460 H     1 <1>   0.0800 
 28 H       -2.2380     2.6500    -2.0010 H     1 <1>   0.0800 
 29 H        3.6840     0.4800    -2.6630 H     1 <1>   0.1500 
 30 H        4.9260    -0.0680     1.3820 H     1 <1>   0.1500 
 31 H       -1.4060     5.2960    -1.6320 H     1 <1>   0.0800 
 32 H       -1.2850     5.6250     0.0630 H     1 <1>   0.0800 
 33 H       -2.8300     3.9910     0.6540 H     1 <1>   0.0800 
 34 H       -3.4660     4.6420    -0.8160 H     1 <1>   0.0800 
 35 H        8.2540    -0.0950    -0.2150 H     1 <1>   0.0800 
 36 H        6.9760    -1.0140     0.5930 H     1 <1>   0.0800 
 37 H        7.0950     0.7450     0.8250 H     1 <1>   0.0800 
@<TRIPOS>BOND
  1   1   2  2   
  2   1   3  2   
  3   1   4  am  
  4   1   5  1   
  5   4   6  1   
  6   4   7  1   
  7   5   8  ar  
  8   5   9  ar  
  9   6  10  1   
 10   6  19  1   
 11   6  20  1   
 12   7  11  1   
 13   7  21  1   
 14   7  22  1   
 15   8  12  ar  
 16   8  23  1   
 17   9  13  ar  
 18   9  24  1   
 19  10  14  1   
 20  10  25  1   
 21  10  26  1   
 22  11  15  1   
 23  11  27  1   
 24  11  28  1   
 25  12  16  ar  
 26  12  29  1   
 27  13  16  ar  
 28  13  30  1   
 29  14  15  1   
 30  14  31  1   
 31  14  32  1   
 32  15  33  1   
 33  15  34  1   
 34  16  17  1   
 35  17  18  1   
 36  18  35  1   
 37  18  36  1   
 38  18  37  1   
@<TRIPOS>SUBSTRUCTURE
  1 ****   5 GROUP 4 **** **** 0

# MOE 2024.06 (io_trps.svl 2023.06)
