@<TRIPOS>MOLECULE
NONAME
44 45 1 0 0 
SMALL
USER_CHARGES


@<TRIPOS>ATOM
  1 O       -3.3420     1.4210     0.4410 O.3   1 <1>  -0.2800 
  2 C       -4.4280     2.0890     0.1080 C.2   1 <1>  -0.0400 
  3 C       -2.2990     2.1700     0.1450 C.2   1 <1>  -0.0100 
  4 C       -4.0950     3.2930    -0.4140 C.2   1 <1>  -0.1500 
  5 C       -5.7540     1.4020     0.3660 C.3   1 <1>   0.5230 
  6 C       -2.6960     3.3430    -0.3880 C.2   1 <1>  -0.1500 
  7 N       -6.8680     2.2840    -0.0630 N.4   1 <1>  -0.9060 
  8 C       -8.2050     1.6600     0.1670 C.3   1 <1>   0.3430 
  9 C       -9.3460     2.5760    -0.2780 C.3   1 <1>   0.1200 
 10 O      -10.5440     1.8920    -0.0160 O.3   1 <1>  -0.3630 
 11 C      -11.7500     2.4440    -0.3020 C.ar  1 <1>   0.0830 
 12 C      -12.8680     1.6810    -0.0030 C.ar  1 <1>  -0.1500 
 13 C      -11.9070     3.7050    -0.8670 C.ar  1 <1>  -0.1500 
 14 C      -14.1570     2.1450    -0.2530 C.ar  1 <1>  -0.1430 
 15 C      -13.1780     4.1810    -1.1220 C.ar  1 <1>  -0.1500 
 16 C      -14.2860     3.4100    -0.8180 C.ar  1 <1>  -0.1500 
 17 C      -15.4260     1.3240     0.0670 C.3   1 <1>   0.1430 
 18 C      -16.2200     1.0820    -1.2260 C.3   1 <1>  -0.2400 
 19 C      -15.1200    -0.0500     0.6860 C.3   1 <1>  -0.2400 
 20 C      -16.2990     2.0970     1.0660 C.3   1 <1>  -0.2400 
 21 H       -1.3100     1.7930     0.3470 H     1 <1>   0.1500 
 22 H       -4.7080     4.0940    -0.7900 H     1 <1>   0.1500 
 23 H       -5.8350     1.1810     1.4180 H     1 <1>   0.0800 
 24 H       -5.7800     0.4730    -0.1800 H     1 <1>   0.0800 
 25 H       -2.0860     4.1630    -0.7300 H     1 <1>   0.1500 
 26 H       -6.7270     2.4950    -1.0590 H     1 <1>   0.4500 
 27 H       -6.7790     3.1660     0.4560 H     1 <1>   0.4500 
 28 H       -8.3300     1.4440     1.2160 H     1 <1>   0.0800 
 29 H       -8.2750     0.7350    -0.3830 H     1 <1>   0.0800 
 30 H       -9.3000     2.7720    -1.3360 H     1 <1>   0.0800 
 31 H       -9.3560     3.4920     0.2880 H     1 <1>   0.0800 
 32 H      -12.6980     0.7160     0.4310 H     1 <1>   0.1500 
 33 H      -11.0720     4.3290    -1.1150 H     1 <1>   0.1500 
 34 H      -13.3130     5.1560    -1.5590 H     1 <1>   0.1500 
 35 H      -15.2600     3.8120    -1.0300 H     1 <1>   0.1500 
 36 H      -15.6040     0.5720    -1.9450 H     1 <1>   0.0800 
 37 H      -16.5480     2.0080    -1.6600 H     1 <1>   0.0800 
 38 H      -17.0890     0.4790    -1.0300 H     1 <1>   0.0800 
 39 H      -14.5860     0.0640     1.6130 H     1 <1>   0.0800 
 40 H      -14.5310    -0.6460     0.0120 H     1 <1>   0.0800 
 41 H      -16.0310    -0.5840     0.8910 H     1 <1>   0.0800 
 42 H      -15.7390     2.3030     1.9600 H     1 <1>   0.0800 
 43 H      -17.1710     1.5260     1.3310 H     1 <1>   0.0800 
 44 H      -16.6280     3.0330     0.6520 H     1 <1>   0.0800 
@<TRIPOS>BOND
  1   1   2  1   
  2   1   3  1   
  3   2   4  2   
  4   2   5  1   
  5   3   6  2   
  6   3  21  1   
  7   4   6  1   
  8   4  22  1   
  9   5   7  1   
 10   5  23  1   
 11   5  24  1   
 12   6  25  1   
 13   7   8  1   
 14   7  26  1   
 15   7  27  1   
 16   8   9  1   
 17   8  28  1   
 18   8  29  1   
 19   9  10  1   
 20   9  30  1   
 21   9  31  1   
 22  10  11  1   
 23  11  12  ar  
 24  11  13  ar  
 25  12  14  ar  
 26  12  32  1   
 27  13  15  ar  
 28  13  33  1   
 29  14  16  ar  
 30  14  17  1   
 31  15  16  ar  
 32  15  34  1   
 33  16  35  1   
 34  17  18  1   
 35  17  19  1   
 36  17  20  1   
 37  18  36  1   
 38  18  37  1   
 39  18  38  1   
 40  19  39  1   
 41  19  40  1   
 42  19  41  1   
 43  20  42  1   
 44  20  43  1   
 45  20  44  1   
@<TRIPOS>SUBSTRUCTURE
  1 ****  10 GROUP 4 **** **** 0

# MOE 2024.06 (io_trps.svl 2023.06)
