@<TRIPOS>MOLECULE
NONAME
46 48 1 0 0 
SMALL
USER_CHARGES


@<TRIPOS>ATOM
  1 S       -0.9050    -0.3520    -0.9040 S.3   1 <1>  -0.0800 
  2 C       -1.7890     0.8020     0.0790 C.2   1 <1>  -0.1400 
  3 C        0.4650     0.7350    -1.0380 C.2   1 <1>  -0.1400 
  4 C       -1.0530     1.9170     0.2690 C.2   1 <1>  -0.1500 
  5 C       -3.1650     0.3490     0.5190 C.3   1 <1>   0.5230 
  6 C        0.2270     1.8760    -0.3690 C.2   1 <1>  -0.1500 
  7 C        1.6560     0.2540    -1.8420 C.3   1 <1>  -0.0600 
  8 N       -4.0060     1.5330     0.8350 N.4   1 <1>  -0.9590 
  9 C       -5.2920     1.1400     1.5180 C.3   1 <1>   0.3430 
 10 C       -4.2860     2.3480    -0.4060 C.3   1 <1>   0.3430 
 11 C       -6.1730     2.3580     1.8640 C.3   1 <1>   0.2090 
 12 C       -5.1550     3.5910    -0.1200 C.3   1 <1>   0.2090 
 13 N       -6.3650     3.2500     0.6850 N.pl3 1 <1>  -0.8380 
 14 C       -7.5880     3.1730     0.0200 C.ar  1 <1>   0.1000 
 15 C       -8.5840     4.1230     0.2470 C.ar  1 <1>  -0.1430 
 16 C       -7.8340     2.1380    -0.8780 C.ar  1 <1>  -0.1500 
 17 C       -9.7930     4.0210    -0.4200 C.ar  1 <1>  -0.1500 
 18 C       -8.3580     5.2740     1.2170 C.3   1 <1>  -0.0970 
 19 C       -9.0420     2.0380    -1.5440 C.ar  1 <1>  -0.1430 
 20 C      -10.0230     2.9860    -1.3090 C.ar  1 <1>  -0.1500 
 21 C       -9.3120     0.9110    -2.5250 C.3   1 <1>  -0.0970 
 22 H       -1.3300     2.7900     0.8340 H     1 <1>   0.1500 
 23 H       -3.0650    -0.2870     1.3830 H     1 <1>   0.0800 
 24 H       -3.6230    -0.2220    -0.2720 H     1 <1>   0.0800 
 25 H        0.9120     2.7050    -0.2940 H     1 <1>   0.1500 
 26 H        2.0520    -0.6470    -1.4090 H     1 <1>   0.0800 
 27 H        2.4270     1.0040    -1.8490 H     1 <1>   0.0800 
 28 H        1.3590     0.0530    -2.8560 H     1 <1>   0.0800 
 29 H       -3.4690     2.1230     1.4790 H     1 <1>   0.4500 
 30 H       -5.0790     0.5970     2.4240 H     1 <1>   0.0800 
 31 H       -5.8620     0.4940     0.8710 H     1 <1>   0.0800 
 32 H       -4.8050     1.7400    -1.1270 H     1 <1>   0.0800 
 33 H       -3.3610     2.6670    -0.8570 H     1 <1>   0.0800 
 34 H       -5.7220     2.9230     2.6610 H     1 <1>   0.0800 
 35 H       -7.1330     2.0170     2.2120 H     1 <1>   0.0800 
 36 H       -5.4610     4.0360    -1.0530 H     1 <1>   0.0800 
 37 H       -4.5770     4.3260     0.4120 H     1 <1>   0.0800 
 38 H       -7.0750     1.4060    -1.0560 H     1 <1>   0.1500 
 39 H      -10.5680     4.7480    -0.2520 H     1 <1>   0.1500 
 40 H       -8.1920     4.8890     2.2060 H     1 <1>   0.0800 
 41 H       -9.2070     5.9330     1.2430 H     1 <1>   0.0800 
 42 H       -7.4960     5.8390     0.9150 H     1 <1>   0.0800 
 43 H      -10.9700     2.9240    -1.8180 H     1 <1>   0.1500 
 44 H       -8.4380     0.3030    -2.6680 H     1 <1>   0.0800 
 45 H       -9.6060     1.3170    -3.4760 H     1 <1>   0.0800 
 46 H      -10.1070     0.2890    -2.1540 H     1 <1>   0.0800 
@<TRIPOS>BOND
  1   1   2  1   
  2   1   3  1   
  3   2   4  2   
  4   2   5  1   
  5   3   6  2   
  6   3   7  1   
  7   4   6  1   
  8   4  22  1   
  9   5   8  1   
 10   5  23  1   
 11   5  24  1   
 12   6  25  1   
 13   7  26  1   
 14   7  27  1   
 15   7  28  1   
 16   8   9  1   
 17   8  10  1   
 18   8  29  1   
 19   9  11  1   
 20   9  30  1   
 21   9  31  1   
 22  10  12  1   
 23  10  32  1   
 24  10  33  1   
 25  11  13  1   
 26  11  34  1   
 27  11  35  1   
 28  12  13  1   
 29  12  36  1   
 30  12  37  1   
 31  13  14  1   
 32  14  15  ar  
 33  14  16  ar  
 34  15  17  ar  
 35  15  18  1   
 36  16  19  ar  
 37  16  38  1   
 38  17  20  ar  
 39  17  39  1   
 40  18  40  1   
 41  18  41  1   
 42  18  42  1   
 43  19  20  ar  
 44  19  21  1   
 45  20  43  1   
 46  21  44  1   
 47  21  45  1   
 48  21  46  1   
@<TRIPOS>SUBSTRUCTURE
  1 ****  10 GROUP 4 **** **** 0

# MOE 2024.06 (io_trps.svl 2023.06)
