@<TRIPOS>MOLECULE
NONAME
38 39 1 0 0 
SMALL
USER_CHARGES


@<TRIPOS>ATOM
  1 CL      -0.9420     1.4290     0.5770 Cl    1 <1>  -0.1770 
  2 C       -1.9420     0.0260     0.2660 C.ar  1 <1>   0.1770 
  3 C       -3.3080     0.0400     0.5240 C.ar  1 <1>  -0.1440 
  4 C       -1.3060    -1.0870    -0.2500 C.ar  1 <1>  -0.1500 
  5 C       -4.0550    -1.1080     0.2370 C.ar  1 <1>   0.1170 
  6 C       -3.9940     1.2780     1.1070 C.3   1 <1>  -0.0970 
  7 C       -2.0440    -2.2210    -0.5270 C.ar  1 <1>  -0.1500 
  8 N       -5.4420    -1.1040     0.4600 N.am  1 <1>  -0.5470 
  9 C       -3.4050    -2.2250    -0.2860 C.ar  1 <1>  -0.1500 
 10 C       -6.3660    -2.1010     0.5870 C.2   1 <1>   0.6300 
 11 O       -6.1020    -3.2780     0.5610 O.2   1 <1>  -0.5700 
 12 C       -7.8070    -1.6620     0.8230 C.3   1 <1>  -0.1000 
 13 C       -8.9460    -2.0250    -0.1010 C.3   1 <1>  -0.1900 
 14 C       -8.5060    -0.5950     0.0020 C.3   1 <1>  -0.1900 
 15 C      -10.2680    -2.4850     0.5340 C.3   1 <1>  -0.1450 
 16 C       -8.6580    -2.8650    -1.3580 C.3   1 <1>  -0.1450 
 17 C       -7.8380     0.0790    -1.2110 C.3   1 <1>  -0.1450 
 18 C       -9.3540     0.4370     0.7630 C.3   1 <1>  -0.1450 
 19 H       -0.2470    -1.0620    -0.4330 H     1 <1>   0.1500 
 20 H       -4.6380     0.9990     1.9220 H     1 <1>   0.0800 
 21 H       -4.5760     1.7660     0.3470 H     1 <1>   0.0800 
 22 H       -3.2890     1.9890     1.4960 H     1 <1>   0.0800 
 23 H       -1.5650    -3.0980    -0.9290 H     1 <1>   0.1500 
 24 H       -5.8530    -0.1790     0.5500 H     1 <1>   0.3700 
 25 H       -3.9640    -3.1130    -0.5170 H     1 <1>   0.1500 
 26 H       -8.0250    -1.7070     1.8740 H     1 <1>   0.1000 
 27 H      -11.0910    -2.2310    -0.1100 H     1 <1>   0.0800 
 28 H      -10.4350    -2.0370     1.4950 H     1 <1>   0.0800 
 29 H      -10.2590    -3.5510     0.6740 H     1 <1>   0.0800 
 30 H       -8.7020    -3.9130    -1.1170 H     1 <1>   0.0800 
 31 H       -7.6820    -2.6780    -1.7650 H     1 <1>   0.0800 
 32 H       -9.3910    -2.6560    -2.1160 H     1 <1>   0.0800 
 33 H       -7.1390    -0.5670    -1.7090 H     1 <1>   0.0800 
 34 H       -7.3060     0.9620    -0.9070 H     1 <1>   0.0800 
 35 H       -8.5910     0.3660    -1.9230 H     1 <1>   0.0800 
 36 H       -9.7300     0.0440     1.6890 H     1 <1>   0.0800 
 37 H      -10.1890     0.7410     0.1570 H     1 <1>   0.0800 
 38 H       -8.7660     1.3060     0.9960 H     1 <1>   0.0800 
@<TRIPOS>BOND
  1   1   2  1   
  2   2   3  ar  
  3   2   4  ar  
  4   3   5  ar  
  5   3   6  1   
  6   4   7  ar  
  7   4  19  1   
  8   5   8  1   
  9   5   9  ar  
 10   6  20  1   
 11   6  21  1   
 12   6  22  1   
 13   7   9  ar  
 14   7  23  1   
 15   8  10  am  
 16   8  24  1   
 17   9  25  1   
 18  10  11  2   
 19  10  12  1   
 20  12  13  1   
 21  12  14  1   
 22  12  26  1   
 23  13  14  1   
 24  13  15  1   
 25  13  16  1   
 26  14  17  1   
 27  14  18  1   
 28  15  27  1   
 29  15  28  1   
 30  15  29  1   
 31  16  30  1   
 32  16  31  1   
 33  16  32  1   
 34  17  33  1   
 35  17  34  1   
 36  17  35  1   
 37  18  36  1   
 38  18  37  1   
 39  18  38  1   
@<TRIPOS>SUBSTRUCTURE
  1 ****   8 GROUP 4 **** **** 0

# MOE 2024.06 (io_trps.svl 2023.06)
