@<TRIPOS>MOLECULE
NONAME
46 47 1 0 0 
SMALL
USER_CHARGES


@<TRIPOS>ATOM
  1 S        0.1400    -0.4610     0.9730 S.3   1 <1>  -0.0800 
  2 C        0.9700     1.0160     0.4990 C.2   1 <1>   0.1040 
  3 C       -1.4240     0.2850     0.7560 C.2   1 <1>  -0.1400 
  4 N        2.3580     1.0410     0.4730 N.am  1 <1>  -0.4940 
  5 C        0.0700     2.0100     0.1940 C.2   1 <1>  -0.0860 
  6 C       -1.2980     1.5620     0.3700 C.2   1 <1>  -0.1810 
  7 C       -2.6790    -0.5270     1.0000 C.3   1 <1>   0.3200 
  8 C        3.3230     0.1080     0.7480 C.2   1 <1>   0.5690 
  9 C        0.4390     3.3300    -0.2580 C.2   1 <1>   0.8060 
 10 C       -2.5590     2.3920     0.1490 C.3   1 <1>   0.0210 
 11 N       -3.8660     0.2850     0.6000 N.am  1 <1>  -0.6600 
 12 O        3.1040    -1.0210     1.1040 O.2   1 <1>  -0.5700 
 13 C        4.7680     0.5500     0.5930 C.3   1 <1>  -0.0990 
 14 O       -0.3550     4.1910    -0.5840 O.2   1 <1>  -0.5700 
 15 O        1.7460     3.6310    -0.3250 O.3   1 <1>  -0.4300 
 16 C       -3.7780     1.7590     0.8470 C.3   1 <1>   0.1400 
 17 C       -4.9820    -0.2930     0.0630 C.2   1 <1>   0.7800 
 18 C        5.1500     0.8460    -0.8670 C.3   1 <1>  -0.2400 
 19 C        2.1940     4.9010    -0.7470 C.3   1 <1>   0.1200 
 20 O       -5.9540     0.3510    -0.2830 O.2   1 <1>  -0.5700 
 21 O       -4.9900    -1.6200    -0.0670 O.3   1 <1>  -0.4300 
 22 C        3.7190     4.8960    -0.7160 C.3   1 <1>  -0.2400 
 23 C       -6.1050    -2.2870    -0.6130 C.3   1 <1>   0.1200 
 24 C       -5.7980    -3.7810    -0.6340 C.3   1 <1>  -0.2400 
 25 H        2.7410     1.9410     0.1760 H     1 <1>   0.3700 
 26 H       -2.7520    -0.7830     2.0420 H     1 <1>   0.0800 
 27 H       -2.6280    -1.4330     0.4210 H     1 <1>   0.0800 
 28 H       -2.7520     2.4790    -0.9060 H     1 <1>   0.0800 
 29 H       -2.4330     3.3810     0.5480 H     1 <1>   0.0800 
 30 H        5.4040    -0.2310     0.9710 H     1 <1>   0.0800 
 31 H        4.9310     1.4220     1.1990 H     1 <1>   0.0800 
 32 H       -4.6750     2.2530     0.5140 H     1 <1>   0.0800 
 33 H       -3.6920     1.9160     1.9080 H     1 <1>   0.0800 
 34 H        5.0000    -0.0330    -1.4710 H     1 <1>   0.0800 
 35 H        6.1870     1.1280    -0.9270 H     1 <1>   0.0800 
 36 H        4.5520     1.6450    -1.2680 H     1 <1>   0.0800 
 37 H        1.7960     5.6450    -0.0760 H     1 <1>   0.0800 
 38 H        1.8280     5.0820    -1.7440 H     1 <1>   0.0800 
 39 H        4.0730     4.6940     0.2790 H     1 <1>   0.0800 
 40 H        4.0870     5.8610    -1.0170 H     1 <1>   0.0800 
 41 H        4.1040     4.1600    -1.3980 H     1 <1>   0.0800 
 42 H       -6.2710    -1.9120    -1.6100 H     1 <1>   0.0800 
 43 H       -6.9640    -2.0760     0.0010 H     1 <1>   0.0800 
 44 H       -4.9300    -3.9720    -1.2390 H     1 <1>   0.0800 
 45 H       -6.6320    -4.3160    -1.0500 H     1 <1>   0.0800 
 46 H       -5.6260    -4.1370     0.3660 H     1 <1>   0.0800 
@<TRIPOS>BOND
  1   1   2  1   
  2   1   3  1   
  3   2   4  1   
  4   2   5  2   
  5   3   6  2   
  6   3   7  1   
  7   4   8  am  
  8   4  25  1   
  9   5   6  1   
 10   5   9  1   
 11   6  10  1   
 12   7  11  1   
 13   7  26  1   
 14   7  27  1   
 15   8  12  2   
 16   8  13  1   
 17   9  14  2   
 18   9  15  1   
 19  10  16  1   
 20  10  28  1   
 21  10  29  1   
 22  11  16  1   
 23  11  17  am  
 24  13  18  1   
 25  13  30  1   
 26  13  31  1   
 27  15  19  1   
 28  16  32  1   
 29  16  33  1   
 30  17  20  2   
 31  17  21  1   
 32  18  34  1   
 33  18  35  1   
 34  18  36  1   
 35  19  22  1   
 36  19  37  1   
 37  19  38  1   
 38  21  23  1   
 39  22  39  1   
 40  22  40  1   
 41  22  41  1   
 42  23  24  1   
 43  23  42  1   
 44  23  43  1   
 45  24  44  1   
 46  24  45  1   
 47  24  46  1   
@<TRIPOS>SUBSTRUCTURE
  1 ****   6 GROUP 4 **** **** 0

# MOE 2024.06 (io_trps.svl 2023.06)
