@<TRIPOS>MOLECULE
NONAME
37 39 1 0 0 
SMALL
USER_CHARGES


@<TRIPOS>ATOM
  1 O        0.3350     0.0680     0.0380 O.2   1 <1>  -0.5700 
  2 C        0.7860     1.1670     0.2980 C.2   1 <1>   0.6900 
  3 N        2.1310     1.3310     0.5250 N.am  1 <1>  -0.6600 
  4 N       -0.0290     2.2580     0.4020 N.am  1 <1>  -0.5470 
  5 C        2.8480     2.6210     0.3480 C.3   1 <1>   0.1400 
  6 C        3.0120     0.1670     0.8060 C.3   1 <1>   0.1400 
  7 C       -1.3850     2.4420     0.0980 C.ar  1 <1>   0.1170 
  8 C        4.0480     2.4160    -0.5790 C.3   1 <1>  -0.1600 
  9 C        4.1950     0.1800    -0.1620 C.3   1 <1>  -0.1600 
 10 C       -2.0700     1.6440    -0.8140 C.ar  1 <1>  -0.1500 
 11 C       -2.0750     3.4780     0.7170 C.ar  1 <1>  -0.1500 
 12 C        5.0970     1.4490     0.0980 C.3   1 <1>   0.5600 
 13 C       -3.4050     1.8730    -1.0950 C.ar  1 <1>  -0.1500 
 14 C       -3.4100     3.7120     0.4370 C.ar  1 <1>  -0.1500 
 15 O        5.9560     2.5470     0.2900 O.3   1 <1>  -0.5600 
 16 O        6.0050     0.6270     0.7910 O.3   1 <1>  -0.5600 
 17 C       -4.0780     2.9080    -0.4700 C.ar  1 <1>  -0.1500 
 18 C        7.2440     2.2280    -0.0780 C.3   1 <1>   0.1200 
 19 C        7.2820     0.7870     0.3020 C.3   1 <1>   0.1200 
 20 H        0.4160     3.0240     0.8920 H     1 <1>   0.3700 
 21 H        3.1870     2.9760     1.3070 H     1 <1>   0.0800 
 22 H        2.1980     3.3610    -0.0850 H     1 <1>   0.0800 
 23 H        2.4680    -0.7570     0.7000 H     1 <1>   0.0800 
 24 H        3.3690     0.2280     1.8200 H     1 <1>   0.0800 
 25 H        4.4060     3.4090    -0.8070 H     1 <1>   0.0800 
 26 H        3.7000     2.0820    -1.5390 H     1 <1>   0.0800 
 27 H        3.8200     0.1020    -1.1660 H     1 <1>   0.0800 
 28 H        4.6910    -0.7720    -0.0410 H     1 <1>   0.0800 
 29 H       -1.5590     0.8390    -1.3090 H     1 <1>   0.1500 
 30 H       -1.5680     4.1070     1.4250 H     1 <1>   0.1500 
 31 H       -3.9190     1.2440    -1.8010 H     1 <1>   0.1500 
 32 H       -3.9310     4.5170     0.9250 H     1 <1>   0.1500 
 33 H       -5.1160     3.0860    -0.6890 H     1 <1>   0.1500 
 34 H        7.9360     2.8280     0.4860 H     1 <1>   0.0800 
 35 H        7.3670     2.3760    -1.1370 H     1 <1>   0.0800 
 36 H        7.4290     0.1430    -0.5470 H     1 <1>   0.0800 
 37 H        7.9930     0.5780     1.0820 H     1 <1>   0.0800 
@<TRIPOS>BOND
  1   1   2  2   
  2   2   3  am  
  3   2   4  am  
  4   3   5  1   
  5   3   6  1   
  6   4   7  1   
  7   4  20  1   
  8   5   8  1   
  9   5  21  1   
 10   5  22  1   
 11   6   9  1   
 12   6  23  1   
 13   6  24  1   
 14   7  10  ar  
 15   7  11  ar  
 16   8  12  1   
 17   8  25  1   
 18   8  26  1   
 19   9  12  1   
 20   9  27  1   
 21   9  28  1   
 22  10  13  ar  
 23  10  29  1   
 24  11  14  ar  
 25  11  30  1   
 26  12  15  1   
 27  12  16  1   
 28  13  17  ar  
 29  13  31  1   
 30  14  17  ar  
 31  14  32  1   
 32  15  18  1   
 33  16  19  1   
 34  17  33  1   
 35  18  19  1   
 36  18  34  1   
 37  18  35  1   
 38  19  36  1   
 39  19  37  1   
@<TRIPOS>SUBSTRUCTURE
  1 ****   3 GROUP 4 **** **** 0

# MOE 2024.06 (io_trps.svl 2023.06)
