@<TRIPOS>MOLECULE
NONAME
29 29 1 0 0 
SMALL
USER_CHARGES


@<TRIPOS>ATOM
  1 CL       0.7090    -0.4920     2.2850 Cl    1 <1>  -0.1770 
  2 C        1.8150    -1.1380     1.0920 C.ar  1 <1>   0.1770 
  3 C        1.4030    -2.1220     0.2000 C.ar  1 <1>   0.0830 
  4 C        3.1060    -0.6470     1.0620 C.ar  1 <1>  -0.1500 
  5 O        0.1450    -2.6220     0.2120 O.3   1 <1>  -0.3630 
  6 C        2.3120    -2.6230    -0.7170 C.ar  1 <1>  -0.1500 
  7 C        4.0200    -1.1350     0.1360 C.ar  1 <1>   0.1170 
  8 C       -0.8320    -1.8460    -0.4430 C.3   1 <1>   0.0400 
  9 C        3.6060    -2.1310    -0.7460 C.ar  1 <1>  -0.1500 
 10 N        5.3260    -0.6170     0.1420 N.am  1 <1>  -0.5470 
 11 C        6.2680    -0.5630    -0.8470 C.2   1 <1>   0.5690 
 12 O        6.0880    -0.9630    -1.9700 O.2   1 <1>  -0.5700 
 13 C        7.6120     0.0600    -0.5120 C.3   1 <1>  -0.0990 
 14 C        8.6600    -0.9600    -0.0310 C.3   1 <1>  -0.1600 
 15 C        8.3000    -1.6020     1.3140 C.3   1 <1>  -0.2400 
 16 H        3.3900     0.1170     1.7610 H     1 <1>   0.1500 
 17 H        2.0060    -3.3950    -1.4000 H     1 <1>   0.1500 
 18 H       -1.7710    -2.3670    -0.3830 H     1 <1>   0.0800 
 19 H       -0.5450    -1.7200    -1.4720 H     1 <1>   0.0800 
 20 H       -0.9110    -0.8910     0.0450 H     1 <1>   0.0800 
 21 H        4.2990    -2.5340    -1.4630 H     1 <1>   0.1500 
 22 H        5.6180    -0.2040     1.0250 H     1 <1>   0.3700 
 23 H        7.4810     0.8290     0.2270 H     1 <1>   0.0800 
 24 H        7.9810     0.5350    -1.4040 H     1 <1>   0.0800 
 25 H        9.6100    -0.4620     0.0640 H     1 <1>   0.0800 
 26 H        8.7700    -1.7300    -0.7770 H     1 <1>   0.0800 
 27 H        8.1630    -0.8500     2.0710 H     1 <1>   0.0800 
 28 H        9.0950    -2.2560     1.6270 H     1 <1>   0.0800 
 29 H        7.4010    -2.1880     1.2310 H     1 <1>   0.0800 
@<TRIPOS>BOND
  1   1   2  1   
  2   2   3  ar  
  3   2   4  ar  
  4   3   5  1   
  5   3   6  ar  
  6   4   7  ar  
  7   4  16  1   
  8   5   8  1   
  9   6   9  ar  
 10   6  17  1   
 11   7   9  ar  
 12   7  10  1   
 13   8  18  1   
 14   8  19  1   
 15   8  20  1   
 16   9  21  1   
 17  10  11  am  
 18  10  22  1   
 19  11  12  2   
 20  11  13  1   
 21  13  14  1   
 22  13  23  1   
 23  13  24  1   
 24  14  15  1   
 25  14  25  1   
 26  14  26  1   
 27  15  27  1   
 28  15  28  1   
 29  15  29  1   
@<TRIPOS>SUBSTRUCTURE
  1 ****   7 GROUP 4 **** **** 0

# MOE 2024.06 (io_trps.svl 2023.06)
