@<TRIPOS>MOLECULE
NONAME
51 54 1 0 0 
SMALL
USER_CHARGES


@<TRIPOS>ATOM
  1 O        0.2560     0.8930     1.7300 O.2   1 <1>  -0.5700 
  2 C       -0.0510     1.8830     1.0750 C.2   1 <1>   0.7160 
  3 N        0.9200     2.7400     0.5700 N.am  1 <1>  -0.2290 
  4 C       -1.4020     2.1990     0.8050 C.2   1 <1>  -0.0860 
  5 C        0.5170     3.8650    -0.1730 C.2   1 <1>   0.4960 
  6 C        2.2780     2.5040     0.7860 C.2   1 <1>  -0.0410 
  7 C       -1.6890     3.3180     0.0710 C.2   1 <1>  -0.0260 
  8 C       -2.6270     1.6080     1.1250 C.2   1 <1>  -0.1500 
  9 N       -0.7430     4.1520    -0.4180 N.2   1 <1>  -0.5760 
 10 C        1.5510     4.7270    -0.6760 C.2   1 <1>  -0.1240 
 11 C        3.2360     3.3300     0.3020 C.2   1 <1>  -0.1500 
 12 N       -3.0380     3.4320    -0.0700 N.pl3 1 <1>   0.0480 
 13 C       -3.6360     2.3680     0.5880 C.2   1 <1>  -0.2370 
 14 C        2.8660     4.4680    -0.4470 C.2   1 <1>  -0.1500 
 15 C        1.1590     5.9600    -1.4870 C.3   1 <1>  -0.1020 
 16 C       -3.7080     4.5320    -0.7960 C.3   1 <1>   0.0160 
 17 C       -5.0510     2.1350     0.6710 C.2   1 <1>   0.7150 
 18 O       -5.8690     2.7490     0.0090 O.2   1 <1>  -0.5700 
 19 N       -5.5150     1.1770     1.5220 N.am  1 <1>  -0.7300 
 20 C       -6.9400     0.8780     1.8250 C.3   1 <1>   0.1400 
 21 C       -7.6990     0.4050     0.5650 C.3   1 <1>   0.3430 
 22 N       -8.9710     1.1600     0.3190 N.4   1 <1>  -0.9590 
 23 C       -9.8220     0.5190    -0.7390 C.3   1 <1>   0.3430 
 24 C       -8.7370     2.6050    -0.0380 C.3   1 <1>   0.3430 
 25 C      -11.0960     1.3490    -1.0240 C.3   1 <1>   0.1200 
 26 C      -10.0680     3.3430    -0.3080 C.3   1 <1>   0.1200 
 27 O      -11.1650     2.4760    -0.1910 O.3   1 <1>  -0.5600 
 28 H        2.5370     1.6290     1.3610 H     1 <1>   0.1500 
 29 H       -2.7020     0.7000     1.6990 H     1 <1>   0.1500 
 30 H        4.2820     3.1430     0.4720 H     1 <1>   0.1500 
 31 H        3.6510     5.1050    -0.8180 H     1 <1>   0.1500 
 32 H        0.5370     6.6060    -0.8930 H     1 <1>   0.0800 
 33 H        0.6080     5.6620    -2.3620 H     1 <1>   0.0800 
 34 H        2.0250     6.5130    -1.8010 H     1 <1>   0.0800 
 35 H       -2.9790     5.2440    -1.1380 H     1 <1>   0.0800 
 36 H       -4.4010     5.0230    -0.1390 H     1 <1>   0.0800 
 37 H       -4.2340     4.1300    -1.6420 H     1 <1>   0.0800 
 38 H       -4.8190     0.7680     2.1510 H     1 <1>   0.3700 
 39 H       -7.3960     1.7610     2.2380 H     1 <1>   0.0800 
 40 H       -6.9790     0.1020     2.5690 H     1 <1>   0.0800 
 41 H       -7.9210    -0.6430     0.6770 H     1 <1>   0.0800 
 42 H       -7.0510     0.5180    -0.2890 H     1 <1>   0.0800 
 43 H       -9.5600     1.1810     1.1660 H     1 <1>   0.4500 
 44 H      -10.1120    -0.4720    -0.4300 H     1 <1>   0.0800 
 45 H       -9.2600     0.4220    -1.6530 H     1 <1>   0.0800 
 46 H       -8.1160     2.6690    -0.9160 H     1 <1>   0.0800 
 47 H       -8.2090     3.1070     0.7560 H     1 <1>   0.0800 
 48 H      -11.9750     0.7540    -0.8450 H     1 <1>   0.0800 
 49 H      -11.1160     1.6770    -2.0490 H     1 <1>   0.0800 
 50 H      -10.0700     3.7740    -1.2940 H     1 <1>   0.0800 
 51 H      -10.2010     4.1380     0.4060 H     1 <1>   0.0800 
@<TRIPOS>BOND
  1   1   2  2   
  2   2   3  am  
  3   2   4  1   
  4   3   5  1   
  5   3   6  1   
  6   4   7  2   
  7   4   8  1   
  8   5   9  2   
  9   5  10  1   
 10   6  11  2   
 11   6  28  1   
 12   7   9  1   
 13   7  12  1   
 14   8  13  2   
 15   8  29  1   
 16  10  14  2   
 17  10  15  1   
 18  11  14  1   
 19  11  30  1   
 20  12  13  1   
 21  12  16  1   
 22  13  17  1   
 23  14  31  1   
 24  15  32  1   
 25  15  33  1   
 26  15  34  1   
 27  16  35  1   
 28  16  36  1   
 29  16  37  1   
 30  17  18  2   
 31  17  19  am  
 32  19  20  1   
 33  19  38  1   
 34  20  21  1   
 35  20  39  1   
 36  20  40  1   
 37  21  22  1   
 38  21  41  1   
 39  21  42  1   
 40  22  23  1   
 41  22  24  1   
 42  22  43  1   
 43  23  25  1   
 44  23  44  1   
 45  23  45  1   
 46  24  26  1   
 47  24  46  1   
 48  24  47  1   
 49  25  27  1   
 50  25  48  1   
 51  25  49  1   
 52  26  27  1   
 53  26  50  1   
 54  26  51  1   
@<TRIPOS>SUBSTRUCTURE
  1 ****  13 GROUP 4 **** **** 0

# MOE 2024.06 (io_trps.svl 2023.06)
