@<TRIPOS>MOLECULE
NONAME
43 44 1 0 0 
SMALL
USER_CHARGES


@<TRIPOS>ATOM
  1 S       -0.0470     0.0100     0.1570 S.o2  1 <1>   1.3330 
  2 O        0.3990    -0.6800    -1.0330 O.2   1 <1>  -0.6500 
  3 O        0.2700    -0.5320     1.4600 O.2   1 <1>  -0.6500 
  4 N       -1.7320     0.1770     0.0490 N.am  1 <1>  -0.8490 
  5 C        0.5230     1.7120     0.1140 C.3   1 <1>  -0.0550 
  6 C       -2.4260    -0.9490     0.6870 C.3   1 <1>   0.1960 
  7 C       -2.1820     0.3450    -1.3380 C.3   1 <1>   0.1960 
  8 C        2.0520     1.8570     0.2090 C.3   1 <1>  -0.1600 
  9 C       -3.9340    -0.6880     0.7360 C.3   1 <1>  -0.1600 
 10 C       -3.6690     0.7030    -1.3620 C.3   1 <1>  -0.1600 
 11 C        2.4760     3.3280     0.1650 C.3   1 <1>  -0.2400 
 12 C       -4.4990    -0.3890    -0.6630 C.3   1 <1>  -0.0190 
 13 C       -6.0160    -0.1580    -0.6650 C.2   1 <1>   0.5690 
 14 O       -6.6870    -1.0480    -1.1350 O.2   1 <1>  -0.5700 
 15 N       -6.6210     0.9700    -0.1660 N.am  1 <1>  -0.6600 
 16 C       -6.0040     2.1700     0.4460 C.3   1 <1>   0.1400 
 17 C       -8.0980     1.0870    -0.1440 C.3   1 <1>   0.1400 
 18 C       -7.1440     2.8600     1.1830 C.3   1 <1>  -0.1600 
 19 C       -8.3870     2.4880     0.3840 C.3   1 <1>  -0.1600 
 20 H        0.0750     2.2440     0.9310 H     1 <1>   0.0800 
 21 H        0.1910     2.1710    -0.7960 H     1 <1>   0.0800 
 22 H       -2.0740    -1.0750     1.6980 H     1 <1>   0.0800 
 23 H       -2.2200    -1.8590     0.1460 H     1 <1>   0.0800 
 24 H       -2.0120    -0.5640    -1.8940 H     1 <1>   0.0800 
 25 H       -1.6250     1.1340    -1.8120 H     1 <1>   0.0800 
 26 H        2.5120     1.3260    -0.6080 H     1 <1>   0.0800 
 27 H        2.3950     1.4110     1.1280 H     1 <1>   0.0800 
 28 H       -4.1130     0.1290     1.4080 H     1 <1>   0.0800 
 29 H       -4.4270    -1.5540     1.1410 H     1 <1>   0.0800 
 30 H       -3.9970     0.8040    -2.3810 H     1 <1>   0.0800 
 31 H       -3.7860     1.6520    -0.8790 H     1 <1>   0.0800 
 32 H        2.1640     3.7860    -0.7570 H     1 <1>   0.0800 
 33 H        3.5470     3.4020     0.2360 H     1 <1>   0.0800 
 34 H        2.0440     3.8710     0.9880 H     1 <1>   0.0800 
 35 H       -4.3470    -1.2860    -1.2400 H     1 <1>   0.0800 
 36 H       -5.6390     2.8130    -0.3360 H     1 <1>   0.0800 
 37 H       -5.2050     1.9200     1.1190 H     1 <1>   0.0800 
 38 H       -8.4970     0.3410     0.5220 H     1 <1>   0.0800 
 39 H       -8.5070     0.9410    -1.1300 H     1 <1>   0.0800 
 40 H       -6.9970     3.9240     1.2440 H     1 <1>   0.0800 
 41 H       -7.2130     2.4570     2.1780 H     1 <1>   0.0800 
 42 H       -9.2820     2.5120     0.9800 H     1 <1>   0.0800 
 43 H       -8.5040     3.1580    -0.4500 H     1 <1>   0.0800 
@<TRIPOS>BOND
  1   1   2  2   
  2   1   3  2   
  3   1   4  am  
  4   1   5  1   
  5   4   6  1   
  6   4   7  1   
  7   5   8  1   
  8   5  20  1   
  9   5  21  1   
 10   6   9  1   
 11   6  22  1   
 12   6  23  1   
 13   7  10  1   
 14   7  24  1   
 15   7  25  1   
 16   8  11  1   
 17   8  26  1   
 18   8  27  1   
 19   9  12  1   
 20   9  28  1   
 21   9  29  1   
 22  10  12  1   
 23  10  30  1   
 24  10  31  1   
 25  11  32  1   
 26  11  33  1   
 27  11  34  1   
 28  12  13  1   
 29  12  35  1   
 30  13  14  2   
 31  13  15  am  
 32  15  16  1   
 33  15  17  1   
 34  16  18  1   
 35  16  36  1   
 36  16  37  1   
 37  17  19  1   
 38  17  38  1   
 39  17  39  1   
 40  18  19  1   
 41  18  40  1   
 42  18  41  1   
 43  19  42  1   
 44  19  43  1   
@<TRIPOS>SUBSTRUCTURE
  1 ****  10 GROUP 4 **** **** 0

# MOE 2024.06 (io_trps.svl 2023.06)
