@<TRIPOS>MOLECULE
NONAME
46 47 1 0 0 
SMALL
USER_CHARGES


@<TRIPOS>ATOM
  1 S       -0.2090    -0.4530    -0.1740 S.o2  1 <1>   1.4470 
  2 O       -0.6020    -1.2890    -1.2830 O.2   1 <1>  -0.6500 
  3 O       -0.7070    -0.7290     1.1540 O.2   1 <1>  -0.6500 
  4 N       -0.7430     1.0690    -0.6290 N.am  1 <1>  -0.9140 
  5 C        1.5940    -0.2690    -0.1370 C.ar  1 <1>  -0.0090 
  6 C       -2.1260     1.3200    -0.2970 C.3   1 <1>   0.2760 
  7 C        2.4290    -1.1870    -0.7640 C.ar  1 <1>  -0.1500 
  8 C        2.1940     0.7920     0.5310 C.ar  1 <1>  -0.1500 
  9 C       -2.7470     2.1290    -1.4420 C.3   1 <1>  -0.1600 
 10 C       -2.1980     2.1060     1.0190 C.3   1 <1>  -0.1600 
 11 C        3.8050    -1.0470    -0.7320 C.ar  1 <1>  -0.1500 
 12 C        3.5690     0.9360     0.5660 C.ar  1 <1>  -0.1500 
 13 C       -4.1940     2.5320    -1.1220 C.3   1 <1>  -0.1600 
 14 C       -3.6420     2.5140     1.3500 C.3   1 <1>  -0.1600 
 15 C        4.4000     0.0200    -0.0700 C.ar  1 <1>   0.1170 
 16 C       -4.2720     3.3080     0.2000 C.3   1 <1>  -0.1600 
 17 N        5.7990     0.1150    -0.0590 N.am  1 <1>  -0.5470 
 18 C        6.6200     1.1960     0.1260 C.2   1 <1>   0.5690 
 19 O        6.2110     2.3200     0.2840 O.2   1 <1>  -0.5700 
 20 C        8.1330     0.9480     0.1130 C.3   1 <1>  -0.0190 
 21 C        8.7960     1.4190     1.4180 C.3   1 <1>  -0.2400 
 22 C        8.8020     1.6310    -1.0910 C.3   1 <1>  -0.2400 
 23 H       -0.7100     1.0150    -1.6440 H     1 <1>   0.4200 
 24 H       -2.6700     0.3930    -0.1980 H     1 <1>   0.0800 
 25 H        1.9920    -2.0230    -1.2860 H     1 <1>   0.1500 
 26 H        1.5730     1.5170     1.0310 H     1 <1>   0.1500 
 27 H       -2.7400     1.5430    -2.3430 H     1 <1>   0.0800 
 28 H       -2.1660     3.0210    -1.6060 H     1 <1>   0.0800 
 29 H       -1.5930     2.9920     0.9370 H     1 <1>   0.0800 
 30 H       -1.8130     1.5070     1.8250 H     1 <1>   0.0800 
 31 H        4.4200    -1.7740    -1.2310 H     1 <1>   0.1500 
 32 H        3.9940     1.7690     1.0960 H     1 <1>   0.1500 
 33 H       -4.8050     1.6480    -1.0520 H     1 <1>   0.0800 
 34 H       -4.5840     3.1410    -1.9200 H     1 <1>   0.0800 
 35 H       -3.6510     3.1080     2.2480 H     1 <1>   0.0800 
 36 H       -4.2270     1.6290     1.5370 H     1 <1>   0.0800 
 37 H       -5.3010     3.5230     0.4320 H     1 <1>   0.0800 
 38 H       -3.7570     4.2480     0.0920 H     1 <1>   0.0800 
 39 H        6.2830    -0.7560    -0.2610 H     1 <1>   0.3700 
 40 H        8.3040    -0.1100     0.0260 H     1 <1>   0.0800 
 41 H        8.6660     2.4810     1.5400 H     1 <1>   0.0800 
 42 H        9.8480     1.1980     1.4100 H     1 <1>   0.0800 
 43 H        8.3470     0.9250     2.2620 H     1 <1>   0.0800 
 44 H        8.6650     2.6980    -1.0360 H     1 <1>   0.0800 
 45 H        8.3630     1.2820    -2.0090 H     1 <1>   0.0800 
 46 H        9.8560     1.4190    -1.1100 H     1 <1>   0.0800 
@<TRIPOS>BOND
  1   1   2  2   
  2   1   3  2   
  3   1   4  am  
  4   1   5  1   
  5   4   6  1   
  6   4  23  1   
  7   5   7  ar  
  8   5   8  ar  
  9   6   9  1   
 10   6  10  1   
 11   6  24  1   
 12   7  11  ar  
 13   7  25  1   
 14   8  12  ar  
 15   8  26  1   
 16   9  13  1   
 17   9  27  1   
 18   9  28  1   
 19  10  14  1   
 20  10  29  1   
 21  10  30  1   
 22  11  15  ar  
 23  11  31  1   
 24  12  15  ar  
 25  12  32  1   
 26  13  16  1   
 27  13  33  1   
 28  13  34  1   
 29  14  16  1   
 30  14  35  1   
 31  14  36  1   
 32  15  17  1   
 33  16  37  1   
 34  16  38  1   
 35  17  18  am  
 36  17  39  1   
 37  18  19  2   
 38  18  20  1   
 39  20  21  1   
 40  20  22  1   
 41  20  40  1   
 42  21  41  1   
 43  21  42  1   
 44  21  43  1   
 45  22  44  1   
 46  22  45  1   
 47  22  46  1   
@<TRIPOS>SUBSTRUCTURE
  1 ****   8 GROUP 4 **** **** 0

# MOE 2024.06 (io_trps.svl 2023.06)
