@<TRIPOS>MOLECULE
NONAME
47 49 1 0 0 
SMALL
USER_CHARGES


@<TRIPOS>ATOM
  1 CL       4.6490    -0.3370    -4.9000 Cl    1 <1>  -0.1770 
  2 C        4.0690     0.2390    -3.3580 C.ar  1 <1>   0.1770 
  3 C        4.8950     0.1770    -2.2560 C.ar  1 <1>  -0.1500 
  4 C        2.7870     0.7430    -3.2670 C.ar  1 <1>  -0.1500 
  5 C        4.4410     0.6270    -1.0220 C.ar  1 <1>   0.1990 
  6 C        2.3270     1.1950    -2.0420 C.ar  1 <1>  -0.1500 
  7 N        5.2700     0.5480     0.0940 N.am  1 <1>  -0.6930 
  8 C        3.1430     1.1410    -0.9210 C.ar  1 <1>  -0.1440 
  9 S        5.6420    -0.9880     0.7980 S.o2  1 <1>   1.4470 
 10 C        6.2740     1.6420     0.2910 C.3   1 <1>   0.2570 
 11 C        2.5950     1.6420     0.4100 C.3   1 <1>  -0.0960 
 12 O        6.2750    -1.7800    -0.2290 O.2   1 <1>  -0.6500 
 13 O        6.3590    -0.6970     2.0210 O.2   1 <1>  -0.6500 
 14 C        4.0010    -1.6460     1.2050 C.ar  1 <1>  -0.0090 
 15 C        7.4190     1.6680    -0.7320 C.2   1 <1>   0.5690 
 16 C        3.4820    -1.5480     2.4920 C.ar  1 <1>  -0.1500 
 17 C        3.2070    -2.2380     0.2290 C.ar  1 <1>  -0.1500 
 18 O        7.2560     2.3350    -1.7290 O.2   1 <1>  -0.5700 
 19 N        8.5980     0.9970    -0.5290 N.am  1 <1>  -0.6600 
 20 C        2.2180    -2.0250     2.7960 C.ar  1 <1>  -0.1500 
 21 C        1.9420    -2.7160     0.5240 C.ar  1 <1>  -0.1500 
 22 C        8.9950     0.1970     0.6520 C.3   1 <1>   0.1400 
 23 C        9.6950     1.0400    -1.5210 C.3   1 <1>   0.1400 
 24 C        1.4460    -2.6100     1.8100 C.ar  1 <1>  -0.1500 
 25 C       10.5100     0.0840     0.5420 C.3   1 <1>  -0.1600 
 26 C       10.7800     0.1270    -0.9590 C.3   1 <1>  -0.1600 
 27 H        5.8890    -0.2160    -2.3590 H     1 <1>   0.1500 
 28 H        2.1630     0.7810    -4.1420 H     1 <1>   0.1500 
 29 H        1.3270     1.5880    -1.9700 H     1 <1>   0.1500 
 30 H        6.6800     1.5990     1.2830 H     1 <1>   0.0800 
 31 H        5.7590     2.5820     0.2090 H     1 <1>   0.0800 
 32 H        2.4230     0.8130     1.0710 H     1 <1>   0.0800 
 33 H        1.6660     2.1650     0.2730 H     1 <1>   0.0800 
 34 H        3.2930     2.3160     0.8720 H     1 <1>   0.0800 
 35 H        4.0740    -1.0940     3.2690 H     1 <1>   0.1500 
 36 H        3.5830    -2.3240    -0.7770 H     1 <1>   0.1500 
 37 H        1.8370    -1.9420     3.8000 H     1 <1>   0.1500 
 38 H        1.3450    -3.1710    -0.2490 H     1 <1>   0.1500 
 39 H        8.5580    -0.7840     0.5780 H     1 <1>   0.0800 
 40 H        8.7000     0.6640     1.5760 H     1 <1>   0.0800 
 41 H       10.0540     2.0520    -1.6050 H     1 <1>   0.0800 
 42 H        9.3490     0.7010    -2.4840 H     1 <1>   0.0800 
 43 H        0.4630    -2.9830     2.0430 H     1 <1>   0.1500 
 44 H       10.8760    -0.8180     1.0000 H     1 <1>   0.0800 
 45 H       10.9620     0.9330     1.0230 H     1 <1>   0.0800 
 46 H       11.7660     0.4890    -1.1900 H     1 <1>   0.0800 
 47 H       10.6590    -0.8560    -1.3800 H     1 <1>   0.0800 
@<TRIPOS>BOND
  1   1   2  1   
  2   2   3  ar  
  3   2   4  ar  
  4   3   5  ar  
  5   3  27  1   
  6   4   6  ar  
  7   4  28  1   
  8   5   7  1   
  9   5   8  ar  
 10   6   8  ar  
 11   6  29  1   
 12   7   9  am  
 13   7  10  1   
 14   8  11  1   
 15   9  12  2   
 16   9  13  2   
 17   9  14  1   
 18  10  15  1   
 19  10  30  1   
 20  10  31  1   
 21  11  32  1   
 22  11  33  1   
 23  11  34  1   
 24  14  16  ar  
 25  14  17  ar  
 26  15  18  2   
 27  15  19  am  
 28  16  20  ar  
 29  16  35  1   
 30  17  21  ar  
 31  17  36  1   
 32  19  22  1   
 33  19  23  1   
 34  20  24  ar  
 35  20  37  1   
 36  21  24  ar  
 37  21  38  1   
 38  22  25  1   
 39  22  39  1   
 40  22  40  1   
 41  23  26  1   
 42  23  41  1   
 43  23  42  1   
 44  24  43  1   
 45  25  26  1   
 46  25  44  1   
 47  25  45  1   
 48  26  46  1   
 49  26  47  1   
@<TRIPOS>SUBSTRUCTURE
  1 ****   7 GROUP 4 **** **** 0

# MOE 2024.06 (io_trps.svl 2023.06)
