@<TRIPOS>MOLECULE
NONAME
43 44 1 0 0 
SMALL
USER_CHARGES


@<TRIPOS>ATOM
  1 O       -1.2750     0.8360    -0.8750 O.2   1 <1>  -0.5700 
  2 C       -1.3070     2.0480    -0.9540 C.2   1 <1>   0.6900 
  3 N       -2.5030     2.6600    -1.1860 N.am  1 <1>  -0.6600 
  4 N       -0.2100     2.8300    -0.7820 N.am  1 <1>  -0.5470 
  5 C       -3.4540     1.9750    -2.1090 C.3   1 <1>   0.1400 
  6 C       -3.1770     3.2820    -0.0140 C.3   1 <1>   0.1400 
  7 C        1.1140     2.4380    -0.5520 C.ar  1 <1>   0.1170 
  8 C       -4.2700     0.9120    -1.3470 C.3   1 <1>   0.3430 
  9 C       -3.9960     2.2190     0.7500 C.3   1 <1>   0.3430 
 10 C        1.5180     1.7500     0.5960 C.ar  1 <1>  -0.1440 
 11 C        2.0690     2.7730    -1.5040 C.ar  1 <1>  -0.1500 
 12 N       -4.9740     1.4890    -0.1430 N.4   1 <1>  -0.9590 
 13 C        2.8520     1.4060     0.7530 C.ar  1 <1>  -0.1500 
 14 C        0.5390     1.3650     1.6970 C.3   1 <1>  -0.0970 
 15 C        3.3970     2.4300    -1.3350 C.ar  1 <1>  -0.1500 
 16 C       -5.6910     0.4110     0.5860 C.3   1 <1>   0.3430 
 17 C        3.7960     1.7420    -0.2030 C.ar  1 <1>  -0.1430 
 18 C       -6.6900     1.0220     1.5610 C.3   1 <1>  -0.2400 
 19 C        5.2500     1.3520    -0.0100 C.3   1 <1>  -0.0970 
 20 H       -0.3270     3.7730    -1.1420 H     1 <1>   0.3700 
 21 H       -2.8990     1.4940    -2.8990 H     1 <1>   0.0800 
 22 H       -4.1090     2.6990    -2.5610 H     1 <1>   0.0800 
 23 H       -3.8180     4.0800    -0.3440 H     1 <1>   0.0800 
 24 H       -2.4390     3.7030     0.6490 H     1 <1>   0.0800 
 25 H       -3.5920     0.1350    -1.0320 H     1 <1>   0.0800 
 26 H       -4.9880     0.4700    -2.0180 H     1 <1>   0.0800 
 27 H       -4.5220     2.6970     1.5590 H     1 <1>   0.0800 
 28 H       -3.3070     1.5090     1.1780 H     1 <1>   0.0800 
 29 H        1.7720     3.3020    -2.3900 H     1 <1>   0.1500 
 30 H       -5.6710     2.1660    -0.4780 H     1 <1>   0.4500 
 31 H        3.1640     0.8680     1.6310 H     1 <1>   0.1500 
 32 H        1.0580     1.1730     2.6180 H     1 <1>   0.0800 
 33 H       -0.1640     2.1590     1.8680 H     1 <1>   0.0800 
 34 H        0.0080     0.4750     1.4120 H     1 <1>   0.0800 
 35 H        4.1170     2.6960    -2.0880 H     1 <1>   0.1500 
 36 H       -4.9870    -0.2140     1.1140 H     1 <1>   0.0800 
 37 H       -6.2270    -0.2080    -0.1170 H     1 <1>   0.0800 
 38 H       -6.1960     1.5700     2.3430 H     1 <1>   0.0800 
 39 H       -7.2520     0.2320     2.0270 H     1 <1>   0.0800 
 40 H       -7.3850     1.6630     1.0490 H     1 <1>   0.0800 
 41 H        5.4020     0.3430    -0.3470 H     1 <1>   0.0800 
 42 H        5.5190     1.4170     1.0290 H     1 <1>   0.0800 
 43 H        5.8940     2.0060    -0.5690 H     1 <1>   0.0800 
@<TRIPOS>BOND
  1   1   2  2   
  2   2   3  am  
  3   2   4  am  
  4   3   5  1   
  5   3   6  1   
  6   4   7  1   
  7   4  20  1   
  8   5   8  1   
  9   5  21  1   
 10   5  22  1   
 11   6   9  1   
 12   6  23  1   
 13   6  24  1   
 14   7  10  ar  
 15   7  11  ar  
 16   8  12  1   
 17   8  25  1   
 18   8  26  1   
 19   9  12  1   
 20   9  27  1   
 21   9  28  1   
 22  10  13  ar  
 23  10  14  1   
 24  11  15  ar  
 25  11  29  1   
 26  12  16  1   
 27  12  30  1   
 28  13  17  ar  
 29  13  31  1   
 30  14  32  1   
 31  14  33  1   
 32  14  34  1   
 33  15  17  ar  
 34  15  35  1   
 35  16  18  1   
 36  16  36  1   
 37  16  37  1   
 38  17  19  1   
 39  18  38  1   
 40  18  39  1   
 41  18  40  1   
 42  19  41  1   
 43  19  42  1   
 44  19  43  1   
@<TRIPOS>SUBSTRUCTURE
  1 ****   2 GROUP 4 **** **** 0

# MOE 2024.06 (io_trps.svl 2023.06)
