@<TRIPOS>MOLECULE
NONAME
42 44 1 0 0 
SMALL
USER_CHARGES


@<TRIPOS>ATOM
  1 BR       0.7150    -0.1570    -1.8480 Br    1 <1>  -0.1110 
  2 C        2.3270     0.6200    -1.1350 C.ar  1 <1>   0.1110 
  3 C        3.4040     0.8470    -1.9710 C.ar  1 <1>   0.1600 
  4 C        2.3840     0.9400     0.2030 C.ar  1 <1>  -0.1500 
  5 N        4.5500     1.3770    -1.5640 N.ar  1 <1>  -0.6200 
  6 C        3.5730     1.4900     0.6290 C.ar  1 <1>  -0.1500 
  7 C        4.6210     1.6900    -0.2750 C.ar  1 <1>   0.4270 
  8 N        5.8420     2.2320     0.0570 N.am  1 <1>  -0.5470 
  9 C        6.4090     2.6190     1.2380 C.2   1 <1>   0.5690 
 10 O        5.8180     2.5990     2.2900 O.2   1 <1>  -0.5700 
 11 C        7.8470     3.1550     1.2030 C.3   1 <1>   0.1710 
 12 N        8.9300     2.1380     1.0680 N.3   1 <1>  -0.8100 
 13 C        8.9140     1.4090    -0.2260 C.3   1 <1>   0.1100 
 14 C       10.2540     2.7710     1.2810 C.3   1 <1>   0.1100 
 15 C       10.0750     0.4030    -0.3540 C.3   1 <1>   0.2090 
 16 C       11.4180     1.7690     1.1650 C.3   1 <1>   0.2090 
 17 N       11.3870     1.0830    -0.1580 N.pl3 1 <1>  -0.8380 
 18 C       12.5230     0.3350    -0.4940 C.ar  1 <1>   0.1000 
 19 C       12.9570    -0.8170     0.1750 C.ar  1 <1>   0.1900 
 20 C       13.2870     0.7560    -1.5740 C.ar  1 <1>  -0.1500 
 21 F       12.2800    -1.2700     1.2050 F     1 <1>  -0.1900 
 22 C       14.0860    -1.5180    -0.1990 C.ar  1 <1>  -0.1500 
 23 C       14.4240     0.0660    -1.9650 C.ar  1 <1>  -0.1500 
 24 C       14.8260    -1.0710    -1.2810 C.ar  1 <1>  -0.1500 
 25 H        3.3160     0.5820    -3.0100 H     1 <1>   0.1500 
 26 H        1.5520     0.7680     0.8640 H     1 <1>   0.1500 
 27 H        3.6850     1.7630     1.6610 H     1 <1>   0.1500 
 28 H        6.4380     2.2900    -0.7610 H     1 <1>   0.3700 
 29 H        7.9980     3.6870     2.1260 H     1 <1>   0.0800 
 30 H        7.9280     3.8700     0.4040 H     1 <1>   0.0800 
 31 H        8.9770     2.1080    -1.0420 H     1 <1>   0.0800 
 32 H        7.9980     0.8550    -0.3170 H     1 <1>   0.0800 
 33 H       10.2820     3.2130     2.2620 H     1 <1>   0.0800 
 34 H       10.4060     3.5530     0.5570 H     1 <1>   0.0800 
 35 H       10.0530    -0.0510    -1.3290 H     1 <1>   0.0800 
 36 H        9.9530    -0.3720     0.3820 H     1 <1>   0.0800 
 37 H       11.3400     1.0440     1.9560 H     1 <1>   0.0800 
 38 H       12.3540     2.2890     1.2740 H     1 <1>   0.0800 
 39 H       12.9770     1.6370    -2.1060 H     1 <1>   0.1500 
 40 H       14.3790    -2.3970     0.3460 H     1 <1>   0.1500 
 41 H       14.9970     0.4150    -2.8070 H     1 <1>   0.1500 
 42 H       15.7100    -1.6030    -1.5900 H     1 <1>   0.1500 
@<TRIPOS>BOND
  1   1   2  1   
  2   2   3  ar  
  3   2   4  ar  
  4   3   5  ar  
  5   3  25  1   
  6   4   6  ar  
  7   4  26  1   
  8   5   7  ar  
  9   6   7  ar  
 10   6  27  1   
 11   7   8  1   
 12   8   9  am  
 13   8  28  1   
 14   9  10  2   
 15   9  11  1   
 16  11  12  1   
 17  11  29  1   
 18  11  30  1   
 19  12  13  1   
 20  12  14  1   
 21  13  15  1   
 22  13  31  1   
 23  13  32  1   
 24  14  16  1   
 25  14  33  1   
 26  14  34  1   
 27  15  17  1   
 28  15  35  1   
 29  15  36  1   
 30  16  17  1   
 31  16  37  1   
 32  16  38  1   
 33  17  18  1   
 34  18  19  ar  
 35  18  20  ar  
 36  19  21  1   
 37  19  22  ar  
 38  20  23  ar  
 39  20  39  1   
 40  22  24  ar  
 41  22  40  1   
 42  23  24  ar  
 43  23  41  1   
 44  24  42  1   
@<TRIPOS>SUBSTRUCTURE
  1 ****  13 GROUP 4 **** **** 0

# MOE 2024.06 (io_trps.svl 2023.06)
