@<TRIPOS>MOLECULE
NONAME
36 37 1 0 0 
SMALL
USER_CHARGES


@<TRIPOS>ATOM
  1 O        1.7800     1.1250     1.5340 O.3   1 <1>  -0.6800 
  2 C        1.3460     0.6320     0.3040 C.3   1 <1>   0.2000 
  3 C        2.5450    -0.0910    -0.3390 C.3   1 <1>   0.3430 
  4 C        0.9070     1.8350    -0.5520 C.3   1 <1>  -0.1600 
  5 N        3.6810     0.8830    -0.3620 N.4   1 <1>  -0.9590 
  6 C        1.9430     2.2180    -1.6330 C.3   1 <1>  -0.1600 
  7 C        3.4130     2.1070    -1.1890 C.3   1 <1>   0.3430 
  8 C        5.0000     0.2410    -0.6190 C.3   1 <1>   0.3430 
  9 C        6.1700     1.1540    -0.2190 C.3   1 <1>  -0.0800 
 10 C        7.4980     0.4530    -0.5640 C.3   1 <1>  -0.0220 
 11 C        6.1400     1.5460     1.2760 C.3   1 <1>  -0.1600 
 12 C        8.6830     1.1990     0.0200 C.2   1 <1>  -0.2880 
 13 C        7.2670     2.5320     1.6230 C.3   1 <1>  -0.0220 
 14 C        8.5780     2.1230     0.9770 C.2   1 <1>  -0.2880 
 15 H        1.0250     1.4910     2.0430 H     1 <1>   0.4000 
 16 H        0.5290    -0.0480     0.4790 H     1 <1>   0.0800 
 17 H        2.2990    -0.4160    -1.3360 H     1 <1>   0.0800 
 18 H        2.7980    -0.9530     0.2560 H     1 <1>   0.0800 
 19 H        0.7030     2.6870     0.0760 H     1 <1>   0.0800 
 20 H       -0.0150     1.5870    -1.0500 H     1 <1>   0.0800 
 21 H        3.6700     1.2140     0.6200 H     1 <1>   0.4500 
 22 H        1.7530     3.2220    -1.9740 H     1 <1>   0.0800 
 23 H        1.8080     1.5770    -2.4880 H     1 <1>   0.0800 
 24 H        4.0400     2.1020    -2.0660 H     1 <1>   0.0800 
 25 H        3.6710     2.9790    -0.6090 H     1 <1>   0.0800 
 26 H        5.0810    -0.0120    -1.6640 H     1 <1>   0.0800 
 27 H        5.0700    -0.6710    -0.0490 H     1 <1>   0.0800 
 28 H        6.1310     2.0550    -0.8070 H     1 <1>   0.0800 
 29 H        7.6100     0.4010    -1.6330 H     1 <1>   0.0800 
 30 H        7.5110    -0.5520    -0.1760 H     1 <1>   0.0800 
 31 H        6.2660     0.6600     1.8760 H     1 <1>   0.0800 
 32 H        5.2040     1.9990     1.5490 H     1 <1>   0.0800 
 33 H        9.6280     0.9100    -0.4110 H     1 <1>   0.1500 
 34 H        7.3890     2.5690     2.6920 H     1 <1>   0.0800 
 35 H        7.0110     3.5210     1.2850 H     1 <1>   0.0800 
 36 H        9.4300     2.6560     1.3700 H     1 <1>   0.1500 
@<TRIPOS>BOND
  1   1   2  1   
  2   1  15  1   
  3   2   3  1   
  4   2   4  1   
  5   2  16  1   
  6   3   5  1   
  7   3  17  1   
  8   3  18  1   
  9   4   6  1   
 10   4  19  1   
 11   4  20  1   
 12   5   7  1   
 13   5   8  1   
 14   5  21  1   
 15   6   7  1   
 16   6  22  1   
 17   6  23  1   
 18   7  24  1   
 19   7  25  1   
 20   8   9  1   
 21   8  26  1   
 22   8  27  1   
 23   9  10  1   
 24   9  11  1   
 25   9  28  1   
 26  10  12  1   
 27  10  29  1   
 28  10  30  1   
 29  11  13  1   
 30  11  31  1   
 31  11  32  1   
 32  12  14  2   
 33  12  33  1   
 34  13  14  1   
 35  13  34  1   
 36  13  35  1   
 37  14  36  1   
@<TRIPOS>SUBSTRUCTURE
  1 ****   5 GROUP 4 **** **** 0

# MOE 2024.06 (io_trps.svl 2023.06)
