@<TRIPOS>MOLECULE
NONAME
46 47 1 0 0 
SMALL
USER_CHARGES


@<TRIPOS>ATOM
  1 S        0.2490     0.1730     0.4410 S.o2  1 <1>   1.3330 
  2 O        1.1080    -0.7710    -0.2380 O.2   1 <1>  -0.6500 
  3 O       -0.0970    -0.0370     1.8290 O.2   1 <1>  -0.6500 
  4 N        0.9610     1.7080     0.3200 N.am  1 <1>  -0.8490 
  5 C       -1.2520     0.3520    -0.5310 C.3   1 <1>  -0.0550 
  6 C        2.4210     1.6390     0.4960 C.3   1 <1>   0.1960 
  7 C        0.3780     2.6680     1.2650 C.3   1 <1>   0.1960 
  8 C       -2.0980    -0.9300    -0.6020 C.3   1 <1>  -0.1600 
  9 C        3.0640     3.0010     0.2010 C.3   1 <1>  -0.0190 
 10 C        0.9270     4.0730     0.9960 C.3   1 <1>  -0.1600 
 11 C       -3.3630    -0.7170    -1.4400 C.3   1 <1>  -0.2400 
 12 C        4.5720     2.9160     0.3720 C.2   1 <1>   0.6590 
 13 C        2.4580     4.1010     1.0930 C.3   1 <1>  -0.1600 
 14 O        5.0630     2.2910     1.2770 O.2   1 <1>  -0.5700 
 15 O        5.2800     3.5850    -0.5360 O.3   1 <1>  -0.2320 
 16 C        6.6330     3.6300    -0.6720 C.ar  1 <1>   0.0820 
 17 C        7.1870     4.8040    -1.1590 C.ar  1 <1>  -0.1500 
 18 C        7.4600     2.5540    -0.3670 C.ar  1 <1>  -0.1500 
 19 C        8.5560     4.9080    -1.3280 C.ar  1 <1>  -0.1500 
 20 C        8.8300     2.6600    -0.5360 C.ar  1 <1>  -0.1500 
 21 C        9.3850     3.8420    -1.0180 C.ar  1 <1>   0.0820 
 22 O       10.7160     4.0290    -1.2110 O.3   1 <1>  -0.3620 
 23 C       11.6470     3.0180    -0.8950 C.3   1 <1>   0.0400 
 24 H       -0.9820     0.6440    -1.5270 H     1 <1>   0.0800 
 25 H       -1.8510     1.1350    -0.1110 H     1 <1>   0.0800 
 26 H        2.8390     0.9150    -0.1840 H     1 <1>   0.0800 
 27 H        2.6520     1.3220     1.5010 H     1 <1>   0.0800 
 28 H        0.6070     2.3740     2.2780 H     1 <1>   0.0800 
 29 H       -0.6940     2.6840     1.1580 H     1 <1>   0.0800 
 30 H       -2.3740    -1.2310     0.3950 H     1 <1>   0.0800 
 31 H       -1.5100    -1.7220    -1.0350 H     1 <1>   0.0800 
 32 H        2.8620     3.2360    -0.8290 H     1 <1>   0.0800 
 33 H        0.5080     4.7610     1.7090 H     1 <1>   0.0800 
 34 H        0.6150     4.3860     0.0140 H     1 <1>   0.0800 
 35 H       -3.9770     0.0550    -1.0100 H     1 <1>   0.0800 
 36 H       -3.9360    -1.6270    -1.4750 H     1 <1>   0.0800 
 37 H       -3.1070    -0.4380    -2.4470 H     1 <1>   0.0800 
 38 H        2.8280     5.0660     0.7940 H     1 <1>   0.0800 
 39 H        2.7520     3.9310     2.1160 H     1 <1>   0.0800 
 40 H        6.5490     5.6350    -1.4030 H     1 <1>   0.1500 
 41 H        7.0480     1.6310    -0.0020 H     1 <1>   0.1500 
 42 H        8.9920     5.8170    -1.7030 H     1 <1>   0.1500 
 43 H        9.4420     1.8140    -0.2880 H     1 <1>   0.1500 
 44 H       12.6310     3.3900    -1.1150 H     1 <1>   0.0800 
 45 H       11.4410     2.1520    -1.4990 H     1 <1>   0.0800 
 46 H       11.5690     2.7870     0.1530 H     1 <1>   0.0800 
@<TRIPOS>BOND
  1   1   2  2   
  2   1   3  2   
  3   1   4  am  
  4   1   5  1   
  5   4   6  1   
  6   4   7  1   
  7   5   8  1   
  8   5  24  1   
  9   5  25  1   
 10   6   9  1   
 11   6  26  1   
 12   6  27  1   
 13   7  10  1   
 14   7  28  1   
 15   7  29  1   
 16   8  11  1   
 17   8  30  1   
 18   8  31  1   
 19   9  12  1   
 20   9  13  1   
 21   9  32  1   
 22  10  13  1   
 23  10  33  1   
 24  10  34  1   
 25  11  35  1   
 26  11  36  1   
 27  11  37  1   
 28  12  14  2   
 29  12  15  1   
 30  13  38  1   
 31  13  39  1   
 32  15  16  1   
 33  16  17  ar  
 34  16  18  ar  
 35  17  19  ar  
 36  17  40  1   
 37  18  20  ar  
 38  18  41  1   
 39  19  21  ar  
 40  19  42  1   
 41  20  21  ar  
 42  20  43  1   
 43  21  22  1   
 44  22  23  1   
 45  23  44  1   
 46  23  45  1   
 47  23  46  1   
@<TRIPOS>SUBSTRUCTURE
  1 ****  12 GROUP 4 **** **** 0

# MOE 2024.06 (io_trps.svl 2023.06)
