@<TRIPOS>MOLECULE
NONAME
39 41 1 0 0 
SMALL
USER_CHARGES


@<TRIPOS>ATOM
  1 O       -0.4590    -1.9730     2.2380 O.2   1 <1>  -0.5700 
  2 C       -0.6180    -1.9210     1.0470 C.2   1 <1>   0.5690 
  3 N        0.2010    -1.1660     0.2920 N.am  1 <1>  -0.8000 
  4 C       -1.7170    -2.7320     0.3870 C.3   1 <1>  -0.0990 
  5 C       -3.0770    -2.0090     0.2450 C.3   1 <1>   0.0000 
  6 C       -4.0860    -2.9740    -0.4200 C.3   1 <1>  -0.1600 
  7 C       -2.9610    -0.7440    -0.6380 C.3   1 <1>  -0.1600 
  8 C       -3.6370    -1.5960     1.6250 C.3   1 <1>  -0.1600 
  9 C       -5.4700    -2.3140    -0.5850 C.3   1 <1>   0.0000 
 10 C       -4.3320    -0.0560    -0.8050 C.3   1 <1>   0.0000 
 11 C       -5.0120    -0.9200     1.4740 C.3   1 <1>  -0.0800 
 12 C       -5.3150    -1.0500    -1.4560 C.3   1 <1>  -0.1600 
 13 C       -5.9910    -1.9010     0.8060 C.3   1 <1>  -0.1600 
 14 C       -6.4480    -3.2930    -1.2450 C.3   1 <1>  -0.2400 
 15 C       -4.8660     0.3310     0.5890 C.3   1 <1>  -0.1600 
 16 C       -4.1910     1.1950    -1.6810 C.3   1 <1>  -0.2400 
 17 H        0.9400    -0.6300     0.7470 H     1 <1>   0.3700 
 18 H        0.1100    -1.0630    -0.7170 H     1 <1>   0.3700 
 19 H       -1.8540    -3.6210     0.9740 H     1 <1>   0.0800 
 20 H       -1.3740    -3.0430    -0.5820 H     1 <1>   0.0800 
 21 H       -4.1860    -3.8620     0.1810 H     1 <1>   0.0800 
 22 H       -3.7180    -3.2750    -1.3850 H     1 <1>   0.0800 
 23 H       -2.5730    -1.0100    -1.6040 H     1 <1>   0.0800 
 24 H       -2.2780    -0.0460    -0.1870 H     1 <1>   0.0800 
 25 H       -3.7290    -2.4610     2.2590 H     1 <1>   0.0800 
 26 H       -2.9630    -0.9120     2.1120 H     1 <1>   0.0800 
 27 H       -5.3850    -0.6370     2.4440 H     1 <1>   0.0800 
 28 H       -6.2740    -0.5790    -1.5810 H     1 <1>   0.0800 
 29 H       -4.9570    -1.3260    -2.4320 H     1 <1>   0.0800 
 30 H       -6.1060    -2.7710     1.4290 H     1 <1>   0.0800 
 31 H       -6.9570    -1.4360     0.7130 H     1 <1>   0.0800 
 32 H       -6.0910    -3.5860    -2.2160 H     1 <1>   0.0800 
 33 H       -7.4150    -2.8360    -1.3620 H     1 <1>   0.0800 
 34 H       -6.5600    -4.1760    -0.6420 H     1 <1>   0.0800 
 35 H       -5.8220     0.8160     0.4940 H     1 <1>   0.0800 
 36 H       -4.1930     1.0270     1.0600 H     1 <1>   0.0800 
 37 H       -3.8190     0.9330    -2.6550 H     1 <1>   0.0800 
 38 H       -3.5080     1.8940    -1.2310 H     1 <1>   0.0800 
 39 H       -5.1440     1.6800    -1.7990 H     1 <1>   0.0800 
@<TRIPOS>BOND
  1   1   2  2   
  2   2   3  am  
  3   2   4  1   
  4   3  17  1   
  5   3  18  1   
  6   4   5  1   
  7   4  19  1   
  8   4  20  1   
  9   5   6  1   
 10   5   7  1   
 11   5   8  1   
 12   6   9  1   
 13   6  21  1   
 14   6  22  1   
 15   7  10  1   
 16   7  23  1   
 17   7  24  1   
 18   8  11  1   
 19   8  25  1   
 20   8  26  1   
 21   9  12  1   
 22   9  13  1   
 23   9  14  1   
 24  10  12  1   
 25  10  15  1   
 26  10  16  1   
 27  11  13  1   
 28  11  15  1   
 29  11  27  1   
 30  12  28  1   
 31  12  29  1   
 32  13  30  1   
 33  13  31  1   
 34  14  32  1   
 35  14  33  1   
 36  14  34  1   
 37  15  35  1   
 38  15  36  1   
 39  16  37  1   
 40  16  38  1   
 41  16  39  1   
@<TRIPOS>SUBSTRUCTURE
  1 ****   5 GROUP 4 **** **** 0

# MOE 2024.06 (io_trps.svl 2023.06)
