@<TRIPOS>MOLECULE
NONAME
23 23 1 0 0 
SMALL
USER_CHARGES


@<TRIPOS>ATOM
  1 CL       0.0770     0.1720    -1.6150 Cl    1 <1>  -0.2900 
  2 C        1.6170     1.0000    -1.4050 C.3   1 <1>   0.8700 
  3 CL       1.4840     2.5330    -2.2660 Cl    1 <1>  -0.2900 
  4 CL       2.8060     0.0310    -2.2710 Cl    1 <1>  -0.2900 
  5 C        1.9610     1.2060     0.1230 C.3   1 <1>   0.5690 
  6 O        0.9850     1.8980     0.8000 O.3   1 <1>  -0.6800 
  7 N        3.1280     2.0280     0.4710 N.pl3 1 <1>  -0.8690 
  8 C        4.3300     1.5380     0.0670 C.ar  1 <1>   0.4100 
  9 N        4.7010     0.4270     0.6730 N.ar  1 <1>  -0.6200 
 10 C        5.0720     2.1850    -0.9140 C.ar  1 <1>  -0.1500 
 11 C        5.8610    -0.0770     0.2850 C.ar  1 <1>   0.1670 
 12 C        6.2750     1.6540    -1.3110 C.ar  1 <1>  -0.1500 
 13 C        6.6720     0.4880    -0.6870 C.ar  1 <1>  -0.1500 
 14 C        6.2860    -1.3540     0.9770 C.3   1 <1>  -0.0970 
 15 H        2.0480     0.2350     0.5820 H     1 <1>   0.0800 
 16 H        1.1340     2.8450     0.6150 H     1 <1>   0.4000 
 17 H        3.1310     2.0550     1.4930 H     1 <1>   0.4000 
 18 H        4.6910     3.0900    -1.3490 H     1 <1>   0.1500 
 19 H        6.8790     2.1220    -2.0690 H     1 <1>   0.1500 
 20 H        7.6040     0.0280    -0.9580 H     1 <1>   0.1500 
 21 H        6.3580    -1.1820     2.0360 H     1 <1>   0.0800 
 22 H        7.2380    -1.6950     0.6150 H     1 <1>   0.0800 
 23 H        5.5530    -2.1190     0.8000 H     1 <1>   0.0800 
@<TRIPOS>BOND
  1   1   2  1   
  2   2   3  1   
  3   2   4  1   
  4   2   5  1   
  5   5   6  1   
  6   5   7  1   
  7   5  15  1   
  8   6  16  1   
  9   7   8  1   
 10   7  17  1   
 11   8   9  ar  
 12   8  10  ar  
 13   9  11  ar  
 14  10  12  ar  
 15  10  18  1   
 16  11  13  ar  
 17  11  14  1   
 18  12  13  ar  
 19  12  19  1   
 20  13  20  1   
 21  14  21  1   
 22  14  22  1   
 23  14  23  1   
@<TRIPOS>SUBSTRUCTURE
  1 ****   8 GROUP 4 **** **** 0

# MOE 2024.06 (io_trps.svl 2023.06)
