@<TRIPOS>MOLECULE
NONAME
42 42 1 0 0 
SMALL
USER_CHARGES


@<TRIPOS>ATOM
  1 O        0.3030    -0.1310     0.4470 O.2   1 <1>  -0.5700 
  2 C        0.1790    -1.3400     0.3810 C.2   1 <1>   0.6900 
  3 N        1.2560    -2.1650     0.6050 N.am  1 <1>  -0.6600 
  4 N       -1.0180    -1.9100     0.0510 N.am  1 <1>  -0.5470 
  5 C        1.1120    -3.5950     0.9900 C.3   1 <1>   0.1400 
  6 C        2.6260    -1.5920     0.7230 C.3   1 <1>   0.1400 
  7 C       -2.2970    -1.3700    -0.1360 C.ar  1 <1>   0.1170 
  8 C        1.3260    -4.4930    -0.2320 C.3   1 <1>  -0.1600 
  9 C        3.2180    -1.3620    -0.6700 C.3   1 <1>  -0.1600 
 10 C       -2.6980    -0.1590     0.4170 C.ar  1 <1>  -0.1500 
 11 C       -3.2210    -2.0850    -0.8890 C.ar  1 <1>  -0.1500 
 12 C        1.0460    -5.9620     0.1010 C.3   1 <1>  -0.2400 
 13 C        4.6410    -0.7980    -0.5860 C.3   1 <1>  -0.2400 
 14 C       -3.9780     0.3260     0.2180 C.ar  1 <1>  -0.1500 
 15 C       -4.5030    -1.6030    -1.0900 C.ar  1 <1>  -0.1500 
 16 C       -4.8900    -0.3930    -0.5380 C.ar  1 <1>  -0.1430 
 17 C       -6.2960     0.1410    -0.7580 C.3   1 <1>  -0.0170 
 18 C       -7.2380    -0.3580     0.3400 C.3   1 <1>  -0.2400 
 19 H       -0.9160    -2.8870    -0.1950 H     1 <1>   0.3700 
 20 H        0.1330    -3.7640     1.4060 H     1 <1>   0.0800 
 21 H        1.8280    -3.8410     1.7560 H     1 <1>   0.0800 
 22 H        3.2590    -2.2570     1.2840 H     1 <1>   0.0800 
 23 H        2.5790    -0.6560     1.2550 H     1 <1>   0.0800 
 24 H        2.3430    -4.4000    -0.5680 H     1 <1>   0.0800 
 25 H        0.6750    -4.1820    -1.0300 H     1 <1>   0.0800 
 26 H        2.5950    -0.6640    -1.2040 H     1 <1>   0.0800 
 27 H        3.2370    -2.2880    -1.2150 H     1 <1>   0.0800 
 28 H       -2.0070     0.4130     1.0100 H     1 <1>   0.1500 
 29 H       -2.9380    -3.0230    -1.3270 H     1 <1>   0.1500 
 30 H        1.7020    -6.3040     0.8830 H     1 <1>   0.0800 
 31 H        1.2090    -6.5730    -0.7700 H     1 <1>   0.0800 
 32 H        0.0270    -6.0920     0.4220 H     1 <1>   0.0800 
 33 H        4.6390     0.1430    -0.0630 H     1 <1>   0.0800 
 34 H        5.0300    -0.6370    -1.5760 H     1 <1>   0.0800 
 35 H        5.2890    -1.4830    -0.0690 H     1 <1>   0.0800 
 36 H       -4.2600     1.2660     0.6560 H     1 <1>   0.1500 
 37 H       -5.2000    -2.1740    -1.6770 H     1 <1>   0.1500 
 38 H       -6.6590    -0.1790    -1.7190 H     1 <1>   0.0800 
 39 H       -6.2790     1.2170    -0.7580 H     1 <1>   0.0800 
 40 H       -7.2750    -1.4330     0.3360 H     1 <1>   0.0800 
 41 H       -8.2310     0.0240     0.1800 H     1 <1>   0.0800 
 42 H       -6.8900    -0.0290     1.3030 H     1 <1>   0.0800 
@<TRIPOS>BOND
  1   1   2  2   
  2   2   3  am  
  3   2   4  am  
  4   3   5  1   
  5   3   6  1   
  6   4   7  1   
  7   4  19  1   
  8   5   8  1   
  9   5  20  1   
 10   5  21  1   
 11   6   9  1   
 12   6  22  1   
 13   6  23  1   
 14   7  10  ar  
 15   7  11  ar  
 16   8  12  1   
 17   8  24  1   
 18   8  25  1   
 19   9  13  1   
 20   9  26  1   
 21   9  27  1   
 22  10  14  ar  
 23  10  28  1   
 24  11  15  ar  
 25  11  29  1   
 26  12  30  1   
 27  12  31  1   
 28  12  32  1   
 29  13  33  1   
 30  13  34  1   
 31  13  35  1   
 32  14  16  ar  
 33  14  36  1   
 34  15  16  ar  
 35  15  37  1   
 36  16  17  1   
 37  17  18  1   
 38  17  38  1   
 39  17  39  1   
 40  18  40  1   
 41  18  41  1   
 42  18  42  1   
@<TRIPOS>SUBSTRUCTURE
  1 ****   4 GROUP 4 **** **** 0

# MOE 2024.06 (io_trps.svl 2023.06)
