@<TRIPOS>MOLECULE
NONAME
28 29 1 0 0 
SMALL
USER_CHARGES


@<TRIPOS>ATOM
  1 O        1.5550     0.0000     1.8340 O.2   1 <1>  -0.5700 
  2 C        1.0200    -0.9290     1.2450 C.2   1 <1>   0.5650 
  3 N        1.5970    -2.2170     1.1620 N.pl3 1 <1>   0.5610 
  4 C       -0.2320    -0.7500     0.5930 C.2   1 <1>  -0.1360 
  5 N        2.7750    -2.7150     1.6120 N.2   1 <1>  -0.7070 
  6 C        0.9640    -3.2180     0.4950 C.2   1 <1>   0.2700 
  7 C       -0.8640    -1.7590    -0.0610 C.2   1 <1>  -0.0380 
  8 C        2.7450    -3.9310     1.1910 C.2   1 <1>   0.3660 
  9 N        1.6620    -4.3030     0.4930 N.2   1 <1>  -0.5650 
 10 N       -0.2870    -3.0210    -0.1060 N.pl3 1 <1>  -0.5530 
 11 C       -2.2040    -1.5290    -0.7450 C.3   1 <1>  -0.1020 
 12 C       -0.9520    -4.2060    -0.7040 C.3   1 <1>   0.4890 
 13 O       -2.0160    -4.5410     0.1240 O.3   1 <1>  -0.5600 
 14 C       -2.6480    -5.7280    -0.2300 C.3   1 <1>   0.1200 
 15 C       -3.7430    -6.0130     0.7970 C.3   1 <1>   0.1200 
 16 O       -4.4560    -7.1410     0.4090 O.3   1 <1>  -0.6800 
 17 H       -0.6480     0.2380     0.6540 H     1 <1>   0.1500 
 18 H        3.5420    -4.6360     1.3760 H     1 <1>   0.1500 
 19 H       -2.5050    -0.5010    -0.6570 H     1 <1>   0.0800 
 20 H       -2.1370    -1.7720    -1.7890 H     1 <1>   0.0800 
 21 H       -2.9630    -2.1390    -0.2880 H     1 <1>   0.0800 
 22 H       -0.2780    -5.0430    -0.7650 H     1 <1>   0.0800 
 23 H       -1.3280    -3.9730    -1.6850 H     1 <1>   0.0800 
 24 H       -1.9230    -6.5250    -0.2210 H     1 <1>   0.0800 
 25 H       -3.0730    -5.6100    -1.2120 H     1 <1>   0.0800 
 26 H       -4.4290    -5.1870     0.8740 H     1 <1>   0.0800 
 27 H       -3.3040    -6.2150     1.7590 H     1 <1>   0.0800 
 28 H       -5.0590    -6.9380    -0.3320 H     1 <1>   0.4000 
@<TRIPOS>BOND
  1   1   2  2   
  2   2   3  1   
  3   2   4  1   
  4   3   5  1   
  5   3   6  1   
  6   4   7  2   
  7   4  17  1   
  8   5   8  2   
  9   6   9  2   
 10   6  10  1   
 11   7  10  1   
 12   7  11  1   
 13   8   9  1   
 14   8  18  1   
 15  10  12  1   
 16  11  19  1   
 17  11  20  1   
 18  11  21  1   
 19  12  13  1   
 20  12  22  1   
 21  12  23  1   
 22  13  14  1   
 23  14  15  1   
 24  14  24  1   
 25  14  25  1   
 26  15  16  1   
 27  15  26  1   
 28  15  27  1   
 29  16  28  1   
@<TRIPOS>SUBSTRUCTURE
  1 ****  10 GROUP 4 **** **** 0

# MOE 2024.06 (io_trps.svl 2023.06)
