@<TRIPOS>MOLECULE
NONAME
32 32 1 0 0 
SMALL
USER_CHARGES


@<TRIPOS>ATOM
  1 CL       1.8670    -2.5370    -2.9630 Cl    1 <1>  -0.1770 
  2 C        2.2400    -2.2580    -1.2750 C.ar  1 <1>   0.1770 
  3 C        1.3680    -2.6940    -0.2840 C.ar  1 <1>   0.0820 
  4 C        3.4140    -1.5990    -0.9650 C.ar  1 <1>  -0.1500 
  5 O        0.2330    -3.3380    -0.6590 O.3   1 <1>  -0.3630 
  6 C        1.7040    -2.4480     1.0440 C.ar  1 <1>  -0.1500 
  7 C        3.7600    -1.3540     0.3590 C.ar  1 <1>  -0.0090 
  8 C       -0.7140    -3.7900     0.2810 C.3   1 <1>   0.1200 
  9 C        2.8840    -1.7870     1.3500 C.ar  1 <1>  -0.1500 
 10 S        5.2950    -0.4790     0.7740 S.o2  1 <1>   1.4470 
 11 C       -1.8580    -4.4500    -0.4830 C.3   1 <1>  -0.2400 
 12 O        5.7010    -0.8490     2.1150 O.2   1 <1>  -0.6500 
 13 O        5.1130     0.9210     0.4570 O.2   1 <1>  -0.6500 
 14 N        6.4030    -1.1480    -0.3210 N.am  1 <1>  -0.8490 
 15 C        7.5490    -0.2210    -0.6250 C.3   1 <1>   0.0900 
 16 C        6.9180    -2.4580     0.0940 C.3   1 <1>   0.1160 
 17 C        8.6720    -0.7080    -1.5590 C.2   1 <1>   0.9060 
 18 O        8.7130    -0.2970    -2.7250 O.co2 1 <1>  -0.9000 
 19 O        9.5300    -1.4820    -1.1090 O.co2 1 <1>  -0.9000 
 20 H        4.0670    -1.2750    -1.7580 H     1 <1>   0.1500 
 21 H        1.0660    -2.7600     1.8500 H     1 <1>   0.1500 
 22 H       -1.0710    -2.9430     0.8410 H     1 <1>   0.0800 
 23 H       -0.2360    -4.4990     0.9350 H     1 <1>   0.0800 
 24 H        3.1340    -1.6010     2.3820 H     1 <1>   0.1500 
 25 H       -2.3180    -3.7390    -1.1460 H     1 <1>   0.0800 
 26 H       -2.6010    -4.8070     0.2070 H     1 <1>   0.0800 
 27 H       -1.4890    -5.2840    -1.0530 H     1 <1>   0.0800 
 28 H        8.0230     0.0570     0.2980 H     1 <1>   0.0800 
 29 H        7.1570     0.6750    -1.0680 H     1 <1>   0.0800 
 30 H        6.1070    -3.1110     0.3640 H     1 <1>   0.0800 
 31 H        7.5810    -2.3500     0.9360 H     1 <1>   0.0800 
 32 H        7.4620    -2.9150    -0.7160 H     1 <1>   0.0800 
@<TRIPOS>BOND
  1   1   2  1   
  2   2   3  ar  
  3   2   4  ar  
  4   3   5  1   
  5   3   6  ar  
  6   4   7  ar  
  7   4  20  1   
  8   5   8  1   
  9   6   9  ar  
 10   6  21  1   
 11   7   9  ar  
 12   7  10  1   
 13   8  11  1   
 14   8  22  1   
 15   8  23  1   
 16   9  24  1   
 17  10  12  2   
 18  10  13  2   
 19  10  14  am  
 20  11  25  1   
 21  11  26  1   
 22  11  27  1   
 23  14  15  1   
 24  14  16  1   
 25  15  17  1   
 26  15  28  1   
 27  15  29  1   
 28  16  30  1   
 29  16  31  1   
 30  16  32  1   
 31  17  18  ar  
 32  17  19  ar  
@<TRIPOS>SUBSTRUCTURE
  1 ****   7 GROUP 4 **** **** 0

# MOE 2024.06 (io_trps.svl 2023.06)
