@<TRIPOS>MOLECULE
NONAME
31 32 1 0 0 
SMALL
USER_CHARGES


@<TRIPOS>ATOM
  1 O        0.5700     0.5940     1.7040 O.2   1 <1>  -0.5700 
  2 C        0.7630     1.2690     0.7070 C.2   1 <1>   0.5440 
  3 N       -0.2850     1.9800     0.1930 N.am  1 <1>  -0.7300 
  4 C        2.0600     1.3290     0.0640 C.ar  1 <1>   0.0860 
  5 C       -1.6590     2.0040     0.7220 C.3   1 <1>   0.2200 
  6 C        2.8750     0.1900    -0.0730 C.ar  1 <1>   0.1000 
  7 C        2.5380     2.5400    -0.4460 C.ar  1 <1>  -0.1500 
  8 C       -2.5930     1.4010    -0.3190 C.3   1 <1>  -0.1600 
  9 C       -2.1220     3.4520     0.8110 C.3   1 <1>  -0.1600 
 10 N        2.4870    -1.0430     0.4160 N.pl3 1 <1>  -0.9000 
 11 C        4.1040     0.2920    -0.7150 C.ar  1 <1>  -0.1500 
 12 C        3.7620     2.6290    -1.0790 C.ar  1 <1>  -0.1500 
 13 C       -2.8700     2.5190    -1.3310 C.3   1 <1>  -0.1600 
 14 C       -2.5670     3.8370    -0.6060 C.3   1 <1>  -0.1600 
 15 C        4.5480     1.4980    -1.2160 C.ar  1 <1>  -0.1500 
 16 H       -0.1820     2.4340    -0.7130 H     1 <1>   0.3700 
 17 H       -1.7160     1.4960     1.6710 H     1 <1>   0.0800 
 18 H        1.9400     3.4270    -0.3360 H     1 <1>   0.1500 
 19 H       -3.5150     1.1340     0.1680 H     1 <1>   0.0800 
 20 H       -2.1780     0.5180    -0.7730 H     1 <1>   0.0800 
 21 H       -1.3570     4.1010     1.1990 H     1 <1>   0.0800 
 22 H       -2.9730     3.4950     1.4670 H     1 <1>   0.0800 
 23 H        3.2120    -1.7010     0.7100 H     1 <1>   0.4000 
 24 H        1.7010    -1.0040     1.0890 H     1 <1>   0.4000 
 25 H        4.7120    -0.5870    -0.8230 H     1 <1>   0.1500 
 26 H        4.1080     3.5730    -1.4640 H     1 <1>   0.1500 
 27 H       -3.8910     2.4820    -1.6720 H     1 <1>   0.0800 
 28 H       -2.2170     2.4130    -2.1810 H     1 <1>   0.0800 
 29 H       -1.7710     4.3550    -1.1120 H     1 <1>   0.0800 
 30 H       -3.4320     4.4760    -0.5750 H     1 <1>   0.0800 
 31 H        5.5020     1.5620    -1.7110 H     1 <1>   0.1500 
@<TRIPOS>BOND
  1   1   2  2   
  2   2   3  am  
  3   2   4  1   
  4   3   5  1   
  5   3  16  1   
  6   4   6  ar  
  7   4   7  ar  
  8   5   8  1   
  9   5   9  1   
 10   5  17  1   
 11   6  10  1   
 12   6  11  ar  
 13   7  12  ar  
 14   7  18  1   
 15   8  13  1   
 16   8  19  1   
 17   8  20  1   
 18   9  14  1   
 19   9  21  1   
 20   9  22  1   
 21  10  23  1   
 22  10  24  1   
 23  11  15  ar  
 24  11  25  1   
 25  12  15  ar  
 26  12  26  1   
 27  13  14  1   
 28  13  27  1   
 29  13  28  1   
 30  14  29  1   
 31  14  30  1   
 32  15  31  1   
@<TRIPOS>SUBSTRUCTURE
  1 ****   2 GROUP 4 **** **** 0

# MOE 2024.06 (io_trps.svl 2023.06)
