@<TRIPOS>MOLECULE
NONAME
50 52 1 0 0 
SMALL
USER_CHARGES


@<TRIPOS>ATOM
  1 O        0.7850    -0.2190     0.8800 O.3   1 <1>  -0.3630 
  2 C        0.1020    -1.2520     0.3190 C.ar  1 <1>   0.0820 
  3 C        0.1270     0.9700     1.2720 C.3   1 <1>   0.0400 
  4 C        0.8000    -2.4410     0.1300 C.ar  1 <1>  -0.1440 
  5 C       -1.2320    -1.1620    -0.0690 C.ar  1 <1>  -0.1500 
  6 C        0.1630    -3.5340    -0.4370 C.ar  1 <1>  -0.1500 
  7 C        2.2520    -2.5410     0.5480 C.3   1 <1>   0.4870 
  8 C       -1.8640    -2.2590    -0.6420 C.ar  1 <1>   0.0820 
  9 C       -1.1620    -3.4380    -0.8220 C.ar  1 <1>  -0.1500 
 10 N        3.1090    -2.4060    -0.6610 N.4   1 <1>  -0.9590 
 11 O       -3.1570    -2.2610    -1.0510 O.3   1 <1>  -0.3620 
 12 C        4.5280    -2.8340    -0.4020 C.3   1 <1>   0.3430 
 13 C        3.0740    -0.9960    -1.1980 C.3   1 <1>   0.3430 
 14 C       -3.9980    -1.1440    -0.8650 C.3   1 <1>   0.0400 
 15 C        5.3050    -1.8250     0.4730 C.3   1 <1>   0.1100 
 16 C        3.8710    -0.0050    -0.3250 C.3   1 <1>   0.1100 
 17 N        5.2540    -0.4770    -0.1130 N.3   1 <1>  -0.8100 
 18 C        6.1100     0.4970     0.6160 C.3   1 <1>   0.2530 
 19 C        6.1140     1.8980    -0.0030 C.ar  1 <1>   0.1670 
 20 N        6.6430     2.0270    -1.2130 N.ar  1 <1>  -0.6200 
 21 C        5.5720     2.9550     0.7160 C.ar  1 <1>  -0.1500 
 22 C        6.6340     3.2490    -1.7220 C.ar  1 <1>   0.1600 
 23 C        5.5660     4.2220     0.1720 C.ar  1 <1>  -0.1500 
 24 C        6.1150     4.3620    -1.0830 C.ar  1 <1>  -0.1500 
 25 H       -0.6630     0.7240     1.9610 H     1 <1>   0.0800 
 26 H       -0.2660     1.4600     0.3980 H     1 <1>   0.0800 
 27 H        0.8430     1.6100     1.7550 H     1 <1>   0.0800 
 28 H       -1.7760    -0.2500     0.0680 H     1 <1>   0.1500 
 29 H        0.6770    -4.4690    -0.5830 H     1 <1>   0.1500 
 30 H        2.4160    -3.4990     1.0130 H     1 <1>   0.0800 
 31 H        2.4880    -1.7720     1.2650 H     1 <1>   0.0800 
 32 H       -1.6670    -4.2810    -1.2630 H     1 <1>   0.1500 
 33 H        2.6960    -3.0130    -1.3780 H     1 <1>   0.4500 
 34 H        5.0490    -2.9180    -1.3420 H     1 <1>   0.0800 
 35 H        4.5430    -3.8030     0.0680 H     1 <1>   0.0800 
 36 H        2.0550    -0.6560    -1.2830 H     1 <1>   0.0800 
 37 H        3.5060    -0.9810    -2.1850 H     1 <1>   0.0800 
 38 H       -4.9730    -1.3940    -1.2450 H     1 <1>   0.0800 
 39 H       -3.5980    -0.3080    -1.4110 H     1 <1>   0.0800 
 40 H       -4.0620    -0.9250     0.1870 H     1 <1>   0.0800 
 41 H        6.3320    -2.1440     0.5330 H     1 <1>   0.0800 
 42 H        4.9030    -1.8110     1.4710 H     1 <1>   0.0800 
 43 H        3.3790     0.1420     0.6200 H     1 <1>   0.0800 
 44 H        3.8880     0.9420    -0.8390 H     1 <1>   0.0800 
 45 H        7.1250     0.1380     0.6120 H     1 <1>   0.0800 
 46 H        5.7870     0.5600     1.6410 H     1 <1>   0.0800 
 47 H        5.1590     2.7970     1.6950 H     1 <1>   0.1500 
 48 H        7.0630     3.3690    -2.7020 H     1 <1>   0.1500 
 49 H        5.1560     5.0640     0.7030 H     1 <1>   0.1500 
 50 H        6.1450     5.3220    -1.5650 H     1 <1>   0.1500 
@<TRIPOS>BOND
  1   1   2  1   
  2   1   3  1   
  3   2   4  ar  
  4   2   5  ar  
  5   3  25  1   
  6   3  26  1   
  7   3  27  1   
  8   4   6  ar  
  9   4   7  1   
 10   5   8  ar  
 11   5  28  1   
 12   6   9  ar  
 13   6  29  1   
 14   7  10  1   
 15   7  30  1   
 16   7  31  1   
 17   8   9  ar  
 18   8  11  1   
 19   9  32  1   
 20  10  12  1   
 21  10  13  1   
 22  10  33  1   
 23  11  14  1   
 24  12  15  1   
 25  12  34  1   
 26  12  35  1   
 27  13  16  1   
 28  13  36  1   
 29  13  37  1   
 30  14  38  1   
 31  14  39  1   
 32  14  40  1   
 33  15  17  1   
 34  15  41  1   
 35  15  42  1   
 36  16  17  1   
 37  16  43  1   
 38  16  44  1   
 39  17  18  1   
 40  18  19  1   
 41  18  45  1   
 42  18  46  1   
 43  19  20  ar  
 44  19  21  ar  
 45  20  22  ar  
 46  21  23  ar  
 47  21  47  1   
 48  22  24  ar  
 49  22  48  1   
 50  23  24  ar  
 51  23  49  1   
 52  24  50  1   
@<TRIPOS>SUBSTRUCTURE
  1 ****  13 GROUP 4 **** **** 0

# MOE 2024.06 (io_trps.svl 2023.06)
