@<TRIPOS>MOLECULE
NONAME
41 42 1 0 0 
SMALL
USER_CHARGES


@<TRIPOS>ATOM
  1 S       -0.0760     1.0540     0.8700 S.o2  1 <1>   1.3330 
  2 O        0.2190     1.7750     2.0860 O.2   1 <1>  -0.6500 
  3 O       -1.1780     1.4700     0.0340 O.2   1 <1>  -0.6500 
  4 N        1.3270     1.0320    -0.0780 N.am  1 <1>  -0.8490 
  5 C       -0.3230    -0.6670     1.2560 C.3   1 <1>  -0.1350 
  6 C        2.5490     0.8950     0.7330 C.3   1 <1>   0.1960 
  7 C        1.4100     2.2280    -0.9240 C.3   1 <1>   0.1960 
  8 C        3.7710     0.6940    -0.1750 C.3   1 <1>  -0.0190 
  9 C        2.6020     2.1240    -1.8840 C.3   1 <1>  -0.1600 
 10 C        5.0350     0.4790     0.6450 C.2   1 <1>   0.5690 
 11 C        3.9200     1.8880    -1.1350 C.3   1 <1>  -0.1600 
 12 O        5.1160     0.9730     1.7430 O.2   1 <1>  -0.5700 
 13 N        6.0220    -0.2720     0.0740 N.am  1 <1>  -0.5470 
 14 C        7.2980    -0.6860     0.4980 C.ar  1 <1>   0.1170 
 15 C        8.0370    -1.5030    -0.3660 C.ar  1 <1>   0.0820 
 16 C        7.8560    -0.3270     1.7200 C.ar  1 <1>  -0.1500 
 17 O        7.4530    -1.8330    -1.5590 O.3   1 <1>  -0.3630 
 18 C        9.3060    -1.9420     0.0020 C.ar  1 <1>  -0.1500 
 19 C        9.1170    -0.7660     2.0810 C.ar  1 <1>  -0.1500 
 20 C        8.1110    -2.6690    -2.4870 C.3   1 <1>   0.0400 
 21 C        9.8420    -1.5730     1.2230 C.ar  1 <1>  -0.1500 
 22 H       -1.2230    -0.7860     1.8270 H     1 <1>   0.0800 
 23 H        0.4990    -1.0460     1.8280 H     1 <1>   0.0800 
 24 H       -0.4110    -1.2360     0.3520 H     1 <1>   0.0800 
 25 H        2.4620     0.0480     1.3910 H     1 <1>   0.0800 
 26 H        2.6860     1.7740     1.3440 H     1 <1>   0.0800 
 27 H        1.5050     3.1060    -0.3060 H     1 <1>   0.0800 
 28 H        0.5100     2.3270    -1.5090 H     1 <1>   0.0800 
 29 H        3.5970    -0.1970    -0.7500 H     1 <1>   0.0800 
 30 H        2.6710     3.0300    -2.4610 H     1 <1>   0.0800 
 31 H        2.4200     1.3140    -2.5690 H     1 <1>   0.0800 
 32 H        4.7140     1.7050    -1.8380 H     1 <1>   0.0800 
 33 H        4.1720     2.7690    -0.5680 H     1 <1>   0.0800 
 34 H        5.8240    -0.6250    -0.8640 H     1 <1>   0.3700 
 35 H        7.3130     0.2990     2.4020 H     1 <1>   0.1500 
 36 H        9.8930    -2.5680    -0.6420 H     1 <1>   0.1500 
 37 H        9.5320    -0.4780     3.0310 H     1 <1>   0.1500 
 38 H        7.4670    -2.7970    -3.3380 H     1 <1>   0.0800 
 39 H        8.2990    -3.6230    -2.0260 H     1 <1>   0.0800 
 40 H        9.0290    -2.1990    -2.7920 H     1 <1>   0.0800 
 41 H       10.8240    -1.9130     1.5070 H     1 <1>   0.1500 
@<TRIPOS>BOND
  1   1   2  2   
  2   1   3  2   
  3   1   4  am  
  4   1   5  1   
  5   4   6  1   
  6   4   7  1   
  7   5  22  1   
  8   5  23  1   
  9   5  24  1   
 10   6   8  1   
 11   6  25  1   
 12   6  26  1   
 13   7   9  1   
 14   7  27  1   
 15   7  28  1   
 16   8  10  1   
 17   8  11  1   
 18   8  29  1   
 19   9  11  1   
 20   9  30  1   
 21   9  31  1   
 22  10  12  2   
 23  10  13  am  
 24  11  32  1   
 25  11  33  1   
 26  13  14  1   
 27  13  34  1   
 28  14  15  ar  
 29  14  16  ar  
 30  15  17  1   
 31  15  18  ar  
 32  16  19  ar  
 33  16  35  1   
 34  17  20  1   
 35  18  21  ar  
 36  18  36  1   
 37  19  21  ar  
 38  19  37  1   
 39  20  38  1   
 40  20  39  1   
 41  20  40  1   
 42  21  41  1   
@<TRIPOS>SUBSTRUCTURE
  1 ****  10 GROUP 4 **** **** 0

# MOE 2024.06 (io_trps.svl 2023.06)
