@<TRIPOS>MOLECULE
NONAME
41 42 1 0 0 
SMALL
USER_CHARGES


@<TRIPOS>ATOM
  1 O       -3.1440     4.7370     0.4520 O.3   1 <1>  -0.5320 
  2 C       -1.9600     4.1460     0.2150 C.ar  1 <1>   0.0830 
  3 C       -1.8500     2.7650     0.0130 C.ar  1 <1>  -0.1430 
  4 C       -0.8600     4.9800     0.1820 C.ar  1 <1>  -0.1500 
  5 C       -0.5640     2.2880    -0.2240 C.ar  1 <1>  -0.1500 
  6 C       -3.0740     1.8050     0.0450 C.3   1 <1>   0.1430 
  7 C        0.4190     4.4900    -0.0530 C.ar  1 <1>   0.0280 
  8 C        0.5550     3.1110    -0.2610 C.ar  1 <1>   0.1000 
  9 C       -2.6910     0.3320    -0.2040 C.3   1 <1>  -0.2400 
 10 C       -3.7570     1.8400     1.4240 C.3   1 <1>  -0.2400 
 11 C       -4.0830     2.1750    -1.0570 C.3   1 <1>  -0.2400 
 12 C        1.6090     5.3140    -0.0820 C.2   1 <1>  -0.1670 
 13 N        1.7980     2.5250    -0.5120 N.pl3 1 <1>  -0.8690 
 14 C        2.8200     4.7570    -0.2440 C.2   1 <1>  -0.2880 
 15 C        1.4700     6.8210     0.0750 C.3   1 <1>  -0.1020 
 16 C        3.0620     3.2670    -0.4130 C.3   1 <1>   0.5070 
 17 C        3.8300     3.0120    -1.7020 C.3   1 <1>  -0.2400 
 18 C        3.8170     2.7260     0.7930 C.3   1 <1>  -0.2400 
 19 H       -3.8590     4.0770     0.4510 H     1 <1>   0.4500 
 20 H       -1.0200     6.0280     0.3460 H     1 <1>   0.1500 
 21 H       -0.3750     1.2490    -0.3990 H     1 <1>   0.1500 
 22 H       -2.0070    -0.0140     0.5500 H     1 <1>   0.0800 
 23 H       -2.2360     0.2170    -1.1720 H     1 <1>   0.0800 
 24 H       -3.5610    -0.3000    -0.1730 H     1 <1>   0.0800 
 25 H       -3.0360     1.6100     2.1900 H     1 <1>   0.0800 
 26 H       -4.5470     1.1120     1.4750 H     1 <1>   0.0800 
 27 H       -4.1850     2.7960     1.6510 H     1 <1>   0.0800 
 28 H       -3.5890     2.1750    -2.0130 H     1 <1>   0.0800 
 29 H       -4.5200     3.1420    -0.9120 H     1 <1>   0.0800 
 30 H       -4.8850     1.4590    -1.0930 H     1 <1>   0.0800 
 31 H        1.9000     1.5540    -0.2220 H     1 <1>   0.4000 
 32 H        3.7280     5.3280    -0.2640 H     1 <1>   0.1500 
 33 H        1.0380     7.0530     1.0320 H     1 <1>   0.0800 
 34 H        0.8410     7.2140    -0.7030 H     1 <1>   0.0800 
 35 H        2.4280     7.3020     0.0110 H     1 <1>   0.0800 
 36 H        3.2650     3.3920    -2.5350 H     1 <1>   0.0800 
 37 H        3.9980     1.9600    -1.8400 H     1 <1>   0.0800 
 38 H        4.7790     3.5150    -1.6750 H     1 <1>   0.0800 
 39 H        3.2420     2.8970     1.6840 H     1 <1>   0.0800 
 40 H        4.7580     3.2340     0.8940 H     1 <1>   0.0800 
 41 H        4.0050     1.6740     0.6830 H     1 <1>   0.0800 
@<TRIPOS>BOND
  1   1   2  1   
  2   1  19  1   
  3   2   3  ar  
  4   2   4  ar  
  5   3   5  ar  
  6   3   6  1   
  7   4   7  ar  
  8   4  20  1   
  9   5   8  ar  
 10   5  21  1   
 11   6   9  1   
 12   6  10  1   
 13   6  11  1   
 14   7   8  ar  
 15   7  12  1   
 16   8  13  1   
 17   9  22  1   
 18   9  23  1   
 19   9  24  1   
 20  10  25  1   
 21  10  26  1   
 22  10  27  1   
 23  11  28  1   
 24  11  29  1   
 25  11  30  1   
 26  12  14  2   
 27  12  15  1   
 28  13  16  1   
 29  13  31  1   
 30  14  16  1   
 31  14  32  1   
 32  15  33  1   
 33  15  34  1   
 34  15  35  1   
 35  16  17  1   
 36  16  18  1   
 37  17  36  1   
 38  17  37  1   
 39  17  38  1   
 40  18  39  1   
 41  18  40  1   
 42  18  41  1   
@<TRIPOS>SUBSTRUCTURE
  1 ****   8 GROUP 4 **** **** 0

# MOE 2024.06 (io_trps.svl 2023.06)
