@<TRIPOS>MOLECULE
NONAME
33 35 1 0 0 
SMALL
USER_CHARGES


@<TRIPOS>ATOM
  1 CL       0.2570     0.2290    -1.2230 Cl    1 <1>  -0.1770 
  2 C        1.7480     0.7930    -0.5100 C.ar  1 <1>   0.1770 
  3 C        2.9490     0.4330    -1.0850 C.ar  1 <1>  -0.1500 
  4 C        1.6790     1.5970     0.6300 C.ar  1 <1>  -0.1500 
  5 C        4.1160     0.8980    -0.4930 C.ar  1 <1>   0.2270 
  6 C        2.8430     2.0600     1.2180 C.ar  1 <1>  -0.1500 
  7 N        5.4220     0.7120    -0.8260 N.2   1 <1>  -0.5650 
  8 C        4.0480     1.6930     0.6320 C.ar  1 <1>   0.1400 
  9 C        6.0250     1.3820     0.0790 C.2   1 <1>   0.5340 
 10 O        5.2840     1.9920     0.9840 O.3   1 <1>  -0.2800 
 11 S        7.7910     1.5480     0.2240 S.3   1 <1>  -0.2860 
 12 C        8.4170     0.5950    -1.2410 C.3   1 <1>   0.1310 
 13 C        9.9030     0.3030    -1.1000 C.2   1 <1>   0.5690 
 14 O       10.6450     0.8470    -1.8850 O.2   1 <1>  -0.5700 
 15 N       10.3790    -0.5590    -0.1410 N.am  1 <1>  -0.6600 
 16 C        9.5500    -1.2930     0.8630 C.3   1 <1>   0.1400 
 17 C       11.8430    -0.8130     0.0190 C.3   1 <1>   0.1400 
 18 C        9.9660    -2.7730     0.9370 C.3   1 <1>   0.1200 
 19 C       12.1260    -2.3190     0.1400 C.3   1 <1>   0.1200 
 20 O       11.3440    -2.8900     1.1510 O.3   1 <1>  -0.5600 
 21 H        2.9940    -0.1860    -1.9620 H     1 <1>   0.1500 
 22 H        0.7160     1.8480     1.0380 H     1 <1>   0.1500 
 23 H        2.8340     2.6810     2.0950 H     1 <1>   0.1500 
 24 H        8.2320     1.1990    -2.1090 H     1 <1>   0.0800 
 25 H        7.8550    -0.3170    -1.3100 H     1 <1>   0.0800 
 26 H        8.5050    -1.2400     0.6200 H     1 <1>   0.0800 
 27 H        9.6880    -0.8410     1.8300 H     1 <1>   0.0800 
 28 H       12.1920    -0.3150     0.9070 H     1 <1>   0.0800 
 29 H       12.3920    -0.4170    -0.8180 H     1 <1>   0.0800 
 30 H        9.7140    -3.2840     0.0250 H     1 <1>   0.0800 
 31 H        9.4660    -3.2580     1.7560 H     1 <1>   0.0800 
 32 H       13.1580    -2.4830     0.3910 H     1 <1>   0.0800 
 33 H       11.9120    -2.8180    -0.7890 H     1 <1>   0.0800 
@<TRIPOS>BOND
  1   1   2  1   
  2   2   3  ar  
  3   2   4  ar  
  4   3   5  ar  
  5   3  21  1   
  6   4   6  ar  
  7   4  22  1   
  8   5   7  1   
  9   5   8  ar  
 10   6   8  ar  
 11   6  23  1   
 12   7   9  2   
 13   8  10  1   
 14   9  10  1   
 15   9  11  1   
 16  11  12  1   
 17  12  13  1   
 18  12  24  1   
 19  12  25  1   
 20  13  14  2   
 21  13  15  am  
 22  15  16  1   
 23  15  17  1   
 24  16  18  1   
 25  16  26  1   
 26  16  27  1   
 27  17  19  1   
 28  17  28  1   
 29  17  29  1   
 30  18  20  1   
 31  18  30  1   
 32  18  31  1   
 33  19  20  1   
 34  19  32  1   
 35  19  33  1   
@<TRIPOS>SUBSTRUCTURE
  1 ****   9 GROUP 4 **** **** 0

# MOE 2024.06 (io_trps.svl 2023.06)
