@<TRIPOS>MOLECULE
NONAME
39 40 1 0 0 
SMALL
USER_CHARGES


@<TRIPOS>ATOM
  1 S       -0.0920    -0.1270     0.0230 S.3   1 <1>  -0.2860 
  2 C        1.3640     0.8920    -0.1890 C.2   1 <1>   0.2420 
  3 C       -1.4650     1.0520    -0.3310 C.3   1 <1>   0.2080 
  4 N        1.3510     2.1320    -0.5240 N.2   1 <1>  -0.3380 
  5 N        2.5790     0.4130    -0.0050 N.pl3 1 <1>   0.0330 
  6 C       -2.7720     0.2970    -0.1770 C.2   1 <1>  -0.2880 
  7 N        2.6330     2.5050    -0.5660 N.2   1 <1>  -0.3380 
  8 C        3.3680     1.4690    -0.2550 C.2   1 <1>   0.1330 
  9 C       -3.7490     0.6140     0.6790 C.2   1 <1>  -0.3000 
 10 C        4.8110     1.4390    -0.1740 C.ar  1 <1>   0.0530 
 11 C        5.5410     0.2560    -0.3140 C.ar  1 <1>  -0.1500 
 12 C        5.5320     2.6110     0.0540 C.ar  1 <1>  -0.1500 
 13 C        6.9210     0.2410    -0.2210 C.ar  1 <1>  -0.1500 
 14 C        6.9100     2.6040     0.1480 C.ar  1 <1>  -0.1500 
 15 C        7.6180     1.4220     0.0150 C.ar  1 <1>   0.0830 
 16 O        8.9650     1.4980     0.1220 O.3   1 <1>  -0.3630 
 17 C        9.7840     0.3600    -0.0250 C.3   1 <1>   0.1200 
 18 C       11.2400     0.7950     0.1390 C.3   1 <1>  -0.1600 
 19 C       12.1960    -0.3960    -0.0090 C.3   1 <1>  -0.1600 
 20 C       13.6530     0.0440     0.1560 C.3   1 <1>  -0.2400 
 21 H       -1.3290     1.4150    -1.3340 H     1 <1>   0.0800 
 22 H       -1.3810     1.8630     0.3700 H     1 <1>   0.0800 
 23 H        2.8370    -0.5310     0.2790 H     1 <1>   0.2700 
 24 H       -2.8370    -0.5460    -0.8440 H     1 <1>   0.1500 
 25 H       -4.6680     0.0610     0.7700 H     1 <1>   0.1500 
 26 H       -3.7140     1.4480     1.3590 H     1 <1>   0.1500 
 27 H        5.0300    -0.6690    -0.5090 H     1 <1>   0.1500 
 28 H        4.9990     3.5410     0.1590 H     1 <1>   0.1500 
 29 H        7.4370    -0.6930    -0.3360 H     1 <1>   0.1500 
 30 H        7.4490     3.5180     0.3260 H     1 <1>   0.1500 
 31 H        9.6190    -0.0520    -1.0050 H     1 <1>   0.0800 
 32 H        9.5120    -0.3530     0.7340 H     1 <1>   0.0800 
 33 H       11.3660     1.2370     1.1130 H     1 <1>   0.0800 
 34 H       11.4710     1.5340    -0.6080 H     1 <1>   0.0800 
 35 H       12.0700    -0.8440    -0.9800 H     1 <1>   0.0800 
 36 H       11.9660    -1.1410     0.7350 H     1 <1>   0.0800 
 37 H       13.9120     0.7740    -0.5910 H     1 <1>   0.0800 
 38 H       14.3080    -0.8020     0.0500 H     1 <1>   0.0800 
 39 H       13.8080     0.4760     1.1300 H     1 <1>   0.0800 
@<TRIPOS>BOND
  1   1   2  1   
  2   1   3  1   
  3   2   4  2   
  4   2   5  1   
  5   3   6  1   
  6   3  21  1   
  7   3  22  1   
  8   4   7  1   
  9   5   8  1   
 10   5  23  1   
 11   6   9  2   
 12   6  24  1   
 13   7   8  2   
 14   8  10  1   
 15   9  25  1   
 16   9  26  1   
 17  10  11  ar  
 18  10  12  ar  
 19  11  13  ar  
 20  11  27  1   
 21  12  14  ar  
 22  12  28  1   
 23  13  15  ar  
 24  13  29  1   
 25  14  15  ar  
 26  14  30  1   
 27  15  16  1   
 28  16  17  1   
 29  17  18  1   
 30  17  31  1   
 31  17  32  1   
 32  18  19  1   
 33  18  33  1   
 34  18  34  1   
 35  19  20  1   
 36  19  35  1   
 37  19  36  1   
 38  20  37  1   
 39  20  38  1   
 40  20  39  1   
@<TRIPOS>SUBSTRUCTURE
  1 ****  10 GROUP 4 **** **** 0

# MOE 2024.06 (io_trps.svl 2023.06)
