@<TRIPOS>MOLECULE
NONAME
51 55 1 0 0 
SMALL
USER_CHARGES


@<TRIPOS>ATOM
  1 S       -0.1380    -0.7130     1.4280 S.o2  1 <1>   1.4470 
  2 O       -0.0100     0.5100     2.1930 O.2   1 <1>  -0.6500 
  3 O       -0.5780    -1.9220     2.0890 O.2   1 <1>  -0.6500 
  4 N       -1.2450    -0.4090     0.1830 N.am  1 <1>  -0.8490 
  5 C        1.4090    -1.0400     0.5340 C.ar  1 <1>  -0.0090 
  6 C       -2.6220    -0.4100     0.6420 C.3   1 <1>   0.1960 
  7 C       -1.0640     0.8630    -0.4970 C.3   1 <1>   0.1960 
  8 C        2.5740    -0.3400     0.8270 C.ar  1 <1>  -0.1500 
  9 C        1.4490    -2.0120    -0.4730 C.ar  1 <1>  -0.1500 
 10 C       -3.4040     0.2550    -0.4860 C.3   1 <1>  -0.1600 
 11 C       -2.3650     1.0640    -1.2630 C.3   1 <1>  -0.1600 
 12 C        3.7500    -0.6010     0.1270 C.ar  1 <1>   0.0000 
 13 C        2.6080    -2.2840    -1.1770 C.ar  1 <1>  -0.1500 
 14 C        3.7490    -1.5660    -0.8620 C.ar  1 <1>   0.1400 
 15 C        5.0760    -0.0950     0.1570 C.ar  1 <1>   0.0000 
 16 O        4.9570    -1.6820    -1.4290 O.3   1 <1>  -0.2800 
 17 C        5.7580    -0.7990    -0.8170 C.ar  1 <1>   0.1400 
 18 C        5.7500     0.8720     0.8980 C.ar  1 <1>  -0.1500 
 19 C        7.0980    -0.5700    -1.0760 C.ar  1 <1>  -0.1500 
 20 C        7.0950     1.1300     0.6620 C.ar  1 <1>  -0.0090 
 21 C        7.7530     0.3940    -0.3320 C.ar  1 <1>  -0.1500 
 22 S        7.9960     2.3910     1.6100 S.o2  1 <1>   1.4470 
 23 O        7.0560     3.2070     2.3500 O.2   1 <1>  -0.6500 
 24 O        9.1020     1.7730     2.3070 O.2   1 <1>  -0.6500 
 25 N        8.6680     3.3730     0.4050 N.am  1 <1>  -0.8490 
 26 C        9.6780     4.2810     0.9180 C.3   1 <1>   0.1960 
 27 C        7.7150     4.2110    -0.3020 C.3   1 <1>   0.1960 
 28 C        9.8630     5.3140    -0.1890 C.3   1 <1>  -0.1600 
 29 C        8.5810     5.2380    -1.0190 C.3   1 <1>  -0.1600 
 30 H       -2.7090     0.1760     1.5430 H     1 <1>   0.0800 
 31 H       -2.9630    -1.4150     0.8340 H     1 <1>   0.0800 
 32 H       -0.2110     0.8370    -1.1540 H     1 <1>   0.0800 
 33 H       -0.9460     1.6600     0.2200 H     1 <1>   0.0800 
 34 H        2.5780     0.4110     1.5990 H     1 <1>   0.1500 
 35 H        0.5470    -2.5580    -0.7000 H     1 <1>   0.1500 
 36 H       -4.1860     0.8770    -0.0880 H     1 <1>   0.0800 
 37 H       -3.8420    -0.4980    -1.1180 H     1 <1>   0.0800 
 38 H       -2.2590     0.6720    -2.2600 H     1 <1>   0.0800 
 39 H       -2.6210     2.1070    -1.3200 H     1 <1>   0.0800 
 40 H        2.6400    -3.0300    -1.9510 H     1 <1>   0.1500 
 41 H        5.2170     1.4180     1.6580 H     1 <1>   0.1500 
 42 H        7.6020    -1.1360    -1.8400 H     1 <1>   0.1500 
 43 H        8.7980     0.5900    -0.5150 H     1 <1>   0.1500 
 44 H       10.5920     3.7560     1.1390 H     1 <1>   0.0800 
 45 H        9.3160     4.7630     1.8130 H     1 <1>   0.0800 
 46 H        7.0670     4.7170     0.3970 H     1 <1>   0.0800 
 47 H        7.1220     3.6330    -0.9910 H     1 <1>   0.0800 
 48 H       10.7150     5.0530    -0.7910 H     1 <1>   0.0800 
 49 H       10.0160     6.2930     0.2300 H     1 <1>   0.0800 
 50 H        8.0800     6.1870    -1.0830 H     1 <1>   0.0800 
 51 H        8.8030     4.8890    -2.0130 H     1 <1>   0.0800 
@<TRIPOS>BOND
  1   1   2  2   
  2   1   3  2   
  3   1   4  am  
  4   1   5  1   
  5   4   6  1   
  6   4   7  1   
  7   5   8  ar  
  8   5   9  ar  
  9   6  10  1   
 10   6  30  1   
 11   6  31  1   
 12   7  11  1   
 13   7  32  1   
 14   7  33  1   
 15   8  12  ar  
 16   8  34  1   
 17   9  13  ar  
 18   9  35  1   
 19  10  11  1   
 20  10  36  1   
 21  10  37  1   
 22  11  38  1   
 23  11  39  1   
 24  12  14  ar  
 25  12  15  1   
 26  13  14  ar  
 27  13  40  1   
 28  14  16  1   
 29  15  17  ar  
 30  15  18  ar  
 31  16  17  1   
 32  17  19  ar  
 33  18  20  ar  
 34  18  41  1   
 35  19  21  ar  
 36  19  42  1   
 37  20  21  ar  
 38  20  22  1   
 39  21  43  1   
 40  22  23  2   
 41  22  24  2   
 42  22  25  am  
 43  25  26  1   
 44  25  27  1   
 45  26  28  1   
 46  26  44  1   
 47  26  45  1   
 48  27  29  1   
 49  27  46  1   
 50  27  47  1   
 51  28  29  1   
 52  28  48  1   
 53  28  49  1   
 54  29  50  1   
 55  29  51  1   
@<TRIPOS>SUBSTRUCTURE
  1 ****  15 GROUP 4 **** **** 0

# MOE 2024.06 (io_trps.svl 2023.06)
