@<TRIPOS>MOLECULE
NONAME
46 47 1 0 0 
SMALL
USER_CHARGES


@<TRIPOS>ATOM
  1 O       -1.2190    -0.8790     1.3190 O.2   1 <1>  -0.5700 
  2 C       -2.0150    -1.3340     0.5210 C.2   1 <1>   0.7060 
  3 O       -3.2450    -0.8300     0.5330 O.3   1 <1>  -0.2330 
  4 C       -1.6990    -2.3710    -0.4220 C.2   1 <1>  -0.1240 
  5 C       -4.2210    -1.2240    -0.3130 C.ar  1 <1>   0.0820 
  6 C       -2.6510    -2.8390    -1.2750 C.2   1 <1>  -0.1670 
  7 C       -0.2520    -2.8800    -0.3490 C.3   1 <1>   0.0390 
  8 C       -3.9610    -2.2350    -1.2520 C.ar  1 <1>   0.0280 
  9 C       -5.4650    -0.6030    -0.2180 C.ar  1 <1>  -0.1440 
 10 C       -2.4280    -3.9940    -2.2550 C.3   1 <1>  -0.1020 
 11 C       -0.0150    -3.8240     0.8160 C.2   1 <1>   0.6590 
 12 C       -5.0070    -2.5850    -2.1120 C.ar  1 <1>  -0.1500 
 13 C       -6.4880    -1.0020    -1.0690 C.ar  1 <1>   0.0830 
 14 C       -5.6840     0.4950     0.8240 C.3   1 <1>  -0.0960 
 15 O        1.0820    -3.9650     1.2900 O.2   1 <1>  -0.5700 
 16 O       -1.0660    -4.5050     1.2600 O.3   1 <1>  -0.4300 
 17 C       -6.2440    -1.9860    -2.0240 C.ar  1 <1>  -0.1500 
 18 O       -7.7020    -0.4190    -0.9350 O.3   1 <1>  -0.3630 
 19 C       -0.9650    -5.3980     2.3500 C.3   1 <1>   0.0400 
 20 C       -8.8840    -1.0270    -1.4370 C.3   1 <1>   0.1810 
 21 C      -10.1380    -0.3960    -0.8330 C.2   1 <1>   0.5690 
 22 O      -10.9570     0.0410    -1.6090 O.2   1 <1>  -0.5700 
 23 N      -10.3410    -0.3560     0.5310 N.am  1 <1>  -0.6600 
 24 C       -9.3820    -0.8910     1.5390 C.3   1 <1>   0.0600 
 25 C      -11.5310     0.3190     1.1200 C.3   1 <1>   0.0600 
 26 H        0.4170    -2.0450    -0.2380 H     1 <1>   0.0800 
 27 H        0.0480    -3.3750    -1.2490 H     1 <1>   0.0800 
 28 H       -2.4360    -3.6260    -3.2660 H     1 <1>   0.0800 
 29 H       -3.2100    -4.7230    -2.1430 H     1 <1>   0.0800 
 30 H       -1.5070    -4.5170    -2.0940 H     1 <1>   0.0800 
 31 H       -4.8620    -3.3340    -2.8680 H     1 <1>   0.1500 
 32 H       -4.8380     1.1580     0.8540 H     1 <1>   0.0800 
 33 H       -5.8090     0.0530     1.7960 H     1 <1>   0.0800 
 34 H       -6.5510     1.0910     0.6040 H     1 <1>   0.0800 
 35 H       -7.0120    -2.2870    -2.7120 H     1 <1>   0.1500 
 36 H       -1.9340    -5.8250     2.5320 H     1 <1>   0.0800 
 37 H       -0.6310    -4.8520     3.2150 H     1 <1>   0.0800 
 38 H       -0.2570    -6.1700     2.1020 H     1 <1>   0.0800 
 39 H       -8.8650    -2.0720    -1.1950 H     1 <1>   0.0800 
 40 H       -8.8970    -0.8990    -2.5040 H     1 <1>   0.0800 
 41 H       -8.7570    -1.6550     1.1140 H     1 <1>   0.0800 
 42 H       -9.9210    -1.3190     2.3670 H     1 <1>   0.0800 
 43 H       -8.7580    -0.0920     1.9010 H     1 <1>   0.0800 
 44 H      -12.1530     0.7450     0.3520 H     1 <1>   0.0800 
 45 H      -11.2120     1.1090     1.7770 H     1 <1>   0.0800 
 46 H      -12.1140    -0.3930     1.6770 H     1 <1>   0.0800 
@<TRIPOS>BOND
  1   1   2  2   
  2   2   3  1   
  3   2   4  1   
  4   3   5  1   
  5   4   6  2   
  6   4   7  1   
  7   5   8  ar  
  8   5   9  ar  
  9   6   8  1   
 10   6  10  1   
 11   7  11  1   
 12   7  26  1   
 13   7  27  1   
 14   8  12  ar  
 15   9  13  ar  
 16   9  14  1   
 17  10  28  1   
 18  10  29  1   
 19  10  30  1   
 20  11  15  2   
 21  11  16  1   
 22  12  17  ar  
 23  12  31  1   
 24  13  17  ar  
 25  13  18  1   
 26  14  32  1   
 27  14  33  1   
 28  14  34  1   
 29  16  19  1   
 30  17  35  1   
 31  18  20  1   
 32  19  36  1   
 33  19  37  1   
 34  19  38  1   
 35  20  21  1   
 36  20  39  1   
 37  20  40  1   
 38  21  22  2   
 39  21  23  am  
 40  23  24  1   
 41  23  25  1   
 42  24  41  1   
 43  24  42  1   
 44  24  43  1   
 45  25  44  1   
 46  25  45  1   
 47  25  46  1   
@<TRIPOS>SUBSTRUCTURE
  1 ****   5 GROUP 4 **** **** 0

# MOE 2024.06 (io_trps.svl 2023.06)
