@<TRIPOS>MOLECULE
NONAME
41 43 1 0 0 
SMALL
USER_CHARGES


@<TRIPOS>ATOM
  1 N        4.7670     1.1640    -0.1910 N.4   1 <1>  -0.9590 
  2 C        3.4700     0.4530    -0.3500 C.3   1 <1>   0.3430 
  3 C        4.6070     2.5310    -0.7540 C.3   1 <1>   0.3430 
  4 C        5.9290     0.4070    -0.7450 C.3   1 <1>   0.4860 
  5 C        2.4190     1.5510    -0.1840 C.3   1 <1>   0.0000 
  6 C        3.0950     2.7710    -0.8400 C.3   1 <1>  -0.1600 
  7 C        5.9540    -0.9540    -0.0780 C.ar  1 <1>  -0.1440 
  8 C        1.0570     1.2100    -0.7950 C.3   1 <1>   0.3430 
  9 C        2.0720     1.8250     1.2890 C.3   1 <1>  -0.1600 
 10 C        6.3460    -1.0800     1.2480 C.ar  1 <1>  -0.1500 
 11 C        5.5670    -2.0840    -0.7870 C.ar  1 <1>  -0.1500 
 12 N        0.0920     2.0810    -0.0720 N.4   1 <1>  -0.9590 
 13 C        0.6110     2.2840     1.3120 C.3   1 <1>   0.3430 
 14 C        6.3310    -2.3190     1.8630 C.ar  1 <1>  -0.1500 
 15 C        5.5540    -3.3220    -0.1690 C.ar  1 <1>  -0.1500 
 16 C       -1.3060     1.5410    -0.0840 C.3   1 <1>   0.2630 
 17 C        5.9320    -3.4390     1.1560 C.ar  1 <1>  -0.1500 
 18 H        4.9460     1.2430     0.8180 H     1 <1>   0.4500 
 19 H        3.3610    -0.3370     0.3790 H     1 <1>   0.0800 
 20 H        3.4090     0.0310    -1.3400 H     1 <1>   0.0800 
 21 H        5.0430     2.5930    -1.7400 H     1 <1>   0.0800 
 22 H        5.0800     3.2610    -0.1150 H     1 <1>   0.0800 
 23 H        6.8510     0.9270    -0.5390 H     1 <1>   0.0800 
 24 H        5.8300     0.2900    -1.8120 H     1 <1>   0.0800 
 25 H        2.8320     2.8380    -1.8820 H     1 <1>   0.0800 
 26 H        2.8280     3.7040    -0.3740 H     1 <1>   0.0800 
 27 H        0.8220     0.1750    -0.5990 H     1 <1>   0.0800 
 28 H        1.0300     1.3850    -1.8590 H     1 <1>   0.0800 
 29 H        2.7120     2.5590     1.7500 H     1 <1>   0.0800 
 30 H        2.1380     0.9210     1.8700 H     1 <1>   0.0800 
 31 H        6.6730    -0.2270     1.8190 H     1 <1>   0.1500 
 32 H        5.2780    -2.0220    -1.8220 H     1 <1>   0.1500 
 33 H        0.0770     3.0030    -0.5350 H     1 <1>   0.4500 
 34 H        0.5390     3.3250     1.5910 H     1 <1>   0.0800 
 35 H        0.0530     1.6950     2.0230 H     1 <1>   0.0800 
 36 H        6.6340    -2.4190     2.8920 H     1 <1>   0.1500 
 37 H        5.2570    -4.2000    -0.7180 H     1 <1>   0.1500 
 38 H       -1.3440     0.5790     0.4020 H     1 <1>   0.0800 
 39 H       -1.6570     1.4290    -1.0970 H     1 <1>   0.0800 
 40 H       -1.9720     2.2130     0.4350 H     1 <1>   0.0800 
 41 H        5.9230    -4.4040     1.6360 H     1 <1>   0.1500 
@<TRIPOS>BOND
  1   1   2  1   
  2   1   3  1   
  3   1   4  1   
  4   1  18  1   
  5   2   5  1   
  6   2  19  1   
  7   2  20  1   
  8   3   6  1   
  9   3  21  1   
 10   3  22  1   
 11   4   7  1   
 12   4  23  1   
 13   4  24  1   
 14   5   6  1   
 15   5   8  1   
 16   5   9  1   
 17   6  25  1   
 18   6  26  1   
 19   7  10  ar  
 20   7  11  ar  
 21   8  12  1   
 22   8  27  1   
 23   8  28  1   
 24   9  13  1   
 25   9  29  1   
 26   9  30  1   
 27  10  14  ar  
 28  10  31  1   
 29  11  15  ar  
 30  11  32  1   
 31  12  13  1   
 32  12  16  1   
 33  12  33  1   
 34  13  34  1   
 35  13  35  1   
 36  14  17  ar  
 37  14  36  1   
 38  15  17  ar  
 39  15  37  1   
 40  16  38  1   
 41  16  39  1   
 42  16  40  1   
 43  17  41  1   
@<TRIPOS>SUBSTRUCTURE
  1 ****   2 GROUP 4 **** **** 0

# MOE 2024.06 (io_trps.svl 2023.06)
