@<TRIPOS>MOLECULE
NONAME
66 68 1 0 0 
SMALL
USER_CHARGES


@<TRIPOS>ATOM
  1 O       -3.1510    -9.1250    -0.6220 O.3   1 <1>  -0.5600 
  2 C       -4.1860   -10.0270    -0.8600 C.3   1 <1>   0.2000 
  3 C       -3.4550    -8.0850     0.2570 C.3   1 <1>   0.1200 
  4 C       -4.1630   -11.1160     0.2230 C.3   1 <1>  -0.1600 
  5 C       -3.9510   -10.6230    -2.2490 C.3   1 <1>  -0.1600 
  6 C       -2.1980    -7.2320     0.4730 C.3   1 <1>   0.2000 
  7 C       -5.1730   -12.2500    -0.0500 C.3   1 <1>   0.0000 
  8 C       -4.9780   -11.7200    -2.5700 C.3   1 <1>  -0.0800 
  9 O       -2.5160    -6.2040     1.3590 O.3   1 <1>  -0.6800 
 10 C       -1.6360    -6.6600    -0.8550 C.3   1 <1>   0.1100 
 11 C       -4.9690   -12.8050    -1.4770 C.3   1 <1>  -0.1600 
 12 C       -6.6170   -11.7490     0.1400 C.3   1 <1>  -0.2400 
 13 C       -4.9340   -13.3820     0.9600 C.3   1 <1>  -0.2400 
 14 C       -4.6840   -12.3410    -3.9400 C.3   1 <1>  -0.2400 
 15 N       -0.2930    -6.0200    -0.7930 N.3   1 <1>  -0.8100 
 16 C        0.7760    -6.9730    -0.4320 C.3   1 <1>   0.1100 
 17 C       -0.2330    -4.7870     0.0150 C.3   1 <1>   0.1100 
 18 C        2.1650    -6.3200    -0.5630 C.3   1 <1>   0.3430 
 19 C        1.1420    -4.1060    -0.1230 C.3   1 <1>   0.3430 
 20 N        2.2580    -5.0460     0.2360 N.4   1 <1>  -0.9590 
 21 C        3.5920    -4.4070     0.1020 C.3   1 <1>   0.4860 
 22 C        4.6370    -5.3530     0.6580 C.ar  1 <1>  -0.1430 
 23 C        5.4770    -6.0480    -0.2020 C.ar  1 <1>  -0.1500 
 24 C        4.7580    -5.5400     2.0280 C.ar  1 <1>  -0.1500 
 25 C        6.4180    -6.9270     0.3030 C.ar  1 <1>  -0.1500 
 26 C        5.6990    -6.4200     2.5310 C.ar  1 <1>  -0.1500 
 27 C        6.5280    -7.1150     1.6680 C.ar  1 <1>  -0.1500 
 28 H       -5.1240    -9.4970    -0.8550 H     1 <1>   0.0800 
 29 H       -3.7750    -8.5040     1.1950 H     1 <1>   0.0800 
 30 H       -4.2440    -7.4970    -0.1790 H     1 <1>   0.0800 
 31 H       -4.3710   -10.6830     1.1840 H     1 <1>   0.0800 
 32 H       -3.1720   -11.5330     0.2520 H     1 <1>   0.0800 
 33 H       -2.9600   -11.0420    -2.2850 H     1 <1>   0.0800 
 34 H       -4.0180    -9.8410    -2.9830 H     1 <1>   0.0800 
 35 H       -1.4620    -7.8510     0.9510 H     1 <1>   0.0800 
 36 H       -5.9570   -11.2730    -2.6150 H     1 <1>   0.0800 
 37 H       -3.2520    -5.6680     1.0060 H     1 <1>   0.4000 
 38 H       -2.3440    -5.9590    -1.2630 H     1 <1>   0.0800 
 39 H       -1.5720    -7.4680    -1.5640 H     1 <1>   0.0800 
 40 H       -5.7310   -13.5350    -1.6920 H     1 <1>   0.0800 
 41 H       -4.0210   -13.3130    -1.5160 H     1 <1>   0.0800 
 42 H       -6.8540   -10.9470    -0.5330 H     1 <1>   0.0800 
 43 H       -6.7610   -11.3940     1.1450 H     1 <1>   0.0800 
 44 H       -7.3160   -12.5480    -0.0370 H     1 <1>   0.0800 
 45 H       -3.9340   -13.7670     0.8700 H     1 <1>   0.0800 
 46 H       -5.6230   -14.1910     0.7920 H     1 <1>   0.0800 
 47 H       -5.0680   -13.0260     1.9670 H     1 <1>   0.0800 
 48 H       -3.7100   -12.7980    -3.9500 H     1 <1>   0.0800 
 49 H       -4.7160   -11.5860    -4.7060 H     1 <1>   0.0800 
 50 H       -5.4180   -13.0920    -4.1750 H     1 <1>   0.0800 
 51 H        0.7290    -7.8260    -1.0890 H     1 <1>   0.0800 
 52 H        0.6400    -7.3210     0.5770 H     1 <1>   0.0800 
 53 H       -0.4050    -5.0090     1.0530 H     1 <1>   0.0800 
 54 H       -0.9990    -4.1070    -0.3160 H     1 <1>   0.0800 
 55 H        2.3440    -6.1110    -1.6040 H     1 <1>   0.0800 
 56 H        2.9140    -7.0200    -0.2290 H     1 <1>   0.0800 
 57 H        1.1700    -3.2380     0.5150 H     1 <1>   0.0800 
 58 H        1.2550    -3.7780    -1.1430 H     1 <1>   0.0800 
 59 H        2.1450    -5.3160     1.2190 H     1 <1>   0.4500 
 60 H        3.6190    -3.4830     0.6560 H     1 <1>   0.0800 
 61 H        3.8010    -4.1920    -0.9330 H     1 <1>   0.0800 
 62 H        5.4140    -5.9140    -1.2690 H     1 <1>   0.1500 
 63 H        4.1310    -5.0050     2.7210 H     1 <1>   0.1500 
 64 H        7.0710    -7.4660    -0.3640 H     1 <1>   0.1500 
 65 H        5.7930    -6.5660     3.5940 H     1 <1>   0.1500 
 66 H        7.2610    -7.8000     2.0610 H     1 <1>   0.1500 
@<TRIPOS>BOND
  1   1   2  1   
  2   1   3  1   
  3   2   4  1   
  4   2   5  1   
  5   2  28  1   
  6   3   6  1   
  7   3  29  1   
  8   3  30  1   
  9   4   7  1   
 10   4  31  1   
 11   4  32  1   
 12   5   8  1   
 13   5  33  1   
 14   5  34  1   
 15   6   9  1   
 16   6  10  1   
 17   6  35  1   
 18   7  11  1   
 19   7  12  1   
 20   7  13  1   
 21   8  11  1   
 22   8  14  1   
 23   8  36  1   
 24   9  37  1   
 25  10  15  1   
 26  10  38  1   
 27  10  39  1   
 28  11  40  1   
 29  11  41  1   
 30  12  42  1   
 31  12  43  1   
 32  12  44  1   
 33  13  45  1   
 34  13  46  1   
 35  13  47  1   
 36  14  48  1   
 37  14  49  1   
 38  14  50  1   
 39  15  16  1   
 40  15  17  1   
 41  16  18  1   
 42  16  51  1   
 43  16  52  1   
 44  17  19  1   
 45  17  53  1   
 46  17  54  1   
 47  18  20  1   
 48  18  55  1   
 49  18  56  1   
 50  19  20  1   
 51  19  57  1   
 52  19  58  1   
 53  20  21  1   
 54  20  59  1   
 55  21  22  1   
 56  21  60  1   
 57  21  61  1   
 58  22  23  ar  
 59  22  24  ar  
 60  23  25  ar  
 61  23  62  1   
 62  24  26  ar  
 63  24  63  1   
 64  25  27  ar  
 65  25  64  1   
 66  26  27  ar  
 67  26  65  1   
 68  27  66  1   
@<TRIPOS>SUBSTRUCTURE
  1 ****  16 GROUP 4 **** **** 0

# MOE 2024.06 (io_trps.svl 2023.06)
