@<TRIPOS>MOLECULE
NONAME
54 56 1 0 0 
SMALL
USER_CHARGES


@<TRIPOS>ATOM
  1 CL       0.7850     1.3580    -2.6500 Cl    1 <1>  -0.1770 
  2 C        1.8990     0.8060    -1.4250 C.ar  1 <1>   0.1770 
  3 C        2.8600     1.6730    -0.9430 C.ar  1 <1>  -0.1500 
  4 C        1.8020    -0.4880    -0.9560 C.ar  1 <1>  -0.1500 
  5 C        3.7610     1.2600     0.0330 C.ar  1 <1>  -0.0090 
  6 C        2.6900    -0.9170     0.0130 C.ar  1 <1>  -0.1500 
  7 S        5.0130     2.4060     0.6660 S.o2  1 <1>   1.4470 
  8 C        3.6630    -0.0490     0.5070 C.ar  1 <1>   0.0830 
  9 O        4.9430     2.5000     2.1080 O.2   1 <1>  -0.6500 
 10 O        4.9440     3.6360    -0.0970 O.2   1 <1>  -0.6500 
 11 N        6.4990     1.6700     0.2510 N.am  1 <1>  -0.8490 
 12 O        4.5400    -0.4540     1.4570 O.3   1 <1>  -0.3630 
 13 C        7.3090     1.3400     1.4220 C.3   1 <1>   0.1960 
 14 C        7.2280     2.3860    -0.7900 C.3   1 <1>   0.1960 
 15 C        4.1460    -1.3870     2.4420 C.3   1 <1>   0.0400 
 16 C        8.4720     0.4490     0.9890 C.3   1 <1>  -0.1600 
 17 C        8.3970     1.5200    -1.2650 C.3   1 <1>  -0.1600 
 18 C        9.3300     1.1440    -0.0920 C.3   1 <1>   0.5640 
 19 N       10.3980     0.1780    -0.6040 N.4   1 <1>  -0.9590 
 20 C        9.9990     2.4430     0.5030 C.2   1 <1>   0.5690 
 21 C        9.8870    -1.1090    -1.1820 C.3   1 <1>   0.3430 
 22 C       11.4420    -0.0990     0.4410 C.3   1 <1>   0.3430 
 23 O       10.3570     2.4420     1.6540 O.2   1 <1>  -0.5700 
 24 N       10.2680     3.5500    -0.2350 N.am  1 <1>  -0.8000 
 25 C       11.0320    -1.8770    -1.8420 C.3   1 <1>  -0.1600 
 26 C       12.6190    -0.8520    -0.1800 C.3   1 <1>  -0.1600 
 27 C       12.1720    -2.1530    -0.8550 C.3   1 <1>  -0.1600 
 28 H        2.8980     2.6760    -1.3330 H     1 <1>   0.1500 
 29 H        1.0450    -1.1440    -1.3480 H     1 <1>   0.1500 
 30 H        2.6170    -1.9290     0.3680 H     1 <1>   0.1500 
 31 H        6.7130     0.7960     2.1380 H     1 <1>   0.0800 
 32 H        7.6560     2.2410     1.9030 H     1 <1>   0.0800 
 33 H        7.5580     3.3410    -0.4150 H     1 <1>   0.0800 
 34 H        6.5730     2.5680    -1.6280 H     1 <1>   0.0800 
 35 H        4.8810    -1.3750     3.2270 H     1 <1>   0.0800 
 36 H        4.1000    -2.3670     2.0020 H     1 <1>   0.0800 
 37 H        3.1890    -1.0970     2.8380 H     1 <1>   0.0800 
 38 H        8.0460    -0.4670     0.6250 H     1 <1>   0.0800 
 39 H        9.0600     0.2240     1.8600 H     1 <1>   0.0800 
 40 H        8.9360     2.0450    -2.0310 H     1 <1>   0.0800 
 41 H        7.9580     0.6470    -1.7090 H     1 <1>   0.0800 
 42 H       10.8920     0.6650    -1.3580 H     1 <1>   0.4500 
 43 H        9.1270    -0.9210    -1.9220 H     1 <1>   0.0800 
 44 H        9.4560    -1.7160    -0.4010 H     1 <1>   0.0800 
 45 H       11.0170    -0.6900     1.2370 H     1 <1>   0.0800 
 46 H       11.8100     0.8200     0.8680 H     1 <1>   0.0800 
 47 H       10.7010     4.3510     0.2380 H     1 <1>   0.3700 
 48 H       10.0060     3.7250    -1.2070 H     1 <1>   0.3700 
 49 H       11.4010    -1.3190    -2.6850 H     1 <1>   0.0800 
 50 H       10.6560    -2.8130    -2.2180 H     1 <1>   0.0800 
 51 H       13.3330    -1.0820     0.5930 H     1 <1>   0.0800 
 52 H       13.1160    -0.2170    -0.8930 H     1 <1>   0.0800 
 53 H       13.0040    -2.6030    -1.3710 H     1 <1>   0.0800 
 54 H       11.8380    -2.8510    -0.1050 H     1 <1>   0.0800 
@<TRIPOS>BOND
  1   1   2  1   
  2   2   3  ar  
  3   2   4  ar  
  4   3   5  ar  
  5   3  28  1   
  6   4   6  ar  
  7   4  29  1   
  8   5   7  1   
  9   5   8  ar  
 10   6   8  ar  
 11   6  30  1   
 12   7   9  2   
 13   7  10  2   
 14   7  11  am  
 15   8  12  1   
 16  11  13  1   
 17  11  14  1   
 18  12  15  1   
 19  13  16  1   
 20  13  31  1   
 21  13  32  1   
 22  14  17  1   
 23  14  33  1   
 24  14  34  1   
 25  15  35  1   
 26  15  36  1   
 27  15  37  1   
 28  16  18  1   
 29  16  38  1   
 30  16  39  1   
 31  17  18  1   
 32  17  40  1   
 33  17  41  1   
 34  18  19  1   
 35  18  20  1   
 36  19  21  1   
 37  19  22  1   
 38  19  42  1   
 39  20  23  2   
 40  20  24  am  
 41  21  25  1   
 42  21  43  1   
 43  21  44  1   
 44  22  26  1   
 45  22  45  1   
 46  22  46  1   
 47  24  47  1   
 48  24  48  1   
 49  25  27  1   
 50  25  49  1   
 51  25  50  1   
 52  26  27  1   
 53  26  51  1   
 54  26  52  1   
 55  27  53  1   
 56  27  54  1   
@<TRIPOS>SUBSTRUCTURE
  1 ****  11 GROUP 4 **** **** 0

# MOE 2024.06 (io_trps.svl 2023.06)
