@<TRIPOS>MOLECULE
NONAME
41 44 1 0 0 
SMALL
USER_CHARGES


@<TRIPOS>ATOM
  1 O        0.5620    -0.9940     0.8410 O.2   1 <1>  -0.5700 
  2 C       -0.0840    -1.9820     0.6030 C.2   1 <1>   0.5690 
  3 N        0.3900    -3.1140    -0.0020 N.am  1 <1>  -0.4200 
  4 C       -1.5550    -2.1160     0.9710 C.3   1 <1>  -0.0190 
  5 C       -0.5430    -4.1070    -0.1300 C.2   1 <1>   0.5690 
  6 C        1.7810    -3.2440    -0.5070 C.3   1 <1>   0.1400 
  7 C       -1.8940    -3.6830     0.4290 C.3   1 <1>  -0.0190 
  8 C       -2.6000    -1.0980     0.1860 C.3   1 <1>   0.0580 
  9 O       -0.3430    -5.1950    -0.6040 O.2   1 <1>  -0.5700 
 10 C        2.6430    -4.0150     0.4930 C.3   1 <1>   0.1200 
 11 C       -3.1320    -3.5580    -0.6650 C.3   1 <1>   0.0580 
 12 C       -3.9020    -1.1670    -0.7760 C.2   1 <1>  -0.2880 
 13 C       -2.7840    -2.3630    -0.1870 C.3   1 <1>  -0.1600 
 14 O        3.9430    -4.0620     0.0000 O.3   1 <1>  -0.5600 
 15 C       -4.1810    -2.4560    -1.2220 C.2   1 <1>  -0.2880 
 16 C        4.8330    -4.7740     0.8020 C.3   1 <1>   0.2630 
 17 C        6.2210    -4.7200     0.1810 C.ar  1 <1>  -0.1440 
 18 C        6.8090    -3.4990    -0.1110 C.ar  1 <1>  -0.1500 
 19 C        6.9170    -5.8890    -0.0910 C.ar  1 <1>  -0.1500 
 20 C        8.0780    -3.4440    -0.6620 C.ar  1 <1>  -0.1500 
 21 C        8.1870    -5.8360    -0.6420 C.ar  1 <1>  -0.1500 
 22 C        8.7680    -4.6130    -0.9270 C.ar  1 <1>  -0.1500 
 23 H       -1.6570    -2.0340     2.0410 H     1 <1>   0.0800 
 24 H        2.2010    -2.2650    -0.6610 H     1 <1>   0.0800 
 25 H        1.7690    -3.7690    -1.4470 H     1 <1>   0.0800 
 26 H       -2.1560    -4.3380     1.2450 H     1 <1>   0.0800 
 27 H       -1.9410    -0.4370    -0.3620 H     1 <1>   0.0800 
 28 H        2.2770    -5.0220     0.6000 H     1 <1>   0.0800 
 29 H        2.6550    -3.5090     1.4430 H     1 <1>   0.0800 
 30 H       -2.6990    -3.9490    -1.5770 H     1 <1>   0.0800 
 31 H       -4.4300    -0.2520    -0.9920 H     1 <1>   0.1500 
 32 H       -3.5650    -2.5130     0.7340 H     1 <1>   0.0800 
 33 H       -2.0800    -2.1970    -1.1090 H     1 <1>   0.0800 
 34 H       -4.9780    -2.7860    -1.8680 H     1 <1>   0.1500 
 35 H        4.4890    -5.7910     0.8770 H     1 <1>   0.0800 
 36 H        4.8540    -4.3240     1.7800 H     1 <1>   0.0800 
 37 H        6.2720    -2.5880     0.0870 H     1 <1>   0.1500 
 38 H        6.4760    -6.8460     0.1240 H     1 <1>   0.1500 
 39 H        8.5240    -2.4910    -0.8860 H     1 <1>   0.1500 
 40 H        8.7210    -6.7460    -0.8500 H     1 <1>   0.1500 
 41 H        9.7540    -4.5710    -1.3550 H     1 <1>   0.1500 
@<TRIPOS>BOND
  1   1   2  2   
  2   2   3  am  
  3   2   4  1   
  4   3   5  am  
  5   3   6  1   
  6   4   7  1   
  7   4   8  1   
  8   4  23  1   
  9   5   7  1   
 10   5   9  2   
 11   6  10  1   
 12   6  24  1   
 13   6  25  1   
 14   7  11  1   
 15   7  26  1   
 16   8  12  1   
 17   8  13  1   
 18   8  27  1   
 19  10  14  1   
 20  10  28  1   
 21  10  29  1   
 22  11  13  1   
 23  11  15  1   
 24  11  30  1   
 25  12  15  2   
 26  12  31  1   
 27  13  32  1   
 28  13  33  1   
 29  14  16  1   
 30  15  34  1   
 31  16  17  1   
 32  16  35  1   
 33  16  36  1   
 34  17  18  ar  
 35  17  19  ar  
 36  18  20  ar  
 37  18  37  1   
 38  19  21  ar  
 39  19  38  1   
 40  20  22  ar  
 41  20  39  1   
 42  21  22  ar  
 43  21  40  1   
 44  22  41  1   
@<TRIPOS>SUBSTRUCTURE
  1 ****   6 GROUP 4 **** **** 0

# MOE 2024.06 (io_trps.svl 2023.06)
