@<TRIPOS>MOLECULE
NONAME
47 48 1 0 0 
SMALL
USER_CHARGES


@<TRIPOS>ATOM
  1 S        0.0240    -0.1920     0.2790 S.o2  1 <1>   1.3330 
  2 O        1.3410    -0.7780     0.1980 O.2   1 <1>  -0.6500 
  3 O       -0.2640     0.8350     1.2490 O.2   1 <1>  -0.6500 
  4 N       -1.1100    -1.4820     0.4940 N.am  1 <1>  -0.6930 
  5 C       -0.4180     0.4020    -1.3390 C.3   1 <1>  -0.1350 
  6 C       -2.4630    -1.2710     0.7110 C.ar  1 <1>   0.1990 
  7 C       -0.5820    -2.8580     0.4660 C.3   1 <1>   0.3340 
  8 C       -2.9210    -0.5560     1.8110 C.ar  1 <1>  -0.1500 
  9 C       -3.4080    -1.7840    -0.1700 C.ar  1 <1>  -0.1500 
 10 C       -0.3770    -3.2990    -0.9730 C.2   1 <1>  -0.2880 
 11 C       -4.2720    -0.3530     2.0150 C.ar  1 <1>  -0.1500 
 12 C       -4.7590    -1.5830     0.0360 C.ar  1 <1>  -0.1500 
 13 C       -1.0540    -4.2700    -1.5950 C.2   1 <1>  -0.3000 
 14 C       -5.2310    -0.8530     1.1310 C.ar  1 <1>   0.0860 
 15 C       -6.6450    -0.6210     1.3520 C.2   1 <1>   0.5440 
 16 O       -7.0790    -0.4560     2.4760 O.2   1 <1>  -0.5700 
 17 N       -7.5130    -0.5660     0.2970 N.am  1 <1>  -0.7300 
 18 C       -8.9660    -0.3430     0.3930 C.3   1 <1>   0.2200 
 19 C       -9.6870    -1.4550    -0.3760 C.3   1 <1>  -0.1600 
 20 C       -9.2940     1.0370    -0.1860 C.3   1 <1>  -0.1600 
 21 C      -11.2040    -1.2160    -0.4050 C.3   1 <1>  -0.1600 
 22 C      -10.8100     1.2800    -0.2140 C.3   1 <1>  -0.1600 
 23 C      -11.5370     0.1670    -0.9810 C.3   1 <1>  -0.1600 
 24 H        0.2250     1.2120    -1.6200 H     1 <1>   0.0800 
 25 H       -1.4320     0.7510    -1.3380 H     1 <1>   0.0800 
 26 H       -0.3210    -0.3830    -2.0620 H     1 <1>   0.0800 
 27 H       -1.2830    -3.5150     0.9510 H     1 <1>   0.0800 
 28 H        0.3460    -2.9100     1.0100 H     1 <1>   0.0800 
 29 H       -2.2110    -0.1580     2.5150 H     1 <1>   0.1500 
 30 H       -3.0740    -2.3450    -1.0240 H     1 <1>   0.1500 
 31 H        0.4040    -2.7400    -1.4590 H     1 <1>   0.1500 
 32 H       -4.6030     0.2040     2.8760 H     1 <1>   0.1500 
 33 H       -5.4630    -2.0050    -0.6590 H     1 <1>   0.1500 
 34 H       -0.8780    -4.5630    -2.6160 H     1 <1>   0.1500 
 35 H       -1.8360    -4.8550    -1.1410 H     1 <1>   0.1500 
 36 H       -7.1460    -0.5700    -0.6520 H     1 <1>   0.3700 
 37 H       -9.2740    -0.3750     1.4250 H     1 <1>   0.0800 
 38 H       -9.4850    -2.4000     0.0970 H     1 <1>   0.0800 
 39 H       -9.3200    -1.4920    -1.3870 H     1 <1>   0.0800 
 40 H       -8.9080     1.1110    -1.1870 H     1 <1>   0.0800 
 41 H       -8.8240     1.7930     0.4190 H     1 <1>   0.0800 
 42 H      -11.5930    -1.2870     0.5970 H     1 <1>   0.0800 
 43 H      -11.6790    -1.9790    -0.9980 H     1 <1>   0.0800 
 44 H      -11.0140     2.2310    -0.6760 H     1 <1>   0.0800 
 45 H      -11.1820     1.3180     0.7960 H     1 <1>   0.0800 
 46 H      -12.6000     0.3310    -0.9320 H     1 <1>   0.0800 
 47 H      -11.2470     0.2010    -2.0180 H     1 <1>   0.0800 
@<TRIPOS>BOND
  1   1   2  2   
  2   1   3  2   
  3   1   4  am  
  4   1   5  1   
  5   4   6  1   
  6   4   7  1   
  7   5  24  1   
  8   5  25  1   
  9   5  26  1   
 10   6   8  ar  
 11   6   9  ar  
 12   7  10  1   
 13   7  27  1   
 14   7  28  1   
 15   8  11  ar  
 16   8  29  1   
 17   9  12  ar  
 18   9  30  1   
 19  10  13  2   
 20  10  31  1   
 21  11  14  ar  
 22  11  32  1   
 23  12  14  ar  
 24  12  33  1   
 25  13  34  1   
 26  13  35  1   
 27  14  15  1   
 28  15  16  2   
 29  15  17  am  
 30  17  18  1   
 31  17  36  1   
 32  18  19  1   
 33  18  20  1   
 34  18  37  1   
 35  19  21  1   
 36  19  38  1   
 37  19  39  1   
 38  20  22  1   
 39  20  40  1   
 40  20  41  1   
 41  21  23  1   
 42  21  42  1   
 43  21  43  1   
 44  22  23  1   
 45  22  44  1   
 46  22  45  1   
 47  23  46  1   
 48  23  47  1   
@<TRIPOS>SUBSTRUCTURE
  1 ****  12 GROUP 4 **** **** 0

# MOE 2024.06 (io_trps.svl 2023.06)
