@<TRIPOS>MOLECULE
NONAME
32 34 1 0 0 
SMALL
USER_CHARGES


@<TRIPOS>ATOM
  1 N       -1.8010     0.3150    -0.4080 N.1   1 <1>  -0.5570 
  2 C       -2.4380    -0.6300    -0.3250 C.1   1 <1>   0.5380 
  3 C       -3.3000    -1.7670    -0.2180 C.2   1 <1>   0.0190 
  4 C       -2.9350    -3.0900    -0.1610 C.2   1 <1>  -0.0260 
  5 C       -4.6970    -1.7430    -0.1490 C.2   1 <1>  -0.1810 
  6 N       -1.6560    -3.6050    -0.1920 N.2   1 <1>  -0.5760 
  7 N       -4.0730    -3.8870    -0.0590 N.pl3 1 <1>   0.3340 
  8 C       -5.1420    -3.0240    -0.0670 C.2   1 <1>  -0.3320 
  9 C       -5.5940    -0.5170    -0.1630 C.3   1 <1>   0.0210 
 10 C       -1.5320    -4.8820    -0.1050 C.2   1 <1>   0.3750 
 11 C       -3.9100    -5.2730     0.0470 C.2   1 <1>  -0.1690 
 12 C       -6.6190    -3.3880     0.0180 C.3   1 <1>   0.0200 
 13 C       -6.9990    -0.8830     0.3410 C.3   1 <1>  -0.1600 
 14 C       -2.6420    -5.7590     0.0220 C.2   1 <1>  -0.1360 
 15 C       -0.1440    -5.4830    -0.1350 C.3   1 <1>  -0.1790 
 16 C       -5.1140    -6.1920     0.1900 C.3   1 <1>  -0.1020 
 17 C       -7.5090    -2.1780    -0.3170 C.3   1 <1>  -0.1600 
 18 H       -5.6540    -0.1430    -1.1700 H     1 <1>   0.0800 
 19 H       -5.1780     0.2550     0.4600 H     1 <1>   0.0800 
 20 H       -6.8370    -3.7260     1.0160 H     1 <1>   0.0800 
 21 H       -6.8520    -4.1770    -0.6730 H     1 <1>   0.0800 
 22 H       -7.6760    -0.0740     0.1330 H     1 <1>   0.0800 
 23 H       -6.9640    -1.0220     1.4080 H     1 <1>   0.0800 
 24 H       -2.4350    -6.8110     0.0960 H     1 <1>   0.1500 
 25 H       -0.0550    -6.1540    -0.9690 H     1 <1>   0.0800 
 26 H        0.0420    -6.0190     0.7780 H     1 <1>   0.0800 
 27 H        0.5940    -4.7070    -0.2360 H     1 <1>   0.0800 
 28 H       -4.7990    -7.2100     0.3320 H     1 <1>   0.0800 
 29 H       -5.7050    -5.9050     1.0410 H     1 <1>   0.0800 
 30 H       -5.7180    -6.1540    -0.6980 H     1 <1>   0.0800 
 31 H       -8.5170    -2.3780     0.0010 H     1 <1>   0.0800 
 32 H       -7.5210    -2.0410    -1.3850 H     1 <1>   0.0800 
@<TRIPOS>BOND
  1   1   2  3   
  2   2   3  1   
  3   3   4  2   
  4   3   5  1   
  5   4   6  1   
  6   4   7  1   
  7   5   8  2   
  8   5   9  1   
  9   6  10  2   
 10   7   8  1   
 11   7  11  1   
 12   8  12  1   
 13   9  13  1   
 14   9  18  1   
 15   9  19  1   
 16  10  14  1   
 17  10  15  1   
 18  11  14  2   
 19  11  16  1   
 20  12  17  1   
 21  12  20  1   
 22  12  21  1   
 23  13  17  1   
 24  13  22  1   
 25  13  23  1   
 26  14  24  1   
 27  15  25  1   
 28  15  26  1   
 29  15  27  1   
 30  16  28  1   
 31  16  29  1   
 32  16  30  1   
 33  17  31  1   
 34  17  32  1   
@<TRIPOS>SUBSTRUCTURE
  1 ****   7 GROUP 4 **** **** 0

# MOE 2024.06 (io_trps.svl 2023.06)
