@<TRIPOS>MOLECULE
NONAME
37 37 1 0 0 
SMALL
USER_CHARGES


@<TRIPOS>ATOM
  1 O       -8.0440     2.1640     0.0530 O.3   1 <1>  -0.3630 
  2 C       -8.1570     0.8080     0.0560 C.ar  1 <1>   0.0830 
  3 C       -6.7990     2.8090     0.1360 C.3   1 <1>   0.1200 
  4 C       -9.4290     0.2540    -0.0980 C.ar  1 <1>  -0.1440 
  5 C       -7.0500    -0.0250     0.2090 C.ar  1 <1>  -0.1500 
  6 C       -7.0660     4.3140     0.0660 C.3   1 <1>   0.3430 
  7 C       -9.5770    -1.1300    -0.0860 C.ar  1 <1>  -0.1440 
  8 C      -10.6600     1.1470    -0.2710 C.3   1 <1>  -0.0970 
  9 C       -7.2010    -1.3990     0.2140 C.ar  1 <1>  -0.1440 
 10 N       -5.8120     5.1390     0.1640 N.4   1 <1>  -0.9590 
 11 C       -8.4630    -1.9410     0.0650 C.ar  1 <1>  -0.1500 
 12 C      -10.9390    -1.7970    -0.2350 C.3   1 <1>  -0.0970 
 13 C       -6.0000    -2.3140     0.3770 C.3   1 <1>  -0.0970 
 14 C       -6.1640     6.5830     0.3330 C.3   1 <1>   0.2630 
 15 C       -4.9240     4.9600    -1.0300 C.3   1 <1>   0.2630 
 16 H       -6.2010     2.4760    -0.6930 H     1 <1>   0.0800 
 17 H       -6.3470     2.5400     1.0750 H     1 <1>   0.0800 
 18 H       -6.0620     0.3700     0.3280 H     1 <1>   0.1500 
 19 H       -7.7260     4.5720     0.8790 H     1 <1>   0.0800 
 20 H       -7.5710     4.5340    -0.8600 H     1 <1>   0.0800 
 21 H      -10.3980     2.1600    -0.5100 H     1 <1>   0.0800 
 22 H      -11.2330     1.1500     0.6370 H     1 <1>   0.0800 
 23 H      -11.2760     0.7820    -1.0720 H     1 <1>   0.0800 
 24 H       -5.2970     4.8400     1.0080 H     1 <1>   0.4500 
 25 H       -8.5780    -3.0110     0.0680 H     1 <1>   0.1500 
 26 H      -11.6340    -1.3860     0.4740 H     1 <1>   0.0800 
 27 H      -10.8720    -2.8560    -0.0590 H     1 <1>   0.0800 
 28 H      -11.3160    -1.6430    -1.2300 H     1 <1>   0.0800 
 29 H       -5.1810    -1.7940     0.8390 H     1 <1>   0.0800 
 30 H       -5.6850    -2.6750    -0.5850 H     1 <1>   0.0800 
 31 H       -6.2570    -3.1550     0.9960 H     1 <1>   0.0800 
 32 H       -6.7110     6.9400    -0.5240 H     1 <1>   0.0800 
 33 H       -5.2700     7.1770     0.4420 H     1 <1>   0.0800 
 34 H       -6.7740     6.7200     1.2120 H     1 <1>   0.0800 
 35 H       -5.4430     5.2490    -1.9300 H     1 <1>   0.0800 
 36 H       -4.6180     3.9310    -1.1240 H     1 <1>   0.0800 
 37 H       -4.0400     5.5700    -0.9330 H     1 <1>   0.0800 
@<TRIPOS>BOND
  1   1   2  1   
  2   1   3  1   
  3   2   4  ar  
  4   2   5  ar  
  5   3   6  1   
  6   3  16  1   
  7   3  17  1   
  8   4   7  ar  
  9   4   8  1   
 10   5   9  ar  
 11   5  18  1   
 12   6  10  1   
 13   6  19  1   
 14   6  20  1   
 15   7  11  ar  
 16   7  12  1   
 17   8  21  1   
 18   8  22  1   
 19   8  23  1   
 20   9  11  ar  
 21   9  13  1   
 22  10  14  1   
 23  10  15  1   
 24  10  24  1   
 25  11  25  1   
 26  12  26  1   
 27  12  27  1   
 28  12  28  1   
 29  13  29  1   
 30  13  30  1   
 31  13  31  1   
 32  14  32  1   
 33  14  33  1   
 34  14  34  1   
 35  15  35  1   
 36  15  36  1   
 37  15  37  1   
@<TRIPOS>SUBSTRUCTURE
  1 ****   2 GROUP 4 **** **** 0

# MOE 2024.06 (io_trps.svl 2023.06)
