@<TRIPOS>MOLECULE
NONAME
37 39 1 0 0 
SMALL
USER_CHARGES


@<TRIPOS>ATOM
  1 CL      -0.5880    -2.7970    -1.6790 Cl    1 <1>  -0.1770 
  2 C        0.8840    -2.7730    -0.7390 C.ar  1 <1>   0.1770 
  3 C        2.0570    -3.2110    -1.3050 C.ar  1 <1>  -0.1500 
  4 C        0.8230    -2.3040     0.5780 C.ar  1 <1>  -0.1500 
  5 C        3.2130    -3.1790    -0.5300 C.ar  1 <1>   0.2270 
  6 C        1.9650    -2.2700     1.3490 C.ar  1 <1>  -0.1500 
  7 N        4.4810    -3.5550    -0.8610 N.2   1 <1>  -0.5650 
  8 C        3.1600    -2.7140     0.7780 C.ar  1 <1>  -0.1520 
  9 C        5.1410    -3.3160     0.2150 C.2   1 <1>   0.2420 
 10 N        4.4310    -2.8110     1.2480 N.pl3 1 <1>   0.0330 
 11 S        6.8920    -3.6180     0.3820 S.3   1 <1>  -0.2860 
 12 C        7.3600    -4.2360    -1.3080 C.3   1 <1>   0.1310 
 13 C        8.8270    -4.6300    -1.3640 C.2   1 <1>   0.5690 
 14 O        9.4240    -4.5010    -2.4050 O.2   1 <1>  -0.5700 
 15 N        9.4350    -5.1170    -0.2500 N.am  1 <1>  -0.7300 
 16 C       10.8660    -5.5220    -0.1700 C.3   1 <1>   0.1400 
 17 C       11.7970    -4.3040    -0.0970 C.3   1 <1>   0.2000 
 18 O       13.0860    -4.7270     0.2040 O.3   1 <1>  -0.5600 
 19 C       11.4750    -3.3070     1.0100 C.3   1 <1>  -0.1600 
 20 C       13.8320    -3.6610     0.6960 C.3   1 <1>   0.1200 
 21 C       12.8310    -2.6970     1.3290 C.3   1 <1>  -0.1600 
 22 H        2.1020    -3.5700    -2.3150 H     1 <1>   0.1500 
 23 H       -0.1230    -1.9740     0.9680 H     1 <1>   0.1500 
 24 H        1.9420    -1.9130     2.3650 H     1 <1>   0.1500 
 25 H        4.7910    -2.5600     2.1700 H     1 <1>   0.2700 
 26 H        7.1550    -3.4440    -2.0040 H     1 <1>   0.0800 
 27 H        6.7360    -5.0820    -1.5260 H     1 <1>   0.0800 
 28 H        8.9150    -5.1210     0.6300 H     1 <1>   0.3700 
 29 H       11.1180    -6.0990    -1.0440 H     1 <1>   0.0800 
 30 H       11.0090    -6.1360     0.7020 H     1 <1>   0.0800 
 31 H       11.8330    -3.8100    -1.0540 H     1 <1>   0.0800 
 32 H       11.0910    -3.8270     1.8690 H     1 <1>   0.0800 
 33 H       10.7560    -2.5760     0.6840 H     1 <1>   0.0800 
 34 H       14.3470    -3.2030    -0.1320 H     1 <1>   0.0800 
 35 H       14.5430    -4.0400     1.4100 H     1 <1>   0.0800 
 36 H       12.9880    -2.6160     2.3900 H     1 <1>   0.0800 
 37 H       12.9350    -1.7230     0.8830 H     1 <1>   0.0800 
@<TRIPOS>BOND
  1   1   2  1   
  2   2   3  ar  
  3   2   4  ar  
  4   3   5  ar  
  5   3  22  1   
  6   4   6  ar  
  7   4  23  1   
  8   5   7  1   
  9   5   8  ar  
 10   6   8  ar  
 11   6  24  1   
 12   7   9  2   
 13   8  10  1   
 14   9  10  1   
 15   9  11  1   
 16  10  25  1   
 17  11  12  1   
 18  12  13  1   
 19  12  26  1   
 20  12  27  1   
 21  13  14  2   
 22  13  15  am  
 23  15  16  1   
 24  15  28  1   
 25  16  17  1   
 26  16  29  1   
 27  16  30  1   
 28  17  18  1   
 29  17  19  1   
 30  17  31  1   
 31  18  20  1   
 32  19  21  1   
 33  19  32  1   
 34  19  33  1   
 35  20  21  1   
 36  20  34  1   
 37  20  35  1   
 38  21  36  1   
 39  21  37  1   
@<TRIPOS>SUBSTRUCTURE
  1 ****  11 GROUP 4 **** **** 0

# MOE 2024.06 (io_trps.svl 2023.06)
