@<TRIPOS>MOLECULE
NONAME
34 34 1 0 0 
SMALL
USER_CHARGES


@<TRIPOS>ATOM
  1 S       -0.1850    -0.0980     0.5880 S.o2  1 <1>   1.4470 
  2 O       -0.8110     0.1470     1.8670 O.2   1 <1>  -0.6500 
  3 O       -0.3890    -1.3530    -0.0970 O.2   1 <1>  -0.6500 
  4 N       -0.7040     1.0510    -0.5090 N.am  1 <1>  -0.9140 
  5 C        1.5920     0.2530     0.7160 C.ar  1 <1>  -0.0090 
  6 C       -2.0910     1.4410    -0.5000 C.3   1 <1>   0.5560 
  7 C        2.5220    -0.4560    -0.0440 C.ar  1 <1>  -0.1500 
  8 C        2.0580     1.2580     1.5620 C.ar  1 <1>  -0.1500 
  9 C       -2.2510     2.1120    -1.8270 C.1   1 <1>  -0.2000 
 10 C       -2.3820     2.4740     0.6160 C.3   1 <1>  -0.1600 
 11 C       -3.0540     0.2240    -0.4530 C.3   1 <1>  -0.1600 
 12 C        3.8780    -0.1780     0.0370 C.ar  1 <1>  -0.1500 
 13 C        3.4090     1.5510     1.6560 C.ar  1 <1>  -0.1500 
 14 C       -2.3730     2.6430    -2.8850 C.1   1 <1>  -0.1770 
 15 C       -1.3700     3.6310     0.7440 C.3   1 <1>  -0.2400 
 16 C       -4.5510     0.5390    -0.6540 C.3   1 <1>  -0.2400 
 17 C        4.2960     0.8240     0.8880 C.ar  1 <1>   0.1900 
 18 F        5.5700     1.0930     0.9700 F     1 <1>  -0.1900 
 19 H       -0.5830     0.6080    -1.4130 H     1 <1>   0.4200 
 20 H        2.1830    -1.2370    -0.7040 H     1 <1>   0.1500 
 21 H        1.3520     1.8160     2.1550 H     1 <1>   0.1500 
 22 H       -2.4570     1.9710     1.5620 H     1 <1>   0.0800 
 23 H       -3.3480     2.9070     0.4300 H     1 <1>   0.0800 
 24 H       -2.9700    -0.2660     0.5000 H     1 <1>   0.0800 
 25 H       -2.7620    -0.4800    -1.2130 H     1 <1>   0.0800 
 26 H        4.5970    -0.7250    -0.5470 H     1 <1>   0.1500 
 27 H        3.7690     2.3260     2.3100 H     1 <1>   0.1500 
 28 H       -2.4830     3.1290    -3.8390 H     1 <1>   0.1770 
 29 H       -0.3950     3.2580     1.0000 H     1 <1>   0.0800 
 30 H       -1.6850     4.3090     1.5170 H     1 <1>   0.0800 
 31 H       -1.2970     4.1780    -0.1800 H     1 <1>   0.0800 
 32 H       -4.9150     1.1910     0.1190 H     1 <1>   0.0800 
 33 H       -5.1190    -0.3730    -0.6140 H     1 <1>   0.0800 
 34 H       -4.7280     0.9990    -1.6100 H     1 <1>   0.0800 
@<TRIPOS>BOND
  1   1   2  2   
  2   1   3  2   
  3   1   4  am  
  4   1   5  1   
  5   4   6  1   
  6   4  19  1   
  7   5   7  ar  
  8   5   8  ar  
  9   6   9  1   
 10   6  10  1   
 11   6  11  1   
 12   7  12  ar  
 13   7  20  1   
 14   8  13  ar  
 15   8  21  1   
 16   9  14  3   
 17  10  15  1   
 18  10  22  1   
 19  10  23  1   
 20  11  16  1   
 21  11  24  1   
 22  11  25  1   
 23  12  17  ar  
 24  12  26  1   
 25  13  17  ar  
 26  13  27  1   
 27  14  28  1   
 28  15  29  1   
 29  15  30  1   
 30  15  31  1   
 31  16  32  1   
 32  16  33  1   
 33  16  34  1   
 34  17  18  1   
@<TRIPOS>SUBSTRUCTURE
  1 ****   4 GROUP 4 **** **** 0

# MOE 2024.06 (io_trps.svl 2023.06)
