@<TRIPOS>MOLECULE
NONAME
51 53 1 0 0 
SMALL
USER_CHARGES


@<TRIPOS>ATOM
  1 O        0.9820     2.5890     1.4470 O.co2 1 <1>  -0.9000 
  2 C        1.0510     2.7800     0.2280 C.2   1 <1>   0.9060 
  3 O        2.0580     2.4530    -0.4070 O.co2 1 <1>  -0.9000 
  4 C       -0.1750     3.1870    -0.5700 C.3   1 <1>  -0.1860 
  5 C       -1.5230     2.6320    -0.0260 C.3   1 <1>  -0.0190 
  6 C       -0.4020     4.7080    -0.6050 C.3   1 <1>   0.0580 
  7 C       -2.0680     1.3640    -0.7010 C.2   1 <1>   0.5690 
  8 C       -2.4300     3.8770    -0.0850 C.3   1 <1>   0.0580 
  9 C       -1.4630     4.8990     0.4510 C.2   1 <1>  -0.2760 
 10 C       -1.2360     5.0280    -1.8520 C.3   1 <1>  -0.1600 
 11 O       -3.2260     1.3430    -1.0530 O.2   1 <1>  -0.5700 
 12 N       -1.2990     0.2330    -0.8570 N.am  1 <1>  -0.6600 
 13 C       -2.6060     4.4010    -1.5250 C.3   1 <1>  -0.1600 
 14 C       -1.5190     5.7040     1.5210 C.2   1 <1>  -0.2760 
 15 C       -1.7860    -0.9410    -1.6410 C.3   1 <1>   0.1400 
 16 C        0.0090     0.0010    -0.1570 C.3   1 <1>   0.1400 
 17 C       -2.6870     5.7590     2.4930 C.3   1 <1>  -0.1020 
 18 C       -0.4060     6.6610     1.9190 C.3   1 <1>  -0.1020 
 19 C       -1.9370    -2.1890    -0.7430 C.3   1 <1>   0.3430 
 20 C        0.2460    -1.4720     0.2060 C.3   1 <1>   0.3430 
 21 N       -1.0650    -2.1470     0.4920 N.4   1 <1>  -0.9590 
 22 C       -0.8910    -3.4560     1.1640 C.3   1 <1>   0.3430 
 23 C       -2.2220    -3.9130     1.7490 C.3   1 <1>  -0.2400 
 24 H       -0.0150     2.8300    -1.5700 H     1 <1>   0.0800 
 25 H       -1.4170     2.4000     1.0180 H     1 <1>   0.0800 
 26 H        0.4990     5.2890    -0.5200 H     1 <1>   0.0800 
 27 H       -3.3530     3.7580     0.4510 H     1 <1>   0.0800 
 28 H       -1.3340     6.0940    -1.9550 H     1 <1>   0.0800 
 29 H       -0.8020     4.6210    -2.7480 H     1 <1>   0.0800 
 30 H       -2.8630     3.6170    -2.2140 H     1 <1>   0.0800 
 31 H       -3.3700     5.1570    -1.5460 H     1 <1>   0.0800 
 32 H       -2.7250    -0.7270    -2.1210 H     1 <1>   0.0800 
 33 H       -1.0740    -1.1480    -2.4210 H     1 <1>   0.0800 
 34 H        0.8240     0.3510    -0.7680 H     1 <1>   0.0800 
 35 H        0.0140     0.5430     0.7690 H     1 <1>   0.0800 
 36 H       -2.3530     5.4830     3.4770 H     1 <1>   0.0800 
 37 H       -3.4740     5.0880     2.2080 H     1 <1>   0.0800 
 38 H       -3.0910     6.7550     2.5280 H     1 <1>   0.0800 
 39 H       -0.0410     6.4050     2.8970 H     1 <1>   0.0800 
 40 H       -0.7720     7.6710     1.9330 H     1 <1>   0.0800 
 41 H        0.4220     6.6120     1.2380 H     1 <1>   0.0800 
 42 H       -1.7070    -3.0620    -1.3290 H     1 <1>   0.0800 
 43 H       -2.9690    -2.2650    -0.4420 H     1 <1>   0.0800 
 44 H        0.8960    -1.5130     1.0650 H     1 <1>   0.0800 
 45 H        0.7440    -1.9620    -0.6140 H     1 <1>   0.0800 
 46 H       -1.5440    -1.5010     1.1390 H     1 <1>   0.4500 
 47 H       -0.5200    -4.1880     0.4640 H     1 <1>   0.0800 
 48 H       -0.1730    -3.3570     1.9630 H     1 <1>   0.0800 
 49 H       -2.9440    -4.1100     0.9780 H     1 <1>   0.0800 
 50 H       -2.6110    -3.1780     2.4320 H     1 <1>   0.0800 
 51 H       -2.0700    -4.8260     2.2960 H     1 <1>   0.0800 
@<TRIPOS>BOND
  1   1   2  ar  
  2   2   3  ar  
  3   2   4  1   
  4   4   5  1   
  5   4   6  1   
  6   4  24  1   
  7   5   7  1   
  8   5   8  1   
  9   5  25  1   
 10   6   9  1   
 11   6  10  1   
 12   6  26  1   
 13   7  11  2   
 14   7  12  am  
 15   8   9  1   
 16   8  13  1   
 17   8  27  1   
 18   9  14  2   
 19  10  13  1   
 20  10  28  1   
 21  10  29  1   
 22  12  15  1   
 23  12  16  1   
 24  13  30  1   
 25  13  31  1   
 26  14  17  1   
 27  14  18  1   
 28  15  19  1   
 29  15  32  1   
 30  15  33  1   
 31  16  20  1   
 32  16  34  1   
 33  16  35  1   
 34  17  36  1   
 35  17  37  1   
 36  17  38  1   
 37  18  39  1   
 38  18  40  1   
 39  18  41  1   
 40  19  21  1   
 41  19  42  1   
 42  19  43  1   
 43  20  21  1   
 44  20  44  1   
 45  20  45  1   
 46  21  22  1   
 47  21  46  1   
 48  22  23  1   
 49  22  47  1   
 50  22  48  1   
 51  23  49  1   
 52  23  50  1   
 53  23  51  1   
@<TRIPOS>SUBSTRUCTURE
  1 ****   5 GROUP 4 **** **** 0

# MOE 2024.06 (io_trps.svl 2023.06)
