@<TRIPOS>MOLECULE
NONAME
38 39 1 0 0 
SMALL
USER_CHARGES


@<TRIPOS>ATOM
  1 O       -1.1480     0.4830    -1.7250 O.2   1 <1>  -0.5700 
  2 C       -1.6910     1.1490    -0.8690 C.2   1 <1>   0.7800 
  3 O       -2.4920     0.5920     0.0440 O.3   1 <1>  -0.4300 
  4 N       -1.5100     2.4800    -0.7950 N.am  1 <1>  -0.7300 
  5 C       -2.8230    -0.7730     0.1680 C.3   1 <1>   0.2800 
  6 C       -2.0020     3.3630     0.2700 C.3   1 <1>   0.3640 
  7 C       -1.5650    -1.6010     0.4520 C.3   1 <1>  -0.2400 
  8 C       -3.7570    -0.8490     1.3770 C.3   1 <1>  -0.2400 
  9 C       -3.5740    -1.2510    -1.0800 C.3   1 <1>  -0.2400 
 10 C       -3.4010     3.8280    -0.0890 C.ar  1 <1>  -0.1440 
 11 C       -1.2360     4.6890     0.3170 C.3   1 <1>  -0.1860 
 12 C       -3.3850     5.1070    -0.5950 C.ar  1 <1>  -0.1440 
 13 C       -4.5960     3.1410     0.0380 C.ar  1 <1>  -0.1500 
 14 C        0.2410     4.5530     0.0610 C.2   1 <1>   0.9060 
 15 C       -1.9740     5.6450    -0.6370 C.3   1 <1>  -0.0170 
 16 C       -4.5540     5.7320    -0.9850 C.ar  1 <1>  -0.1500 
 17 C       -5.7750     3.7590    -0.3490 C.ar  1 <1>  -0.1500 
 18 O        1.0160     4.7450     1.0000 O.co2 1 <1>  -0.9000 
 19 O        0.6280     4.2530    -1.0750 O.co2 1 <1>  -0.9000 
 20 C       -5.7550     5.0500    -0.8590 C.ar  1 <1>  -0.1500 
 21 H       -0.7070     2.8830    -1.3090 H     1 <1>   0.3700 
 22 H       -1.9700     2.8620     1.2220 H     1 <1>   0.0800 
 23 H       -1.8350    -2.6140     0.6880 H     1 <1>   0.0800 
 24 H       -1.0260    -1.1860     1.2850 H     1 <1>   0.0800 
 25 H       -0.9180    -1.6290    -0.4060 H     1 <1>   0.0800 
 26 H       -4.0540    -1.8660     1.5580 H     1 <1>   0.0800 
 27 H       -4.6420    -0.2640     1.2030 H     1 <1>   0.0800 
 28 H       -3.2580    -0.4790     2.2550 H     1 <1>   0.0800 
 29 H       -2.9230    -1.2770    -1.9350 H     1 <1>   0.0800 
 30 H       -4.4020    -0.5980    -1.2890 H     1 <1>   0.0800 
 31 H       -3.9500    -2.2450    -0.9260 H     1 <1>   0.0800 
 32 H       -1.3520     5.0810     1.3090 H     1 <1>   0.0800 
 33 H       -4.6020     2.1400     0.4300 H     1 <1>   0.1500 
 34 H       -1.5860     5.5620    -1.6370 H     1 <1>   0.0800 
 35 H       -1.9110     6.6640    -0.2990 H     1 <1>   0.0800 
 36 H       -4.5280     6.7310    -1.3810 H     1 <1>   0.1500 
 37 H       -6.7080     3.2330    -0.2560 H     1 <1>   0.1500 
 38 H       -6.6720     5.5220    -1.1590 H     1 <1>   0.1500 
@<TRIPOS>BOND
  1   1   2  2   
  2   2   3  1   
  3   2   4  am  
  4   3   5  1   
  5   4   6  1   
  6   4  21  1   
  7   5   7  1   
  8   5   8  1   
  9   5   9  1   
 10   6  10  1   
 11   6  11  1   
 12   6  22  1   
 13   7  23  1   
 14   7  24  1   
 15   7  25  1   
 16   8  26  1   
 17   8  27  1   
 18   8  28  1   
 19   9  29  1   
 20   9  30  1   
 21   9  31  1   
 22  10  12  ar  
 23  10  13  ar  
 24  11  14  1   
 25  11  15  1   
 26  11  32  1   
 27  12  15  1   
 28  12  16  ar  
 29  13  17  ar  
 30  13  33  1   
 31  14  18  ar  
 32  14  19  ar  
 33  15  34  1   
 34  15  35  1   
 35  16  20  ar  
 36  16  36  1   
 37  17  20  ar  
 38  17  37  1   
 39  20  38  1   
@<TRIPOS>SUBSTRUCTURE
  1 ****   6 GROUP 4 **** **** 0

# MOE 2024.06 (io_trps.svl 2023.06)
