@<TRIPOS>MOLECULE
NONAME
45 46 1 0 0 
SMALL
USER_CHARGES


@<TRIPOS>ATOM
  1 O        0.8720     6.4130    -1.1480 O.3   1 <1>  -0.3630 
  2 C        0.7460     7.1460    -0.0210 C.ar  1 <1>   0.0830 
  3 C        2.1710     5.9570    -1.4730 C.3   1 <1>   0.2640 
  4 C        0.2560     6.6010     1.1710 C.ar  1 <1>  -0.1440 
  5 C        1.1010     8.4850    -0.0910 C.ar  1 <1>  -0.1500 
  6 C        2.2510     4.5120    -1.0090 C.ar  1 <1>  -0.1440 
  7 C        0.1490     7.4340     2.2770 C.ar  1 <1>  -0.1500 
  8 C       -0.1670     5.1500     1.3800 C.3   1 <1>   0.4870 
  9 C        0.9870     9.2960     1.0210 C.ar  1 <1>  -0.1500 
 10 C        1.7860     3.4920    -1.8250 C.ar  1 <1>  -0.1500 
 11 C        2.7610     4.2080     0.2440 C.ar  1 <1>  -0.1500 
 12 C        0.5110     8.7680     2.2060 C.ar  1 <1>  -0.1500 
 13 N       -0.5860     4.5130     0.1170 N.4   1 <1>  -0.9060 
 14 C        1.8130     2.1810    -1.3830 C.ar  1 <1>  -0.1500 
 15 C        2.7840     2.8970     0.6870 C.ar  1 <1>  -0.1500 
 16 C       -1.6920     3.5400     0.1420 C.3   1 <1>   0.5030 
 17 C        2.3070     1.8840    -0.1250 C.ar  1 <1>  -0.1500 
 18 C       -1.8670     2.9620    -1.2920 C.3   1 <1>   0.1200 
 19 C       -1.3410     2.4260     1.1360 C.3   1 <1>  -0.2400 
 20 C       -2.9650     4.2730     0.5820 C.3   1 <1>  -0.2400 
 21 O       -2.9020     2.0310    -1.3510 O.3   1 <1>  -0.6800 
 22 H        2.9100     6.5750    -0.9900 H     1 <1>   0.0800 
 23 H        2.2930     6.0270    -2.5400 H     1 <1>   0.0800 
 24 H        1.4620     8.8980    -1.0170 H     1 <1>   0.1500 
 25 H       -0.2190     7.0600     3.2190 H     1 <1>   0.1500 
 26 H       -0.9810     5.1360     2.0840 H     1 <1>   0.0800 
 27 H        0.6500     4.5950     1.8110 H     1 <1>   0.0800 
 28 H        1.2650    10.3350     0.9660 H     1 <1>   0.1500 
 29 H        1.4090     3.7120    -2.8110 H     1 <1>   0.1500 
 30 H        3.1460     4.9890     0.8800 H     1 <1>   0.1500 
 31 H        0.4220     9.4010     3.0740 H     1 <1>   0.1500 
 32 H        0.2590     4.0720    -0.2770 H     1 <1>   0.4500 
 33 H       -0.7950     5.2860    -0.5270 H     1 <1>   0.4500 
 34 H        1.4630     1.3850    -2.0210 H     1 <1>   0.1500 
 35 H        3.1870     2.6610     1.6580 H     1 <1>   0.1500 
 36 H        2.3360     0.8620     0.2150 H     1 <1>   0.1500 
 37 H       -0.9700     2.4600    -1.6070 H     1 <1>   0.0800 
 38 H       -2.1030     3.7490    -1.9870 H     1 <1>   0.0800 
 39 H       -2.1200     1.6840     1.1350 H     1 <1>   0.0800 
 40 H       -0.4270     1.9360     0.8540 H     1 <1>   0.0800 
 41 H       -1.2570     2.7940     2.1410 H     1 <1>   0.0800 
 42 H       -3.1910     5.0850    -0.0860 H     1 <1>   0.0800 
 43 H       -2.8940     4.6450     1.5860 H     1 <1>   0.0800 
 44 H       -3.7990     3.5920     0.5580 H     1 <1>   0.0800 
 45 H       -3.0280     1.6800    -2.2580 H     1 <1>   0.4000 
@<TRIPOS>BOND
  1   1   2  1   
  2   1   3  1   
  3   2   4  ar  
  4   2   5  ar  
  5   3   6  1   
  6   3  22  1   
  7   3  23  1   
  8   4   7  ar  
  9   4   8  1   
 10   5   9  ar  
 11   5  24  1   
 12   6  10  ar  
 13   6  11  ar  
 14   7  12  ar  
 15   7  25  1   
 16   8  13  1   
 17   8  26  1   
 18   8  27  1   
 19   9  12  ar  
 20   9  28  1   
 21  10  14  ar  
 22  10  29  1   
 23  11  15  ar  
 24  11  30  1   
 25  12  31  1   
 26  13  16  1   
 27  13  32  1   
 28  13  33  1   
 29  14  17  ar  
 30  14  34  1   
 31  15  17  ar  
 32  15  35  1   
 33  16  18  1   
 34  16  19  1   
 35  16  20  1   
 36  17  36  1   
 37  18  21  1   
 38  18  37  1   
 39  18  38  1   
 40  19  39  1   
 41  19  40  1   
 42  19  41  1   
 43  20  42  1   
 44  20  43  1   
 45  20  44  1   
 46  21  45  1   
@<TRIPOS>SUBSTRUCTURE
  1 ****  13 GROUP 4 **** **** 0

# MOE 2024.06 (io_trps.svl 2023.06)
