@<TRIPOS>MOLECULE
NONAME
28 28 1 0 0 
SMALL
USER_CHARGES


@<TRIPOS>ATOM
  1 S       -0.2480     3.4460     0.7650 S.o2  1 <1>   1.4590 
  2 O        0.2450     4.6880     1.4150 O.co2 1 <1>  -0.8170 
  3 O       -0.0090     2.2340     1.5880 O.co2 1 <1>  -0.8170 
  4 O        0.2280     3.2990    -0.6330 O.co2 1 <1>  -0.8170 
  5 C       -2.0840     3.6340     0.6560 C.ar  1 <1>  -0.0090 
  6 C       -2.7070     4.6740    -0.0450 C.ar  1 <1>  -0.1440 
  7 C       -2.9100     2.7110     1.2920 C.ar  1 <1>  -0.1500 
  8 C       -4.0910     4.7690    -0.0980 C.ar  1 <1>  -0.1500 
  9 C       -1.8740     5.7250    -0.7660 C.3   1 <1>  -0.0960 
 10 C       -4.2890     2.8020     1.2420 C.ar  1 <1>  -0.1500 
 11 C       -4.8920     3.8320     0.5450 C.ar  1 <1>   0.0820 
 12 O       -6.2470     3.8560     0.5360 O.3   1 <1>  -0.3630 
 13 C       -6.9580     4.8360    -0.1870 C.3   1 <1>   0.1200 
 14 C       -8.4610     4.5650    -0.0560 C.3   1 <1>  -0.1600 
 15 C       -8.8660     3.2030    -0.6360 C.3   1 <1>  -0.2400 
 16 H       -2.4520     1.9030     1.8370 H     1 <1>   0.1500 
 17 H       -4.5310     5.5800    -0.6430 H     1 <1>   0.1500 
 18 H       -1.2530     5.2570    -1.5090 H     1 <1>   0.0800 
 19 H       -1.2390     6.2370    -0.0650 H     1 <1>   0.0800 
 20 H       -2.4930     6.4530    -1.2550 H     1 <1>   0.0800 
 21 H       -4.9000     2.0750     1.7420 H     1 <1>   0.1500 
 22 H       -6.6540     4.7830    -1.2180 H     1 <1>   0.0800 
 23 H       -6.7120     5.8000     0.2230 H     1 <1>   0.0800 
 24 H       -8.9970     5.3390    -0.5760 H     1 <1>   0.0800 
 25 H       -8.7380     4.6170     0.9820 H     1 <1>   0.0800 
 26 H       -8.3690     2.4070    -0.1080 H     1 <1>   0.0800 
 27 H       -8.6030     3.1420    -1.6770 H     1 <1>   0.0800 
 28 H       -9.9280     3.0620    -0.5410 H     1 <1>   0.0800 
@<TRIPOS>BOND
  1   1   2  ar  
  2   1   3  ar  
  3   1   4  ar  
  4   1   5  1   
  5   5   6  ar  
  6   5   7  ar  
  7   6   8  ar  
  8   6   9  1   
  9   7  10  ar  
 10   7  16  1   
 11   8  11  ar  
 12   8  17  1   
 13   9  18  1   
 14   9  19  1   
 15   9  20  1   
 16  10  11  ar  
 17  10  21  1   
 18  11  12  1   
 19  12  13  1   
 20  13  14  1   
 21  13  22  1   
 22  13  23  1   
 23  14  15  1   
 24  14  24  1   
 25  14  25  1   
 26  15  26  1   
 27  15  27  1   
 28  15  28  1   
@<TRIPOS>SUBSTRUCTURE
  1 ****   8 GROUP 4 **** **** 0

# MOE 2024.06 (io_trps.svl 2023.06)
