@<TRIPOS>MOLECULE
NONAME
37 37 1 0 0 
SMALL
USER_CHARGES


@<TRIPOS>ATOM
  1 O        0.1110    -0.1310    -1.3450 O.2   1 <1>  -0.5700 
  2 C        0.1130    -1.2240    -0.8350 C.2   1 <1>   0.5690 
  3 N        1.1930    -1.7700    -0.1980 N.am  1 <1>  -0.5470 
  4 C       -1.1520    -2.0580    -0.9070 C.3   1 <1>  -0.0990 
  5 C        2.4790    -1.2540     0.0400 C.ar  1 <1>   0.1170 
  6 C       -1.8780    -2.1370     0.4460 C.3   1 <1>  -0.1600 
  7 C        3.5240    -2.1450     0.2460 C.ar  1 <1>  -0.1500 
  8 C        2.7400     0.1100     0.0920 C.ar  1 <1>  -0.1500 
  9 C       -3.1530    -2.9800     0.3460 C.3   1 <1>  -0.2400 
 10 C        4.8140    -1.6930     0.4990 C.ar  1 <1>   0.0830 
 11 C        4.0230     0.5880     0.3370 C.ar  1 <1>   0.0830 
 12 O        5.8650    -2.5420     0.6990 O.3   1 <1>  -0.3630 
 13 C        5.0600    -0.3210     0.5460 C.ar  1 <1>   0.0830 
 14 O        4.3150     1.9220     0.3790 O.3   1 <1>  -0.3630 
 15 C        5.6790    -3.9310     0.8490 C.3   1 <1>   0.0400 
 16 O        6.3180     0.1290     0.8140 O.3   1 <1>  -0.3630 
 17 C        3.3290     2.8980     0.1230 C.3   1 <1>   0.0400 
 18 C        7.1000     0.4070    -0.3210 C.3   1 <1>   0.0400 
 19 H        1.0480    -2.7190     0.1380 H     1 <1>   0.3700 
 20 H       -0.9000    -3.0450    -1.2510 H     1 <1>   0.0800 
 21 H       -1.8070    -1.6160    -1.6370 H     1 <1>   0.0800 
 22 H       -2.1350    -1.1410     0.7680 H     1 <1>   0.0800 
 23 H       -1.2270    -2.5660     1.1890 H     1 <1>   0.0800 
 24 H        3.3130    -3.1940     0.1980 H     1 <1>   0.1500 
 25 H        1.9260     0.7900    -0.0560 H     1 <1>   0.1500 
 26 H       -3.8320    -2.5520    -0.3710 H     1 <1>   0.0800 
 27 H       -3.6470    -3.0150     1.3010 H     1 <1>   0.0800 
 28 H       -2.9210    -3.9870     0.0450 H     1 <1>   0.0800 
 29 H        6.6350    -4.3710     1.0720 H     1 <1>   0.0800 
 30 H        5.2980    -4.3340    -0.0710 H     1 <1>   0.0800 
 31 H        4.9990    -4.1060     1.6640 H     1 <1>   0.0800 
 32 H        3.7950     3.8660     0.1810 H     1 <1>   0.0800 
 33 H        2.5580     2.8190     0.8690 H     1 <1>   0.0800 
 34 H        2.9290     2.7420    -0.8630 H     1 <1>   0.0800 
 35 H        8.0640     0.7460     0.0100 H     1 <1>   0.0800 
 36 H        6.6150     1.1740    -0.8980 H     1 <1>   0.0800 
 37 H        7.2020    -0.4950    -0.8990 H     1 <1>   0.0800 
@<TRIPOS>BOND
  1   1   2  2   
  2   2   3  am  
  3   2   4  1   
  4   3   5  1   
  5   3  19  1   
  6   4   6  1   
  7   4  20  1   
  8   4  21  1   
  9   5   7  ar  
 10   5   8  ar  
 11   6   9  1   
 12   6  22  1   
 13   6  23  1   
 14   7  10  ar  
 15   7  24  1   
 16   8  11  ar  
 17   8  25  1   
 18   9  26  1   
 19   9  27  1   
 20   9  28  1   
 21  10  12  1   
 22  10  13  ar  
 23  11  13  ar  
 24  11  14  1   
 25  12  15  1   
 26  13  16  1   
 27  14  17  1   
 28  15  29  1   
 29  15  30  1   
 30  15  31  1   
 31  16  18  1   
 32  17  32  1   
 33  17  33  1   
 34  17  34  1   
 35  18  35  1   
 36  18  36  1   
 37  18  37  1   
@<TRIPOS>SUBSTRUCTURE
  1 ****   5 GROUP 4 **** **** 0

# MOE 2024.06 (io_trps.svl 2023.06)
