@<TRIPOS>MOLECULE
NONAME
37 38 1 0 0 
SMALL
USER_CHARGES


@<TRIPOS>ATOM
  1 CL      -2.6630    -1.6470    -2.0400 Cl    1 <1>  -0.1770 
  2 C       -1.2960    -2.1290    -1.0640 C.ar  1 <1>   0.1770 
  3 C       -1.4110    -2.2880     0.3120 C.ar  1 <1>  -0.0090 
  4 C       -0.1010    -2.3440    -1.7330 C.ar  1 <1>  -0.1500 
  5 S       -2.9750    -2.0090     1.1720 S.o2  1 <1>   1.4470 
  6 C       -0.2710    -2.6750     1.0110 C.ar  1 <1>  -0.1500 
  7 C        1.0220    -2.7300    -1.0230 C.ar  1 <1>  -0.1500 
  8 O       -3.4480    -0.6750     0.8770 O.2   1 <1>  -0.6500 
  9 O       -2.8290    -2.4060     2.5560 O.2   1 <1>  -0.6500 
 10 N       -4.0310    -3.1270     0.4560 N.am  1 <1>  -0.8490 
 11 C        0.9220    -2.8910     0.3450 C.ar  1 <1>   0.1770 
 12 C       -5.4390    -2.7250     0.6010 C.3   1 <1>   0.1960 
 13 C       -3.8260    -4.4930     0.9470 C.3   1 <1>   0.1960 
 14 CL       2.3280    -3.3790     1.2520 Cl    1 <1>  -0.1770 
 15 C       -6.3420    -3.6350    -0.2410 C.3   1 <1>  -0.0190 
 16 C       -4.6560    -5.4770     0.1160 C.3   1 <1>  -0.1600 
 17 C       -7.7900    -3.2000    -0.0880 C.2   1 <1>   0.5690 
 18 C       -6.1460    -5.1130     0.1470 C.3   1 <1>  -0.1600 
 19 O       -8.2770    -3.1500     1.0160 O.2   1 <1>  -0.5700 
 20 N       -8.4980    -2.8770    -1.2030 N.am  1 <1>  -0.7300 
 21 C       -9.9140    -2.4290    -1.2150 C.3   1 <1>   0.0600 
 22 H       -0.0550    -2.2080    -2.8000 H     1 <1>   0.1500 
 23 H       -0.3060    -2.8090     2.0790 H     1 <1>   0.1500 
 24 H        1.9610    -2.9040    -1.5180 H     1 <1>   0.1500 
 25 H       -5.5700    -1.7110     0.2600 H     1 <1>   0.0800 
 26 H       -5.7280    -2.7680     1.6400 H     1 <1>   0.0800 
 27 H       -4.1120    -4.5580     1.9850 H     1 <1>   0.0800 
 28 H       -2.7850    -4.7570     0.8680 H     1 <1>   0.0800 
 29 H       -6.0560    -3.5080    -1.2690 H     1 <1>   0.0800 
 30 H       -4.5200    -6.4720     0.5010 H     1 <1>   0.0800 
 31 H       -4.2970    -5.4640    -0.8990 H     1 <1>   0.0800 
 32 H       -6.6970    -5.7460    -0.5260 H     1 <1>   0.0800 
 33 H       -6.5300    -5.2720     1.1420 H     1 <1>   0.0800 
 34 H       -8.0420    -2.9250    -2.1160 H     1 <1>   0.3700 
 35 H      -10.3110    -2.4110    -0.2140 H     1 <1>   0.0800 
 36 H      -10.5050    -3.1040    -1.8100 H     1 <1>   0.0800 
 37 H       -9.9790    -1.4380    -1.6310 H     1 <1>   0.0800 
@<TRIPOS>BOND
  1   1   2  1   
  2   2   3  ar  
  3   2   4  ar  
  4   3   5  1   
  5   3   6  ar  
  6   4   7  ar  
  7   4  22  1   
  8   5   8  2   
  9   5   9  2   
 10   5  10  am  
 11   6  11  ar  
 12   6  23  1   
 13   7  11  ar  
 14   7  24  1   
 15  10  12  1   
 16  10  13  1   
 17  11  14  1   
 18  12  15  1   
 19  12  25  1   
 20  12  26  1   
 21  13  16  1   
 22  13  27  1   
 23  13  28  1   
 24  15  17  1   
 25  15  18  1   
 26  15  29  1   
 27  16  18  1   
 28  16  30  1   
 29  16  31  1   
 30  17  19  2   
 31  17  20  am  
 32  18  32  1   
 33  18  33  1   
 34  20  21  1   
 35  20  34  1   
 36  21  35  1   
 37  21  36  1   
 38  21  37  1   
@<TRIPOS>SUBSTRUCTURE
  1 ****  10 GROUP 4 **** **** 0

# MOE 2024.06 (io_trps.svl 2023.06)
