@<TRIPOS>MOLECULE
NONAME
50 51 1 0 0 
SMALL
USER_CHARGES


@<TRIPOS>ATOM
  1 O        1.0650    -0.9200     0.9270 O.co2 1 <1>  -0.9000 
  2 C        1.5780    -1.0770    -0.1880 C.2   1 <1>   0.9060 
  3 O        2.2300    -0.1840    -0.7320 O.co2 1 <1>  -0.9000 
  4 C        1.3420    -2.3820    -0.9300 C.3   1 <1>  -0.1860 
  5 C       -0.1530    -2.8200    -0.9790 C.3   1 <1>  -0.0190 
  6 C        2.2670    -3.4840    -0.3490 C.3   1 <1>  -0.1600 
  7 C       -1.2140    -1.7270    -1.1910 C.2   1 <1>   0.5690 
  8 C       -0.4990    -3.7210     0.2220 C.3   1 <1>  -0.1600 
  9 C        1.6810    -4.8910    -0.5100 C.3   1 <1>  -0.1600 
 10 O       -1.9380    -1.8440    -2.1540 O.2   1 <1>  -0.5700 
 11 N       -1.3880    -0.7210    -0.2810 N.am  1 <1>  -0.5470 
 12 C        0.3370    -5.0180     0.2320 C.3   1 <1>  -0.1600 
 13 C       -2.4990     0.1400    -0.1410 C.ar  1 <1>   0.1170 
 14 C       -2.4490     1.5430    -0.0050 C.ar  1 <1>   0.0830 
 15 C       -3.7520    -0.4670    -0.1190 C.ar  1 <1>  -0.1500 
 16 O       -1.3460     2.3490    -0.0260 O.3   1 <1>  -0.3630 
 17 C       -3.6310     2.2450     0.1540 C.ar  1 <1>  -0.1500 
 18 C       -4.9440     0.2320     0.0360 C.ar  1 <1>  -0.1430 
 19 C       -0.0260     1.8680    -0.1300 C.3   1 <1>   0.0400 
 20 C       -4.8590     1.6100     0.1770 C.ar  1 <1>  -0.1500 
 21 C       -6.2810    -0.5400     0.0390 C.3   1 <1>   0.1430 
 22 C       -7.5050     0.3730     0.2210 C.3   1 <1>  -0.2400 
 23 C       -6.4470    -1.2800    -1.2970 C.3   1 <1>  -0.2400 
 24 C       -6.2860    -1.5570     1.1910 C.3   1 <1>  -0.2400 
 25 H        1.6420    -2.1980    -1.9450 H     1 <1>   0.0800 
 26 H       -0.2410    -3.4500    -1.8470 H     1 <1>   0.0800 
 27 H        2.4140    -3.3010     0.7030 H     1 <1>   0.0800 
 28 H        3.2320    -3.4220    -0.8210 H     1 <1>   0.0800 
 29 H       -1.5460    -3.9690     0.2060 H     1 <1>   0.0800 
 30 H       -0.3100    -3.1680     1.1270 H     1 <1>   0.0800 
 31 H        2.3730    -5.6230    -0.1330 H     1 <1>   0.0800 
 32 H        1.5350    -5.0880    -1.5590 H     1 <1>   0.0800 
 33 H       -0.5920    -0.5900     0.3760 H     1 <1>   0.3700 
 34 H       -0.2290    -5.8130    -0.2200 H     1 <1>   0.0800 
 35 H        0.5210    -5.2920     1.2570 H     1 <1>   0.0800 
 36 H       -3.7790    -1.5330    -0.2310 H     1 <1>   0.1500 
 37 H       -3.5820     3.3130     0.2590 H     1 <1>   0.1500 
 38 H        0.6390     2.7070    -0.2020 H     1 <1>   0.0800 
 39 H        0.0690     1.2640    -1.0150 H     1 <1>   0.0800 
 40 H        0.2080     1.3060     0.7540 H     1 <1>   0.0800 
 41 H       -5.7320     2.2210     0.3020 H     1 <1>   0.1500 
 42 H       -7.4470     0.8980     1.1580 H     1 <1>   0.0800 
 43 H       -8.4120    -0.2040     0.2170 H     1 <1>   0.0800 
 44 H       -7.5620     1.0890    -0.5800 H     1 <1>   0.0800 
 45 H       -6.4110    -0.5790    -2.1110 H     1 <1>   0.0800 
 46 H       -7.3880    -1.8000    -1.3310 H     1 <1>   0.0800 
 47 H       -5.6620    -1.9990    -1.4420 H     1 <1>   0.0800 
 48 H       -6.1290    -1.0510     2.1270 H     1 <1>   0.0800 
 49 H       -5.5040    -2.2840     1.0680 H     1 <1>   0.0800 
 50 H       -7.2240    -2.0790     1.2340 H     1 <1>   0.0800 
@<TRIPOS>BOND
  1   1   2  ar  
  2   2   3  ar  
  3   2   4  1   
  4   4   5  1   
  5   4   6  1   
  6   4  25  1   
  7   5   7  1   
  8   5   8  1   
  9   5  26  1   
 10   6   9  1   
 11   6  27  1   
 12   6  28  1   
 13   7  10  2   
 14   7  11  am  
 15   8  12  1   
 16   8  29  1   
 17   8  30  1   
 18   9  12  1   
 19   9  31  1   
 20   9  32  1   
 21  11  13  1   
 22  11  33  1   
 23  12  34  1   
 24  12  35  1   
 25  13  14  ar  
 26  13  15  ar  
 27  14  16  1   
 28  14  17  ar  
 29  15  18  ar  
 30  15  36  1   
 31  16  19  1   
 32  17  20  ar  
 33  17  37  1   
 34  18  20  ar  
 35  18  21  1   
 36  19  38  1   
 37  19  39  1   
 38  19  40  1   
 39  20  41  1   
 40  21  22  1   
 41  21  23  1   
 42  21  24  1   
 43  22  42  1   
 44  22  43  1   
 45  22  44  1   
 46  23  45  1   
 47  23  46  1   
 48  23  47  1   
 49  24  48  1   
 50  24  49  1   
 51  24  50  1   
@<TRIPOS>SUBSTRUCTURE
  1 ****  11 GROUP 4 **** **** 0

# MOE 2024.06 (io_trps.svl 2023.06)
