@<TRIPOS>MOLECULE
NONAME
34 34 1 0 0 
SMALL
USER_CHARGES


@<TRIPOS>ATOM
  1 O        0.3760     1.6870     2.1980 O.2   1 <1>  -0.5700 
  2 C        0.4030     2.1170     1.0720 C.2   1 <1>   0.5690 
  3 N        1.4840     1.9750     0.2640 N.am  1 <1>  -0.7300 
  4 C       -0.8110     2.8440     0.5290 C.3   1 <1>  -0.0990 
  5 C        2.7450     1.3100     0.6460 C.3   1 <1>   0.1400 
  6 C       -1.6280     1.9680    -0.4340 C.3   1 <1>  -0.1600 
  7 C        3.9160     2.2280     0.2990 C.3   1 <1>  -0.1600 
  8 C       -2.8510     2.7190    -0.9710 C.3   1 <1>  -0.2400 
  9 C        5.2540     1.6040     0.7120 C.3   1 <1>  -0.0170 
 10 C        6.4030     2.5250     0.3390 C.ar  1 <1>  -0.1440 
 11 C        6.7980     3.5330     1.2050 C.ar  1 <1>  -0.1500 
 12 C        7.0640     2.3710    -0.8700 C.ar  1 <1>  -0.1500 
 13 C        7.8430     4.3770     0.8680 C.ar  1 <1>  -0.1500 
 14 C        8.1090     3.2130    -1.2090 C.ar  1 <1>  -0.1500 
 15 C        8.4990     4.2170    -0.3400 C.ar  1 <1>  -0.1500 
 16 H        1.4470     2.3440    -0.6870 H     1 <1>   0.3700 
 17 H       -0.4840     3.7370     0.0290 H     1 <1>   0.0800 
 18 H       -1.4280     3.1380     1.3590 H     1 <1>   0.0800 
 19 H        2.8290     0.3780     0.1150 H     1 <1>   0.0800 
 20 H        2.7420     1.1010     1.7040 H     1 <1>   0.0800 
 21 H       -1.9540     1.0820     0.0860 H     1 <1>   0.0800 
 22 H       -1.0100     1.6580    -1.2590 H     1 <1>   0.0800 
 23 H        3.7960     3.1660     0.8130 H     1 <1>   0.0800 
 24 H        3.9290     2.4140    -0.7600 H     1 <1>   0.0800 
 25 H       -3.4960     3.0140    -0.1620 H     1 <1>   0.0800 
 26 H       -3.4090     2.0840    -1.6370 H     1 <1>   0.0800 
 27 H       -2.5470     3.5990    -1.5120 H     1 <1>   0.0800 
 28 H        5.3820     0.6530     0.2240 H     1 <1>   0.0800 
 29 H        5.2640     1.4310     1.7740 H     1 <1>   0.0800 
 30 H        6.2930     3.6660     2.1460 H     1 <1>   0.1500 
 31 H        6.7690     1.5950    -1.5530 H     1 <1>   0.1500 
 32 H        8.1440     5.1570     1.5450 H     1 <1>   0.1500 
 33 H        8.6190     3.0880    -2.1480 H     1 <1>   0.1500 
 34 H        9.3110     4.8720    -0.6020 H     1 <1>   0.1500 
@<TRIPOS>BOND
  1   1   2  2   
  2   2   3  am  
  3   2   4  1   
  4   3   5  1   
  5   3  16  1   
  6   4   6  1   
  7   4  17  1   
  8   4  18  1   
  9   5   7  1   
 10   5  19  1   
 11   5  20  1   
 12   6   8  1   
 13   6  21  1   
 14   6  22  1   
 15   7   9  1   
 16   7  23  1   
 17   7  24  1   
 18   8  25  1   
 19   8  26  1   
 20   8  27  1   
 21   9  10  1   
 22   9  28  1   
 23   9  29  1   
 24  10  11  ar  
 25  10  12  ar  
 26  11  13  ar  
 27  11  30  1   
 28  12  14  ar  
 29  12  31  1   
 30  13  15  ar  
 31  13  32  1   
 32  14  15  ar  
 33  14  33  1   
 34  15  34  1   
@<TRIPOS>SUBSTRUCTURE
  1 ****   7 GROUP 4 **** **** 0

# MOE 2024.06 (io_trps.svl 2023.06)
