@<TRIPOS>MOLECULE
NONAME
49 51 1 0 0 
SMALL
USER_CHARGES


@<TRIPOS>ATOM
  1 S       -0.9000    -0.5500    -0.5360 S.3   1 <1>  -0.2860 
  2 C       -1.2140     1.0600    -1.2750 C.2   1 <1>   0.2420 
  3 C        0.5120    -1.2650    -1.5150 C.3   1 <1>   0.1310 
  4 N       -0.5640     1.5260    -2.2820 N.2   1 <1>  -0.3380 
  5 N       -2.1520     1.8900    -0.8150 N.pl3 1 <1>   0.0480 
  6 C        1.6990    -1.5480    -0.6050 C.2   1 <1>   0.5690 
  7 N       -1.0760     2.7340    -2.5200 N.2   1 <1>  -0.3380 
  8 C       -2.0130     2.9360    -1.6520 C.2   1 <1>   0.0060 
  9 C       -3.0730     1.6780     0.3280 C.3   1 <1>   0.0960 
 10 O        1.9340    -2.7080    -0.3580 O.2   1 <1>  -0.5700 
 11 N        2.4780    -0.5370    -0.0920 N.am  1 <1>  -0.6600 
 12 C       -2.8450     4.2120    -1.6210 C.3   1 <1>   0.1630 
 13 C       -4.4760     1.2980    -0.1610 C.3   1 <1>  -0.1600 
 14 C        3.5580    -0.8180     0.9020 C.3   1 <1>   0.1400 
 15 C        2.3080     0.9210    -0.3810 C.3   1 <1>   0.1400 
 16 C       -2.8940     4.8460    -0.2370 C.ar  1 <1>  -0.1430 
 17 C       -5.4430     1.1290     1.0160 C.3   1 <1>  -0.2400 
 18 C        4.8380    -0.0390     0.5620 C.3   1 <1>   0.1200 
 19 C        3.6640     1.6040    -0.6240 C.3   1 <1>   0.1200 
 20 C       -1.7170     5.1560     0.4270 C.ar  1 <1>  -0.1500 
 21 C       -4.1100     5.1110     0.3770 C.ar  1 <1>  -0.1500 
 22 O        4.5600     1.3240     0.4130 O.3   1 <1>  -0.5600 
 23 C       -1.7530     5.7170     1.6920 C.ar  1 <1>  -0.1500 
 24 C       -4.1470     5.6710     1.6420 C.ar  1 <1>  -0.1500 
 25 C       -2.9680     5.9730     2.3010 C.ar  1 <1>  -0.1500 
 26 H        0.7770    -0.5900    -2.3040 H     1 <1>   0.0800 
 27 H        0.1520    -2.1820    -1.9430 H     1 <1>   0.0800 
 28 H       -3.1120     2.5720     0.9220 H     1 <1>   0.0800 
 29 H       -2.6850     0.8950     0.9540 H     1 <1>   0.0800 
 30 H       -3.8360     3.9880    -1.9670 H     1 <1>   0.0800 
 31 H       -2.4200     4.9230    -2.3080 H     1 <1>   0.0800 
 32 H       -4.4250     0.3740    -0.7120 H     1 <1>   0.0800 
 33 H       -4.8560     2.0640    -0.8140 H     1 <1>   0.0800 
 34 H        3.7840    -1.8700     0.9290 H     1 <1>   0.0800 
 35 H        3.2190    -0.5290     1.8810 H     1 <1>   0.0800 
 36 H        1.8170     1.3920     0.4530 H     1 <1>   0.0800 
 37 H        1.7020     1.0700    -1.2510 H     1 <1>   0.0800 
 38 H       -5.1030     0.3490     1.6740 H     1 <1>   0.0800 
 39 H       -6.4210     0.8650     0.6540 H     1 <1>   0.0800 
 40 H       -5.5220     2.0450     1.5750 H     1 <1>   0.0800 
 41 H        5.2730    -0.4070    -0.3510 H     1 <1>   0.0800 
 42 H        5.5570    -0.1430     1.3550 H     1 <1>   0.0800 
 43 H        3.5360     2.6710    -0.6700 H     1 <1>   0.0800 
 44 H        4.0940     1.2690    -1.5520 H     1 <1>   0.0800 
 45 H       -0.7660     4.9600    -0.0400 H     1 <1>   0.1500 
 46 H       -5.0370     4.8850    -0.1220 H     1 <1>   0.1500 
 47 H       -0.8350     5.9550     2.2010 H     1 <1>   0.1500 
 48 H       -5.0920     5.8750     2.1150 H     1 <1>   0.1500 
 49 H       -2.9970     6.4100     3.2840 H     1 <1>   0.1500 
@<TRIPOS>BOND
  1   1   2  1   
  2   1   3  1   
  3   2   4  2   
  4   2   5  1   
  5   3   6  1   
  6   3  26  1   
  7   3  27  1   
  8   4   7  1   
  9   5   8  1   
 10   5   9  1   
 11   6  10  2   
 12   6  11  am  
 13   7   8  2   
 14   8  12  1   
 15   9  13  1   
 16   9  28  1   
 17   9  29  1   
 18  11  14  1   
 19  11  15  1   
 20  12  16  1   
 21  12  30  1   
 22  12  31  1   
 23  13  17  1   
 24  13  32  1   
 25  13  33  1   
 26  14  18  1   
 27  14  34  1   
 28  14  35  1   
 29  15  19  1   
 30  15  36  1   
 31  15  37  1   
 32  16  20  ar  
 33  16  21  ar  
 34  17  38  1   
 35  17  39  1   
 36  17  40  1   
 37  18  22  1   
 38  18  41  1   
 39  18  42  1   
 40  19  22  1   
 41  19  43  1   
 42  19  44  1   
 43  20  23  ar  
 44  20  45  1   
 45  21  24  ar  
 46  21  46  1   
 47  23  25  ar  
 48  23  47  1   
 49  24  25  ar  
 50  24  48  1   
 51  25  49  1   
@<TRIPOS>SUBSTRUCTURE
  1 ****   2 GROUP 4 **** **** 0

# MOE 2024.06 (io_trps.svl 2023.06)
