@<TRIPOS>MOLECULE
NONAME
40 41 1 0 0 
SMALL
USER_CHARGES


@<TRIPOS>ATOM
  1 O        0.3240     2.0840    -2.7530 O.2   1 <1>  -0.5700 
  2 C        0.1980     2.4560    -1.6120 C.2   1 <1>   0.5690 
  3 N        1.1650     2.2660    -0.6880 N.am  1 <1>  -0.7300 
  4 C       -1.0760     3.1590    -1.1920 C.3   1 <1>  -0.0990 
  5 C        2.4860     1.6550    -0.9450 C.3   1 <1>   0.2840 
  6 C       -2.0090     2.2290    -0.3950 C.3   1 <1>  -0.1600 
  7 C        3.5620     2.4280    -0.1910 C.ar  1 <1>   0.1670 
  8 C       -3.2540     2.9390     0.1690 C.3   1 <1>  -0.0800 
  9 N        3.4530     2.4700     1.1330 N.ar  1 <1>  -0.6200 
 10 C        4.5820     3.0450    -0.9020 C.ar  1 <1>  -0.1500 
 11 C       -4.0230     1.9760     1.0910 C.3   1 <1>  -0.1600 
 12 C       -4.1810     3.4650    -0.9450 C.3   1 <1>  -0.1600 
 13 C        4.3980     3.1470     1.7660 C.ar  1 <1>   0.1600 
 14 C        5.5590     3.7470    -0.2270 C.ar  1 <1>  -0.1500 
 15 C       -5.2870     2.6260     1.6670 C.3   1 <1>  -0.1600 
 16 C       -5.4500     4.1090    -0.3710 C.3   1 <1>  -0.1600 
 17 C        5.4540     3.7920     1.1450 C.ar  1 <1>  -0.1500 
 18 C       -6.2010     3.1400     0.5490 C.3   1 <1>  -0.1600 
 19 H        1.0710     2.6160     0.2690 H     1 <1>   0.3700 
 20 H       -1.5700     3.5050    -2.0820 H     1 <1>   0.0800 
 21 H       -0.8170     4.0170    -0.6000 H     1 <1>   0.0800 
 22 H        2.6900     1.6530    -2.0020 H     1 <1>   0.0800 
 23 H        2.4750     0.6380    -0.5970 H     1 <1>   0.0800 
 24 H       -1.4510     1.8090     0.4240 H     1 <1>   0.0800 
 25 H       -2.3130     1.4120    -1.0280 H     1 <1>   0.0800 
 26 H       -2.9280     3.7770     0.7640 H     1 <1>   0.0800 
 27 H        4.6130     2.9820    -1.9750 H     1 <1>   0.1500 
 28 H       -3.3880     1.6650     1.9030 H     1 <1>   0.0800 
 29 H       -4.3030     1.0960     0.5360 H     1 <1>   0.0800 
 30 H       -4.4600     2.6510    -1.5920 H     1 <1>   0.0800 
 31 H       -3.6690     4.1990    -1.5400 H     1 <1>   0.0800 
 32 H        4.3290     3.1900     2.8390 H     1 <1>   0.1500 
 33 H        6.3630     4.2370    -0.7490 H     1 <1>   0.1500 
 34 H       -5.0070     3.4470     2.3050 H     1 <1>   0.0800 
 35 H       -5.8200     1.9080     2.2670 H     1 <1>   0.0800 
 36 H       -6.0960     4.4120    -1.1770 H     1 <1>   0.0800 
 37 H       -5.1810     4.9900     0.1850 H     1 <1>   0.0800 
 38 H        6.1830     4.3210     1.7320 H     1 <1>   0.1500 
 39 H       -7.0540     3.6370     0.9790 H     1 <1>   0.0800 
 40 H       -6.5610     2.3060    -0.0290 H     1 <1>   0.0800 
@<TRIPOS>BOND
  1   1   2  2   
  2   2   3  am  
  3   2   4  1   
  4   3   5  1   
  5   3  19  1   
  6   4   6  1   
  7   4  20  1   
  8   4  21  1   
  9   5   7  1   
 10   5  22  1   
 11   5  23  1   
 12   6   8  1   
 13   6  24  1   
 14   6  25  1   
 15   7   9  ar  
 16   7  10  ar  
 17   8  11  1   
 18   8  12  1   
 19   8  26  1   
 20   9  13  ar  
 21  10  14  ar  
 22  10  27  1   
 23  11  15  1   
 24  11  28  1   
 25  11  29  1   
 26  12  16  1   
 27  12  30  1   
 28  12  31  1   
 29  13  17  ar  
 30  13  32  1   
 31  14  17  ar  
 32  14  33  1   
 33  15  18  1   
 34  15  34  1   
 35  15  35  1   
 36  16  18  1   
 37  16  36  1   
 38  16  37  1   
 39  17  38  1   
 40  18  39  1   
 41  18  40  1   
@<TRIPOS>SUBSTRUCTURE
  1 ****   3 GROUP 4 **** **** 0

# MOE 2024.06 (io_trps.svl 2023.06)
