@<TRIPOS>MOLECULE
NONAME
44 46 1 0 0 
SMALL
USER_CHARGES


@<TRIPOS>ATOM
  1 O       -1.4620    -0.3910    -0.1160 O.2   1 <1>  -0.5700 
  2 C       -1.6850     0.7360    -0.5010 C.2   1 <1>   0.5690 
  3 N       -2.9150     1.2030    -0.8720 N.am  1 <1>  -0.4770 
  4 C       -0.6260     1.8540    -0.6590 C.3   1 <1>   0.4850 
  5 C       -2.8210     2.5340    -1.2680 C.ar  1 <1>   0.1170 
  6 C       -4.1580     0.4010    -0.8410 C.3   1 <1>   0.1400 
  7 O       -0.0940     2.2620     0.5640 O.3   1 <1>  -0.6800 
  8 C       -1.5180     2.9860    -1.1630 C.ar  1 <1>  -0.1430 
  9 C        0.4960     1.4330    -1.6160 C.3   1 <1>  -0.0990 
 10 C       -3.8280     3.3820    -1.7080 C.ar  1 <1>  -0.1500 
 11 C       -4.9400     0.7040     0.4400 C.3   1 <1>  -0.1600 
 12 C       -1.2040     4.2970    -1.4810 C.ar  1 <1>  -0.1500 
 13 C        1.6620     2.4080    -1.6380 C.2   1 <1>   0.4230 
 14 C       -3.5140     4.6900    -2.0350 C.ar  1 <1>  -0.1500 
 15 C       -6.2490    -0.0940     0.4930 C.3   1 <1>  -0.1600 
 16 C       -2.2080     5.1460    -1.9210 C.ar  1 <1>  -0.1500 
 17 O        1.6180     3.2810    -2.4720 O.2   1 <1>  -0.5700 
 18 C        2.7660     2.2580    -0.7010 C.ar  1 <1>   0.3960 
 19 C       -7.0270     0.2140     1.7750 C.3   1 <1>  -0.2400 
 20 N        2.9860     1.0730    -0.1080 N.ar  1 <1>  -0.6200 
 21 C        3.5940     3.3550    -0.4450 C.ar  1 <1>  -0.1500 
 22 C        3.9980     0.9970     0.7350 C.ar  1 <1>   0.1600 
 23 C        4.6510     3.2640     0.4320 C.ar  1 <1>  -0.1500 
 24 C        4.8490     2.0440     1.0380 C.ar  1 <1>  -0.1500 
 25 H       -3.9060    -0.6460    -0.8740 H     1 <1>   0.0800 
 26 H       -4.7510     0.6310    -1.7090 H     1 <1>   0.0800 
 27 H       -0.8300     2.5150     1.1510 H     1 <1>   0.4000 
 28 H        0.0910     1.3520    -2.6070 H     1 <1>   0.0800 
 29 H        0.8380     0.4530    -1.3410 H     1 <1>   0.0800 
 30 H       -4.8390     3.0290    -1.7910 H     1 <1>   0.1500 
 31 H       -5.1620     1.7560     0.4840 H     1 <1>   0.0800 
 32 H       -4.3310     0.4450     1.2890 H     1 <1>   0.0800 
 33 H       -0.1940     4.6590    -1.3900 H     1 <1>   0.1500 
 34 H       -4.2840     5.3580    -2.3790 H     1 <1>   0.1500 
 35 H       -6.0320    -1.1490     0.4570 H     1 <1>   0.0800 
 36 H       -6.8610     0.1510    -0.3580 H     1 <1>   0.0800 
 37 H       -1.9700     6.1640    -2.1750 H     1 <1>   0.1500 
 38 H       -6.4430    -0.0450     2.6410 H     1 <1>   0.0800 
 39 H       -7.9400    -0.3550     1.7970 H     1 <1>   0.0800 
 40 H       -7.2750     1.2600     1.8250 H     1 <1>   0.0800 
 41 H        3.3940     4.2860    -0.9460 H     1 <1>   0.1500 
 42 H        4.1610     0.0460     1.2140 H     1 <1>   0.1500 
 43 H        5.2900     4.1060     0.6360 H     1 <1>   0.1500 
 44 H        5.6540     1.9020     1.7370 H     1 <1>   0.1500 
@<TRIPOS>BOND
  1   1   2  2   
  2   2   3  am  
  3   2   4  1   
  4   3   5  1   
  5   3   6  1   
  6   4   7  1   
  7   4   8  1   
  8   4   9  1   
  9   5   8  ar  
 10   5  10  ar  
 11   6  11  1   
 12   6  25  1   
 13   6  26  1   
 14   7  27  1   
 15   8  12  ar  
 16   9  13  1   
 17   9  28  1   
 18   9  29  1   
 19  10  14  ar  
 20  10  30  1   
 21  11  15  1   
 22  11  31  1   
 23  11  32  1   
 24  12  16  ar  
 25  12  33  1   
 26  13  17  2   
 27  13  18  1   
 28  14  16  ar  
 29  14  34  1   
 30  15  19  1   
 31  15  35  1   
 32  15  36  1   
 33  16  37  1   
 34  18  20  ar  
 35  18  21  ar  
 36  19  38  1   
 37  19  39  1   
 38  19  40  1   
 39  20  22  ar  
 40  21  23  ar  
 41  21  41  1   
 42  22  24  ar  
 43  22  42  1   
 44  23  24  ar  
 45  23  43  1   
 46  24  44  1   
@<TRIPOS>SUBSTRUCTURE
  1 ****   4 GROUP 4 **** **** 0

# MOE 2024.06 (io_trps.svl 2023.06)
