@<TRIPOS>MOLECULE
NONAME
40 42 1 0 0 
SMALL
USER_CHARGES


@<TRIPOS>ATOM
  1 O        0.1370     0.5110     1.7570 O.2   1 <1>  -0.5700 
  2 C       -0.3020     1.5280     1.2810 C.2   1 <1>   0.5690 
  3 N        0.4000     2.5220     0.6580 N.am  1 <1>  -0.4770 
  4 C       -1.7740     1.8290     1.3020 C.3   1 <1>  -0.0990 
  5 C        1.7830     2.5950     0.3970 C.ar  1 <1>   0.1170 
  6 C       -0.5170     3.5920     0.2120 C.3   1 <1>   0.1400 
  7 C       -1.9090     2.9460     0.2600 C.3   1 <1>  -0.0190 
  8 C        2.4500     3.8170     0.4130 C.ar  1 <1>  -0.1500 
  9 C        2.5220     1.4530     0.1040 C.ar  1 <1>  -0.1500 
 10 C       -3.0400     3.9220     0.5650 C.2   1 <1>   0.5690 
 11 C        3.8030     3.8960     0.1360 C.ar  1 <1>  -0.1500 
 12 C        3.8760     1.5290    -0.1720 C.ar  1 <1>  -0.1500 
 13 O       -2.7830     4.9300     1.1800 O.2   1 <1>  -0.5700 
 14 N       -4.3150     3.6490     0.1530 N.am  1 <1>  -0.6600 
 15 C        4.5250     2.7520    -0.1610 C.ar  1 <1>  -0.1430 
 16 C       -4.7850     2.4410    -0.5640 C.3   1 <1>   0.1400 
 17 C       -5.4390     4.5720     0.4250 C.3   1 <1>   0.1400 
 18 C        6.0100     2.8340    -0.4630 C.3   1 <1>  -0.0970 
 19 C       -6.3060     2.5230    -0.5090 C.3   1 <1>  -0.1600 
 20 C       -6.6080     4.0130    -0.3770 C.3   1 <1>  -0.1600 
 21 H       -2.0410     2.1760     2.2840 H     1 <1>   0.0800 
 22 H       -2.3500     0.9600     1.0460 H     1 <1>   0.0800 
 23 H       -0.2710     3.9210    -0.7830 H     1 <1>   0.0800 
 24 H       -0.4390     4.4180     0.8980 H     1 <1>   0.0800 
 25 H       -2.0780     2.5050    -0.7050 H     1 <1>   0.0800 
 26 H        1.9140     4.7160     0.6500 H     1 <1>   0.1500 
 27 H        2.0360     0.4950     0.0920 H     1 <1>   0.1500 
 28 H        4.2930     4.8530     0.1560 H     1 <1>   0.1500 
 29 H        4.4210     0.6280    -0.3930 H     1 <1>   0.1500 
 30 H       -4.4280     1.5410    -0.0940 H     1 <1>   0.0800 
 31 H       -4.4480     2.4830    -1.5850 H     1 <1>   0.0800 
 32 H       -5.1920     5.5770     0.1250 H     1 <1>   0.0800 
 33 H       -5.6580     4.5560     1.4790 H     1 <1>   0.0800 
 34 H        6.2560     3.7900    -0.8890 H     1 <1>   0.0800 
 35 H        6.2940     2.0680    -1.1610 H     1 <1>   0.0800 
 36 H        6.5720     2.7030     0.4440 H     1 <1>   0.0800 
 37 H       -6.6540     2.0030     0.3670 H     1 <1>   0.0800 
 38 H       -6.7640     2.0880    -1.3790 H     1 <1>   0.0800 
 39 H       -6.6160     4.4740    -1.3490 H     1 <1>   0.0800 
 40 H       -7.5500     4.2010     0.1080 H     1 <1>   0.0800 
@<TRIPOS>BOND
  1   1   2  2   
  2   2   3  am  
  3   2   4  1   
  4   3   5  1   
  5   3   6  1   
  6   4   7  1   
  7   4  21  1   
  8   4  22  1   
  9   5   8  ar  
 10   5   9  ar  
 11   6   7  1   
 12   6  23  1   
 13   6  24  1   
 14   7  10  1   
 15   7  25  1   
 16   8  11  ar  
 17   8  26  1   
 18   9  12  ar  
 19   9  27  1   
 20  10  13  2   
 21  10  14  am  
 22  11  15  ar  
 23  11  28  1   
 24  12  15  ar  
 25  12  29  1   
 26  14  16  1   
 27  14  17  1   
 28  15  18  1   
 29  16  19  1   
 30  16  30  1   
 31  16  31  1   
 32  17  20  1   
 33  17  32  1   
 34  17  33  1   
 35  18  34  1   
 36  18  35  1   
 37  18  36  1   
 38  19  20  1   
 39  19  37  1   
 40  19  38  1   
 41  20  39  1   
 42  20  40  1   
@<TRIPOS>SUBSTRUCTURE
  1 ****   6 GROUP 4 **** **** 0

# MOE 2024.06 (io_trps.svl 2023.06)
