@<TRIPOS>MOLECULE
NONAME
38 38 1 0 0 
SMALL
USER_CHARGES


@<TRIPOS>ATOM
  1 O        0.7340     2.3830     1.7240 O.2   1 <1>  -0.5700 
  2 C        0.1120     2.1410     0.7070 C.2   1 <1>   0.5440 
  3 N        0.7060     1.3450    -0.2300 N.am  1 <1>  -0.7300 
  4 C       -1.2070     2.7050     0.4890 C.ar  1 <1>   0.0860 
  5 C        2.0250     0.6770    -0.0940 C.3   1 <1>   0.1400 
  6 C       -2.1910     2.0980    -0.3070 C.ar  1 <1>   0.0830 
  7 C       -1.5460     3.9230     1.0800 C.ar  1 <1>  -0.1500 
  8 C        3.1570     1.6850    -0.2950 C.3   1 <1>   0.1200 
  9 O       -1.9850     0.9020    -0.8990 O.3   1 <1>  -0.3630 
 10 C       -3.4200     2.6980    -0.5230 C.ar  1 <1>  -0.1500 
 11 C       -2.7690     4.5330     0.8770 C.ar  1 <1>   0.0830 
 12 O        4.3620     0.9880    -0.3660 O.3   1 <1>  -0.5600 
 13 C       -2.2280    -0.2370    -0.1010 C.3   1 <1>   0.0400 
 14 C       -3.7340     3.9170     0.0660 C.ar  1 <1>   0.0830 
 15 O       -2.9460     5.7250     1.5140 O.3   1 <1>  -0.3630 
 16 C        5.4780     1.8120    -0.4670 C.3   1 <1>   0.0400 
 17 O       -4.9480     4.5060    -0.1090 O.3   1 <1>  -0.3630 
 18 C       -3.5230     6.8070     0.8160 C.3   1 <1>   0.0400 
 19 C       -5.9870     3.8960    -0.8420 C.3   1 <1>   0.0400 
 20 H        0.1380     1.0760    -1.0410 H     1 <1>   0.3700 
 21 H        2.1030    -0.1030    -0.8310 H     1 <1>   0.0800 
 22 H        2.1060     0.2450     0.8880 H     1 <1>   0.0800 
 23 H       -0.8280     4.4130     1.7140 H     1 <1>   0.1500 
 24 H        3.1930     2.3660     0.5380 H     1 <1>   0.0800 
 25 H        3.0200     2.2230    -1.2160 H     1 <1>   0.0800 
 26 H       -4.1170     2.1850    -1.1560 H     1 <1>   0.1500 
 27 H       -2.0480    -1.1130    -0.6970 H     1 <1>   0.0800 
 28 H       -3.2520    -0.2200     0.2300 H     1 <1>   0.0800 
 29 H       -1.5630    -0.2240     0.7450 H     1 <1>   0.0800 
 30 H        6.3520     1.1870    -0.5210 H     1 <1>   0.0800 
 31 H        5.5340     2.4420     0.4040 H     1 <1>   0.0800 
 32 H        5.4010     2.4070    -1.3610 H     1 <1>   0.0800 
 33 H       -3.1990     7.7180     1.2850 H     1 <1>   0.0800 
 34 H       -4.5930     6.7290     0.8770 H     1 <1>   0.0800 
 35 H       -3.1970     6.7820    -0.2090 H     1 <1>   0.0800 
 36 H       -6.8450     4.5430    -0.8060 H     1 <1>   0.0800 
 37 H       -6.2260     2.9500    -0.3890 H     1 <1>   0.0800 
 38 H       -5.6690     3.7690    -1.8620 H     1 <1>   0.0800 
@<TRIPOS>BOND
  1   1   2  2   
  2   2   3  am  
  3   2   4  1   
  4   3   5  1   
  5   3  20  1   
  6   4   6  ar  
  7   4   7  ar  
  8   5   8  1   
  9   5  21  1   
 10   5  22  1   
 11   6   9  1   
 12   6  10  ar  
 13   7  11  ar  
 14   7  23  1   
 15   8  12  1   
 16   8  24  1   
 17   8  25  1   
 18   9  13  1   
 19  10  14  ar  
 20  10  26  1   
 21  11  14  ar  
 22  11  15  1   
 23  12  16  1   
 24  13  27  1   
 25  13  28  1   
 26  13  29  1   
 27  14  17  1   
 28  15  18  1   
 29  16  30  1   
 30  16  31  1   
 31  16  32  1   
 32  17  19  1   
 33  18  33  1   
 34  18  34  1   
 35  18  35  1   
 36  19  36  1   
 37  19  37  1   
 38  19  38  1   
@<TRIPOS>SUBSTRUCTURE
  1 ****   4 GROUP 4 **** **** 0

# MOE 2024.06 (io_trps.svl 2023.06)
