@<TRIPOS>MOLECULE
NONAME
31 31 1 0 0 
SMALL
USER_CHARGES


@<TRIPOS>ATOM
  1 CL      -0.1680     0.1760    -0.0920 Cl    1 <1>  -0.1770 
  2 C        1.4100     0.9280    -0.0610 C.ar  1 <1>   0.1770 
  3 C        1.5270     2.3100    -0.0060 C.ar  1 <1>  -0.1440 
  4 C        2.5250     0.1100    -0.0930 C.ar  1 <1>  -0.1500 
  5 C        2.7980     2.8640     0.0170 C.ar  1 <1>  -0.1500 
  6 C        0.2960     3.2040     0.0290 C.3   1 <1>  -0.0960 
  7 C        3.7900     0.6730    -0.0690 C.ar  1 <1>  -0.1500 
  8 C        3.9280     2.0590    -0.0140 C.ar  1 <1>   0.0830 
  9 O        5.1250     2.6970     0.0130 O.3   1 <1>  -0.3630 
 10 C        6.3380     1.9880    -0.0150 C.3   1 <1>   0.1200 
 11 C        7.4640     3.0240     0.0270 C.3   1 <1>   0.3430 
 12 N        8.8150     2.3850     0.0020 N.4   1 <1>  -0.9060 
 13 C        9.9020     3.3880     0.0430 C.3   1 <1>   0.3430 
 14 C       11.2300     2.6470     0.0140 C.3   1 <1>  -0.2400 
 15 H        2.3950    -0.9560    -0.1350 H     1 <1>   0.1500 
 16 H        2.9220     3.9310     0.0600 H     1 <1>   0.1500 
 17 H       -0.3000     2.9740     0.8940 H     1 <1>   0.0800 
 18 H       -0.2980     3.0440    -0.8530 H     1 <1>   0.0800 
 19 H        0.5720     4.2420     0.0710 H     1 <1>   0.0800 
 20 H        4.6380     0.0170    -0.0950 H     1 <1>   0.1500 
 21 H        6.3690     1.4160    -0.9260 H     1 <1>   0.0800 
 22 H        6.3680     1.3460     0.8480 H     1 <1>   0.0800 
 23 H        7.3570     3.6100     0.9260 H     1 <1>   0.0800 
 24 H        7.3580     3.6800    -0.8220 H     1 <1>   0.0800 
 25 H        8.9240     1.8170    -0.8480 H     1 <1>   0.4500 
 26 H        8.9230     1.7510     0.8050 H     1 <1>   0.4500 
 27 H        9.8320     3.9790     0.9440 H     1 <1>   0.0800 
 28 H        9.8340     4.0480    -0.8080 H     1 <1>   0.0800 
 29 H       11.3320     2.0020     0.8700 H     1 <1>   0.0800 
 30 H       12.0340     3.3620     0.0430 H     1 <1>   0.0800 
 31 H       11.3330     2.0720    -0.8890 H     1 <1>   0.0800 
@<TRIPOS>BOND
  1   1   2  1   
  2   2   3  ar  
  3   2   4  ar  
  4   3   5  ar  
  5   3   6  1   
  6   4   7  ar  
  7   4  15  1   
  8   5   8  ar  
  9   5  16  1   
 10   6  17  1   
 11   6  18  1   
 12   6  19  1   
 13   7   8  ar  
 14   7  20  1   
 15   8   9  1   
 16   9  10  1   
 17  10  11  1   
 18  10  21  1   
 19  10  22  1   
 20  11  12  1   
 21  11  23  1   
 22  11  24  1   
 23  12  13  1   
 24  12  25  1   
 25  12  26  1   
 26  13  14  1   
 27  13  27  1   
 28  13  28  1   
 29  14  29  1   
 30  14  30  1   
 31  14  31  1   
@<TRIPOS>SUBSTRUCTURE
  1 ****   8 GROUP 4 **** **** 0

# MOE 2024.06 (io_trps.svl 2023.06)
