@<TRIPOS>MOLECULE
NONAME
33 33 1 0 0 
SMALL
USER_CHARGES


@<TRIPOS>ATOM
  1 I        0.2960    -0.1150     0.5030 I     1 <1>  -0.0810 
  2 C       -0.8120     1.7070     0.3140 C.ar  1 <1>   0.0810 
  3 C       -0.1820     2.9330     0.4860 C.ar  1 <1>   0.0830 
  4 C       -2.1520     1.5870     0.0120 C.ar  1 <1>  -0.1500 
  5 O        1.1470     2.9380     0.7820 O.3   1 <1>  -0.3630 
  6 C       -0.9640     4.0900     0.3510 C.ar  1 <1>   0.0830 
  7 C       -2.9400     2.7270    -0.1260 C.ar  1 <1>   0.0860 
  8 C        2.0200     3.8530     0.1580 C.3   1 <1>   0.1200 
  9 O       -0.3850     5.3120     0.5410 O.3   1 <1>  -0.3620 
 10 C       -2.3180     3.9670     0.0410 C.ar  1 <1>  -0.1500 
 11 C       -4.3530     2.6150    -0.4330 C.2   1 <1>   0.5440 
 12 C        3.4170     3.2320     0.1290 C.3   1 <1>  -0.1600 
 13 C       -1.1020     6.5220     0.4240 C.3   1 <1>   0.0400 
 14 O       -4.7600     1.7200    -1.1470 O.2   1 <1>  -0.5700 
 15 N       -5.2530     3.5040     0.0910 N.am  1 <1>  -0.7300 
 16 C        4.4290     4.1670    -0.5410 C.3   1 <1>  -0.2400 
 17 C       -6.7180     3.4920    -0.1590 C.3   1 <1>   0.0600 
 18 H       -2.5980     0.6160    -0.1210 H     1 <1>   0.1500 
 19 H        2.0200     4.7630     0.7300 H     1 <1>   0.0800 
 20 H        1.6650     4.0430    -0.8400 H     1 <1>   0.0800 
 21 H       -2.9270     4.8400    -0.0840 H     1 <1>   0.1500 
 22 H        3.3780     2.3030    -0.4130 H     1 <1>   0.0800 
 23 H        3.7330     3.0290     1.1370 H     1 <1>   0.0800 
 24 H       -0.4210     7.3310     0.6170 H     1 <1>   0.0800 
 25 H       -1.8930     6.5320     1.1530 H     1 <1>   0.0800 
 26 H       -1.4920     6.6040    -0.5750 H     1 <1>   0.0800 
 27 H       -4.9340     4.1590     0.8070 H     1 <1>   0.3700 
 28 H        4.1400     4.3700    -1.5580 H     1 <1>   0.0800 
 29 H        5.4030     3.7090    -0.5480 H     1 <1>   0.0800 
 30 H        4.4930     5.0980    -0.0050 H     1 <1>   0.0800 
 31 H       -6.9610     2.7940    -0.9430 H     1 <1>   0.0800 
 32 H       -7.0440     4.4730    -0.4580 H     1 <1>   0.0800 
 33 H       -7.2380     3.2000     0.7360 H     1 <1>   0.0800 
@<TRIPOS>BOND
  1   1   2  1   
  2   2   3  ar  
  3   2   4  ar  
  4   3   5  1   
  5   3   6  ar  
  6   4   7  ar  
  7   4  18  1   
  8   5   8  1   
  9   6   9  1   
 10   6  10  ar  
 11   7  10  ar  
 12   7  11  1   
 13   8  12  1   
 14   8  19  1   
 15   8  20  1   
 16   9  13  1   
 17  10  21  1   
 18  11  14  2   
 19  11  15  am  
 20  12  16  1   
 21  12  22  1   
 22  12  23  1   
 23  13  24  1   
 24  13  25  1   
 25  13  26  1   
 26  15  17  1   
 27  15  27  1   
 28  16  28  1   
 29  16  29  1   
 30  16  30  1   
 31  17  31  1   
 32  17  32  1   
 33  17  33  1   
@<TRIPOS>SUBSTRUCTURE
  1 ****   6 GROUP 4 **** **** 0

# MOE 2024.06 (io_trps.svl 2023.06)
