@<TRIPOS>MOLECULE
NONAME
43 44 1 0 0 
SMALL
USER_CHARGES


@<TRIPOS>ATOM
  1 P       -0.7400    -1.3290     0.5620 P.3   1 <1>   0.9000 
  2 O       -0.6300    -1.1210    -0.9110 O.co2 1 <1>  -0.9500 
  3 O       -1.3390    -2.6020     1.0540 O.co2 1 <1>  -0.9500 
  4 C        0.9780    -1.2750     1.1420 C.3   1 <1>   0.3430 
  5 C       -1.6860     0.0610     1.2760 C.3   1 <1>   0.3430 
  6 N        1.8530    -2.1650     0.2950 N.4   1 <1>  -0.9590 
  7 N       -3.1400     0.1680     0.8430 N.4   1 <1>  -0.9590 
  8 C        1.5260    -3.6040     0.5340 C.3   1 <1>   0.3430 
  9 C        3.3010    -1.8520     0.3690 C.3   1 <1>   0.3430 
 10 C       -3.8740    -1.0750     1.2350 C.3   1 <1>   0.3430 
 11 C       -3.2130     0.3290    -0.6420 C.3   1 <1>   0.3430 
 12 C        2.2830    -4.4770    -0.4680 C.3   1 <1>  -0.1600 
 13 C        4.0660    -2.7070    -0.6430 C.3   1 <1>  -0.1600 
 14 C       -5.3560    -0.9170     0.8910 C.3   1 <1>  -0.1600 
 15 C       -4.6700     0.5400    -1.0570 C.3   1 <1>  -0.1600 
 16 C        3.7930    -4.2040    -0.4460 C.3   1 <1>  -0.1600 
 17 C       -5.5570    -0.6290    -0.6030 C.3   1 <1>  -0.1600 
 18 H        1.0670    -1.5710     2.1720 H     1 <1>   0.0800 
 19 H        1.3630    -0.2750     1.0540 H     1 <1>   0.0800 
 20 H       -1.2100     0.9920     1.0230 H     1 <1>   0.0800 
 21 H       -1.6780    -0.0080     2.3490 H     1 <1>   0.0800 
 22 H        1.4980    -1.9810    -0.6680 H     1 <1>   0.4500 
 23 H       -3.5970     0.9720     1.2840 H     1 <1>   0.4500 
 24 H        0.4660    -3.7730     0.4150 H     1 <1>   0.0800 
 25 H        1.8000    -3.8800     1.5380 H     1 <1>   0.0800 
 26 H        3.6660    -2.0600     1.3610 H     1 <1>   0.0800 
 27 H        3.4650    -0.8090     0.1530 H     1 <1>   0.0800 
 28 H       -3.7580    -1.2640     2.2900 H     1 <1>   0.0800 
 29 H       -3.4730    -1.9230     0.6990 H     1 <1>   0.0800 
 30 H       -2.8280    -0.5570    -1.1260 H     1 <1>   0.0800 
 31 H       -2.6140     1.1670    -0.9600 H     1 <1>   0.0800 
 32 H        1.8890    -4.2940    -1.4540 H     1 <1>   0.0800 
 33 H        2.0990    -5.5110    -0.2370 H     1 <1>   0.0800 
 34 H        5.1200    -2.5190    -0.5380 H     1 <1>   0.0800 
 35 H        3.7840    -2.4130    -1.6400 H     1 <1>   0.0800 
 36 H       -5.7800    -0.1240     1.4830 H     1 <1>   0.0800 
 37 H       -5.8710    -1.8260     1.1490 H     1 <1>   0.0800 
 38 H       -4.7170     0.6240    -2.1290 H     1 <1>   0.0800 
 39 H       -5.0320     1.4640    -0.6430 H     1 <1>   0.0800 
 40 H        4.2760    -4.7700    -1.2250 H     1 <1>   0.0800 
 41 H        4.2020    -4.5250     0.4970 H     1 <1>   0.0800 
 42 H       -6.5920    -0.4080    -0.8030 H     1 <1>   0.0800 
 43 H       -5.2940    -1.5090    -1.1690 H     1 <1>   0.0800 
@<TRIPOS>BOND
  1   1   2  ar  
  2   1   3  ar  
  3   1   4  1   
  4   1   5  1   
  5   4   6  1   
  6   4  18  1   
  7   4  19  1   
  8   5   7  1   
  9   5  20  1   
 10   5  21  1   
 11   6   8  1   
 12   6   9  1   
 13   6  22  1   
 14   7  10  1   
 15   7  11  1   
 16   7  23  1   
 17   8  12  1   
 18   8  24  1   
 19   8  25  1   
 20   9  13  1   
 21   9  26  1   
 22   9  27  1   
 23  10  14  1   
 24  10  28  1   
 25  10  29  1   
 26  11  15  1   
 27  11  30  1   
 28  11  31  1   
 29  12  16  1   
 30  12  32  1   
 31  12  33  1   
 32  13  16  1   
 33  13  34  1   
 34  13  35  1   
 35  14  17  1   
 36  14  36  1   
 37  14  37  1   
 38  15  17  1   
 39  15  38  1   
 40  15  39  1   
 41  16  40  1   
 42  16  41  1   
 43  17  42  1   
 44  17  43  1   
@<TRIPOS>SUBSTRUCTURE
  1 ****   1 GROUP 4 **** **** 0

# MOE 2024.06 (io_trps.svl 2023.06)
