@<TRIPOS>MOLECULE
NONAME
49 51 1 0 0 
SMALL
USER_CHARGES


@<TRIPOS>ATOM
  1 CL       1.4900     2.3530    -1.6920 Cl    1 <1>  -0.1770 
  2 C        2.9580     1.5280    -1.2340 C.ar  1 <1>   0.1770 
  3 C        3.0130     0.8640    -0.0240 C.ar  1 <1>  -0.1500 
  4 C        4.0440     1.5520    -2.0880 C.ar  1 <1>  -0.1500 
  5 C        4.1790     0.2110     0.3390 C.ar  1 <1>  -0.1500 
  6 C        5.2070     0.8970    -1.7200 C.ar  1 <1>  -0.1500 
  7 C        5.2820     0.2260    -0.5060 C.ar  1 <1>  -0.1430 
  8 C        6.5670    -0.4870    -0.1100 C.3   1 <1>   0.2540 
  9 N        7.6780     0.4770     0.0250 N.3   1 <1>  -0.8100 
 10 C        7.4040     1.5020     1.0680 C.3   1 <1>   0.1100 
 11 C        8.9670    -0.2030     0.2850 C.3   1 <1>   0.1100 
 12 C        8.5950     2.4660     1.2870 C.3   1 <1>   0.3430 
 13 C       10.1520     0.7950     0.3360 C.3   1 <1>   0.3430 
 14 N        9.6750     2.2140     0.2770 N.4   1 <1>  -0.9590 
 15 C       10.7590     3.2300     0.2790 C.3   1 <1>   0.4860 
 16 C       10.1410     4.5970     0.0660 C.ar  1 <1>  -0.1430 
 17 C       10.0820     5.5060     1.1120 C.ar  1 <1>  -0.1500 
 18 C        9.6170     4.9480    -1.1700 C.ar  1 <1>  -0.1500 
 19 C        9.4940     6.7440     0.9270 C.ar  1 <1>  -0.1500 
 20 C        9.0300     6.1870    -1.3510 C.ar  1 <1>  -0.1500 
 21 C        8.9610     7.0900    -0.3040 C.ar  1 <1>  -0.1430 
 22 C        8.3140     8.4520    -0.5060 C.3   1 <1>  -0.0170 
 23 C        9.3520     9.4760    -0.9710 C.3   1 <1>  -0.2400 
 24 H        2.1520     0.8600     0.6200 H     1 <1>   0.1500 
 25 H        3.9750     2.0740    -3.0250 H     1 <1>   0.1500 
 26 H        4.2190    -0.3080     1.2810 H     1 <1>   0.1500 
 27 H        6.0590     0.9110    -2.3780 H     1 <1>   0.1500 
 28 H        6.8070    -1.2060    -0.8760 H     1 <1>   0.0800 
 29 H        6.4260    -1.0200     0.8150 H     1 <1>   0.0800 
 30 H        7.1600     1.0250     2.0020 H     1 <1>   0.0800 
 31 H        6.5500     2.0900     0.7760 H     1 <1>   0.0800 
 32 H        9.1570    -0.9260    -0.4910 H     1 <1>   0.0800 
 33 H        8.9150    -0.7370     1.2190 H     1 <1>   0.0800 
 34 H        8.9830     2.3340     2.2830 H     1 <1>   0.0800 
 35 H        8.2360     3.4800     1.2060 H     1 <1>   0.0800 
 36 H       10.8060     0.5970    -0.4980 H     1 <1>   0.0800 
 37 H       10.7150     0.6290     1.2390 H     1 <1>   0.0800 
 38 H        9.1660     2.2840    -0.6170 H     1 <1>   0.4500 
 39 H       11.4590     3.0280    -0.5150 H     1 <1>   0.0800 
 40 H       11.2870     3.2090     1.2170 H     1 <1>   0.0800 
 41 H       10.4910     5.2680     2.0800 H     1 <1>   0.1500 
 42 H        9.6590     4.2700    -2.0050 H     1 <1>   0.1500 
 43 H        9.4540     7.4450     1.7430 H     1 <1>   0.1500 
 44 H        8.6260     6.4510    -2.3130 H     1 <1>   0.1500 
 45 H        7.8690     8.7840     0.4160 H     1 <1>   0.0800 
 46 H        7.5290     8.3770    -1.2370 H     1 <1>   0.0800 
 47 H       10.1330     9.5740    -0.2380 H     1 <1>   0.0800 
 48 H        8.8880    10.4350    -1.1120 H     1 <1>   0.0800 
 49 H        9.7910     9.1630    -1.9020 H     1 <1>   0.0800 
@<TRIPOS>BOND
  1   1   2  1   
  2   2   3  ar  
  3   2   4  ar  
  4   3   5  ar  
  5   3  24  1   
  6   4   6  ar  
  7   4  25  1   
  8   5   7  ar  
  9   5  26  1   
 10   6   7  ar  
 11   6  27  1   
 12   7   8  1   
 13   8   9  1   
 14   8  28  1   
 15   8  29  1   
 16   9  10  1   
 17   9  11  1   
 18  10  12  1   
 19  10  30  1   
 20  10  31  1   
 21  11  13  1   
 22  11  32  1   
 23  11  33  1   
 24  12  14  1   
 25  12  34  1   
 26  12  35  1   
 27  13  14  1   
 28  13  36  1   
 29  13  37  1   
 30  14  15  1   
 31  14  38  1   
 32  15  16  1   
 33  15  39  1   
 34  15  40  1   
 35  16  17  ar  
 36  16  18  ar  
 37  17  19  ar  
 38  17  41  1   
 39  18  20  ar  
 40  18  42  1   
 41  19  21  ar  
 42  19  43  1   
 43  20  21  ar  
 44  20  44  1   
 45  21  22  1   
 46  22  23  1   
 47  22  45  1   
 48  22  46  1   
 49  23  47  1   
 50  23  48  1   
 51  23  49  1   
@<TRIPOS>SUBSTRUCTURE
  1 ****  12 GROUP 4 **** **** 0

# MOE 2024.06 (io_trps.svl 2023.06)
