@<TRIPOS>MOLECULE
NONAME
29 30 1 0 0 
SMALL
USER_CHARGES


@<TRIPOS>ATOM
  1 F       -0.0560     0.3270     0.1810 F     1 <1>  -0.3400 
  2 C       -1.1620    -0.4300     0.1780 C.3   1 <1>   0.6800 
  3 F       -1.1480    -1.0040     1.3870 F     1 <1>  -0.3400 
  4 C       -2.4000     0.5070     0.0310 C.3   1 <1>   0.5600 
  5 C       -1.0770    -1.4890    -0.9520 C.3   1 <1>   0.6000 
  6 O       -3.5900    -0.2630    -0.0640 O.3   1 <1>  -0.3630 
  7 O       -2.3370     1.2080    -1.1740 O.3   1 <1>  -0.6800 
  8 C       -2.5390     1.5220     1.1730 C.3   1 <1>  -0.0990 
  9 F       -1.9180    -2.5040    -0.7540 F     1 <1>  -0.3400 
 10 F        0.1230    -2.0670    -1.0080 F     1 <1>  -0.3400 
 11 C       -4.8110     0.3160     0.0130 C.ar  1 <1>   0.0830 
 12 C       -3.8160     2.3100     1.0170 C.2   1 <1>   0.4230 
 13 C       -4.9670     1.6090     0.5200 C.ar  1 <1>   0.0860 
 14 C       -5.9040    -0.4090    -0.4320 C.ar  1 <1>  -0.1500 
 15 O       -3.7970     3.4730     1.3280 O.2   1 <1>  -0.5700 
 16 C       -6.2500     2.1560     0.5340 C.ar  1 <1>  -0.1500 
 17 C       -7.1670     0.1510    -0.3980 C.ar  1 <1>  -0.1500 
 18 C       -7.3450     1.4400     0.0820 C.ar  1 <1>  -0.1430 
 19 C       -8.7360     2.0470     0.1060 C.3   1 <1>  -0.0970 
 20 H       -1.2900    -1.0750    -1.9200 H     1 <1>   0.0800 
 21 H       -1.7610     1.9930    -1.0760 H     1 <1>   0.4000 
 22 H       -1.6950     2.1860     1.1920 H     1 <1>   0.0800 
 23 H       -2.5700     1.0100     2.1170 H     1 <1>   0.0800 
 24 H       -5.7610    -1.4060    -0.8080 H     1 <1>   0.1500 
 25 H       -6.3760     3.1570     0.9110 H     1 <1>   0.1500 
 26 H       -8.0130    -0.4160    -0.7480 H     1 <1>   0.1500 
 27 H       -8.7120     3.0530     0.4850 H     1 <1>   0.0800 
 28 H       -9.3810     1.4600     0.7350 H     1 <1>   0.0800 
 29 H       -9.1450     2.0670    -0.8880 H     1 <1>   0.0800 
@<TRIPOS>BOND
  1   1   2  1   
  2   2   3  1   
  3   2   4  1   
  4   2   5  1   
  5   4   6  1   
  6   4   7  1   
  7   4   8  1   
  8   5   9  1   
  9   5  10  1   
 10   5  20  1   
 11   6  11  1   
 12   7  21  1   
 13   8  12  1   
 14   8  22  1   
 15   8  23  1   
 16  11  13  ar  
 17  11  14  ar  
 18  12  13  1   
 19  12  15  2   
 20  13  16  ar  
 21  14  17  ar  
 22  14  24  1   
 23  16  18  ar  
 24  16  25  1   
 25  17  18  ar  
 26  17  26  1   
 27  18  19  1   
 28  19  27  1   
 29  19  28  1   
 30  19  29  1   
@<TRIPOS>SUBSTRUCTURE
  1 ****   6 GROUP 4 **** **** 0

# MOE 2024.06 (io_trps.svl 2023.06)
