@<TRIPOS>MOLECULE
NONAME
47 50 1 0 0 
SMALL
USER_CHARGES


@<TRIPOS>ATOM
  1 O       -0.2450    -0.3380    -0.3430 O.2   1 <1>  -0.5700 
  2 C       -1.2150     0.1090     0.2220 C.2   1 <1>   0.5690 
  3 N       -1.1200     1.1180     1.1300 N.am  1 <1>  -0.7300 
  4 C       -2.5810    -0.4850    -0.1020 C.3   1 <1>   0.1810 
  5 C        0.1290     1.7990     1.5520 C.3   1 <1>   0.0600 
  6 O       -3.6170     0.1460     0.6410 O.3   1 <1>  -0.3630 
  7 C       -4.9100    -0.2360     0.4990 C.ar  1 <1>   0.0830 
  8 C       -5.3340    -1.2470    -0.3560 C.ar  1 <1>  -0.1500 
  9 C       -5.8490     0.4330     1.2620 C.ar  1 <1>  -0.1500 
 10 C       -6.6770    -1.5720    -0.4380 C.ar  1 <1>  -0.1500 
 11 C       -7.1890     0.1030     1.1760 C.ar  1 <1>  -0.1500 
 12 C       -7.6330    -0.9050     0.3250 C.ar  1 <1>  -0.1430 
 13 C       -9.1420    -1.2360     0.2640 C.3   1 <1>   0.1430 
 14 C       -9.6430    -1.6720     1.6630 C.3   1 <1>  -0.1600 
 15 C       -9.4770    -2.3800    -0.7280 C.3   1 <1>  -0.1600 
 16 C       -9.9390     0.0140    -0.1810 C.3   1 <1>  -0.1600 
 17 C      -11.1560    -1.9590     1.6490 C.3   1 <1>  -0.0800 
 18 C      -10.9880    -2.6790    -0.7590 C.3   1 <1>  -0.0800 
 19 C      -11.4530    -0.2670    -0.2020 C.3   1 <1>  -0.0800 
 20 C      -11.4480    -3.0930     0.6500 C.3   1 <1>  -0.1600 
 21 C      -11.9080    -0.6890     1.2080 C.3   1 <1>  -0.1600 
 22 C      -11.7440    -1.4100    -1.1900 C.3   1 <1>  -0.1600 
 23 H       -1.9930     1.4380     1.5620 H     1 <1>   0.3700 
 24 H       -2.5760    -1.5310     0.1420 H     1 <1>   0.0800 
 25 H       -2.7830    -0.3510    -1.1490 H     1 <1>   0.0800 
 26 H        0.9750     1.3800     1.0330 H     1 <1>   0.0800 
 27 H        0.2730     1.6710     2.6110 H     1 <1>   0.0800 
 28 H        0.0660     2.8480     1.3240 H     1 <1>   0.0800 
 29 H       -4.6410    -1.7920    -0.9670 H     1 <1>   0.1500 
 30 H       -5.5270     1.2150     1.9250 H     1 <1>   0.1500 
 31 H       -6.9520    -2.3590    -1.1140 H     1 <1>   0.1500 
 32 H       -7.8860     0.6480     1.7850 H     1 <1>   0.1500 
 33 H       -9.1080    -2.5520     1.9750 H     1 <1>   0.0800 
 34 H       -9.4460    -0.9030     2.3870 H     1 <1>   0.0800 
 35 H       -8.9530    -3.2750    -0.4410 H     1 <1>   0.0800 
 36 H       -9.1580    -2.1070    -1.7180 H     1 <1>   0.0800 
 37 H       -9.6120     0.3160    -1.1610 H     1 <1>   0.0800 
 38 H       -9.7510     0.8350     0.4860 H     1 <1>   0.0800 
 39 H      -11.4800    -2.2510     2.6340 H     1 <1>   0.0800 
 40 H      -11.1880    -3.4760    -1.4550 H     1 <1>   0.0800 
 41 H      -11.9840     0.6190    -0.5050 H     1 <1>   0.0800 
 42 H      -12.5030    -3.3080     0.6410 H     1 <1>   0.0800 
 43 H      -10.9340    -3.9880     0.9540 H     1 <1>   0.0800 
 44 H      -11.7180     0.1070     1.9060 H     1 <1>   0.0800 
 45 H      -12.9680    -0.8760     1.2080 H     1 <1>   0.0800 
 46 H      -11.4380    -1.1220    -2.1810 H     1 <1>   0.0800 
 47 H      -12.8010    -1.6070    -1.2200 H     1 <1>   0.0800 
@<TRIPOS>BOND
  1   1   2  2   
  2   2   3  am  
  3   2   4  1   
  4   3   5  1   
  5   3  23  1   
  6   4   6  1   
  7   4  24  1   
  8   4  25  1   
  9   5  26  1   
 10   5  27  1   
 11   5  28  1   
 12   6   7  1   
 13   7   8  ar  
 14   7   9  ar  
 15   8  10  ar  
 16   8  29  1   
 17   9  11  ar  
 18   9  30  1   
 19  10  12  ar  
 20  10  31  1   
 21  11  12  ar  
 22  11  32  1   
 23  12  13  1   
 24  13  14  1   
 25  13  15  1   
 26  13  16  1   
 27  14  17  1   
 28  14  33  1   
 29  14  34  1   
 30  15  18  1   
 31  15  35  1   
 32  15  36  1   
 33  16  19  1   
 34  16  37  1   
 35  16  38  1   
 36  17  20  1   
 37  17  21  1   
 38  17  39  1   
 39  18  20  1   
 40  18  22  1   
 41  18  40  1   
 42  19  21  1   
 43  19  22  1   
 44  19  41  1   
 45  20  42  1   
 46  20  43  1   
 47  21  44  1   
 48  21  45  1   
 49  22  46  1   
 50  22  47  1   
@<TRIPOS>SUBSTRUCTURE
  1 ****  12 GROUP 4 **** **** 0

# MOE 2024.06 (io_trps.svl 2023.06)
