@<TRIPOS>MOLECULE
NONAME
29 30 1 0 0 
SMALL
USER_CHARGES


@<TRIPOS>ATOM
  1 O        0.4410     0.9350    -0.8180 O.2   1 <1>  -0.5700 
  2 C        0.1150     1.7710     0.0080 C.2   1 <1>   0.5440 
  3 N        1.0270     2.1040     0.9740 N.am  1 <1>  -0.7300 
  4 C       -1.2020     2.4140    -0.0240 C.ar  1 <1>   0.3960 
  5 C        2.3930     1.5320     1.1270 C.3   1 <1>   0.1400 
  6 N       -1.4800     3.3750     0.8790 N.ar  1 <1>  -0.6200 
  7 C       -2.1430     2.0270    -0.9800 C.ar  1 <1>  -0.1500 
  8 C        3.3610     2.0820     0.0700 C.3   1 <1>   0.2000 
  9 C       -2.6770     3.9290     0.8160 C.ar  1 <1>   0.1600 
 10 C       -3.3880     2.6140    -1.0340 C.ar  1 <1>  -0.1500 
 11 O        4.6580     1.6890     0.3800 O.3   1 <1>  -0.5600 
 12 C        3.4490     3.6020     0.0010 C.3   1 <1>  -0.1600 
 13 C       -3.6530     3.5930    -0.1040 C.ar  1 <1>  -0.1500 
 14 C        5.5690     2.5040    -0.2820 C.3   1 <1>   0.1200 
 15 C        4.8680     3.8460    -0.4880 C.3   1 <1>  -0.1600 
 16 H        0.7470     2.8320     1.6380 H     1 <1>   0.3700 
 17 H        2.3390     0.4620     1.0250 H     1 <1>   0.0800 
 18 H        2.7640     1.7680     2.1090 H     1 <1>   0.0800 
 19 H       -1.8860     1.2560    -1.6850 H     1 <1>   0.1500 
 20 H        3.1210     1.6720    -0.8970 H     1 <1>   0.0800 
 21 H       -2.8970     4.6970     1.5390 H     1 <1>   0.1500 
 22 H       -4.1190     2.3200    -1.7690 H     1 <1>   0.1500 
 23 H        3.3180     4.0190     0.9840 H     1 <1>   0.0800 
 24 H        2.7040     4.0080    -0.6600 H     1 <1>   0.0800 
 25 H       -4.6060     4.0920    -0.0890 H     1 <1>   0.1500 
 26 H        5.8100     2.0410    -1.2230 H     1 <1>   0.0800 
 27 H        6.4540     2.5940     0.3240 H     1 <1>   0.0800 
 28 H        5.3500     4.6250     0.0750 H     1 <1>   0.0800 
 29 H        4.8810     4.1060    -1.5320 H     1 <1>   0.0800 
@<TRIPOS>BOND
  1   1   2  2   
  2   2   3  am  
  3   2   4  1   
  4   3   5  1   
  5   3  16  1   
  6   4   6  ar  
  7   4   7  ar  
  8   5   8  1   
  9   5  17  1   
 10   5  18  1   
 11   6   9  ar  
 12   7  10  ar  
 13   7  19  1   
 14   8  11  1   
 15   8  12  1   
 16   8  20  1   
 17   9  13  ar  
 18   9  21  1   
 19  10  13  ar  
 20  10  22  1   
 21  11  14  1   
 22  12  15  1   
 23  12  23  1   
 24  12  24  1   
 25  13  25  1   
 26  14  15  1   
 27  14  26  1   
 28  14  27  1   
 29  15  28  1   
 30  15  29  1   
@<TRIPOS>SUBSTRUCTURE
  1 ****   2 GROUP 4 **** **** 0

# MOE 2024.06 (io_trps.svl 2023.06)
