@<TRIPOS>MOLECULE
NONAME
37 37 1 0 0 
SMALL
USER_CHARGES


@<TRIPOS>ATOM
  1 BR       0.5980     0.8780    -2.6740 Br    1 <1>  -0.1110 
  2 C       -0.7310     1.2770    -1.3300 C.ar  1 <1>   0.1110 
  3 C       -0.4650     2.2180    -0.3410 C.ar  1 <1>   0.0830 
  4 C       -1.9380     0.6060    -1.3930 C.ar  1 <1>  -0.1500 
  5 O        0.7140     2.8750    -0.2770 O.3   1 <1>  -0.3630 
  6 C       -1.4480     2.4990     0.5940 C.ar  1 <1>  -0.1500 
  7 C       -2.9080     0.8890    -0.4440 C.ar  1 <1>  -0.1500 
  8 C        1.8070     2.1640     0.2450 C.3   1 <1>   0.1200 
  9 C       -2.6630     1.8340     0.5430 C.ar  1 <1>  -0.1500 
 10 C        3.0700     2.7800    -0.3550 C.3   1 <1>  -0.1600 
 11 C        4.3070     1.9950     0.0600 C.3   1 <1>   0.3430 
 12 N        5.4940     2.5970    -0.6000 N.4   1 <1>  -0.9060 
 13 C        6.7910     1.9690    -0.3370 C.3   1 <1>   0.5030 
 14 C        6.7740     0.5230    -0.8290 C.3   1 <1>  -0.2400 
 15 C        7.8220     2.7720    -1.1230 C.3   1 <1>  -0.2400 
 16 C        7.1060     2.0390     1.1570 C.3   1 <1>  -0.2400 
 17 H       -2.1170    -0.1190    -2.1670 H     1 <1>   0.1500 
 18 H       -1.2630     3.2370     1.3550 H     1 <1>   0.1500 
 19 H       -3.8560     0.3780    -0.4750 H     1 <1>   0.1500 
 20 H        1.7130     1.1260    -0.0290 H     1 <1>   0.0800 
 21 H        1.7830     2.2570     1.3170 H     1 <1>   0.0800 
 22 H       -3.4240     2.0530     1.2720 H     1 <1>   0.1500 
 23 H        3.1480     3.7990    -0.0170 H     1 <1>   0.0800 
 24 H        2.9750     2.7620    -1.4270 H     1 <1>   0.0800 
 25 H        4.1980     0.9660    -0.2430 H     1 <1>   0.0800 
 26 H        4.4170     2.0290     1.1320 H     1 <1>   0.0800 
 27 H        5.5680     3.5820    -0.3260 H     1 <1>   0.4500 
 28 H        5.3500     2.5890    -1.6150 H     1 <1>   0.4500 
 29 H        6.5030     0.4690    -1.8690 H     1 <1>   0.0800 
 30 H        6.1000    -0.0850    -0.2530 H     1 <1>   0.0800 
 31 H        7.7550     0.0940    -0.7250 H     1 <1>   0.0800 
 32 H        7.8500     3.7970    -0.7960 H     1 <1>   0.0800 
 33 H        7.6180     2.7410    -2.1790 H     1 <1>   0.0800 
 34 H        8.8030     2.3570    -0.9700 H     1 <1>   0.0800 
 35 H        7.0710     3.0530     1.5140 H     1 <1>   0.0800 
 36 H        8.0990     1.6640     1.3340 H     1 <1>   0.0800 
 37 H        6.4310     1.4330     1.7340 H     1 <1>   0.0800 
@<TRIPOS>BOND
  1   1   2  1   
  2   2   3  ar  
  3   2   4  ar  
  4   3   5  1   
  5   3   6  ar  
  6   4   7  ar  
  7   4  17  1   
  8   5   8  1   
  9   6   9  ar  
 10   6  18  1   
 11   7   9  ar  
 12   7  19  1   
 13   8  10  1   
 14   8  20  1   
 15   8  21  1   
 16   9  22  1   
 17  10  11  1   
 18  10  23  1   
 19  10  24  1   
 20  11  12  1   
 21  11  25  1   
 22  11  26  1   
 23  12  13  1   
 24  12  27  1   
 25  12  28  1   
 26  13  14  1   
 27  13  15  1   
 28  13  16  1   
 29  14  29  1   
 30  14  30  1   
 31  14  31  1   
 32  15  32  1   
 33  15  33  1   
 34  15  34  1   
 35  16  35  1   
 36  16  36  1   
 37  16  37  1   
@<TRIPOS>SUBSTRUCTURE
  1 ****   8 GROUP 4 **** **** 0

# MOE 2024.06 (io_trps.svl 2023.06)
