@<TRIPOS>MOLECULE
NONAME
46 49 1 0 0 
SMALL
USER_CHARGES


@<TRIPOS>ATOM
  1 O        0.6730     0.0390    -0.1770 O.2   1 <1>  -0.5700 
  2 C        1.6770    -0.6120    -0.0530 C.2   1 <1>   0.4230 
  3 C        2.9930    -0.0660    -0.2240 C.ar  1 <1>   0.0860 
  4 C        1.5340    -2.0790     0.3190 C.3   1 <1>  -0.0990 
  5 C        4.1390    -0.8350    -0.0930 C.ar  1 <1>   0.1660 
  6 C        3.2100     1.2650    -0.5340 C.ar  1 <1>   0.1600 
  7 C        2.7030    -2.9440    -0.1940 C.3   1 <1>   0.0000 
  8 N        5.3410    -0.3390    -0.2430 N.ar  1 <1>  -0.6200 
  9 C        4.0420    -2.3150     0.2480 C.3   1 <1>  -0.0160 
 10 N        4.4050     1.7840    -0.6940 N.ar  1 <1>  -0.6200 
 11 C        2.5830    -4.3600     0.3910 C.3   1 <1>  -0.2400 
 12 C        2.6490    -3.0530    -1.7300 C.3   1 <1>  -0.2400 
 13 C        5.4270     0.9510    -0.5440 C.ar  1 <1>   0.7370 
 14 N        6.6340     1.5410    -0.7160 N.am  1 <1>  -0.5470 
 15 C        7.9090     1.0650    -0.7000 C.2   1 <1>   0.6300 
 16 O        8.2110    -0.0940    -0.5720 O.2   1 <1>  -0.5700 
 17 C        9.0170     2.0920    -0.8760 C.3   1 <1>  -0.1000 
 18 C        9.9140     2.4940     0.2560 C.3   1 <1>  -0.0950 
 19 C        8.9270     3.4790    -0.2740 C.3   1 <1>  -0.2000 
 20 C       11.4180     2.7370    -0.0920 C.3   1 <1>  -0.1000 
 21 C        9.6530     1.9130     1.6560 C.3   1 <1>  -0.1450 
 22 C       12.4900     1.7650     0.2860 C.3   1 <1>  -0.2000 
 23 C       12.4490     3.1260     0.9220 C.3   1 <1>  -0.2000 
 24 H        0.6040    -2.4490    -0.0760 H     1 <1>   0.0800 
 25 H        1.4760    -2.1380     1.3910 H     1 <1>   0.0800 
 26 H        2.3560     1.9130    -0.6510 H     1 <1>   0.1500 
 27 H        4.1630    -2.4150     1.3120 H     1 <1>   0.0800 
 28 H        4.8600    -2.8390    -0.2170 H     1 <1>   0.0800 
 29 H        2.6140    -4.3360     1.4660 H     1 <1>   0.0800 
 30 H        3.3920    -4.9820     0.0460 H     1 <1>   0.0800 
 31 H        1.6560    -4.8170     0.0910 H     1 <1>   0.0800 
 32 H        2.7370    -2.0920    -2.2030 H     1 <1>   0.0800 
 33 H        1.7190    -3.4940    -2.0450 H     1 <1>   0.0800 
 34 H        3.4510    -3.6740    -2.0920 H     1 <1>   0.0800 
 35 H        6.5380     2.5320    -0.8860 H     1 <1>   0.3700 
 36 H        9.4780     1.9900    -1.8410 H     1 <1>   0.1000 
 37 H        8.0990     3.7470     0.3600 H     1 <1>   0.1000 
 38 H        9.2900     4.3160    -0.8440 H     1 <1>   0.1000 
 39 H       11.5260     3.1920    -1.0620 H     1 <1>   0.1000 
 40 H        8.5990     1.8070     1.8420 H     1 <1>   0.0800 
 41 H       10.0540     2.5570     2.4160 H     1 <1>   0.0800 
 42 H       10.1000     0.9400     1.7460 H     1 <1>   0.0800 
 43 H       13.2580     1.5490    -0.4360 H     1 <1>   0.1000 
 44 H       12.2420     0.9060     0.8840 H     1 <1>   0.1000 
 45 H       12.1910     3.1930     1.9630 H     1 <1>   0.1000 
 46 H       13.1940     3.8490     0.6410 H     1 <1>   0.1000 
@<TRIPOS>BOND
  1   1   2  2   
  2   2   3  1   
  3   2   4  1   
  4   3   5  ar  
  5   3   6  ar  
  6   4   7  1   
  7   4  24  1   
  8   4  25  1   
  9   5   8  ar  
 10   5   9  1   
 11   6  10  ar  
 12   6  26  1   
 13   7   9  1   
 14   7  11  1   
 15   7  12  1   
 16   8  13  ar  
 17   9  27  1   
 18   9  28  1   
 19  10  13  ar  
 20  11  29  1   
 21  11  30  1   
 22  11  31  1   
 23  12  32  1   
 24  12  33  1   
 25  12  34  1   
 26  13  14  1   
 27  14  15  am  
 28  14  35  1   
 29  15  16  2   
 30  15  17  1   
 31  17  18  1   
 32  17  19  1   
 33  17  36  1   
 34  18  19  1   
 35  18  20  1   
 36  18  21  1   
 37  19  37  1   
 38  19  38  1   
 39  20  22  1   
 40  20  23  1   
 41  20  39  1   
 42  21  40  1   
 43  21  41  1   
 44  21  42  1   
 45  22  23  1   
 46  22  43  1   
 47  22  44  1   
 48  23  45  1   
 49  23  46  1   
@<TRIPOS>SUBSTRUCTURE
  1 ****  13 GROUP 4 **** **** 0

# MOE 2024.06 (io_trps.svl 2023.06)
