@<TRIPOS>MOLECULE
NONAME
28 29 1 0 0 
SMALL
USER_CHARGES


@<TRIPOS>ATOM
  1 S       -0.1020    -0.2370    -0.2270 S.3   1 <1>  -0.0800 
  2 C        1.2520     0.8530    -0.1760 C.2   1 <1>   0.4620 
  3 C       -1.0940     1.0620     0.3650 C.2   1 <1>   0.1980 
  4 N        0.9070     2.0170     0.2460 N.2   1 <1>  -0.3380 
  5 N        2.5140     0.4350    -0.5630 N.pl3 1 <1>  -0.8220 
  6 N       -0.4180     2.1290     0.5510 N.2   1 <1>  -0.3380 
  7 C       -2.5840     0.7680     0.5760 C.3   1 <1>   1.2000 
  8 C        3.6270     1.4320    -0.6790 C.3   1 <1>   0.2090 
  9 C        2.8930    -0.9840    -0.8510 C.3   1 <1>   0.2090 
 10 F       -2.7820    -0.2240     1.4390 F     1 <1>  -0.3400 
 11 F       -3.1900     0.4010    -0.5490 F     1 <1>  -0.3400 
 12 F       -3.2700     1.8050     1.0440 F     1 <1>  -0.3400 
 13 C        4.8620     0.9820     0.1290 C.3   1 <1>   0.3430 
 14 C        4.1540    -1.3950    -0.0540 C.3   1 <1>   0.3430 
 15 N        5.3000    -0.4220    -0.2140 N.4   1 <1>  -0.9590 
 16 C        6.4740    -0.8330     0.6150 C.3   1 <1>   0.2630 
 17 H        3.3120     2.3980    -0.3210 H     1 <1>   0.0800 
 18 H        3.8920     1.5460    -1.7150 H     1 <1>   0.0800 
 19 H        3.0800    -1.0930    -1.9050 H     1 <1>   0.0800 
 20 H        2.0950    -1.6570    -0.5930 H     1 <1>   0.0800 
 21 H        4.6110     1.0370     1.1760 H     1 <1>   0.0800 
 22 H        5.6680     1.6740    -0.0520 H     1 <1>   0.0800 
 23 H        4.4620    -2.3780    -0.3710 H     1 <1>   0.0800 
 24 H        3.8820    -1.4570     0.9870 H     1 <1>   0.0800 
 25 H        5.5780    -0.4260    -1.2070 H     1 <1>   0.4500 
 26 H        6.2120    -0.8350     1.6610 H     1 <1>   0.0800 
 27 H        7.2950    -0.1510     0.4680 H     1 <1>   0.0800 
 28 H        6.7990    -1.8240     0.3400 H     1 <1>   0.0800 
@<TRIPOS>BOND
  1   1   2  1   
  2   1   3  1   
  3   2   4  2   
  4   2   5  1   
  5   3   6  2   
  6   3   7  1   
  7   4   6  1   
  8   5   8  1   
  9   5   9  1   
 10   7  10  1   
 11   7  11  1   
 12   7  12  1   
 13   8  13  1   
 14   8  17  1   
 15   8  18  1   
 16   9  14  1   
 17   9  19  1   
 18   9  20  1   
 19  13  15  1   
 20  13  21  1   
 21  13  22  1   
 22  14  15  1   
 23  14  23  1   
 24  14  24  1   
 25  15  16  1   
 26  15  25  1   
 27  16  26  1   
 28  16  27  1   
 29  16  28  1   
@<TRIPOS>SUBSTRUCTURE
  1 ****   2 GROUP 4 **** **** 0

# MOE 2024.06 (io_trps.svl 2023.06)
