@<TRIPOS>MOLECULE
NONAME
40 41 1 0 0 
SMALL
USER_CHARGES


@<TRIPOS>ATOM
  1 BR       1.8180     0.8370     1.5640 Br    1 <1>  -0.1110 
  2 C        1.0210     2.2020     0.4560 C.ar  1 <1>   0.1110 
  3 C        1.7430     2.7340    -0.6030 C.ar  1 <1>   0.0830 
  4 C       -0.2580     2.6210     0.7650 C.ar  1 <1>  -0.1500 
  5 O        2.9980     2.2740    -0.8360 O.3   1 <1>  -0.3630 
  6 C        1.1380     3.7210    -1.3740 C.ar  1 <1>  -0.1500 
  7 C       -0.8550     3.6100    -0.0050 C.ar  1 <1>  -0.1430 
  8 C        3.9530     3.0990    -1.4870 C.3   1 <1>   0.1810 
  9 C       -0.1450     4.1510    -1.0710 C.ar  1 <1>  -0.1500 
 10 C       -2.2670     4.1050     0.3020 C.3   1 <1>   0.0640 
 11 C        5.3630     2.5170    -1.3980 C.2   1 <1>   0.5690 
 12 C       -2.3320     4.7350     1.6970 C.3   1 <1>  -0.2400 
 13 C       -3.2840     2.9680     0.1710 C.3   1 <1>  -0.2400 
 14 O        5.9690     2.4010    -2.4390 O.2   1 <1>  -0.5700 
 15 N        5.9380     2.1710    -0.1970 N.am  1 <1>  -0.6600 
 16 C        7.2860     1.5290    -0.1350 C.3   1 <1>   0.1400 
 17 C        5.2820     2.2810     1.1420 C.3   1 <1>   0.1400 
 18 C        8.1400     2.1560     0.9780 C.3   1 <1>   0.1200 
 19 C        6.2550     2.8490     2.1890 C.3   1 <1>   0.1200 
 20 O        7.4570     2.1330     2.1990 O.3   1 <1>  -0.5600 
 21 H       -0.7730     2.1760     1.5970 H     1 <1>   0.1500 
 22 H        1.6440     4.1590    -2.2140 H     1 <1>   0.1500 
 23 H        3.9400     4.0690    -1.0270 H     1 <1>   0.0800 
 24 H        3.6730     3.1820    -2.5210 H     1 <1>   0.0800 
 25 H       -0.5950     4.9150    -1.6810 H     1 <1>   0.1500 
 26 H       -2.5310     4.8650    -0.4140 H     1 <1>   0.0800 
 27 H       -2.1270     4.0050     2.4590 H     1 <1>   0.0800 
 28 H       -3.3090     5.1490     1.8720 H     1 <1>   0.0800 
 29 H       -1.6080     5.5260     1.7750 H     1 <1>   0.0800 
 30 H       -3.0990     2.1990     0.8990 H     1 <1>   0.0800 
 31 H       -3.2210     2.5310    -0.8110 H     1 <1>   0.0800 
 32 H       -4.2820     3.3430     0.3140 H     1 <1>   0.0800 
 33 H        7.8000     1.6340    -1.0750 H     1 <1>   0.0800 
 34 H        7.1660     0.4780     0.0600 H     1 <1>   0.0800 
 35 H        4.9560     1.3040     1.4550 H     1 <1>   0.0800 
 36 H        4.4180     2.9180     1.0980 H     1 <1>   0.0800 
 37 H        8.3850     3.1760     0.7370 H     1 <1>   0.0800 
 38 H        9.0530     1.6010     1.1020 H     1 <1>   0.0800 
 39 H        5.8230     2.7780     3.1720 H     1 <1>   0.0800 
 40 H        6.4730     3.8820     1.9820 H     1 <1>   0.0800 
@<TRIPOS>BOND
  1   1   2  1   
  2   2   3  ar  
  3   2   4  ar  
  4   3   5  1   
  5   3   6  ar  
  6   4   7  ar  
  7   4  21  1   
  8   5   8  1   
  9   6   9  ar  
 10   6  22  1   
 11   7   9  ar  
 12   7  10  1   
 13   8  11  1   
 14   8  23  1   
 15   8  24  1   
 16   9  25  1   
 17  10  12  1   
 18  10  13  1   
 19  10  26  1   
 20  11  14  2   
 21  11  15  am  
 22  12  27  1   
 23  12  28  1   
 24  12  29  1   
 25  13  30  1   
 26  13  31  1   
 27  13  32  1   
 28  15  16  1   
 29  15  17  1   
 30  16  18  1   
 31  16  33  1   
 32  16  34  1   
 33  17  19  1   
 34  17  35  1   
 35  17  36  1   
 36  18  20  1   
 37  18  37  1   
 38  18  38  1   
 39  19  20  1   
 40  19  39  1   
 41  19  40  1   
@<TRIPOS>SUBSTRUCTURE
  1 ****   5 GROUP 4 **** **** 0

# MOE 2024.06 (io_trps.svl 2023.06)
