@<TRIPOS>MOLECULE
NONAME
44 45 1 0 0 
SMALL
USER_CHARGES


@<TRIPOS>ATOM
  1 O       -0.1170    -0.5920    -1.3480 O.2   1 <1>  -0.5700 
  2 C        0.0590    -1.4810    -0.5470 C.2   1 <1>   0.5690 
  3 N        1.2830    -1.8040    -0.0170 N.am  1 <1>  -0.5470 
  4 C       -1.1890    -2.2700    -0.1140 C.3   1 <1>   0.4040 
  5 C        2.5440    -1.2090    -0.2040 C.ar  1 <1>   0.1170 
  6 N       -2.4750    -1.4970    -0.3030 N.4   1 <1>  -0.9590 
  7 C        3.6970    -1.9650     0.0220 C.ar  1 <1>  -0.1430 
  8 C        2.6850     0.1220    -0.5850 C.ar  1 <1>  -0.1500 
  9 C       -2.5550    -0.3100     0.6120 C.3   1 <1>   0.3430 
 10 C       -3.6980    -2.3370    -0.2640 C.3   1 <1>   0.3430 
 11 C        4.9450    -1.3840    -0.1380 C.ar  1 <1>  -0.1500 
 12 C        3.6280    -3.4290     0.4410 C.3   1 <1>  -0.0970 
 13 C        3.9340     0.6910    -0.7440 C.ar  1 <1>  -0.1500 
 14 C       -3.9600     0.3290     0.6210 C.3   1 <1>  -0.0800 
 15 C       -4.8820    -1.5400    -0.8270 C.3   1 <1>  -0.1600 
 16 C        5.0730    -0.0600    -0.5220 C.ar  1 <1>  -0.1430 
 17 C       -4.7610    -0.0140    -0.6460 C.3   1 <1>  -0.1600 
 18 C       -3.8540     1.8510     0.7880 C.3   1 <1>  -0.2400 
 19 C        6.4490     0.5590    -0.6940 C.3   1 <1>  -0.0970 
 20 H        1.3430    -2.6390     0.5630 H     1 <1>   0.3700 
 21 H       -1.0850    -2.5520     0.9190 H     1 <1>   0.0800 
 22 H       -1.2250    -3.1670    -0.7080 H     1 <1>   0.0800 
 23 H       -2.4070    -1.0890    -1.2510 H     1 <1>   0.4500 
 24 H        1.8210     0.7350    -0.7590 H     1 <1>   0.1500 
 25 H       -1.8380     0.4270     0.2840 H     1 <1>   0.0800 
 26 H       -2.2980    -0.5950     1.6190 H     1 <1>   0.0800 
 27 H       -3.9070    -2.6160     0.7570 H     1 <1>   0.0800 
 28 H       -3.5640    -3.2370    -0.8430 H     1 <1>   0.0800 
 29 H        5.8350    -1.9630     0.0360 H     1 <1>   0.1500 
 30 H        3.0530    -3.9930    -0.2710 H     1 <1>   0.0800 
 31 H        3.1840    -3.5170     1.4160 H     1 <1>   0.0800 
 32 H        4.6130    -3.8610     0.4840 H     1 <1>   0.0800 
 33 H        4.0150     1.7220    -1.0410 H     1 <1>   0.1500 
 34 H       -4.4940    -0.0560     1.4730 H     1 <1>   0.0800 
 35 H       -5.7760    -1.8870    -0.3370 H     1 <1>   0.0800 
 36 H       -4.9980    -1.7630    -1.8740 H     1 <1>   0.0800 
 37 H       -4.2640     0.4080    -1.5040 H     1 <1>   0.0800 
 38 H       -5.7450     0.4220    -0.5990 H     1 <1>   0.0800 
 39 H       -3.3300     2.2940    -0.0420 H     1 <1>   0.0800 
 40 H       -3.3310     2.0980     1.6950 H     1 <1>   0.0800 
 41 H       -4.8360     2.2900     0.8400 H     1 <1>   0.0800 
 42 H        7.1430    -0.1700    -1.0720 H     1 <1>   0.0800 
 43 H        6.8050     0.9210     0.2540 H     1 <1>   0.0800 
 44 H        6.4100     1.3800    -1.3860 H     1 <1>   0.0800 
@<TRIPOS>BOND
  1   1   2  2   
  2   2   3  am  
  3   2   4  1   
  4   3   5  1   
  5   3  20  1   
  6   4   6  1   
  7   4  21  1   
  8   4  22  1   
  9   5   7  ar  
 10   5   8  ar  
 11   6   9  1   
 12   6  10  1   
 13   6  23  1   
 14   7  11  ar  
 15   7  12  1   
 16   8  13  ar  
 17   8  24  1   
 18   9  14  1   
 19   9  25  1   
 20   9  26  1   
 21  10  15  1   
 22  10  27  1   
 23  10  28  1   
 24  11  16  ar  
 25  11  29  1   
 26  12  30  1   
 27  12  31  1   
 28  12  32  1   
 29  13  16  ar  
 30  13  33  1   
 31  14  17  1   
 32  14  18  1   
 33  14  34  1   
 34  15  17  1   
 35  15  35  1   
 36  15  36  1   
 37  16  19  1   
 38  17  37  1   
 39  17  38  1   
 40  18  39  1   
 41  18  40  1   
 42  18  41  1   
 43  19  42  1   
 44  19  43  1   
 45  19  44  1   
@<TRIPOS>SUBSTRUCTURE
  1 ****   2 GROUP 4 **** **** 0

# MOE 2024.06 (io_trps.svl 2023.06)
