@<TRIPOS>MOLECULE
NONAME
42 43 1 0 0 
SMALL
USER_CHARGES


@<TRIPOS>ATOM
  1 O       -8.7010     1.0840    -0.8090 O.3   1 <1>  -0.3630 
  2 C       -7.5990     1.7030    -0.3190 C.ar  1 <1>   0.0830 
  3 C       -9.6610     0.6710     0.1400 C.3   1 <1>   0.0400 
  4 C       -7.6480     2.9490     0.3140 C.ar  1 <1>   0.0830 
  5 C       -6.3900     1.0480    -0.4600 C.ar  1 <1>  -0.1500 
  6 O       -8.7830     3.6760     0.4400 O.3   1 <1>  -0.3630 
  7 C       -6.4860     3.4840     0.8400 C.ar  1 <1>  -0.1500 
  8 C       -5.2040     1.5830     0.0490 C.ar  1 <1>   0.0860 
  9 C       -9.3880     4.1270    -0.7530 C.3   1 <1>   0.0400 
 10 C       -5.2840     2.8110     0.7080 C.ar  1 <1>  -0.1440 
 11 C       -3.8990     0.9510    -0.0780 C.2   1 <1>   0.3030 
 12 C       -4.0000     3.3770     1.2930 C.3   1 <1>  -0.0160 
 13 N       -2.7970     1.5620     0.0910 N.2   1 <1>  -0.6960 
 14 C       -3.8750    -0.5340    -0.4490 C.3   1 <1>  -0.0990 
 15 C       -2.7600     2.9730     0.4630 C.3   1 <1>   0.2460 
 16 C       -2.5100    -1.2260    -0.2820 C.3   1 <1>  -0.1600 
 17 C       -2.6680     3.7820    -0.8330 C.3   1 <1>  -0.2400 
 18 C       -1.4900     3.1820     1.2870 C.3   1 <1>  -0.2400 
 19 C       -2.5880    -2.7150    -0.6340 C.3   1 <1>  -0.2400 
 20 H      -10.0920     1.5350     0.6130 H     1 <1>   0.0800 
 21 H      -10.4250     0.1160    -0.3740 H     1 <1>   0.0800 
 22 H       -9.1800     0.0460     0.8710 H     1 <1>   0.0800 
 23 H       -6.3900     0.1090    -0.9780 H     1 <1>   0.1500 
 24 H       -6.5350     4.4310     1.3470 H     1 <1>   0.1500 
 25 H       -9.7720     3.2860    -1.3000 H     1 <1>   0.0800 
 26 H      -10.1920     4.7900    -0.4910 H     1 <1>   0.0800 
 27 H       -8.6530     4.6500    -1.3390 H     1 <1>   0.0800 
 28 H       -3.8940     2.9960     2.2920 H     1 <1>   0.0800 
 29 H       -4.0570     4.4480     1.3590 H     1 <1>   0.0800 
 30 H       -4.1850    -0.6300    -1.4740 H     1 <1>   0.0800 
 31 H       -4.5890    -1.0480     0.1700 H     1 <1>   0.0800 
 32 H       -2.1760    -1.1150     0.7360 H     1 <1>   0.0800 
 33 H       -1.7850    -0.7470    -0.9200 H     1 <1>   0.0800 
 34 H       -3.5490     3.6370    -1.4310 H     1 <1>   0.0800 
 35 H       -1.8090     3.4740    -1.4020 H     1 <1>   0.0800 
 36 H       -2.5740     4.8300    -0.6150 H     1 <1>   0.0800 
 37 H       -1.5170     2.5740     2.1740 H     1 <1>   0.0800 
 38 H       -1.3950     4.2120     1.5780 H     1 <1>   0.0800 
 39 H       -0.6250     2.9080     0.7090 H     1 <1>   0.0800 
 40 H       -3.2880    -3.2190     0.0090 H     1 <1>   0.0800 
 41 H       -1.6210    -3.1710    -0.5110 H     1 <1>   0.0800 
 42 H       -2.8980    -2.8440    -1.6560 H     1 <1>   0.0800 
@<TRIPOS>BOND
  1   1   2  1   
  2   1   3  1   
  3   2   4  ar  
  4   2   5  ar  
  5   3  20  1   
  6   3  21  1   
  7   3  22  1   
  8   4   6  1   
  9   4   7  ar  
 10   5   8  ar  
 11   5  23  1   
 12   6   9  1   
 13   7  10  ar  
 14   7  24  1   
 15   8  10  ar  
 16   8  11  1   
 17   9  25  1   
 18   9  26  1   
 19   9  27  1   
 20  10  12  1   
 21  11  13  2   
 22  11  14  1   
 23  12  15  1   
 24  12  28  1   
 25  12  29  1   
 26  13  15  1   
 27  14  16  1   
 28  14  30  1   
 29  14  31  1   
 30  15  17  1   
 31  15  18  1   
 32  16  19  1   
 33  16  32  1   
 34  16  33  1   
 35  17  34  1   
 36  17  35  1   
 37  17  36  1   
 38  18  37  1   
 39  18  38  1   
 40  18  39  1   
 41  19  40  1   
 42  19  41  1   
 43  19  42  1   
@<TRIPOS>SUBSTRUCTURE
  1 ****   8 GROUP 4 **** **** 0

# MOE 2024.06 (io_trps.svl 2023.06)
