@<TRIPOS>MOLECULE
NONAME
33 33 1 0 0 
SMALL
USER_CHARGES


@<TRIPOS>ATOM
  1 O        4.0480     4.1150    -1.6310 O.3   1 <1>  -0.6800 
  2 C        2.7560     3.6260    -1.4680 C.3   1 <1>   0.1200 
  3 C        1.9020     4.5600    -0.5590 C.3   1 <1>   0.5030 
  4 N        0.5500     3.9780    -0.4340 N.4   1 <1>  -0.9060 
  5 C        1.7760     5.9540    -1.1880 C.3   1 <1>  -0.2400 
  6 C        2.5220     4.6600     0.8410 C.3   1 <1>  -0.2400 
  7 C       -0.4350     4.7040     0.3910 C.3   1 <1>   0.5430 
  8 C       -1.6710     3.8940     0.3280 C.1   1 <1>  -0.2000 
  9 C       -2.6520     3.2230     0.2590 C.1   1 <1>  -0.0730 
 10 C       -3.8220     2.4020     0.1640 C.ar  1 <1>   0.0730 
 11 C       -4.7520     2.6090    -0.8460 C.ar  1 <1>  -0.1500 
 12 C       -4.0470     1.3810     1.0780 C.ar  1 <1>  -0.1500 
 13 C       -5.8790     1.8130    -0.9450 C.ar  1 <1>  -0.1500 
 14 C       -5.1720     0.5810     0.9830 C.ar  1 <1>  -0.1500 
 15 C       -6.0900     0.7960    -0.0300 C.ar  1 <1>  -0.1500 
 16 H        4.5940     3.5340    -2.2030 H     1 <1>   0.4000 
 17 H        2.8370     2.6460    -1.0310 H     1 <1>   0.0800 
 18 H        2.3170     3.5500    -2.4480 H     1 <1>   0.0800 
 19 H        0.6210     3.0340    -0.0440 H     1 <1>   0.4500 
 20 H        0.1360     3.8760    -1.3650 H     1 <1>   0.4500 
 21 H        2.7580     6.3720    -1.3360 H     1 <1>   0.0800 
 22 H        1.3010     5.9030    -2.1510 H     1 <1>   0.0800 
 23 H        1.2410     6.6380    -0.5560 H     1 <1>   0.0800 
 24 H        2.5730     3.6940     1.3110 H     1 <1>   0.0800 
 25 H        1.9870     5.3430     1.4750 H     1 <1>   0.0800 
 26 H        3.5290     5.0330     0.7630 H     1 <1>   0.0800 
 27 H       -0.6190     5.6890    -0.0040 H     1 <1>   0.0800 
 28 H       -0.0990     4.7850     1.4130 H     1 <1>   0.0800 
 29 H       -4.5980     3.3980    -1.5600 H     1 <1>   0.1500 
 30 H       -3.3400     1.2070     1.8690 H     1 <1>   0.1500 
 31 H       -6.5940     1.9820    -1.7320 H     1 <1>   0.1500 
 32 H       -5.3360    -0.2080     1.6970 H     1 <1>   0.1500 
 33 H       -6.9660     0.1750    -0.1050 H     1 <1>   0.1500 
@<TRIPOS>BOND
  1   1   2  1   
  2   1  16  1   
  3   2   3  1   
  4   2  17  1   
  5   2  18  1   
  6   3   4  1   
  7   3   5  1   
  8   3   6  1   
  9   4   7  1   
 10   4  19  1   
 11   4  20  1   
 12   5  21  1   
 13   5  22  1   
 14   5  23  1   
 15   6  24  1   
 16   6  25  1   
 17   6  26  1   
 18   7   8  1   
 19   7  27  1   
 20   7  28  1   
 21   8   9  3   
 22   9  10  1   
 23  10  11  ar  
 24  10  12  ar  
 25  11  13  ar  
 26  11  29  1   
 27  12  14  ar  
 28  12  30  1   
 29  13  15  ar  
 30  13  31  1   
 31  14  15  ar  
 32  14  32  1   
 33  15  33  1   
@<TRIPOS>SUBSTRUCTURE
  1 ****   8 GROUP 4 **** **** 0

# MOE 2024.06 (io_trps.svl 2023.06)
