@<TRIPOS>MOLECULE
NONAME
33 34 1 0 0 
SMALL
USER_CHARGES


@<TRIPOS>ATOM
  1 BR      -0.6480    -0.6660    -2.4960 Br    1 <1>  -0.1110 
  2 C       -2.1750    -0.3750    -1.3640 C.ar  1 <1>   0.1110 
  3 C       -2.8700     0.8120    -1.4700 C.ar  1 <1>  -0.1500 
  4 C       -2.5410    -1.3580    -0.4710 C.ar  1 <1>  -0.1500 
  5 C       -3.9740     1.0290    -0.6570 C.ar  1 <1>  -0.1440 
  6 C       -3.6430    -1.1320     0.3350 C.ar  1 <1>  -0.1500 
  7 C       -4.3810     0.0510     0.2620 C.ar  1 <1>  -0.0090 
  8 C       -4.7130     2.3540    -0.8010 C.3   1 <1>  -0.0960 
  9 S       -5.8300     0.2470     1.3550 S.o2  1 <1>   1.4470 
 10 O       -6.0640    -0.9800     2.0870 O.2   1 <1>  -0.6500 
 11 O       -5.7220     1.4850     2.0970 O.2   1 <1>  -0.6500 
 12 N       -7.1350     0.4100     0.2840 N.am  1 <1>  -0.8490 
 13 C       -8.3330     0.8900     0.9780 C.3   1 <1>   0.1960 
 14 C       -7.4120    -0.8350    -0.4410 C.3   1 <1>   0.1960 
 15 C       -9.4500     1.1830    -0.0300 C.3   1 <1>  -0.1600 
 16 C       -8.4850    -0.5970    -1.5080 C.3   1 <1>  -0.1600 
 17 C       -9.7740    -0.0470    -0.8860 C.3   1 <1>  -0.1600 
 18 H       -2.5430     1.5490    -2.1820 H     1 <1>   0.1500 
 19 H       -1.9790    -2.2720    -0.4070 H     1 <1>   0.1500 
 20 H       -3.9350    -1.8950     1.0380 H     1 <1>   0.1500 
 21 H       -4.2310     2.9910    -1.5200 H     1 <1>   0.0800 
 22 H       -4.7330     2.8770     0.1390 H     1 <1>   0.0800 
 23 H       -5.7230     2.1890    -1.1300 H     1 <1>   0.0800 
 24 H       -8.1060     1.7980     1.5120 H     1 <1>   0.0800 
 25 H       -8.6610     0.1530     1.6940 H     1 <1>   0.0800 
 26 H       -7.7440    -1.5960     0.2470 H     1 <1>   0.0800 
 27 H       -6.5140    -1.1840    -0.9230 H     1 <1>   0.0800 
 28 H       -9.1370     1.9950    -0.6630 H     1 <1>   0.0800 
 29 H      -10.3320     1.4990     0.4980 H     1 <1>   0.0800 
 30 H       -8.6940    -1.5210    -2.0160 H     1 <1>   0.0800 
 31 H       -8.1030     0.1000    -2.2340 H     1 <1>   0.0800 
 32 H      -10.4740     0.2160    -1.6600 H     1 <1>   0.0800 
 33 H      -10.2240    -0.8040    -0.2680 H     1 <1>   0.0800 
@<TRIPOS>BOND
  1   1   2  1   
  2   2   3  ar  
  3   2   4  ar  
  4   3   5  ar  
  5   3  18  1   
  6   4   6  ar  
  7   4  19  1   
  8   5   7  ar  
  9   5   8  1   
 10   6   7  ar  
 11   6  20  1   
 12   7   9  1   
 13   8  21  1   
 14   8  22  1   
 15   8  23  1   
 16   9  10  2   
 17   9  11  2   
 18   9  12  am  
 19  12  13  1   
 20  12  14  1   
 21  13  15  1   
 22  13  24  1   
 23  13  25  1   
 24  14  16  1   
 25  14  26  1   
 26  14  27  1   
 27  15  17  1   
 28  15  28  1   
 29  15  29  1   
 30  16  17  1   
 31  16  30  1   
 32  16  31  1   
 33  17  32  1   
 34  17  33  1   
@<TRIPOS>SUBSTRUCTURE
  1 ****   7 GROUP 4 **** **** 0

# MOE 2024.06 (io_trps.svl 2023.06)
