@<TRIPOS>MOLECULE
NONAME
45 46 1 0 0 
SMALL
USER_CHARGES


@<TRIPOS>ATOM
  1 S        0.0570     0.1710     0.1570 S.o2  1 <1>   1.3330 
  2 O       -0.0120    -0.5490    -1.0950 O.2   1 <1>  -0.6500 
  3 O        0.1020    -0.5590     1.4050 O.2   1 <1>  -0.6500 
  4 N       -1.2580     1.2340     0.2200 N.am  1 <1>  -0.8490 
  5 C        1.4570     1.2940     0.1190 C.3   1 <1>  -0.0550 
  6 C       -2.4140     0.6420     0.9260 C.3   1 <1>   0.1960 
  7 C       -1.6900     1.6940    -1.1180 C.3   1 <1>   0.1960 
  8 C        2.8200     0.5840     0.0660 C.3   1 <1>  -0.1600 
  9 C       -3.6040     1.6170     1.0330 C.3   1 <1>   0.2090 
 10 C       -2.8520     2.7030    -1.0430 C.3   1 <1>   0.2090 
 11 C        3.9730     1.5940     0.0340 C.3   1 <1>  -0.1600 
 12 N       -4.0150     2.1240    -0.3100 N.pl3 1 <1>  -0.8380 
 13 C        5.3250     0.8780    -0.0190 C.3   1 <1>  -0.2400 
 14 C       -5.1870     2.8930    -0.3320 C.ar  1 <1>   0.1000 
 15 C       -5.3230     4.1580     0.2720 C.ar  1 <1>   0.0820 
 16 C       -6.2770     2.3550    -1.0010 C.ar  1 <1>  -0.1500 
 17 O       -4.2440     4.6850     0.9320 O.3   1 <1>  -0.3630 
 18 C       -6.5360     4.8340     0.1850 C.ar  1 <1>  -0.1500 
 19 C       -7.4790     3.0330    -1.0820 C.ar  1 <1>  -0.1500 
 20 C       -4.3280     5.9120     1.6200 C.3   1 <1>   0.0400 
 21 C       -7.6090     4.2740    -0.4880 C.ar  1 <1>  -0.1500 
 22 H        1.4230     1.9130     0.9950 H     1 <1>   0.0800 
 23 H        1.3680     1.9330    -0.7370 H     1 <1>   0.0800 
 24 H       -2.1230     0.3610     1.9240 H     1 <1>   0.0800 
 25 H       -2.7360    -0.2480     0.4130 H     1 <1>   0.0800 
 26 H       -2.0120     0.8530    -1.7090 H     1 <1>   0.0800 
 27 H       -0.8630     2.1580    -1.6250 H     1 <1>   0.0800 
 28 H        2.8590    -0.0400    -0.8110 H     1 <1>   0.0800 
 29 H        2.9190    -0.0530     0.9300 H     1 <1>   0.0800 
 30 H       -3.3240     2.4420     1.6640 H     1 <1>   0.0800 
 31 H       -4.4380     1.1150     1.4900 H     1 <1>   0.0800 
 32 H       -3.1620     2.9700    -2.0380 H     1 <1>   0.0800 
 33 H       -2.5140     3.5950    -0.5460 H     1 <1>   0.0800 
 34 H        3.9370     2.2150     0.9130 H     1 <1>   0.0800 
 35 H        3.8770     2.2290    -0.8300 H     1 <1>   0.0800 
 36 H        5.4550     0.2530     0.8470 H     1 <1>   0.0800 
 37 H        6.1230     1.6000    -0.0400 H     1 <1>   0.0800 
 38 H        5.3940     0.2660    -0.9010 H     1 <1>   0.0800 
 39 H       -6.1690     1.3900    -1.4600 H     1 <1>   0.1500 
 40 H       -6.6750     5.8000     0.6320 H     1 <1>   0.1500 
 41 H       -8.3100     2.5940    -1.6060 H     1 <1>   0.1500 
 42 H       -3.3760     6.1020     2.0810 H     1 <1>   0.0800 
 43 H       -5.0910     5.8380     2.3760 H     1 <1>   0.0800 
 44 H       -4.5550     6.6930     0.9160 H     1 <1>   0.0800 
 45 H       -8.5430     4.8040    -0.5500 H     1 <1>   0.1500 
@<TRIPOS>BOND
  1   1   2  2   
  2   1   3  2   
  3   1   4  am  
  4   1   5  1   
  5   4   6  1   
  6   4   7  1   
  7   5   8  1   
  8   5  22  1   
  9   5  23  1   
 10   6   9  1   
 11   6  24  1   
 12   6  25  1   
 13   7  10  1   
 14   7  26  1   
 15   7  27  1   
 16   8  11  1   
 17   8  28  1   
 18   8  29  1   
 19   9  12  1   
 20   9  30  1   
 21   9  31  1   
 22  10  12  1   
 23  10  32  1   
 24  10  33  1   
 25  11  13  1   
 26  11  34  1   
 27  11  35  1   
 28  12  14  1   
 29  13  36  1   
 30  13  37  1   
 31  13  38  1   
 32  14  15  ar  
 33  14  16  ar  
 34  15  17  1   
 35  15  18  ar  
 36  16  19  ar  
 37  16  39  1   
 38  17  20  1   
 39  18  21  ar  
 40  18  40  1   
 41  19  21  ar  
 42  19  41  1   
 43  20  42  1   
 44  20  43  1   
 45  20  44  1   
 46  21  45  1   
@<TRIPOS>SUBSTRUCTURE
  1 ****  10 GROUP 4 **** **** 0

# MOE 2024.06 (io_trps.svl 2023.06)
