@<TRIPOS>MOLECULE
NONAME
50 52 1 0 0 
SMALL
USER_CHARGES


@<TRIPOS>ATOM
  1 O       -0.0720    -1.4070     1.9310 O.2   1 <1>  -0.5700 
  2 C        0.5520    -2.1700     1.2310 C.2   1 <1>   0.5690 
  3 N        0.0110    -3.0360     0.3200 N.am  1 <1>  -0.2370 
  4 C        2.0780    -2.3390     1.3270 C.3   1 <1>   0.2510 
  5 C       -1.3520    -3.0710    -0.0550 C.ar  1 <1>   0.1170 
  6 C        0.9830    -3.8850    -0.1320 C.2   1 <1>   0.5690 
  7 N        2.9190    -1.2430     0.7500 N.3   1 <1>  -0.8100 
  8 C        2.3150    -3.6220     0.5200 C.3   1 <1>  -0.0990 
  9 C       -2.0590    -4.2680    -0.0820 C.ar  1 <1>  -0.1500 
 10 C       -2.0210    -1.9010    -0.4010 C.ar  1 <1>  -0.1500 
 11 O        0.8460    -4.7690    -0.9380 O.2   1 <1>  -0.5700 
 12 C        4.3320    -1.4050     1.1650 C.3   1 <1>   0.1100 
 13 C        2.4350     0.1020     1.1280 C.3   1 <1>   0.1100 
 14 C       -3.3950    -4.3050    -0.4410 C.ar  1 <1>   0.0830 
 15 C       -3.3560    -1.9260    -0.7640 C.ar  1 <1>  -0.1500 
 16 C        5.2330    -0.3950     0.4410 C.3   1 <1>  -0.0190 
 17 C        3.2760     1.1880     0.4470 C.3   1 <1>  -0.1600 
 18 O       -3.9970    -5.5220    -0.4320 O.3   1 <1>  -0.3630 
 19 C       -4.0470    -3.1240    -0.7850 C.ar  1 <1>  -0.1500 
 20 C        6.6990    -0.6120     0.8260 C.2   1 <1>   0.6590 
 21 C        4.7680     1.0370     0.7660 C.3   1 <1>  -0.1600 
 22 C       -5.3440    -5.6770    -0.8180 C.3   1 <1>   0.0400 
 23 O        6.9860    -1.1080     1.8840 O.2   1 <1>  -0.5700 
 24 O        7.6690    -0.2420    -0.0060 O.3   1 <1>  -0.4300 
 25 C        7.5080     0.1910    -1.3360 C.3   1 <1>   0.1200 
 26 C        8.8910     0.5070    -1.8940 C.3   1 <1>  -0.2400 
 27 H        2.3340    -2.4870     2.3620 H     1 <1>   0.0800 
 28 H        2.5570    -4.4440     1.1670 H     1 <1>   0.0800 
 29 H        3.0680    -3.5120    -0.2390 H     1 <1>   0.0800 
 30 H       -1.5690    -5.1900     0.1730 H     1 <1>   0.1500 
 31 H       -1.4950    -0.9630    -0.3830 H     1 <1>   0.1500 
 32 H        4.6780    -2.3980     0.9320 H     1 <1>   0.0800 
 33 H        4.4170    -1.2680     2.2310 H     1 <1>   0.0800 
 34 H        2.4720     0.2210     2.1990 H     1 <1>   0.0800 
 35 H        1.4150     0.2350     0.8090 H     1 <1>   0.0800 
 36 H       -3.8570    -1.0110    -1.0270 H     1 <1>   0.1500 
 37 H        5.1150    -0.5800    -0.6100 H     1 <1>   0.0800 
 38 H        2.9330     2.1550     0.7720 H     1 <1>   0.0800 
 39 H        3.1210     1.1260    -0.6160 H     1 <1>   0.0800 
 40 H       -5.0820    -3.1180    -1.0670 H     1 <1>   0.1500 
 41 H        5.3340     1.7570     0.2040 H     1 <1>   0.0800 
 42 H        4.9290     1.2320     1.8130 H     1 <1>   0.0800 
 43 H       -5.5920    -6.7210    -0.7460 H     1 <1>   0.0800 
 44 H       -5.4560    -5.3440    -1.8350 H     1 <1>   0.0800 
 45 H       -5.9660    -5.1070    -0.1520 H     1 <1>   0.0800 
 46 H        6.8890     1.0710    -1.3460 H     1 <1>   0.0800 
 47 H        7.0440    -0.5990    -1.9020 H     1 <1>   0.0800 
 48 H        9.3550     1.2860    -1.3150 H     1 <1>   0.0800 
 49 H        8.8080     0.8390    -2.9120 H     1 <1>   0.0800 
 50 H        9.5100    -0.3730    -1.8700 H     1 <1>   0.0800 
@<TRIPOS>BOND
  1   1   2  2   
  2   2   3  am  
  3   2   4  1   
  4   3   5  1   
  5   3   6  am  
  6   4   7  1   
  7   4   8  1   
  8   4  27  1   
  9   5   9  ar  
 10   5  10  ar  
 11   6   8  1   
 12   6  11  2   
 13   7  12  1   
 14   7  13  1   
 15   8  28  1   
 16   8  29  1   
 17   9  14  ar  
 18   9  30  1   
 19  10  15  ar  
 20  10  31  1   
 21  12  16  1   
 22  12  32  1   
 23  12  33  1   
 24  13  17  1   
 25  13  34  1   
 26  13  35  1   
 27  14  18  1   
 28  14  19  ar  
 29  15  19  ar  
 30  15  36  1   
 31  16  20  1   
 32  16  21  1   
 33  16  37  1   
 34  17  21  1   
 35  17  38  1   
 36  17  39  1   
 37  18  22  1   
 38  19  40  1   
 39  20  23  2   
 40  20  24  1   
 41  21  41  1   
 42  21  42  1   
 43  22  43  1   
 44  22  44  1   
 45  22  45  1   
 46  24  25  1   
 47  25  26  1   
 48  25  46  1   
 49  25  47  1   
 50  26  48  1   
 51  26  49  1   
 52  26  50  1   
@<TRIPOS>SUBSTRUCTURE
  1 ****   4 GROUP 4 **** **** 0

# MOE 2024.06 (io_trps.svl 2023.06)
