@<TRIPOS>MOLECULE
NONAME
55 58 1 0 0 
SMALL
USER_CHARGES


@<TRIPOS>ATOM
  1 CL      -3.1310    -2.2910    -2.7030 Cl    1 <1>  -0.1770 
  2 C       -2.1390    -2.7150    -1.3200 C.ar  1 <1>   0.1770 
  3 C       -2.3290    -2.0980    -0.0760 C.ar  1 <1>   0.1000 
  4 C       -1.1670    -3.6790    -1.5110 C.ar  1 <1>  -0.1500 
  5 N       -3.2890    -1.1160     0.1970 N.pl3 1 <1>  -0.8380 
  6 C       -1.5000    -2.4940     0.9660 C.ar  1 <1>  -0.1500 
  7 C       -0.3540    -4.0540    -0.4540 C.ar  1 <1>  -0.1500 
  8 C       -3.1110     0.2110    -0.4550 C.3   1 <1>   0.2090 
  9 C       -4.7180    -1.5380     0.1820 C.3   1 <1>   0.2090 
 10 C       -0.5240    -3.4590     0.7840 C.ar  1 <1>  -0.1500 
 11 C       -4.0180     1.2600     0.2150 C.3   1 <1>   0.1100 
 12 C       -5.6170    -0.4580     0.8170 C.3   1 <1>   0.1100 
 13 N       -5.4590     0.8800     0.1780 N.3   1 <1>  -0.8100 
 14 C       -6.3080     1.9230     0.8250 C.3   1 <1>   0.2510 
 15 C       -7.7800     1.5470     1.0580 C.2   1 <1>   0.5690 
 16 C       -6.4240     3.1310    -0.1140 C.3   1 <1>  -0.0990 
 17 O       -8.1400     0.7970     1.9340 O.2   1 <1>  -0.5700 
 18 N       -8.6080     2.2180     0.2000 N.am  1 <1>  -0.2370 
 19 C       -7.8810     3.1450    -0.4970 C.2   1 <1>   0.5690 
 20 C       -9.9930     1.9900     0.0660 C.ar  1 <1>   0.1170 
 21 O       -8.3070     3.9230    -1.3110 O.2   1 <1>  -0.5700 
 22 C      -10.4980     0.6960    -0.0160 C.ar  1 <1>  -0.1500 
 23 C      -10.9000     3.0440     0.0110 C.ar  1 <1>  -0.1500 
 24 C      -11.8540     0.4660    -0.1470 C.ar  1 <1>  -0.1500 
 25 C      -12.2550     2.8100    -0.1200 C.ar  1 <1>  -0.1500 
 26 C      -12.7750     1.5160    -0.2020 C.ar  1 <1>   0.0860 
 27 C      -14.2000     1.2880    -0.3390 C.2   1 <1>   0.6340 
 28 O      -15.0180     2.1860    -0.3710 O.2   1 <1>  -0.5700 
 29 O      -14.6290     0.0260    -0.4340 O.3   1 <1>  -0.4300 
 30 C      -15.9990    -0.2810    -0.5680 C.3   1 <1>   0.1200 
 31 C      -16.1390    -1.7970    -0.6510 C.3   1 <1>  -0.2400 
 32 H       -1.0490    -4.1300    -2.4790 H     1 <1>   0.1500 
 33 H       -1.6320    -2.0330     1.9280 H     1 <1>   0.1500 
 34 H        0.4060    -4.8030    -0.5950 H     1 <1>   0.1500 
 35 H       -3.3600     0.1450    -1.4990 H     1 <1>   0.0800 
 36 H       -2.0830     0.5130    -0.3690 H     1 <1>   0.0800 
 37 H       -4.8230    -2.4590     0.7280 H     1 <1>   0.0800 
 38 H       -5.0390    -1.7090    -0.8300 H     1 <1>   0.0800 
 39 H        0.1050    -3.7460     1.6090 H     1 <1>   0.1500 
 40 H       -3.8700     2.1970    -0.2900 H     1 <1>   0.0800 
 41 H       -3.6990     1.3770     1.2360 H     1 <1>   0.0800 
 42 H       -5.3870    -0.3930     1.8670 H     1 <1>   0.0800 
 43 H       -6.6340    -0.7920     0.7180 H     1 <1>   0.0800 
 44 H       -5.8760     2.2110     1.7690 H     1 <1>   0.0800 
 45 H       -5.8250     3.0390    -1.0010 H     1 <1>   0.0800 
 46 H       -6.1880     4.0430     0.4010 H     1 <1>   0.0800 
 47 H       -9.8220    -0.1400     0.0260 H     1 <1>   0.1500 
 48 H      -10.5420     4.0570     0.0670 H     1 <1>   0.1500 
 49 H      -12.2070    -0.5500    -0.2050 H     1 <1>   0.1500 
 50 H      -12.9320     3.6470    -0.1610 H     1 <1>   0.1500 
 51 H      -16.3680     0.1920    -1.4630 H     1 <1>   0.0800 
 52 H      -16.5210     0.1110     0.2890 H     1 <1>   0.0800 
 53 H      -15.6030    -2.1730    -1.5040 H     1 <1>   0.0800 
 54 H      -17.1760    -2.0600    -0.7550 H     1 <1>   0.0800 
 55 H      -15.7570    -2.2540     0.2450 H     1 <1>   0.0800 
@<TRIPOS>BOND
  1   1   2  1   
  2   2   3  ar  
  3   2   4  ar  
  4   3   5  1   
  5   3   6  ar  
  6   4   7  ar  
  7   4  32  1   
  8   5   8  1   
  9   5   9  1   
 10   6  10  ar  
 11   6  33  1   
 12   7  10  ar  
 13   7  34  1   
 14   8  11  1   
 15   8  35  1   
 16   8  36  1   
 17   9  12  1   
 18   9  37  1   
 19   9  38  1   
 20  10  39  1   
 21  11  13  1   
 22  11  40  1   
 23  11  41  1   
 24  12  13  1   
 25  12  42  1   
 26  12  43  1   
 27  13  14  1   
 28  14  15  1   
 29  14  16  1   
 30  14  44  1   
 31  15  17  2   
 32  15  18  am  
 33  16  19  1   
 34  16  45  1   
 35  16  46  1   
 36  18  19  am  
 37  18  20  1   
 38  19  21  2   
 39  20  22  ar  
 40  20  23  ar  
 41  22  24  ar  
 42  22  47  1   
 43  23  25  ar  
 44  23  48  1   
 45  24  26  ar  
 46  24  49  1   
 47  25  26  ar  
 48  25  50  1   
 49  26  27  1   
 50  27  28  2   
 51  27  29  1   
 52  29  30  1   
 53  30  31  1   
 54  30  51  1   
 55  30  52  1   
 56  31  53  1   
 57  31  54  1   
 58  31  55  1   
@<TRIPOS>SUBSTRUCTURE
  1 ****  15 GROUP 4 **** **** 0

# MOE 2024.06 (io_trps.svl 2023.06)
