@<TRIPOS>MOLECULE
NONAME
29 29 1 0 0 
SMALL
USER_CHARGES


@<TRIPOS>ATOM
  1 S        0.1390    -0.0220     0.4680 S.o2  1 <1>   1.3330 
  2 O        0.2460    -1.3820    -0.0050 O.2   1 <1>  -0.6500 
  3 O        0.0700     0.2710     1.8780 O.2   1 <1>  -0.6500 
  4 N        1.5010     0.8100    -0.0360 N.am  1 <1>  -0.9140 
  5 C       -1.1910     0.8160    -0.4050 C.3   1 <1>  -0.0550 
  6 C        2.7010    -0.0160    -0.0210 C.3   1 <1>   0.1960 
  7 C       -2.5980     0.2830    -0.0820 C.3   1 <1>  -0.2400 
  8 C        3.9180     0.8330    -0.3870 C.3   1 <1>  -0.0170 
  9 C        5.1800    -0.0150    -0.3520 C.ar  1 <1>  -0.1430 
 10 C        5.9330    -0.0950     0.8130 C.ar  1 <1>  -0.1500 
 11 C        5.5760    -0.7150    -1.4850 C.ar  1 <1>  -0.1500 
 12 C        7.0800    -0.8710     0.8500 C.ar  1 <1>  -0.1500 
 13 C        6.7210    -1.4930    -1.4600 C.ar  1 <1>  -0.1500 
 14 C        7.4520    -1.5560    -0.2900 C.ar  1 <1>   0.1900 
 15 F        8.5330    -2.2890    -0.2600 F     1 <1>  -0.1900 
 16 H        1.6180     1.5120     0.6940 H     1 <1>   0.4200 
 17 H       -1.0240     0.7190    -1.4610 H     1 <1>   0.0800 
 18 H       -1.1590     1.8610    -0.1670 H     1 <1>   0.0800 
 19 H        2.6000    -0.8180    -0.7350 H     1 <1>   0.0800 
 20 H        2.8380    -0.4490     0.9570 H     1 <1>   0.0800 
 21 H       -2.6670    -0.7600    -0.3390 H     1 <1>   0.0800 
 22 H       -3.3410     0.8270    -0.6380 H     1 <1>   0.0800 
 23 H       -2.8040     0.3910     0.9700 H     1 <1>   0.0800 
 24 H        4.0150     1.6490     0.3060 H     1 <1>   0.0800 
 25 H        3.7850     1.2410    -1.3730 H     1 <1>   0.0800 
 26 H        5.6320     0.4430     1.6950 H     1 <1>   0.1500 
 27 H        4.9960    -0.6580    -2.3910 H     1 <1>   0.1500 
 28 H        7.6760    -0.9450     1.7420 H     1 <1>   0.1500 
 29 H        7.0430    -2.0420    -2.3270 H     1 <1>   0.1500 
@<TRIPOS>BOND
  1   1   2  2   
  2   1   3  2   
  3   1   4  am  
  4   1   5  1   
  5   4   6  1   
  6   4  16  1   
  7   5   7  1   
  8   5  17  1   
  9   5  18  1   
 10   6   8  1   
 11   6  19  1   
 12   6  20  1   
 13   7  21  1   
 14   7  22  1   
 15   7  23  1   
 16   8   9  1   
 17   8  24  1   
 18   8  25  1   
 19   9  10  ar  
 20   9  11  ar  
 21  10  12  ar  
 22  10  26  1   
 23  11  13  ar  
 24  11  27  1   
 25  12  14  ar  
 26  12  28  1   
 27  13  14  ar  
 28  13  29  1   
 29  14  15  1   
@<TRIPOS>SUBSTRUCTURE
  1 ****   6 GROUP 4 **** **** 0

# MOE 2024.06 (io_trps.svl 2023.06)
