@<TRIPOS>MOLECULE
NONAME
41 42 1 0 0 
SMALL
USER_CHARGES


@<TRIPOS>ATOM
  1 O        0.7380    -0.3880     0.9360 O.3   1 <1>  -0.3630 
  2 C        0.7220    -1.5900     0.3190 C.ar  1 <1>   0.0830 
  3 C        0.0090     0.6410     0.3050 C.3   1 <1>   0.0400 
  4 C        1.7070    -1.8980    -0.6160 C.ar  1 <1>  -0.1440 
  5 C       -0.2700    -2.5150     0.6350 C.ar  1 <1>  -0.1440 
  6 C        1.6810    -3.1310    -1.2440 C.ar  1 <1>  -0.1500 
  7 C        2.8100    -0.9050    -0.9580 C.3   1 <1>  -0.0960 
  8 C       -0.2770    -3.7420    -0.0050 C.ar  1 <1>  -0.1500 
  9 C       -1.3430    -2.2030     1.6700 C.3   1 <1>  -0.0970 
 10 C        0.6990    -4.0600    -0.9360 C.ar  1 <1>  -0.1430 
 11 C        0.7130    -5.4350    -1.5830 C.3   1 <1>  -0.0170 
 12 C        1.1740    -6.4920    -0.5620 C.3   1 <1>  -0.0800 
 13 C        2.4440    -6.0240     0.1700 C.3   1 <1>   0.3430 
 14 C        1.3910    -7.8560    -1.2390 C.3   1 <1>  -0.1600 
 15 N        2.9030    -7.0670     1.1300 N.4   1 <1>  -0.9060 
 16 C        1.9420    -8.8810    -0.2360 C.3   1 <1>  -0.1600 
 17 C        3.1980    -8.3690     0.4740 C.3   1 <1>   0.3430 
 18 H       -1.0230     0.3500     0.2410 H     1 <1>   0.0800 
 19 H        0.4110     0.8020    -0.6790 H     1 <1>   0.0800 
 20 H        0.1070     1.5340     0.8950 H     1 <1>   0.0800 
 21 H        2.4330    -3.3630    -1.9760 H     1 <1>   0.1500 
 22 H        3.1670    -0.4240    -0.0640 H     1 <1>   0.0800 
 23 H        2.4300    -0.1540    -1.6260 H     1 <1>   0.0800 
 24 H        3.6410    -1.3970    -1.4300 H     1 <1>   0.0800 
 25 H       -1.0500    -4.4540     0.2270 H     1 <1>   0.1500 
 26 H       -0.9120    -1.6850     2.5080 H     1 <1>   0.0800 
 27 H       -1.8020    -3.1050     2.0330 H     1 <1>   0.0800 
 28 H       -2.1020    -1.5820     1.2330 H     1 <1>   0.0800 
 29 H        1.3710    -5.4260    -2.4350 H     1 <1>   0.0800 
 30 H       -0.2750    -5.6730    -1.9400 H     1 <1>   0.0800 
 31 H        0.3910    -6.5920     0.1710 H     1 <1>   0.0800 
 32 H        2.2360    -5.1050     0.6980 H     1 <1>   0.0800 
 33 H        3.2180    -5.8250    -0.5540 H     1 <1>   0.0800 
 34 H        2.0870    -7.7520    -2.0560 H     1 <1>   0.0800 
 35 H        0.4610    -8.2160    -1.6480 H     1 <1>   0.0800 
 36 H        2.1680    -7.2050     1.8330 H     1 <1>   0.4500 
 37 H        3.7340    -6.7270     1.6300 H     1 <1>   0.4500 
 38 H        2.1810    -9.7930    -0.7560 H     1 <1>   0.0800 
 39 H        1.1890    -9.1200     0.4950 H     1 <1>   0.0800 
 40 H        3.5200    -9.0910     1.2080 H     1 <1>   0.0800 
 41 H        3.9900    -8.2420    -0.2470 H     1 <1>   0.0800 
@<TRIPOS>BOND
  1   1   2  1   
  2   1   3  1   
  3   2   4  ar  
  4   2   5  ar  
  5   3  18  1   
  6   3  19  1   
  7   3  20  1   
  8   4   6  ar  
  9   4   7  1   
 10   5   8  ar  
 11   5   9  1   
 12   6  10  ar  
 13   6  21  1   
 14   7  22  1   
 15   7  23  1   
 16   7  24  1   
 17   8  10  ar  
 18   8  25  1   
 19   9  26  1   
 20   9  27  1   
 21   9  28  1   
 22  10  11  1   
 23  11  12  1   
 24  11  29  1   
 25  11  30  1   
 26  12  13  1   
 27  12  14  1   
 28  12  31  1   
 29  13  15  1   
 30  13  32  1   
 31  13  33  1   
 32  14  16  1   
 33  14  34  1   
 34  14  35  1   
 35  15  17  1   
 36  15  36  1   
 37  15  37  1   
 38  16  17  1   
 39  16  38  1   
 40  16  39  1   
 41  17  40  1   
 42  17  41  1   
@<TRIPOS>SUBSTRUCTURE
  1 ****  10 GROUP 4 **** **** 0

# MOE 2024.06 (io_trps.svl 2023.06)
