@<TRIPOS>MOLECULE
NONAME
38 38 1 0 0 
SMALL
USER_CHARGES


@<TRIPOS>ATOM
  1 O        2.0070    -5.3270     1.5720 O.3   1 <1>  -0.3630 
  2 C        1.3320    -5.8920     0.5380 C.ar  1 <1>   0.0830 
  3 C        3.4030    -5.5390     1.6560 C.3   1 <1>   0.1200 
  4 C        0.6610    -5.0760    -0.3730 C.ar  1 <1>   0.0830 
  5 C        1.2930    -7.2710     0.3980 C.ar  1 <1>  -0.1500 
  6 C        4.1220    -4.2480     1.2420 C.3   1 <1>   0.3430 
  7 O        0.7170    -3.7270    -0.2140 O.3   1 <1>  -0.3630 
  8 C       -0.0260    -5.6520    -1.4330 C.ar  1 <1>  -0.1500 
  9 C        0.6030    -7.8370    -0.6600 C.ar  1 <1>  -0.1500 
 10 N        3.5720    -3.7240    -0.0390 N.4   1 <1>  -0.9060 
 11 C       -0.4950    -3.0070    -0.3060 C.3   1 <1>   0.1200 
 12 C       -0.0530    -7.0290    -1.5740 C.ar  1 <1>  -0.1500 
 13 C        4.0250    -2.3660    -0.3870 C.3   1 <1>   0.3430 
 14 C       -0.2690    -1.6140     0.2820 C.3   1 <1>  -0.1600 
 15 C        3.4370    -2.0060    -1.7420 C.3   1 <1>  -0.2400 
 16 C       -1.5510    -0.7760     0.2260 C.3   1 <1>  -0.2400 
 17 H        3.6900    -6.3600     1.0230 H     1 <1>   0.0800 
 18 H        3.6370    -5.7880     2.6770 H     1 <1>   0.0800 
 19 H        1.7840    -7.9040     1.1150 H     1 <1>   0.1500 
 20 H        5.1790    -4.4340     1.1490 H     1 <1>   0.0800 
 21 H        3.9780    -3.5170     2.0220 H     1 <1>   0.0800 
 22 H       -0.5380    -5.0420    -2.1550 H     1 <1>   0.1500 
 23 H        0.5700    -8.9080    -0.7710 H     1 <1>   0.1500 
 24 H        2.5340    -3.7230     0.0550 H     1 <1>   0.4500 
 25 H        3.7570    -4.3740    -0.8110 H     1 <1>   0.4500 
 26 H       -1.2500    -3.5360     0.2520 H     1 <1>   0.0800 
 27 H       -0.7820    -2.9420    -1.3400 H     1 <1>   0.0800 
 28 H       -0.5880    -7.4760    -2.3960 H     1 <1>   0.1500 
 29 H        5.1020    -2.3330    -0.4360 H     1 <1>   0.0800 
 30 H        3.6900    -1.6620     0.3590 H     1 <1>   0.0800 
 31 H        0.5020    -1.1080    -0.2720 H     1 <1>   0.0800 
 32 H        0.0420    -1.7080     1.3080 H     1 <1>   0.0800 
 33 H        3.7910    -2.6760    -2.5050 H     1 <1>   0.0800 
 34 H        3.7410    -1.0090    -2.0080 H     1 <1>   0.0800 
 35 H        2.3620    -2.0280    -1.7130 H     1 <1>   0.0800 
 36 H       -1.8790    -0.6520    -0.7920 H     1 <1>   0.0800 
 37 H       -1.3740     0.1980     0.6470 H     1 <1>   0.0800 
 38 H       -2.3370    -1.2500     0.7880 H     1 <1>   0.0800 
@<TRIPOS>BOND
  1   1   2  1   
  2   1   3  1   
  3   2   4  ar  
  4   2   5  ar  
  5   3   6  1   
  6   3  17  1   
  7   3  18  1   
  8   4   7  1   
  9   4   8  ar  
 10   5   9  ar  
 11   5  19  1   
 12   6  10  1   
 13   6  20  1   
 14   6  21  1   
 15   7  11  1   
 16   8  12  ar  
 17   8  22  1   
 18   9  12  ar  
 19   9  23  1   
 20  10  13  1   
 21  10  24  1   
 22  10  25  1   
 23  11  14  1   
 24  11  26  1   
 25  11  27  1   
 26  12  28  1   
 27  13  15  1   
 28  13  29  1   
 29  13  30  1   
 30  14  16  1   
 31  14  31  1   
 32  14  32  1   
 33  15  33  1   
 34  15  34  1   
 35  15  35  1   
 36  16  36  1   
 37  16  37  1   
 38  16  38  1   
@<TRIPOS>SUBSTRUCTURE
  1 ****   7 GROUP 4 **** **** 0

# MOE 2024.06 (io_trps.svl 2023.06)
