@<TRIPOS>MOLECULE
NONAME
20 20 1 0 0 
SMALL
USER_CHARGES


@<TRIPOS>ATOM
  1 F        0.7880    -0.3790     1.2400 F     1 <1>  -0.3400 
  2 C        1.2800    -0.5840     0.0220 C.3   1 <1>   1.2010 
  3 F        0.2590    -0.9610    -0.7450 F     1 <1>  -0.3400 
  4 F        1.6280     0.6200    -0.4290 F     1 <1>  -0.3400 
  5 C        2.4580    -1.6080    -0.0030 C.2   1 <1>   0.1080 
  6 N        3.7140    -1.2950    -0.2120 N.2   1 <1>  -0.7070 
  7 C        2.3000    -2.9990     0.1770 C.2   1 <1>  -0.0860 
  8 N        4.3870    -2.4510    -0.1680 N.pl3 1 <1>   0.3000 
  9 C        3.5740    -3.4890     0.0670 C.2   1 <1>  -0.3320 
 10 C        1.0550    -3.6830     0.4180 C.2   1 <1>   0.5950 
 11 C        4.1100    -4.9080     0.1980 C.3   1 <1>  -0.0600 
 12 O        0.1650    -3.2160     1.0780 O.2   1 <1>  -0.5700 
 13 C        0.8120    -5.0480    -0.1860 C.3   1 <1>  -0.1790 
 14 H        5.4080    -2.4870    -0.2940 H     1 <1>   0.2700 
 15 H        5.0090    -4.9130     0.7880 H     1 <1>   0.0800 
 16 H        3.3980    -5.5480     0.6850 H     1 <1>   0.0800 
 17 H        4.3330    -5.3130    -0.7740 H     1 <1>   0.0800 
 18 H       -0.2030    -5.1070    -0.5330 H     1 <1>   0.0800 
 19 H        1.4710    -5.2170    -1.0170 H     1 <1>   0.0800 
 20 H        0.9660    -5.8040     0.5610 H     1 <1>   0.0800 
@<TRIPOS>BOND
  1   1   2  1   
  2   2   3  1   
  3   2   4  1   
  4   2   5  1   
  5   5   6  2   
  6   5   7  1   
  7   6   8  1   
  8   7   9  2   
  9   7  10  1   
 10   8   9  1   
 11   8  14  1   
 12   9  11  1   
 13  10  12  2   
 14  10  13  1   
 15  11  15  1   
 16  11  16  1   
 17  11  17  1   
 18  13  18  1   
 19  13  19  1   
 20  13  20  1   
@<TRIPOS>SUBSTRUCTURE
  1 ****   7 GROUP 4 **** **** 0

# MOE 2024.06 (io_trps.svl 2023.06)
