@<TRIPOS>MOLECULE
NONAME
46 48 1 0 0 
SMALL
USER_CHARGES


@<TRIPOS>ATOM
  1 F       -1.1340     2.6250    -2.0770 F     1 <1>  -0.1900 
  2 C       -0.8090     2.5690    -0.8120 C.ar  1 <1>   0.1900 
  3 C       -1.7570     2.1210     0.0990 C.ar  1 <1>  -0.1440 
  4 C        0.4630     2.9750    -0.4430 C.ar  1 <1>  -0.1500 
  5 C       -1.4040     2.0800     1.4420 C.ar  1 <1>  -0.1500 
  6 C       -3.1320     1.6870    -0.3700 C.3   1 <1>   0.4870 
  7 C        0.8090     2.9340     0.8980 C.ar  1 <1>  -0.1500 
  8 C       -0.1330     2.4890     1.8110 C.ar  1 <1>   0.1900 
  9 N       -3.8600     2.8660    -0.9100 N.4   1 <1>  -0.9590 
 10 F        0.1870     2.4540     3.0750 F     1 <1>  -0.1900 
 11 C       -4.0920     3.9300     0.1370 C.3   1 <1>   0.3430 
 12 C       -5.1520     2.4720    -1.5800 C.3   1 <1>   0.3430 
 13 C       -4.8190     5.1690    -0.4250 C.3   1 <1>   0.2090 
 14 C       -5.9020     3.6800    -2.1800 C.3   1 <1>   0.2090 
 15 N       -6.0380     4.7900    -1.1940 N.pl3 1 <1>  -0.8380 
 16 C       -7.2740     4.9510    -0.5690 C.ar  1 <1>   0.1000 
 17 C       -8.1270     5.9930    -0.9350 C.ar  1 <1>  -0.1430 
 18 C       -7.6750     4.0720     0.4330 C.ar  1 <1>  -0.1500 
 19 C       -9.3490     6.1340    -0.3010 C.ar  1 <1>  -0.1500 
 20 C       -7.7300     6.9790    -2.0250 C.3   1 <1>  -0.0970 
 21 C       -8.8960     4.2140     1.0660 C.ar  1 <1>  -0.1430 
 22 C       -9.7330     5.2510     0.6940 C.ar  1 <1>  -0.1500 
 23 C       -9.3340     3.2560     2.1590 C.3   1 <1>  -0.0970 
 24 H        1.1660     3.3120    -1.1860 H     1 <1>   0.1500 
 25 H       -2.0820     1.7380     2.2050 H     1 <1>   0.1500 
 26 H       -3.6820     1.2530     0.4490 H     1 <1>   0.0800 
 27 H       -3.0200     0.9400    -1.1400 H     1 <1>   0.0800 
 28 H        1.7850     3.2390     1.2340 H     1 <1>   0.1500 
 29 H       -3.2500     3.2800    -1.6310 H     1 <1>   0.4500 
 30 H       -3.1520     4.2440     0.5600 H     1 <1>   0.0800 
 31 H       -4.6930     3.5260     0.9350 H     1 <1>   0.0800 
 32 H       -5.8030     2.0040    -0.8610 H     1 <1>   0.0800 
 33 H       -4.9600     1.7590    -2.3640 H     1 <1>   0.0800 
 34 H       -4.1560     5.7210    -1.0680 H     1 <1>   0.0800 
 35 H       -5.0980     5.8190     0.3880 H     1 <1>   0.0800 
 36 H       -6.8820     3.3680    -2.5030 H     1 <1>   0.0800 
 37 H       -5.3770     4.0430    -3.0460 H     1 <1>   0.0800 
 38 H       -7.0250     3.2720     0.7190 H     1 <1>   0.1500 
 39 H      -10.0140     6.9330    -0.5750 H     1 <1>   0.1500 
 40 H       -7.5650     6.4530    -2.9480 H     1 <1>   0.0800 
 41 H       -6.8230     7.4820    -1.7470 H     1 <1>   0.0800 
 42 H       -8.4970     7.7150    -2.1820 H     1 <1>   0.0800 
 43 H      -10.6870     5.3770     1.1760 H     1 <1>   0.1500 
 44 H       -8.6390     2.4430     2.2660 H     1 <1>   0.0800 
 45 H      -10.3010     2.8490     1.9230 H     1 <1>   0.0800 
 46 H       -9.4000     3.7790     3.0960 H     1 <1>   0.0800 
@<TRIPOS>BOND
  1   1   2  1   
  2   2   3  ar  
  3   2   4  ar  
  4   3   5  ar  
  5   3   6  1   
  6   4   7  ar  
  7   4  24  1   
  8   5   8  ar  
  9   5  25  1   
 10   6   9  1   
 11   6  26  1   
 12   6  27  1   
 13   7   8  ar  
 14   7  28  1   
 15   8  10  1   
 16   9  11  1   
 17   9  12  1   
 18   9  29  1   
 19  11  13  1   
 20  11  30  1   
 21  11  31  1   
 22  12  14  1   
 23  12  32  1   
 24  12  33  1   
 25  13  15  1   
 26  13  34  1   
 27  13  35  1   
 28  14  15  1   
 29  14  36  1   
 30  14  37  1   
 31  15  16  1   
 32  16  17  ar  
 33  16  18  ar  
 34  17  19  ar  
 35  17  20  1   
 36  18  21  ar  
 37  18  38  1   
 38  19  22  ar  
 39  19  39  1   
 40  20  40  1   
 41  20  41  1   
 42  20  42  1   
 43  21  22  ar  
 44  21  23  1   
 45  22  43  1   
 46  23  44  1   
 47  23  45  1   
 48  23  46  1   
@<TRIPOS>SUBSTRUCTURE
  1 ****  11 GROUP 4 **** **** 0

# MOE 2024.06 (io_trps.svl 2023.06)
