@<TRIPOS>MOLECULE
NONAME
53 55 1 0 0 
SMALL
USER_CHARGES


@<TRIPOS>ATOM
  1 N       -0.1190     0.2770     0.2580 N.4   1 <1>  -0.9590 
  2 C        1.0350     1.1060    -0.1950 C.3   1 <1>   0.4230 
  3 C       -1.4420     0.9010    -0.0060 C.3   1 <1>   0.3430 
  4 C       -0.0690    -0.2770     1.6350 C.3   1 <1>   0.3430 
  5 C        2.2920     0.2410    -0.3060 C.3   1 <1>  -0.1600 
  6 C        1.2900     2.3090     0.7230 C.3   1 <1>  -0.1600 
  7 C       -1.9830     0.3180    -1.3070 C.3   1 <1>  -0.1600 
  8 C       -0.2410    -1.7930     1.5510 C.3   1 <1>  -0.1600 
  9 C        3.4790     1.0700    -0.7940 C.3   1 <1>   0.3430 
 10 C        2.4860     3.1240     0.2270 C.3   1 <1>   0.3430 
 11 C       -2.5610    -1.1050    -1.1780 C.3   1 <1>  -0.1600 
 12 C       -1.5590    -2.2770     0.9120 C.3   1 <1>  -0.1600 
 13 N        3.6830     2.2460     0.1050 N.4   1 <1>  -0.9590 
 14 C       -1.6320    -2.2070    -0.6300 C.3   1 <1>  -0.1600 
 15 C        4.8850     3.0320    -0.3140 C.3   1 <1>   0.4860 
 16 C        6.1030     2.1470    -0.1500 C.ar  1 <1>  -0.1430 
 17 C        6.6040     1.8720     1.1150 C.ar  1 <1>  -0.1500 
 18 C        6.7220     1.5960    -1.2640 C.ar  1 <1>  -0.1500 
 19 C        7.6980     1.0390     1.2640 C.ar  1 <1>  -0.1500 
 20 C        7.8160     0.7630    -1.1120 C.ar  1 <1>  -0.1500 
 21 C        8.3030     0.4830     0.1520 C.ar  1 <1>  -0.1500 
 22 H       -0.1510    -0.5680    -0.3320 H     1 <1>   0.4500 
 23 H        0.8090     1.4800    -1.1820 H     1 <1>   0.0800 
 24 H       -1.3460     1.9710    -0.0900 H     1 <1>   0.0800 
 25 H       -2.1360     0.6820     0.7910 H     1 <1>   0.0800 
 26 H       -0.8530     0.1470     2.2430 H     1 <1>   0.0800 
 27 H        0.8760    -0.0550     2.1010 H     1 <1>   0.0800 
 28 H        2.1240    -0.5540    -1.0110 H     1 <1>   0.0800 
 29 H        2.5490    -0.2000     0.6410 H     1 <1>   0.0800 
 30 H        1.4850     1.9960     1.7320 H     1 <1>   0.0800 
 31 H        0.4290     2.9530     0.7330 H     1 <1>   0.0800 
 32 H       -1.2310     0.3460    -2.0770 H     1 <1>   0.0800 
 33 H       -2.7840     0.9560    -1.6390 H     1 <1>   0.0800 
 34 H       -0.2160    -2.1670     2.5610 H     1 <1>   0.0800 
 35 H        0.5990    -2.2350     1.0450 H     1 <1>   0.0800 
 36 H        3.3010     1.4080    -1.8030 H     1 <1>   0.0800 
 37 H        4.3660     0.4530    -0.8020 H     1 <1>   0.0800 
 38 H        2.6870     3.9270     0.9200 H     1 <1>   0.0800 
 39 H        2.2560     3.5610    -0.7330 H     1 <1>   0.0800 
 40 H       -2.8730    -1.4070    -2.1660 H     1 <1>   0.0800 
 41 H       -3.4610    -1.0720    -0.5850 H     1 <1>   0.0800 
 42 H       -2.3990    -1.7750     1.3620 H     1 <1>   0.0800 
 43 H       -1.6630    -3.3170     1.1800 H     1 <1>   0.0800 
 44 H        3.9400     1.8800     1.0330 H     1 <1>   0.4500 
 45 H       -0.6580    -2.1700    -1.0850 H     1 <1>   0.0800 
 46 H       -2.0630    -3.1410    -0.9530 H     1 <1>   0.0800 
 47 H        4.9990     3.9060     0.3070 H     1 <1>   0.0800 
 48 H        4.7940     3.3500    -1.3400 H     1 <1>   0.0800 
 49 H        6.1630     2.3010     1.9990 H     1 <1>   0.1500 
 50 H        6.3700     1.8050    -2.2610 H     1 <1>   0.1500 
 51 H        8.0890     0.8250     2.2450 H     1 <1>   0.1500 
 52 H        8.2980     0.3350    -1.9750 H     1 <1>   0.1500 
 53 H        9.1560    -0.1640     0.2690 H     1 <1>   0.1500 
@<TRIPOS>BOND
  1   1   2  1   
  2   1   3  1   
  3   1   4  1   
  4   1  22  1   
  5   2   5  1   
  6   2   6  1   
  7   2  23  1   
  8   3   7  1   
  9   3  24  1   
 10   3  25  1   
 11   4   8  1   
 12   4  26  1   
 13   4  27  1   
 14   5   9  1   
 15   5  28  1   
 16   5  29  1   
 17   6  10  1   
 18   6  30  1   
 19   6  31  1   
 20   7  11  1   
 21   7  32  1   
 22   7  33  1   
 23   8  12  1   
 24   8  34  1   
 25   8  35  1   
 26   9  13  1   
 27   9  36  1   
 28   9  37  1   
 29  10  13  1   
 30  10  38  1   
 31  10  39  1   
 32  11  14  1   
 33  11  40  1   
 34  11  41  1   
 35  12  14  1   
 36  12  42  1   
 37  12  43  1   
 38  13  15  1   
 39  13  44  1   
 40  14  45  1   
 41  14  46  1   
 42  15  16  1   
 43  15  47  1   
 44  15  48  1   
 45  16  17  ar  
 46  16  18  ar  
 47  17  19  ar  
 48  17  49  1   
 49  18  20  ar  
 50  18  50  1   
 51  19  21  ar  
 52  19  51  1   
 53  20  21  ar  
 54  20  52  1   
 55  21  53  1   
@<TRIPOS>SUBSTRUCTURE
  1 ****   5 GROUP 4 **** **** 0

# MOE 2024.06 (io_trps.svl 2023.06)
