@<TRIPOS>MOLECULE
NONAME
51 53 1 0 0 
SMALL
USER_CHARGES


@<TRIPOS>ATOM
  1 O        0.5530    -1.7210    -2.3040 O.3   1 <1>  -0.3630 
  2 C        0.0510    -2.5560    -1.3610 C.ar  1 <1>   0.0830 
  3 C        1.9020    -1.3050    -2.2780 C.3   1 <1>   0.0400 
  4 C        0.7620    -2.9890    -0.2470 C.ar  1 <1>  -0.1500 
  5 C       -1.2540    -2.9780    -1.5540 C.ar  1 <1>  -0.1500 
  6 C        0.1560    -3.8450     0.6670 C.ar  1 <1>   0.0830 
  7 C       -1.8660    -3.8240    -0.6420 C.ar  1 <1>  -0.1430 
  8 O        0.7630    -4.3180     1.7810 O.3   1 <1>  -0.3630 
  9 C       -1.1500    -4.2590     0.4620 C.ar  1 <1>  -0.1500 
 10 C       -3.3030    -4.2550    -0.8420 C.3   1 <1>   0.4860 
 11 C        2.1210    -4.0440     2.0550 C.3   1 <1>   0.0400 
 12 N       -4.1500    -3.4990     0.1170 N.4   1 <1>  -0.9590 
 13 C       -5.5710    -4.0010     0.1360 C.3   1 <1>   0.3430 
 14 C       -4.1030    -2.0110    -0.1450 C.3   1 <1>   0.3430 
 15 C       -6.4540    -3.2410     1.1470 C.3   1 <1>   0.2090 
 16 C       -4.9640    -1.2010     0.8460 C.3   1 <1>   0.2090 
 17 N       -6.3400    -1.7650     0.9780 N.pl3 1 <1>  -0.8380 
 18 C       -7.3820    -1.1090     0.3230 C.ar  1 <1>   0.1000 
 19 C       -8.3630    -0.4290     1.0460 C.ar  1 <1>  -0.1430 
 20 C       -7.4610    -1.1310    -1.0660 C.ar  1 <1>  -0.1500 
 21 C       -9.3940     0.2100     0.3760 C.ar  1 <1>  -0.1500 
 22 C       -8.3140    -0.3750     2.5660 C.3   1 <1>  -0.0970 
 23 C       -8.4920    -0.4920    -1.7280 C.ar  1 <1>  -0.1500 
 24 C       -9.4610     0.1800    -1.0060 C.ar  1 <1>  -0.1500 
 25 H        2.0780    -0.6890    -3.1420 H     1 <1>   0.0800 
 26 H        2.5370    -2.1730    -2.3150 H     1 <1>   0.0800 
 27 H        2.0760    -0.7360    -1.3830 H     1 <1>   0.0800 
 28 H        1.7700    -2.6640    -0.0920 H     1 <1>   0.1500 
 29 H       -1.7710    -2.6280    -2.4310 H     1 <1>   0.1500 
 30 H       -1.5820    -4.9270     1.1860 H     1 <1>   0.1500 
 31 H       -3.3850    -5.3150    -0.6590 H     1 <1>   0.0800 
 32 H       -3.6110    -4.0560    -1.8560 H     1 <1>   0.0800 
 33 H        2.3880    -4.5530     2.9640 H     1 <1>   0.0800 
 34 H        2.2470    -2.9840     2.1800 H     1 <1>   0.0800 
 35 H        2.7230    -4.4120     1.2430 H     1 <1>   0.0800 
 36 H       -3.7430    -3.6410     1.0490 H     1 <1>   0.4500 
 37 H       -5.5890    -5.0500     0.3790 H     1 <1>   0.0800 
 38 H       -6.0090    -3.8810    -0.8410 H     1 <1>   0.0800 
 39 H       -4.4610    -1.8090    -1.1410 H     1 <1>   0.0800 
 40 H       -3.0860    -1.6580    -0.0860 H     1 <1>   0.0800 
 41 H       -6.1690    -3.5020     2.1520 H     1 <1>   0.0800 
 42 H       -7.4820    -3.5360     1.0160 H     1 <1>   0.0800 
 43 H       -5.0270    -0.1790     0.5120 H     1 <1>   0.0800 
 44 H       -4.4940    -1.1950     1.8140 H     1 <1>   0.0800 
 45 H       -6.7170    -1.6480    -1.6350 H     1 <1>   0.1500 
 46 H      -10.1540     0.7370     0.9250 H     1 <1>   0.1500 
 47 H       -8.3930    -1.3680     2.9680 H     1 <1>   0.0800 
 48 H       -9.1170     0.2200     2.9610 H     1 <1>   0.0800 
 49 H       -7.3820     0.0550     2.8850 H     1 <1>   0.0800 
 50 H       -8.5460    -0.5120    -2.8030 H     1 <1>   0.1500 
 51 H      -10.2670     0.6800    -1.5160 H     1 <1>   0.1500 
@<TRIPOS>BOND
  1   1   2  1   
  2   1   3  1   
  3   2   4  ar  
  4   2   5  ar  
  5   3  25  1   
  6   3  26  1   
  7   3  27  1   
  8   4   6  ar  
  9   4  28  1   
 10   5   7  ar  
 11   5  29  1   
 12   6   8  1   
 13   6   9  ar  
 14   7   9  ar  
 15   7  10  1   
 16   8  11  1   
 17   9  30  1   
 18  10  12  1   
 19  10  31  1   
 20  10  32  1   
 21  11  33  1   
 22  11  34  1   
 23  11  35  1   
 24  12  13  1   
 25  12  14  1   
 26  12  36  1   
 27  13  15  1   
 28  13  37  1   
 29  13  38  1   
 30  14  16  1   
 31  14  39  1   
 32  14  40  1   
 33  15  17  1   
 34  15  41  1   
 35  15  42  1   
 36  16  17  1   
 37  16  43  1   
 38  16  44  1   
 39  17  18  1   
 40  18  19  ar  
 41  18  20  ar  
 42  19  21  ar  
 43  19  22  1   
 44  20  23  ar  
 45  20  45  1   
 46  21  24  ar  
 47  21  46  1   
 48  22  47  1   
 49  22  48  1   
 50  22  49  1   
 51  23  24  ar  
 52  23  50  1   
 53  24  51  1   
@<TRIPOS>SUBSTRUCTURE
  1 ****  14 GROUP 4 **** **** 0

# MOE 2024.06 (io_trps.svl 2023.06)
