@<TRIPOS>MOLECULE
NONAME
39 40 1 0 0 
SMALL
USER_CHARGES


@<TRIPOS>ATOM
  1 BR       0.0280    -0.4280     1.2420 Br    1 <1>  -0.1110 
  2 C       -1.6810    -1.0330     0.6010 C.ar  1 <1>   0.1110 
  3 C       -2.3020    -2.0830     1.2470 C.ar  1 <1>  -0.1500 
  4 C       -2.2440    -0.4020    -0.4910 C.ar  1 <1>  -0.1500 
  5 C       -3.5340    -2.5130     0.7840 C.ar  1 <1>  -0.1500 
  6 C       -3.4760    -0.8380    -0.9470 C.ar  1 <1>  -0.1500 
  7 C       -4.1280    -1.8890    -0.3090 C.ar  1 <1>  -0.1430 
  8 C       -5.4860    -2.3530    -0.8040 C.3   1 <1>   0.4870 
  9 N       -6.5290    -1.8600     0.1360 N.4   1 <1>  -0.9590 
 10 C       -7.8730    -2.4750    -0.1580 C.3   1 <1>   0.3430 
 11 C       -6.5900    -0.3500     0.1510 C.3   1 <1>   0.3430 
 12 C       -8.9750    -1.9570     0.7870 C.3   1 <1>   0.1400 
 13 C       -7.6790     0.1770     1.1020 C.3   1 <1>   0.1400 
 14 N       -8.9910    -0.4650     0.7940 N.am  1 <1>  -0.6600 
 15 C      -10.0770     0.2780     0.4080 C.2   1 <1>   0.7800 
 16 O      -10.0210     1.4840     0.2840 O.2   1 <1>  -0.5700 
 17 O      -11.2070    -0.3720     0.1400 O.3   1 <1>  -0.4300 
 18 C      -12.3680     0.3280    -0.2490 C.3   1 <1>   0.1200 
 19 C      -13.4800    -0.6900    -0.4820 C.3   1 <1>  -0.2400 
 20 H       -1.8230    -2.5520     2.0900 H     1 <1>   0.1500 
 21 H       -1.7230     0.4090    -0.9710 H     1 <1>   0.1500 
 22 H       -4.0120    -3.3390     1.2840 H     1 <1>   0.1500 
 23 H       -3.9120    -0.3510    -1.8040 H     1 <1>   0.1500 
 24 H       -5.4980    -3.4300    -0.8440 H     1 <1>   0.0800 
 25 H       -5.6670    -1.9730    -1.7970 H     1 <1>   0.0800 
 26 H       -6.2360    -2.1510     1.0770 H     1 <1>   0.4500 
 27 H       -7.8150    -3.5480    -0.0730 H     1 <1>   0.0800 
 28 H       -8.1640    -2.2400    -1.1700 H     1 <1>   0.0800 
 29 H       -6.8030     0.0150    -0.8410 H     1 <1>   0.0800 
 30 H       -5.6380     0.0540     0.4530 H     1 <1>   0.0800 
 31 H       -8.7990    -2.3140     1.7870 H     1 <1>   0.0800 
 32 H       -9.9250    -2.3500     0.4680 H     1 <1>   0.0800 
 33 H       -7.7470     1.2480     1.0010 H     1 <1>   0.0800 
 34 H       -7.4100    -0.0330     2.1220 H     1 <1>   0.0800 
 35 H      -12.1520     0.8780    -1.1500 H     1 <1>   0.0800 
 36 H      -12.6330     1.0150     0.5380 H     1 <1>   0.0800 
 37 H      -13.2020    -1.3740    -1.2630 H     1 <1>   0.0800 
 38 H      -14.3790    -0.1810    -0.7790 H     1 <1>   0.0800 
 39 H      -13.6800    -1.2350     0.4230 H     1 <1>   0.0800 
@<TRIPOS>BOND
  1   1   2  1   
  2   2   3  ar  
  3   2   4  ar  
  4   3   5  ar  
  5   3  20  1   
  6   4   6  ar  
  7   4  21  1   
  8   5   7  ar  
  9   5  22  1   
 10   6   7  ar  
 11   6  23  1   
 12   7   8  1   
 13   8   9  1   
 14   8  24  1   
 15   8  25  1   
 16   9  10  1   
 17   9  11  1   
 18   9  26  1   
 19  10  12  1   
 20  10  27  1   
 21  10  28  1   
 22  11  13  1   
 23  11  29  1   
 24  11  30  1   
 25  12  14  1   
 26  12  31  1   
 27  12  32  1   
 28  13  14  1   
 29  13  33  1   
 30  13  34  1   
 31  14  15  am  
 32  15  16  2   
 33  15  17  1   
 34  17  18  1   
 35  18  19  1   
 36  18  35  1   
 37  18  36  1   
 38  19  37  1   
 39  19  38  1   
 40  19  39  1   
@<TRIPOS>SUBSTRUCTURE
  1 ****  11 GROUP 4 **** **** 0

# MOE 2024.06 (io_trps.svl 2023.06)
