@<TRIPOS>MOLECULE
NONAME
33 33 1 0 0 
SMALL
USER_CHARGES


@<TRIPOS>ATOM
  1 S       -0.1280    -0.2360     0.0220 S.o2  1 <1>   1.3330 
  2 O       -1.0480    -0.0420     1.1130 O.2   1 <1>  -0.6500 
  3 O        0.1900    -1.5660    -0.4380 O.2   1 <1>  -0.6500 
  4 N        1.2970     0.4760     0.5380 N.am  1 <1>  -0.9140 
  5 C       -0.6140     0.7880    -1.3490 C.3   1 <1>  -0.1350 
  6 C        2.5040    -0.0660    -0.0780 C.3   1 <1>   0.1960 
  7 C        3.7220     0.7260     0.3930 C.3   1 <1>   0.0700 
  8 S        5.1890     0.0430    -0.4280 S.3   1 <1>  -0.4600 
  9 C        6.5620     0.9940     0.2760 C.3   1 <1>   0.1500 
 10 C        6.5680     2.3900    -0.3600 C.3   1 <1>  -0.1600 
 11 C        7.8540     0.2260    -0.0170 C.3   1 <1>  -0.1600 
 12 C        7.8010     3.1900     0.0850 C.3   1 <1>  -0.1600 
 13 C        9.0840     1.0270     0.4300 C.3   1 <1>  -0.1600 
 14 C        9.0980     2.4230    -0.2100 C.3   1 <1>  -0.1600 
 15 H        1.3160     0.2570     1.5340 H     1 <1>   0.4200 
 16 H       -1.5490     0.4450    -1.7480 H     1 <1>   0.0800 
 17 H        0.1260     0.7490    -2.1230 H     1 <1>   0.0800 
 18 H       -0.7280     1.8040    -1.0270 H     1 <1>   0.0800 
 19 H        2.4300     0.0070    -1.1500 H     1 <1>   0.0800 
 20 H        2.6220    -1.1040     0.1880 H     1 <1>   0.0800 
 21 H        3.8730     0.6270     1.4520 H     1 <1>   0.0800 
 22 H        3.6450     1.7600     0.1100 H     1 <1>   0.0800 
 23 H        6.3990     1.0580     1.3380 H     1 <1>   0.0800 
 24 H        5.6780     2.9250    -0.0820 H     1 <1>   0.0800 
 25 H        6.5800     2.2890    -1.4310 H     1 <1>   0.0800 
 26 H        7.9210     0.0370    -1.0750 H     1 <1>   0.0800 
 27 H        7.8320    -0.7220     0.4910 H     1 <1>   0.0800 
 28 H        7.7380     3.3870     1.1420 H     1 <1>   0.0800 
 29 H        7.8200     4.1370    -0.4270 H     1 <1>   0.0800 
 30 H        9.9790     0.4960     0.1560 H     1 <1>   0.0800 
 31 H        9.0750     1.1260     1.5030 H     1 <1>   0.0800 
 32 H        9.9400     2.9810     0.1620 H     1 <1>   0.0800 
 33 H        9.2160     2.3220    -1.2750 H     1 <1>   0.0800 
@<TRIPOS>BOND
  1   1   2  2   
  2   1   3  2   
  3   1   4  am  
  4   1   5  1   
  5   4   6  1   
  6   4  15  1   
  7   5  16  1   
  8   5  17  1   
  9   5  18  1   
 10   6   7  1   
 11   6  19  1   
 12   6  20  1   
 13   7   8  1   
 14   7  21  1   
 15   7  22  1   
 16   8   9  1   
 17   9  10  1   
 18   9  11  1   
 19   9  23  1   
 20  10  12  1   
 21  10  24  1   
 22  10  25  1   
 23  11  13  1   
 24  11  26  1   
 25  11  27  1   
 26  12  14  1   
 27  12  28  1   
 28  12  29  1   
 29  13  14  1   
 30  13  30  1   
 31  13  31  1   
 32  14  32  1   
 33  14  33  1   
@<TRIPOS>SUBSTRUCTURE
  1 ****   7 GROUP 4 **** **** 0

# MOE 2024.06 (io_trps.svl 2023.06)
