@<TRIPOS>MOLECULE
NONAME
28 30 1 0 0 
SMALL
USER_CHARGES


@<TRIPOS>ATOM
  1 O       -0.5830     0.0980    -0.4090 O.3   1 <1>  -0.5600 
  2 C       -1.1310     1.1340     0.3610 C.3   1 <1>   0.1200 
  3 C       -1.1790    -1.1470    -0.1770 C.3   1 <1>   0.1200 
  4 C       -2.6360     1.2960     0.0840 C.3   1 <1>   0.2090 
  5 C       -2.6860    -1.1070    -0.4930 C.3   1 <1>   0.2090 
  6 N       -3.3600    -0.0020     0.2540 N.pl3 1 <1>  -0.8220 
  7 C       -4.7430     0.0430     0.2620 C.2   1 <1>   0.2700 
  8 N       -5.4420     1.0770    -0.0900 N.2   1 <1>  -0.5650 
  9 N       -5.5060    -1.0120     0.6620 N.pl3 1 <1>   0.0330 
 10 C       -6.7410     0.6700     0.0820 C.ar  1 <1>   0.2270 
 11 C       -6.7860    -0.6140     0.5510 C.ar  1 <1>   0.1050 
 12 C       -7.9840     1.2960    -0.1120 C.ar  1 <1>   0.4100 
 13 N       -7.9100    -1.2770     0.8310 N.ar  1 <1>  -0.5670 
 14 N       -9.1120     0.6840     0.1590 N.ar  1 <1>  -0.6200 
 15 N       -8.0990     2.5710    -0.5790 N.pl3 1 <1>  -0.9000 
 16 C       -9.0000    -0.5730     0.6130 C.ar  1 <1>   0.4700 
 17 H       -0.6100     2.0400     0.1120 H     1 <1>   0.0800 
 18 H       -0.9650     0.9130     1.4010 H     1 <1>   0.0800 
 19 H       -1.0190    -1.4180     0.8520 H     1 <1>   0.0800 
 20 H       -0.6880    -1.8670    -0.8060 H     1 <1>   0.0800 
 21 H       -2.7780     1.6560    -0.9200 H     1 <1>   0.0800 
 22 H       -3.0470     2.0250     0.7600 H     1 <1>   0.0800 
 23 H       -3.1270    -2.0510    -0.2310 H     1 <1>   0.0800 
 24 H       -2.8210    -0.9540    -1.5500 H     1 <1>   0.0800 
 25 H       -5.1720    -1.8920     1.0470 H     1 <1>   0.2700 
 26 H       -8.9980     3.0360    -0.4570 H     1 <1>   0.4000 
 27 H       -7.2650     3.1620    -0.5800 H     1 <1>   0.4000 
 28 H       -9.9350    -1.0650     0.8260 H     1 <1>   0.1500 
@<TRIPOS>BOND
  1   1   2  1   
  2   1   3  1   
  3   2   4  1   
  4   2  17  1   
  5   2  18  1   
  6   3   5  1   
  7   3  19  1   
  8   3  20  1   
  9   4   6  1   
 10   4  21  1   
 11   4  22  1   
 12   5   6  1   
 13   5  23  1   
 14   5  24  1   
 15   6   7  1   
 16   7   8  2   
 17   7   9  1   
 18   8  10  1   
 19   9  11  1   
 20   9  25  1   
 21  10  11  ar  
 22  10  12  ar  
 23  11  13  ar  
 24  12  14  ar  
 25  12  15  1   
 26  13  16  ar  
 27  14  16  ar  
 28  15  26  1   
 29  15  27  1   
 30  16  28  1   
@<TRIPOS>SUBSTRUCTURE
  1 ****   7 GROUP 4 **** **** 0

# MOE 2024.06 (io_trps.svl 2023.06)
