@<TRIPOS>MOLECULE
NONAME
44 46 1 0 0 
SMALL
USER_CHARGES


@<TRIPOS>ATOM
  1 S       -0.4930    -0.1730    -1.1190 S.3   1 <1>  -0.3710 
  2 C       -1.8090    -1.0120    -0.2380 C.2   1 <1>   0.6510 
  3 C       -1.2720     1.3610    -1.7880 C.3   1 <1>   0.0700 
  4 N       -2.9450    -0.4230    -0.2590 N.2   1 <1>  -0.6290 
  5 N       -1.5260    -2.2180     0.3840 N.am  1 <1>  -0.4200 
  6 C       -0.2000     2.1330    -2.5530 C.3   1 <1>  -0.2400 
  7 C       -4.0090    -1.0150     0.3760 C.ar  1 <1>   0.1790 
  8 C       -2.5820    -2.8720     1.0000 C.2   1 <1>   0.5440 
  9 C       -0.1420    -2.8160     0.3810 C.3   1 <1>   0.2200 
 10 C       -3.8760    -2.2480     1.0190 C.ar  1 <1>   0.0860 
 11 C       -5.2420    -0.3710     0.3700 C.ar  1 <1>  -0.1500 
 12 O       -2.4250    -3.9640     1.5240 O.2   1 <1>  -0.5700 
 13 C       -0.0840    -4.1070    -0.4500 C.3   1 <1>  -0.1600 
 14 C        0.4270    -3.0190     1.8000 C.3   1 <1>  -0.1600 
 15 C       -4.9970    -2.8050     1.6430 C.ar  1 <1>  -0.1500 
 16 C       -6.3390    -0.9330     0.9900 C.ar  1 <1>  -0.1500 
 17 C        1.3510    -4.6780    -0.4730 C.3   1 <1>   0.2800 
 18 C        1.2930    -4.2800     1.8780 C.3   1 <1>   0.1200 
 19 C       -6.2150    -2.1570     1.6300 C.ar  1 <1>  -0.1500 
 20 O        2.0420    -4.3810     0.7060 O.3   1 <1>  -0.5600 
 21 C        1.3480    -6.1990    -0.6370 C.3   1 <1>  -0.2400 
 22 C        2.1740    -4.0410    -1.5940 C.3   1 <1>  -0.2400 
 23 H       -1.6500     1.9230    -0.9520 H     1 <1>   0.0800 
 24 H       -2.0830     1.0590    -2.4290 H     1 <1>   0.0800 
 25 H        0.6110     2.3910    -1.8950 H     1 <1>   0.0800 
 26 H       -0.6180     3.0360    -2.9580 H     1 <1>   0.0800 
 27 H        0.1800     1.5340    -3.3620 H     1 <1>   0.0800 
 28 H        0.5520    -2.1520    -0.0910 H     1 <1>   0.0800 
 29 H       -5.3260     0.5770    -0.1300 H     1 <1>   0.1500 
 30 H       -0.4170    -3.9160    -1.4540 H     1 <1>   0.0800 
 31 H       -0.7400    -4.8460    -0.0310 H     1 <1>   0.0800 
 32 H       -0.3410    -3.0920     2.5450 H     1 <1>   0.0800 
 33 H        1.0370    -2.1700     2.0510 H     1 <1>   0.0800 
 34 H       -4.9000    -3.7560     2.1390 H     1 <1>   0.1500 
 35 H       -7.2890    -0.4260     0.9800 H     1 <1>   0.1500 
 36 H        0.6880    -5.1650     1.9830 H     1 <1>   0.0800 
 37 H        1.9760    -4.2230     2.7080 H     1 <1>   0.0800 
 38 H       -7.0710    -2.5970     2.1150 H     1 <1>   0.1500 
 39 H        0.8040    -6.6670     0.1630 H     1 <1>   0.0800 
 40 H        2.3560    -6.5740    -0.6390 H     1 <1>   0.0800 
 41 H        0.8810    -6.4690    -1.5660 H     1 <1>   0.0800 
 42 H        2.2200    -2.9750    -1.4700 H     1 <1>   0.0800 
 43 H        1.7350    -4.2550    -2.5510 H     1 <1>   0.0800 
 44 H        3.1750    -4.4340    -1.5850 H     1 <1>   0.0800 
@<TRIPOS>BOND
  1   1   2  1   
  2   1   3  1   
  3   2   4  2   
  4   2   5  1   
  5   3   6  1   
  6   3  23  1   
  7   3  24  1   
  8   4   7  1   
  9   5   8  am  
 10   5   9  1   
 11   6  25  1   
 12   6  26  1   
 13   6  27  1   
 14   7  10  ar  
 15   7  11  ar  
 16   8  10  1   
 17   8  12  2   
 18   9  13  1   
 19   9  14  1   
 20   9  28  1   
 21  10  15  ar  
 22  11  16  ar  
 23  11  29  1   
 24  13  17  1   
 25  13  30  1   
 26  13  31  1   
 27  14  18  1   
 28  14  32  1   
 29  14  33  1   
 30  15  19  ar  
 31  15  34  1   
 32  16  19  ar  
 33  16  35  1   
 34  17  20  1   
 35  17  21  1   
 36  17  22  1   
 37  18  20  1   
 38  18  36  1   
 39  18  37  1   
 40  19  38  1   
 41  21  39  1   
 42  21  40  1   
 43  21  41  1   
 44  22  42  1   
 45  22  43  1   
 46  22  44  1   
@<TRIPOS>SUBSTRUCTURE
  1 ****   5 GROUP 4 **** **** 0

# MOE 2024.06 (io_trps.svl 2023.06)
