@<TRIPOS>MOLECULE
NONAME
45 46 1 0 0 
SMALL
USER_CHARGES


@<TRIPOS>ATOM
  1 O       -6.8580    -1.9960     0.0240 O.3   1 <1>  -0.3630 
  2 C       -8.2100    -1.9190    -0.0670 C.ar  1 <1>   0.0830 
  3 C       -6.2110    -3.2110     0.3330 C.3   1 <1>   0.1200 
  4 C       -8.7450    -0.6670    -0.3210 C.ar  1 <1>  -0.1500 
  5 C       -9.0610    -3.0120     0.0810 C.ar  1 <1>  -0.1500 
  6 C       -4.7000    -2.9550     0.3760 C.3   1 <1>   0.2000 
  7 C      -10.1140    -0.4930    -0.4310 C.ar  1 <1>  -0.1440 
  8 C      -10.4320    -2.8460    -0.0240 C.ar  1 <1>  -0.1440 
  9 O       -4.3140    -2.3160    -0.8040 O.3   1 <1>  -0.6800 
 10 C       -3.8790    -4.2520     0.5340 C.3   1 <1>   0.3430 
 11 C      -10.9510    -1.5870    -0.2810 C.ar  1 <1>  -0.1500 
 12 C      -10.7030     0.8780    -0.7090 C.3   1 <1>  -0.0970 
 13 C      -11.3690    -4.0300     0.1340 C.3   1 <1>  -0.0970 
 14 N       -2.4850    -4.0530     0.0290 N.4   1 <1>  -0.9590 
 15 C       -1.8640    -5.3130    -0.4650 C.3   1 <1>   0.3430 
 16 C       -1.6200    -3.3170     0.9940 C.3   1 <1>   0.3430 
 17 C       -0.5340    -4.9970    -1.1510 C.3   1 <1>  -0.1600 
 18 C       -0.2870    -2.9710     0.3280 C.3   1 <1>  -0.1600 
 19 C        0.4130    -4.2180    -0.2290 C.3   1 <1>  -0.1600 
 20 H       -6.4560    -3.9290    -0.4310 H     1 <1>   0.0800 
 21 H       -6.5700    -3.5520     1.2890 H     1 <1>   0.0800 
 22 H       -8.0820     0.1710    -0.4320 H     1 <1>   0.1500 
 23 H       -8.6790    -3.9940     0.2740 H     1 <1>   0.1500 
 24 H       -4.4850    -2.2880     1.1940 H     1 <1>   0.0800 
 25 H       -4.9970    -1.6380    -1.0250 H     1 <1>   0.4000 
 26 H       -4.3590    -5.0200    -0.0490 H     1 <1>   0.0800 
 27 H       -3.8730    -4.5730     1.5630 H     1 <1>   0.0800 
 28 H      -12.0160    -1.4560    -0.3650 H     1 <1>   0.1500 
 29 H       -9.9410     1.5630    -1.0340 H     1 <1>   0.0800 
 30 H      -11.1590     1.2650     0.1840 H     1 <1>   0.0800 
 31 H      -11.4490     0.8090    -1.4800 H     1 <1>   0.0800 
 32 H      -10.9030    -4.8120     0.7060 H     1 <1>   0.0800 
 33 H      -11.6320    -4.4170    -0.8340 H     1 <1>   0.0800 
 34 H      -12.2670    -3.7290     0.6430 H     1 <1>   0.0800 
 35 H       -2.6200    -3.4170    -0.7810 H     1 <1>   0.4500 
 36 H       -2.5220    -5.8000    -1.1680 H     1 <1>   0.0800 
 37 H       -1.6910    -5.9830     0.3620 H     1 <1>   0.0800 
 38 H       -1.4400    -3.9280     1.8630 H     1 <1>   0.0800 
 39 H       -2.1070    -2.4070     1.3070 H     1 <1>   0.0800 
 40 H       -0.7230    -4.4290    -2.0460 H     1 <1>   0.0800 
 41 H       -0.0640    -5.9180    -1.4490 H     1 <1>   0.0800 
 42 H        0.3540    -2.4940     1.0490 H     1 <1>   0.0800 
 43 H       -0.4610    -2.2640    -0.4650 H     1 <1>   0.0800 
 44 H        1.2970    -3.9280    -0.7730 H     1 <1>   0.0800 
 45 H        0.7240    -4.8510     0.5860 H     1 <1>   0.0800 
@<TRIPOS>BOND
  1   1   2  1   
  2   1   3  1   
  3   2   4  ar  
  4   2   5  ar  
  5   3   6  1   
  6   3  20  1   
  7   3  21  1   
  8   4   7  ar  
  9   4  22  1   
 10   5   8  ar  
 11   5  23  1   
 12   6   9  1   
 13   6  10  1   
 14   6  24  1   
 15   7  11  ar  
 16   7  12  1   
 17   8  11  ar  
 18   8  13  1   
 19   9  25  1   
 20  10  14  1   
 21  10  26  1   
 22  10  27  1   
 23  11  28  1   
 24  12  29  1   
 25  12  30  1   
 26  12  31  1   
 27  13  32  1   
 28  13  33  1   
 29  13  34  1   
 30  14  15  1   
 31  14  16  1   
 32  14  35  1   
 33  15  17  1   
 34  15  36  1   
 35  15  37  1   
 36  16  18  1   
 37  16  38  1   
 38  16  39  1   
 39  17  19  1   
 40  17  40  1   
 41  17  41  1   
 42  18  19  1   
 43  18  42  1   
 44  18  43  1   
 45  19  44  1   
 46  19  45  1   
@<TRIPOS>SUBSTRUCTURE
  1 ****   3 GROUP 4 **** **** 0

# MOE 2024.06 (io_trps.svl 2023.06)
