@<TRIPOS>MOLECULE
NONAME
40 42 1 0 0 
SMALL
USER_CHARGES


@<TRIPOS>ATOM
  1 S       -0.5220     0.1820    -1.8180 S.3   1 <1>  -0.0800 
  2 C        0.4240     0.7290    -0.4280 C.2   1 <1>   0.4420 
  3 C       -1.8970    -0.0750    -0.7710 C.ar  1 <1>   0.0400 
  4 N       -0.2160     0.7190     0.6790 N.2   1 <1>  -0.5650 
  5 N        1.7300     1.1220    -0.5740 N.am  1 <1>  -0.4940 
  6 C       -1.5200     0.2720     0.5130 C.ar  1 <1>   0.2270 
  7 C       -3.1560    -0.5380    -1.1020 C.ar  1 <1>  -0.1500 
  8 C        2.5900     1.1520    -1.6310 C.2   1 <1>   0.5690 
  9 C       -2.4630     0.1470     1.5240 C.ar  1 <1>  -0.1500 
 10 C       -4.0830    -0.6560    -0.0800 C.ar  1 <1>  -0.1500 
 11 O        2.3050     0.8080    -2.7510 O.2   1 <1>  -0.5700 
 12 C        4.0020     1.6650    -1.3400 C.3   1 <1>   0.1710 
 13 C       -3.7360    -0.3140     1.2260 C.ar  1 <1>  -0.1500 
 14 N        4.3500     1.6770     0.1180 N.3   1 <1>  -0.8100 
 15 C        4.6810     0.3100     0.6000 C.3   1 <1>   0.1100 
 16 C        5.4980     2.5690     0.3820 C.3   1 <1>   0.1100 
 17 C        6.1770    -0.0880     0.4600 C.3   1 <1>   0.2000 
 18 C        6.8220     2.0760    -0.2660 C.3   1 <1>   0.2000 
 19 O        6.8270     0.6940    -0.4970 O.3   1 <1>  -0.5600 
 20 C        6.3480    -1.5430     0.0320 C.3   1 <1>  -0.2400 
 21 C        8.0560     2.4280     0.5660 C.3   1 <1>  -0.2400 
 22 H        2.1800     1.4260     0.2920 H     1 <1>   0.3700 
 23 H       -3.3970    -0.7940    -2.1180 H     1 <1>   0.1500 
 24 H       -2.1880     0.4130     2.5280 H     1 <1>   0.1500 
 25 H       -5.0770    -1.0120    -0.2930 H     1 <1>   0.1500 
 26 H        4.0560     2.6660    -1.7280 H     1 <1>   0.0800 
 27 H        4.7060     1.0630    -1.8880 H     1 <1>   0.0800 
 28 H       -4.4670    -0.4100     2.0110 H     1 <1>   0.1500 
 29 H        4.0680    -0.4150     0.0910 H     1 <1>   0.0800 
 30 H        4.4230     0.2430     1.6430 H     1 <1>   0.0800 
 31 H        5.6350     2.6350     1.4480 H     1 <1>   0.0800 
 32 H        5.2800     3.5650     0.0370 H     1 <1>   0.0800 
 33 H        6.6760     0.0610     1.4020 H     1 <1>   0.0800 
 34 H        6.9210     2.5390    -1.2320 H     1 <1>   0.0800 
 35 H        5.8900    -1.7040    -0.9270 H     1 <1>   0.0800 
 36 H        5.8890    -2.1970     0.7510 H     1 <1>   0.0800 
 37 H        7.3940    -1.7830    -0.0300 H     1 <1>   0.0800 
 38 H        8.0000     1.9870     1.5440 H     1 <1>   0.0800 
 39 H        8.1300     3.4950     0.6760 H     1 <1>   0.0800 
 40 H        8.9420     2.0770     0.0670 H     1 <1>   0.0800 
@<TRIPOS>BOND
  1   1   2  1   
  2   1   3  1   
  3   2   4  2   
  4   2   5  1   
  5   3   6  ar  
  6   3   7  ar  
  7   4   6  1   
  8   5   8  am  
  9   5  22  1   
 10   6   9  ar  
 11   7  10  ar  
 12   7  23  1   
 13   8  11  2   
 14   8  12  1   
 15   9  13  ar  
 16   9  24  1   
 17  10  13  ar  
 18  10  25  1   
 19  12  14  1   
 20  12  26  1   
 21  12  27  1   
 22  13  28  1   
 23  14  15  1   
 24  14  16  1   
 25  15  17  1   
 26  15  29  1   
 27  15  30  1   
 28  16  18  1   
 29  16  31  1   
 30  16  32  1   
 31  17  19  1   
 32  17  20  1   
 33  17  33  1   
 34  18  19  1   
 35  18  21  1   
 36  18  34  1   
 37  20  35  1   
 38  20  36  1   
 39  20  37  1   
 40  21  38  1   
 41  21  39  1   
 42  21  40  1   
@<TRIPOS>SUBSTRUCTURE
  1 ****   5 GROUP 4 **** **** 0

# MOE 2024.06 (io_trps.svl 2023.06)
