@<TRIPOS>MOLECULE
NONAME
50 53 1 0 0 
SMALL
USER_CHARGES


@<TRIPOS>ATOM
  1 S       -0.0260    -3.1960    -1.3200 S.3   1 <1>  -0.0800 
  2 C        0.1020    -2.8090     0.4010 C.2   1 <1>  -0.0450 
  3 C       -1.7420    -2.8500    -1.3440 C.2   1 <1>  -0.1100 
  4 C        1.3770    -2.9100     1.0600 C.2   1 <1>   0.7150 
  5 C       -1.1250    -2.4480     0.8550 C.2   1 <1>  -0.1500 
  6 C       -2.1620    -2.4710    -0.1240 C.2   1 <1>  -0.1500 
  7 O        1.4770    -2.6840     2.2510 O.2   1 <1>  -0.5700 
  8 N        2.4850    -3.3060     0.3530 N.am  1 <1>  -0.5390 
  9 C        3.8190    -3.3840     0.8010 C.2   1 <1>   0.1230 
 10 C        4.4860    -4.6590     0.5600 C.2   1 <1>   0.6160 
 11 C        4.4260    -2.3270     1.4150 C.2   1 <1>  -0.1780 
 12 O        3.9220    -5.5560    -0.0440 O.2   1 <1>  -0.5700 
 13 N        5.7890    -4.9020     0.9270 N.am  1 <1>  -0.6600 
 14 C        3.9700    -0.9760     1.5830 C.ar  1 <1>   0.0280 
 15 C        6.1260    -6.2540     1.4630 C.3   1 <1>   0.1400 
 16 C        6.8760    -4.2980     0.1050 C.3   1 <1>   0.1400 
 17 C        3.3020    -0.2900     0.5610 C.ar  1 <1>  -0.1500 
 18 C        4.2100    -0.2990     2.7870 C.ar  1 <1>  -0.1500 
 19 C        6.5250    -7.2050     0.3170 C.3   1 <1>   0.3430 
 20 C        7.2880    -5.2600    -1.0320 C.3   1 <1>   0.3430 
 21 C        2.8990     1.0090     0.7770 C.ar  1 <1>   0.0830 
 22 C        3.8010     1.0110     2.9890 C.ar  1 <1>  -0.1500 
 23 N        7.6410    -6.6360    -0.5240 N.4   1 <1>  -0.9590 
 24 O        2.2520     1.8260    -0.0630 O.3   1 <1>  -0.3630 
 25 C        3.1410     1.6470     1.9580 C.ar  1 <1>   0.0830 
 26 C        7.9620    -7.5550    -1.6580 C.3   1 <1>   0.2630 
 27 C        2.0590     3.0560     0.6340 C.3   1 <1>   0.4000 
 28 O        2.6570     2.8910     1.9180 O.3   1 <1>  -0.3620 
 29 H       -2.2620    -2.9670    -2.2780 H     1 <1>   0.1500 
 30 H       -1.3270    -2.1610     1.8730 H     1 <1>   0.1500 
 31 H       -3.1720    -2.2020     0.1320 H     1 <1>   0.1500 
 32 H        2.2560    -3.9130    -0.4360 H     1 <1>   0.3700 
 33 H        5.3930    -2.4840     1.8550 H     1 <1>   0.1500 
 34 H        6.9270    -6.1720     2.1770 H     1 <1>   0.0800 
 35 H        5.2690    -6.6600     1.9760 H     1 <1>   0.0800 
 36 H        6.5380    -3.3700    -0.3240 H     1 <1>   0.0800 
 37 H        7.7240    -4.0800     0.7310 H     1 <1>   0.0800 
 38 H        3.1010    -0.7560    -0.3840 H     1 <1>   0.1500 
 39 H        4.7170    -0.8150     3.5830 H     1 <1>   0.1500 
 40 H        5.6540    -7.3700    -0.2980 H     1 <1>   0.0800 
 41 H        6.8210    -8.1540     0.7320 H     1 <1>   0.0800 
 42 H        8.1250    -4.8390    -1.5650 H     1 <1>   0.0800 
 43 H        6.4630    -5.3350    -1.7220 H     1 <1>   0.0800 
 44 H        3.9810     1.5260     3.9150 H     1 <1>   0.1500 
 45 H        8.4730    -6.5490     0.0770 H     1 <1>   0.4500 
 46 H        7.1050    -7.6690    -2.3020 H     1 <1>   0.0800 
 47 H        8.2430    -8.5280    -1.2860 H     1 <1>   0.0800 
 48 H        8.7810    -7.1630    -2.2410 H     1 <1>   0.0800 
 49 H        2.5520     3.8520     0.1050 H     1 <1>   0.0800 
 50 H        1.0060     3.2440     0.7480 H     1 <1>   0.0800 
@<TRIPOS>BOND
  1   1   2  1   
  2   1   3  1   
  3   2   4  1   
  4   2   5  2   
  5   3   6  2   
  6   3  29  1   
  7   4   7  2   
  8   4   8  am  
  9   5   6  1   
 10   5  30  1   
 11   6  31  1   
 12   8   9  1   
 13   8  32  1   
 14   9  10  1   
 15   9  11  2   
 16  10  12  2   
 17  10  13  am  
 18  11  14  1   
 19  11  33  1   
 20  13  15  1   
 21  13  16  1   
 22  14  17  ar  
 23  14  18  ar  
 24  15  19  1   
 25  15  34  1   
 26  15  35  1   
 27  16  20  1   
 28  16  36  1   
 29  16  37  1   
 30  17  21  ar  
 31  17  38  1   
 32  18  22  ar  
 33  18  39  1   
 34  19  23  1   
 35  19  40  1   
 36  19  41  1   
 37  20  23  1   
 38  20  42  1   
 39  20  43  1   
 40  21  24  1   
 41  21  25  ar  
 42  22  25  ar  
 43  22  44  1   
 44  23  26  1   
 45  23  45  1   
 46  24  27  1   
 47  25  28  1   
 48  26  46  1   
 49  26  47  1   
 50  26  48  1   
 51  27  28  1   
 52  27  49  1   
 53  27  50  1   
@<TRIPOS>SUBSTRUCTURE
  1 ****   9 GROUP 4 **** **** 0

# MOE 2024.06 (io_trps.svl 2023.06)
