@<TRIPOS>MOLECULE
NONAME
36 37 1 0 0 
SMALL
USER_CHARGES


@<TRIPOS>ATOM
  1 F        3.5680    -1.3130     1.6980 F     1 <1>  -0.1900 
  2 C        2.5960    -1.7830     0.9620 C.ar  1 <1>   0.1900 
  3 C        2.4070    -1.2710    -0.3200 C.ar  1 <1>   0.0860 
  4 C        1.8110    -2.7850     1.4990 C.ar  1 <1>  -0.1500 
  5 C        3.2380    -0.2200    -0.8610 C.2   1 <1>   0.5440 
  6 C        1.3580    -1.8170    -1.0600 C.ar  1 <1>  -0.1500 
  7 C        0.7840    -3.3110     0.7350 C.ar  1 <1>  -0.1500 
  8 O        2.7600     0.8860    -1.0130 O.2   1 <1>  -0.5700 
  9 N        4.5620    -0.4130    -1.2120 N.am  1 <1>  -0.6600 
 10 C        0.5600    -2.8240    -0.5430 C.ar  1 <1>  -0.1500 
 11 C        5.4130     0.7270    -1.6730 C.3   1 <1>   0.1400 
 12 C        5.3490    -1.6430    -0.9060 C.3   1 <1>   0.1400 
 13 C        6.4560     1.0580    -0.5930 C.3   1 <1>   0.3430 
 14 C        6.4170    -1.3290     0.1620 C.3   1 <1>   0.3430 
 15 N        7.2800    -0.1470    -0.2110 N.4   1 <1>  -0.9590 
 16 C        8.2430     0.1920     0.8580 C.3   1 <1>   0.4810 
 17 C        9.3060    -0.8820     0.8540 C.2   1 <1>  -0.2880 
 18 C       10.5400    -0.7420     0.3590 C.2   1 <1>  -0.3000 
 19 H        1.9960    -3.1460     2.4960 H     1 <1>   0.1500 
 20 H        1.1660    -1.4380    -2.0500 H     1 <1>   0.1500 
 21 H        0.1580    -4.0930     1.1330 H     1 <1>   0.1500 
 22 H       -0.2440    -3.2290    -1.1350 H     1 <1>   0.1500 
 23 H        4.8170     1.6020    -1.8700 H     1 <1>   0.0800 
 24 H        5.9020     0.4610    -2.5940 H     1 <1>   0.0800 
 25 H        5.8260    -1.9920    -1.8060 H     1 <1>   0.0800 
 26 H        4.7100    -2.4340    -0.5570 H     1 <1>   0.0800 
 27 H        5.9320     1.4310     0.2730 H     1 <1>   0.0800 
 28 H        7.0980     1.8450    -0.9540 H     1 <1>   0.0800 
 29 H        7.0330    -2.2010     0.3080 H     1 <1>   0.0800 
 30 H        5.9120    -1.1250     1.0930 H     1 <1>   0.0800 
 31 H        7.8490    -0.4190    -1.0230 H     1 <1>   0.4500 
 32 H        7.7560     0.2530     1.8180 H     1 <1>   0.0800 
 33 H        8.7060     1.1420     0.6430 H     1 <1>   0.0800 
 34 H        8.9800    -1.8020     1.3090 H     1 <1>   0.1500 
 35 H       11.2850    -1.5230     0.3750 H     1 <1>   0.1500 
 36 H       10.9290     0.1540    -0.1000 H     1 <1>   0.1500 
@<TRIPOS>BOND
  1   1   2  1   
  2   2   3  ar  
  3   2   4  ar  
  4   3   5  1   
  5   3   6  ar  
  6   4   7  ar  
  7   4  19  1   
  8   5   8  2   
  9   5   9  am  
 10   6  10  ar  
 11   6  20  1   
 12   7  10  ar  
 13   7  21  1   
 14   9  11  1   
 15   9  12  1   
 16  10  22  1   
 17  11  13  1   
 18  11  23  1   
 19  11  24  1   
 20  12  14  1   
 21  12  25  1   
 22  12  26  1   
 23  13  15  1   
 24  13  27  1   
 25  13  28  1   
 26  14  15  1   
 27  14  29  1   
 28  14  30  1   
 29  15  16  1   
 30  15  31  1   
 31  16  17  1   
 32  16  32  1   
 33  16  33  1   
 34  17  18  2   
 35  17  34  1   
 36  18  35  1   
 37  18  36  1   
@<TRIPOS>SUBSTRUCTURE
  1 ****   9 GROUP 4 **** **** 0

# MOE 2024.06 (io_trps.svl 2023.06)
