@<TRIPOS>MOLECULE
NONAME
35 36 1 0 0 
SMALL
USER_CHARGES


@<TRIPOS>ATOM
  1 S        0.3310    -4.2020     0.4300 S.3   1 <1>  -0.0800 
  2 C        1.0880    -2.7810    -0.2150 C.2   1 <1>   0.4420 
  3 C       -1.1890    -3.4720     0.0490 C.2   1 <1>   0.2280 
  4 N        0.2280    -1.9240    -0.6360 N.2   1 <1>  -0.3380 
  5 N        2.4650    -2.7600    -0.1850 N.am  1 <1>  -0.4940 
  6 N       -1.0720    -2.3260    -0.4830 N.2   1 <1>  -0.3380 
  7 C        3.3740    -1.8350    -0.6330 C.2   1 <1>   0.5440 
  8 O        2.9580    -0.8410    -1.1940 O.2   1 <1>  -0.5700 
  9 C        4.8080    -2.0250    -0.4430 C.ar  1 <1>   0.0860 
 10 C        5.4030    -3.1910     0.0850 C.ar  1 <1>   0.0830 
 11 C        5.6770    -0.9870    -0.8050 C.ar  1 <1>  -0.1500 
 12 O        4.6090    -4.2320     0.4500 O.3   1 <1>  -0.3630 
 13 C        6.7860    -3.2760     0.2280 C.ar  1 <1>  -0.1500 
 14 C        7.0460    -1.0760    -0.6620 C.ar  1 <1>  -0.1500 
 15 C        5.1060    -5.4530     0.9530 C.3   1 <1>   0.1200 
 16 C        7.6110    -2.2320    -0.1390 C.ar  1 <1>   0.0830 
 17 C        3.9130    -6.3630     1.2270 C.3   1 <1>  -0.2400 
 18 O        8.9400    -2.4080     0.0390 O.3   1 <1>  -0.3630 
 19 C        9.8760    -1.4120    -0.3030 C.3   1 <1>   0.1200 
 20 C       11.2690    -1.9410     0.0240 C.3   1 <1>  -0.2400 
 21 H       -2.0850    -4.0190     0.2800 H     1 <1>   0.1500 
 22 H        2.9060    -3.5840     0.2260 H     1 <1>   0.3700 
 23 H        5.2640    -0.0800    -1.2140 H     1 <1>   0.1500 
 24 H        7.2640    -4.1480     0.6270 H     1 <1>   0.1500 
 25 H        7.6530    -0.2420    -0.9600 H     1 <1>   0.1500 
 26 H        5.6500    -5.2540     1.8620 H     1 <1>   0.0800 
 27 H        5.7570    -5.8890     0.2150 H     1 <1>   0.0800 
 28 H        3.2630    -5.9170     1.9590 H     1 <1>   0.0800 
 29 H        4.2590    -7.3060     1.6100 H     1 <1>   0.0800 
 30 H        3.3670    -6.5450     0.3190 H     1 <1>   0.0800 
 31 H        9.6600    -0.5280     0.2720 H     1 <1>   0.0800 
 32 H        9.7860    -1.2060    -1.3560 H     1 <1>   0.0800 
 33 H       11.3440    -2.1600     1.0750 H     1 <1>   0.0800 
 34 H       12.0080    -1.2020    -0.2260 H     1 <1>   0.0800 
 35 H       11.4690    -2.8330    -0.5430 H     1 <1>   0.0800 
@<TRIPOS>BOND
  1   1   2  1   
  2   1   3  1   
  3   2   4  2   
  4   2   5  1   
  5   3   6  2   
  6   3  21  1   
  7   4   6  1   
  8   5   7  am  
  9   5  22  1   
 10   7   8  2   
 11   7   9  1   
 12   9  10  ar  
 13   9  11  ar  
 14  10  12  1   
 15  10  13  ar  
 16  11  14  ar  
 17  11  23  1   
 18  12  15  1   
 19  13  16  ar  
 20  13  24  1   
 21  14  16  ar  
 22  14  25  1   
 23  15  17  1   
 24  15  26  1   
 25  15  27  1   
 26  16  18  1   
 27  17  28  1   
 28  17  29  1   
 29  17  30  1   
 30  18  19  1   
 31  19  20  1   
 32  19  31  1   
 33  19  32  1   
 34  20  33  1   
 35  20  34  1   
 36  20  35  1   
@<TRIPOS>SUBSTRUCTURE
  1 ****   9 GROUP 4 **** **** 0

# MOE 2024.06 (io_trps.svl 2023.06)
