@<TRIPOS>MOLECULE
NONAME
57 60 1 0 0 
SMALL
USER_CHARGES


@<TRIPOS>ATOM
  1 O       -5.6540   -10.3770    -0.4990 O.3   1 <1>  -0.3630 
  2 C       -6.8380    -9.8260    -0.1630 C.ar  1 <1>   0.0830 
  3 C       -4.4520    -9.8310     0.0230 C.3   1 <1>   0.1200 
  4 C       -7.6190    -9.2780    -1.1430 C.ar  1 <1>  -0.1500 
  5 C       -7.2600    -9.8040     1.1730 C.ar  1 <1>  -0.1500 
  6 C       -4.3230    -8.3370    -0.3410 C.3   1 <1>   0.2000 
  7 C       -8.8240    -8.6210    -0.8310 C.ar  1 <1>   0.0000 
  8 C       -8.4310    -9.1780     1.5020 C.ar  1 <1>  -0.1500 
  9 O       -3.0010    -8.0540    -0.6780 O.3   1 <1>  -0.6800 
 10 C       -4.7750    -7.3910     0.8020 C.3   1 <1>   0.1100 
 11 C       -9.2310    -8.5560     0.5200 C.ar  1 <1>   0.0000 
 12 C       -9.6310    -8.0120    -1.8140 C.ar  1 <1>  -0.1500 
 13 N       -5.2550    -6.0520     0.3810 N.3   1 <1>  -0.8100 
 14 C      -10.4200    -7.8690     0.8350 C.ar  1 <1>  -0.1500 
 15 C      -10.7790    -7.3500    -1.4780 C.ar  1 <1>  -0.1500 
 16 C       -4.2910    -5.2900    -0.4510 C.3   1 <1>   0.1100 
 17 C       -6.5920    -6.1050    -0.2580 C.3   1 <1>   0.1100 
 18 C      -11.1770    -7.2760    -0.1380 C.ar  1 <1>  -0.1500 
 19 C       -4.8070    -3.8720    -0.7960 C.3   1 <1>   0.3430 
 20 C       -7.1340    -4.7030    -0.6220 C.3   1 <1>   0.3430 
 21 N       -6.1710    -3.6300    -0.2140 N.4   1 <1>  -0.9590 
 22 C       -6.6790    -2.2500    -0.4090 C.3   1 <1>   0.4860 
 23 C       -5.6800    -1.2710     0.1750 C.ar  1 <1>  -0.1430 
 24 C       -4.8990    -0.4870    -0.6640 C.ar  1 <1>  -0.1500 
 25 C       -5.5310    -1.1550     1.5500 C.ar  1 <1>  -0.1500 
 26 C       -3.9740     0.3940    -0.1340 C.ar  1 <1>  -0.1500 
 27 C       -4.6050    -0.2730     2.0790 C.ar  1 <1>  -0.1500 
 28 C       -3.8250     0.5000     1.2370 C.ar  1 <1>  -0.1500 
 29 H       -3.6490   -10.3900    -0.4250 H     1 <1>   0.0800 
 30 H       -4.4400    -9.9850     1.0870 H     1 <1>   0.0800 
 31 H       -7.3060    -9.3400    -2.1690 H     1 <1>   0.1500 
 32 H       -6.6580   -10.2860     1.9220 H     1 <1>   0.1500 
 33 H       -4.9050    -8.1580    -1.2280 H     1 <1>   0.0800 
 34 H       -8.7660    -9.1550     2.5250 H     1 <1>   0.1500 
 35 H       -2.4000    -8.2480     0.0680 H     1 <1>   0.4000 
 36 H       -3.9610    -7.2700     1.4960 H     1 <1>   0.0800 
 37 H       -5.5710    -7.8590     1.3510 H     1 <1>   0.0800 
 38 H       -9.3280    -8.0850    -2.8440 H     1 <1>   0.1500 
 39 H      -10.7290    -7.8240     1.8640 H     1 <1>   0.1500 
 40 H      -11.3960    -6.8910    -2.2320 H     1 <1>   0.1500 
 41 H       -4.0980    -5.8160    -1.3710 H     1 <1>   0.0800 
 42 H       -3.3540    -5.2060     0.0730 H     1 <1>   0.0800 
 43 H       -7.2880    -6.5760     0.4160 H     1 <1>   0.0800 
 44 H       -6.5540    -6.7020    -1.1520 H     1 <1>   0.0800 
 45 H      -12.0880    -6.7570     0.1100 H     1 <1>   0.1500 
 46 H       -4.8340    -3.7570    -1.8670 H     1 <1>   0.0800 
 47 H       -4.1080    -3.1490    -0.4080 H     1 <1>   0.0800 
 48 H       -8.0810    -4.5610    -0.1270 H     1 <1>   0.0800 
 49 H       -7.3090    -4.6600    -1.6840 H     1 <1>   0.0800 
 50 H       -6.0190    -3.7900     0.7930 H     1 <1>   0.4500 
 51 H       -7.6280    -2.1300     0.0890 H     1 <1>   0.0800 
 52 H       -6.8160    -2.0500    -1.4590 H     1 <1>   0.0800 
 53 H       -5.0000    -0.5490    -1.7350 H     1 <1>   0.1500 
 54 H       -6.1300    -1.7410     2.2260 H     1 <1>   0.1500 
 55 H       -3.3680     1.0020    -0.7850 H     1 <1>   0.1500 
 56 H       -4.4890    -0.1830     3.1460 H     1 <1>   0.1500 
 57 H       -3.1050     1.1870     1.6500 H     1 <1>   0.1500 
@<TRIPOS>BOND
  1   1   2  1   
  2   1   3  1   
  3   2   4  ar  
  4   2   5  ar  
  5   3   6  1   
  6   3  29  1   
  7   3  30  1   
  8   4   7  ar  
  9   4  31  1   
 10   5   8  ar  
 11   5  32  1   
 12   6   9  1   
 13   6  10  1   
 14   6  33  1   
 15   7  11  ar  
 16   7  12  ar  
 17   8  11  ar  
 18   8  34  1   
 19   9  35  1   
 20  10  13  1   
 21  10  36  1   
 22  10  37  1   
 23  11  14  ar  
 24  12  15  ar  
 25  12  38  1   
 26  13  16  1   
 27  13  17  1   
 28  14  18  ar  
 29  14  39  1   
 30  15  18  ar  
 31  15  40  1   
 32  16  19  1   
 33  16  41  1   
 34  16  42  1   
 35  17  20  1   
 36  17  43  1   
 37  17  44  1   
 38  18  45  1   
 39  19  21  1   
 40  19  46  1   
 41  19  47  1   
 42  20  21  1   
 43  20  48  1   
 44  20  49  1   
 45  21  22  1   
 46  21  50  1   
 47  22  23  1   
 48  22  51  1   
 49  22  52  1   
 50  23  24  ar  
 51  23  25  ar  
 52  24  26  ar  
 53  24  53  1   
 54  25  27  ar  
 55  25  54  1   
 56  26  28  ar  
 57  26  55  1   
 58  27  28  ar  
 59  27  56  1   
 60  28  57  1   
@<TRIPOS>SUBSTRUCTURE
  1 ****  17 GROUP 4 **** **** 0

# MOE 2024.06 (io_trps.svl 2023.06)
