@<TRIPOS>MOLECULE
NONAME
37 38 1 0 0 
SMALL
USER_CHARGES


@<TRIPOS>ATOM
  1 S       -0.0980    -0.9240    -1.2900 S.o2  1 <1>   1.4470 
  2 O        0.2100    -1.8130    -2.3900 O.2   1 <1>  -0.6500 
  3 O       -0.0270     0.5040    -1.5120 O.2   1 <1>  -0.6500 
  4 N        1.0160    -1.2650    -0.0590 N.am  1 <1>  -0.8490 
  5 C       -1.7030    -1.3670    -0.5420 C.ar  1 <1>  -0.0090 
  6 C        0.9080    -0.3340     1.0780 C.3   1 <1>   0.1960 
  7 C        2.3950    -1.2460    -0.5680 C.3   1 <1>   0.1960 
  8 C       -2.0740    -2.6810    -0.2430 C.ar  1 <1>  -0.1440 
  9 C       -2.6030    -0.3540    -0.2280 C.ar  1 <1>  -0.1500 
 10 C        1.9470    -0.6700     2.1630 C.3   1 <1>   0.1200 
 11 C        3.4060    -1.5470     0.5540 C.3   1 <1>   0.1200 
 12 C       -3.3040    -2.9390     0.3400 C.ar  1 <1>  -0.1500 
 13 C       -1.1600    -3.8640    -0.5430 C.3   1 <1>  -0.0960 
 14 C       -3.8450    -0.5840     0.3660 C.ar  1 <1>   0.0860 
 15 O        3.2390    -0.6600     1.6250 O.3   1 <1>  -0.5600 
 16 C       -4.1730    -1.9100     0.6390 C.ar  1 <1>  -0.1500 
 17 C       -4.7390     0.5150     0.6830 C.2   1 <1>   0.6340 
 18 O       -4.4330     1.6800     0.5420 O.2   1 <1>  -0.5700 
 19 O       -5.9540     0.2220     1.1580 O.3   1 <1>  -0.4300 
 20 C       -6.8880     1.2300     1.4910 C.3   1 <1>   0.0400 
 21 H       -0.0770    -0.3960     1.5070 H     1 <1>   0.0800 
 22 H        1.0680     0.6800     0.7500 H     1 <1>   0.0800 
 23 H        2.6180    -0.2820    -0.9960 H     1 <1>   0.0800 
 24 H        2.5060    -1.9860    -1.3420 H     1 <1>   0.0800 
 25 H       -2.3340     0.6660    -0.4520 H     1 <1>   0.1500 
 26 H        1.7550    -1.6420     2.5830 H     1 <1>   0.0800 
 27 H        1.9140     0.0630     2.9500 H     1 <1>   0.0800 
 28 H        4.4120    -1.4350     0.1890 H     1 <1>   0.0800 
 29 H        3.2780    -2.5520     0.9160 H     1 <1>   0.0800 
 30 H       -3.5950    -3.9510     0.5670 H     1 <1>   0.1500 
 31 H       -1.0470    -3.9840    -1.6060 H     1 <1>   0.0800 
 32 H       -1.5640    -4.7780    -0.1470 H     1 <1>   0.0800 
 33 H       -0.1900    -3.7150    -0.1050 H     1 <1>   0.0800 
 34 H       -5.1210    -2.1410     1.0940 H     1 <1>   0.1500 
 35 H       -7.7880     0.7600     1.8450 H     1 <1>   0.0800 
 36 H       -7.0970     1.8150     0.6110 H     1 <1>   0.0800 
 37 H       -6.4670     1.8550     2.2590 H     1 <1>   0.0800 
@<TRIPOS>BOND
  1   1   2  2   
  2   1   3  2   
  3   1   4  am  
  4   1   5  1   
  5   4   6  1   
  6   4   7  1   
  7   5   8  ar  
  8   5   9  ar  
  9   6  10  1   
 10   6  21  1   
 11   6  22  1   
 12   7  11  1   
 13   7  23  1   
 14   7  24  1   
 15   8  12  ar  
 16   8  13  1   
 17   9  14  ar  
 18   9  25  1   
 19  10  15  1   
 20  10  26  1   
 21  10  27  1   
 22  11  15  1   
 23  11  28  1   
 24  11  29  1   
 25  12  16  ar  
 26  12  30  1   
 27  13  31  1   
 28  13  32  1   
 29  13  33  1   
 30  14  16  ar  
 31  14  17  1   
 32  16  34  1   
 33  17  18  2   
 34  17  19  1   
 35  19  20  1   
 36  20  35  1   
 37  20  36  1   
 38  20  37  1   
@<TRIPOS>SUBSTRUCTURE
  1 ****   5 GROUP 4 **** **** 0

# MOE 2024.06 (io_trps.svl 2023.06)
