@<TRIPOS>MOLECULE
NONAME
37 37 1 0 0 
SMALL
USER_CHARGES


@<TRIPOS>ATOM
  1 O       -1.1380    -6.0790    -0.0010 O.3   1 <1>  -0.3630 
  2 C       -2.3620    -5.4950    -0.0160 C.ar  1 <1>   0.0830 
  3 C        0.0380    -5.3110    -0.0150 C.3   1 <1>   0.1200 
  4 C       -3.4570    -6.3430    -0.0010 C.ar  1 <1>  -0.1500 
  5 C       -2.5660    -4.1170    -0.0440 C.ar  1 <1>  -0.1500 
  6 C        1.2120    -6.2910     0.0070 C.3   1 <1>   0.3430 
  7 C       -4.7420    -5.8300    -0.0150 C.ar  1 <1>  -0.1500 
  8 C       -3.8540    -3.6090    -0.0580 C.ar  1 <1>  -0.1500 
  9 N        2.5290    -5.5850    -0.0060 N.4   1 <1>  -0.9060 
 10 C       -4.9470    -4.4610    -0.0450 C.ar  1 <1>  -0.1430 
 11 C        3.6660    -6.5350     0.0160 C.3   1 <1>   0.3430 
 12 C       -6.3570    -3.8980    -0.0580 C.3   1 <1>  -0.0970 
 13 C        4.9720    -5.7450     0.0010 C.3   1 <1>  -0.1600 
 14 C        6.1810    -6.6890     0.0230 C.3   1 <1>  -0.1600 
 15 C        7.4920    -5.8990     0.0090 C.3   1 <1>  -0.2400 
 16 H        0.0360    -4.6850     0.8600 H     1 <1>   0.0800 
 17 H        0.0390    -4.7220    -0.9160 H     1 <1>   0.0800 
 18 H       -3.3040    -7.4060     0.0220 H     1 <1>   0.1500 
 19 H       -1.7500    -3.4220    -0.0560 H     1 <1>   0.1500 
 20 H        1.1380    -6.9350    -0.8550 H     1 <1>   0.0800 
 21 H        1.1350    -6.8990     0.8950 H     1 <1>   0.0800 
 22 H       -5.5820    -6.5030    -0.0010 H     1 <1>   0.1500 
 23 H       -4.0060    -2.5440    -0.0790 H     1 <1>   0.1500 
 24 H        2.6030    -4.9620     0.8090 H     1 <1>   0.4500 
 25 H        2.6060    -4.9960    -0.8460 H     1 <1>   0.4500 
 26 H        3.6270    -7.1830    -0.8460 H     1 <1>   0.0800 
 27 H        3.6240    -7.1460     0.9040 H     1 <1>   0.0800 
 28 H       -7.0290    -4.5790    -0.5490 H     1 <1>   0.0800 
 29 H       -6.3840    -2.9600    -0.5840 H     1 <1>   0.0800 
 30 H       -6.6960    -3.7420     0.9500 H     1 <1>   0.0800 
 31 H        5.0200    -5.1020     0.8640 H     1 <1>   0.0800 
 32 H        5.0230    -5.1390    -0.8880 H     1 <1>   0.0800 
 33 H        6.1590    -7.3400    -0.8350 H     1 <1>   0.0800 
 34 H        6.1560    -7.3030     0.9090 H     1 <1>   0.0800 
 35 H        7.5650    -5.2950    -0.8790 H     1 <1>   0.0800 
 36 H        8.3290    -6.5760     0.0240 H     1 <1>   0.0800 
 37 H        7.5620    -5.2580     0.8710 H     1 <1>   0.0800 
@<TRIPOS>BOND
  1   1   2  1   
  2   1   3  1   
  3   2   4  ar  
  4   2   5  ar  
  5   3   6  1   
  6   3  16  1   
  7   3  17  1   
  8   4   7  ar  
  9   4  18  1   
 10   5   8  ar  
 11   5  19  1   
 12   6   9  1   
 13   6  20  1   
 14   6  21  1   
 15   7  10  ar  
 16   7  22  1   
 17   8  10  ar  
 18   8  23  1   
 19   9  11  1   
 20   9  24  1   
 21   9  25  1   
 22  10  12  1   
 23  11  13  1   
 24  11  26  1   
 25  11  27  1   
 26  12  28  1   
 27  12  29  1   
 28  12  30  1   
 29  13  14  1   
 30  13  31  1   
 31  13  32  1   
 32  14  15  1   
 33  14  33  1   
 34  14  34  1   
 35  15  35  1   
 36  15  36  1   
 37  15  37  1   
@<TRIPOS>SUBSTRUCTURE
  1 ****   3 GROUP 4 **** **** 0

# MOE 2024.06 (io_trps.svl 2023.06)
