@<TRIPOS>MOLECULE
NONAME
50 51 1 0 0 
SMALL
USER_CHARGES


@<TRIPOS>ATOM
  1 S        0.7780     1.0620     1.4600 S.o2  1 <1>   1.3330 
  2 O        0.4480     0.0220     0.5200 O.2   1 <1>  -0.6500 
  3 O        2.1010     1.1220     2.0390 O.2   1 <1>  -0.6500 
  4 N        0.5280     2.5840     0.6800 N.am  1 <1>  -0.6930 
  5 C       -0.4260     1.1060     2.7690 C.3   1 <1>  -0.1350 
  6 C       -0.5670     2.7870    -0.1480 C.ar  1 <1>   0.1990 
  7 C        1.7120     3.4810     0.5020 C.3   1 <1>   0.2570 
  8 C       -1.6950     3.4330     0.3370 C.ar  1 <1>  -0.1500 
  9 C       -0.5560     2.3570    -1.4690 C.ar  1 <1>  -0.1500 
 10 C        2.7350     2.9970    -0.5300 C.2   1 <1>   0.5690 
 11 C       -2.7980     3.6420    -0.4700 C.ar  1 <1>   0.0820 
 12 C       -1.6520     2.5620    -2.2860 C.ar  1 <1>  -0.1500 
 13 O        2.7570     3.5360    -1.6110 O.2   1 <1>  -0.5700 
 14 N        3.6030     1.9980    -0.1850 N.am  1 <1>  -0.5470 
 15 O       -3.8550     4.2770     0.0970 O.3   1 <1>  -0.3630 
 16 C       -2.7760     3.2030    -1.7920 C.ar  1 <1>  -0.1500 
 17 C        4.6060     1.4120    -0.9710 C.ar  1 <1>   0.1170 
 18 C       -5.0230     4.5560    -0.6430 C.3   1 <1>   0.0400 
 19 C        5.8040     2.0820    -1.2460 C.ar  1 <1>  -0.1430 
 20 C        4.4150     0.1190    -1.4650 C.ar  1 <1>  -0.1430 
 21 C        6.7800     1.4570    -2.0050 C.ar  1 <1>  -0.1500 
 22 C        6.0930     3.4890    -0.7280 C.3   1 <1>  -0.0170 
 23 C        5.4040    -0.4870    -2.2210 C.ar  1 <1>  -0.1500 
 24 C        3.1260    -0.6460    -1.1920 C.3   1 <1>  -0.0970 
 25 C        6.5840     0.1790    -2.4920 C.ar  1 <1>  -0.1500 
 26 C        6.5820     3.4480     0.7230 C.3   1 <1>  -0.2400 
 27 H       -0.3570     0.2140     3.3600 H     1 <1>   0.0800 
 28 H       -1.4150     1.1690     2.3580 H     1 <1>   0.0800 
 29 H       -0.2570     1.9540     3.4020 H     1 <1>   0.0800 
 30 H        2.2080     3.6080     1.4470 H     1 <1>   0.0800 
 31 H        1.3650     4.4490     0.1900 H     1 <1>   0.0800 
 32 H       -1.7170     3.7810     1.3510 H     1 <1>   0.1500 
 33 H        0.3170     1.8570    -1.8530 H     1 <1>   0.1500 
 34 H       -1.6280     2.2230    -3.3070 H     1 <1>   0.1500 
 35 H        3.3900     1.5020     0.6900 H     1 <1>   0.3700 
 36 H       -3.6140     3.3490    -2.4460 H     1 <1>   0.1500 
 37 H       -5.7140     5.0650     0.0030 H     1 <1>   0.0800 
 38 H       -5.4530     3.6290    -0.9800 H     1 <1>   0.0800 
 39 H       -4.7660     5.1880    -1.4750 H     1 <1>   0.0800 
 40 H        7.7040     1.9620    -2.2200 H     1 <1>   0.1500 
 41 H        5.2160     4.1040    -0.8030 H     1 <1>   0.0800 
 42 H        6.8470     3.9520    -1.3400 H     1 <1>   0.0800 
 43 H        5.2620    -1.4810    -2.6060 H     1 <1>   0.1500 
 44 H        3.1200    -1.5940    -1.6990 H     1 <1>   0.0800 
 45 H        3.0200    -0.8260    -0.1380 H     1 <1>   0.0800 
 46 H        2.2810    -0.0770    -1.5360 H     1 <1>   0.0800 
 47 H        7.3480    -0.2970    -3.0810 H     1 <1>   0.1500 
 48 H        5.8300     3.0130     1.3570 H     1 <1>   0.0800 
 49 H        6.7980     4.4420     1.0690 H     1 <1>   0.0800 
 50 H        7.4760     2.8530     0.7930 H     1 <1>   0.0800 
@<TRIPOS>BOND
  1   1   2  2   
  2   1   3  2   
  3   1   4  am  
  4   1   5  1   
  5   4   6  1   
  6   4   7  1   
  7   5  27  1   
  8   5  28  1   
  9   5  29  1   
 10   6   8  ar  
 11   6   9  ar  
 12   7  10  1   
 13   7  30  1   
 14   7  31  1   
 15   8  11  ar  
 16   8  32  1   
 17   9  12  ar  
 18   9  33  1   
 19  10  13  2   
 20  10  14  am  
 21  11  15  1   
 22  11  16  ar  
 23  12  16  ar  
 24  12  34  1   
 25  14  17  1   
 26  14  35  1   
 27  15  18  1   
 28  16  36  1   
 29  17  19  ar  
 30  17  20  ar  
 31  18  37  1   
 32  18  38  1   
 33  18  39  1   
 34  19  21  ar  
 35  19  22  1   
 36  20  23  ar  
 37  20  24  1   
 38  21  25  ar  
 39  21  40  1   
 40  22  26  1   
 41  22  41  1   
 42  22  42  1   
 43  23  25  ar  
 44  23  43  1   
 45  24  44  1   
 46  24  45  1   
 47  24  46  1   
 48  25  47  1   
 49  26  48  1   
 50  26  49  1   
 51  26  50  1   
@<TRIPOS>SUBSTRUCTURE
  1 ****  10 GROUP 4 **** **** 0

# MOE 2024.06 (io_trps.svl 2023.06)
