@<TRIPOS>MOLECULE
NONAME
38 41 1 0 0 
SMALL
USER_CHARGES


@<TRIPOS>ATOM
  1 O        0.2570    -0.6200    -1.6590 O.2   1 <1>  -0.5700 
  2 C        0.3960    -1.7320    -1.2060 C.2   1 <1>   0.5690 
  3 N        1.5780    -2.2780    -0.7850 N.am  1 <1>  -0.2370 
  4 C       -0.7530    -2.7490    -1.1110 C.3   1 <1>   0.2510 
  5 C        2.7960    -1.5780    -0.6230 C.ar  1 <1>   0.1170 
  6 C        1.4030    -3.6140    -0.5510 C.2   1 <1>   0.5690 
  7 N       -1.7490    -2.5170    -0.0240 N.3   1 <1>  -0.8100 
  8 C       -0.0070    -4.0610    -0.8360 C.3   1 <1>  -0.0990 
  9 C        3.5100    -1.6820     0.5710 C.ar  1 <1>  -0.1500 
 10 C        3.2990    -0.7720    -1.6510 C.ar  1 <1>  -0.1500 
 11 O        2.2450    -4.3920    -0.1850 O.2   1 <1>  -0.5700 
 12 C       -2.9410    -3.3840    -0.1860 C.3   1 <1>   0.1100 
 13 C       -2.1970    -1.1040     0.0460 C.3   1 <1>   0.1100 
 14 C        4.6920    -0.9820     0.6970 C.ar  1 <1>   0.0830 
 15 C        4.4920    -0.0760    -1.5080 C.ar  1 <1>  -0.1500 
 16 C       -3.9840    -3.1170     0.9130 C.3   1 <1>   0.1200 
 17 C       -3.2800    -0.9030     1.1220 C.3   1 <1>   0.1200 
 18 O        5.5220    -0.9390     1.7440 O.3   1 <1>  -0.3630 
 19 C        5.1720    -0.2010    -0.3140 C.ar  1 <1>   0.0830 
 20 O       -4.3550    -1.7710     0.9090 O.3   1 <1>  -0.5600 
 21 C        6.6020    -0.0830     1.3750 C.3   1 <1>   0.4000 
 22 O        6.3280     0.3680     0.0500 O.3   1 <1>  -0.3630 
 23 H       -1.2540    -2.7840    -2.0640 H     1 <1>   0.0800 
 24 H       -0.0060    -4.6930    -1.7040 H     1 <1>   0.0800 
 25 H       -0.3910    -4.5970     0.0130 H     1 <1>   0.0800 
 26 H        3.1610    -2.2960     1.3810 H     1 <1>   0.1500 
 27 H        2.7500    -0.6840    -2.5720 H     1 <1>   0.1500 
 28 H       -2.6550    -4.4200    -0.1390 H     1 <1>   0.0800 
 29 H       -3.4000    -3.2060    -1.1440 H     1 <1>   0.0800 
 30 H       -2.5870    -0.7890    -0.9070 H     1 <1>   0.0800 
 31 H       -1.3660    -0.4670     0.2940 H     1 <1>   0.0800 
 32 H        4.8840     0.5460    -2.2930 H     1 <1>   0.1500 
 33 H       -3.5870    -3.3640     1.8820 H     1 <1>   0.0800 
 34 H       -4.8700    -3.7010     0.7390 H     1 <1>   0.0800 
 35 H       -3.6580     0.1030     1.0860 H     1 <1>   0.0800 
 36 H       -2.8760    -1.0870     2.1020 H     1 <1>   0.0800 
 37 H        7.5220    -0.6390     1.3840 H     1 <1>   0.0800 
 38 H        6.6380     0.7600     2.0430 H     1 <1>   0.0800 
@<TRIPOS>BOND
  1   1   2  2   
  2   2   3  am  
  3   2   4  1   
  4   3   5  1   
  5   3   6  am  
  6   4   7  1   
  7   4   8  1   
  8   4  23  1   
  9   5   9  ar  
 10   5  10  ar  
 11   6   8  1   
 12   6  11  2   
 13   7  12  1   
 14   7  13  1   
 15   8  24  1   
 16   8  25  1   
 17   9  14  ar  
 18   9  26  1   
 19  10  15  ar  
 20  10  27  1   
 21  12  16  1   
 22  12  28  1   
 23  12  29  1   
 24  13  17  1   
 25  13  30  1   
 26  13  31  1   
 27  14  18  1   
 28  14  19  ar  
 29  15  19  ar  
 30  15  32  1   
 31  16  20  1   
 32  16  33  1   
 33  16  34  1   
 34  17  20  1   
 35  17  35  1   
 36  17  36  1   
 37  18  21  1   
 38  19  22  1   
 39  21  22  1   
 40  21  37  1   
 41  21  38  1   
@<TRIPOS>SUBSTRUCTURE
  1 ****   3 GROUP 4 **** **** 0

# MOE 2024.06 (io_trps.svl 2023.06)
