@<TRIPOS>MOLECULE
NONAME
55 58 1 0 0 
SMALL
USER_CHARGES


@<TRIPOS>ATOM
  1 O        0.0680    -0.1320     1.1420 O.2   1 <1>  -0.5700 
  2 C       -0.2560    -1.2280     0.7500 C.2   1 <1>   0.5690 
  3 N        0.6970    -2.1420     0.4360 N.am  1 <1>  -0.7300 
  4 C       -1.7540    -1.5780     0.6120 C.3   1 <1>   0.0610 
  5 C        2.1680    -1.9040     0.5330 C.3   1 <1>   0.2010 
  6 C       -1.9880    -3.0240     0.0970 C.3   1 <1>  -0.1600 
  7 C       -2.4300    -0.6040    -0.3820 C.3   1 <1>  -0.1600 
  8 C       -2.4530    -1.4430     1.9850 C.3   1 <1>  -0.1600 
  9 C        3.0030    -3.1120     0.1080 C.2   1 <1>   0.6590 
 10 C       -3.4920    -3.3690    -0.0400 C.3   1 <1>   0.1440 
 11 C       -3.9320    -0.9080    -0.5100 C.3   1 <1>  -0.0800 
 12 C       -3.9550    -1.7510     1.8680 C.3   1 <1>  -0.0800 
 13 O        2.4940    -4.1430    -0.2630 O.2   1 <1>  -0.5700 
 14 O        4.3200    -2.9600     0.1720 O.3   1 <1>  -0.4300 
 15 C       -3.7380    -4.8070    -0.5520 C.ar  1 <1>  -0.1440 
 16 C       -4.1180    -2.3490    -1.0190 C.3   1 <1>  -0.1600 
 17 C       -4.1410    -3.1890     1.3530 C.3   1 <1>  -0.1600 
 18 C       -4.5960    -0.7680     0.8710 C.3   1 <1>  -0.1600 
 19 C        5.2000    -3.9980    -0.1920 C.3   1 <1>   0.1200 
 20 C       -5.0430    -5.2580    -0.7240 C.ar  1 <1>  -0.1500 
 21 C       -2.7080    -5.6950    -0.8550 C.ar  1 <1>  -0.1500 
 22 C        6.6280    -3.4950    -0.0020 C.3   1 <1>  -0.2400 
 23 C       -5.3120    -6.5360    -1.1800 C.ar  1 <1>  -0.1500 
 24 C       -2.9750    -6.9740    -1.3120 C.ar  1 <1>  -0.1500 
 25 C       -4.2780    -7.4040    -1.4790 C.ar  1 <1>  -0.1440 
 26 C       -4.5690    -8.8080    -1.9780 C.3   1 <1>  -0.0970 
 27 H        0.4420    -3.0770     0.1010 H     1 <1>   0.3700 
 28 H        2.4150    -1.6540     1.5490 H     1 <1>   0.0800 
 29 H        2.4290    -1.0670    -0.0890 H     1 <1>   0.0800 
 30 H       -1.5330    -3.7180     0.7830 H     1 <1>   0.0800 
 31 H       -1.5170    -3.1340    -0.8640 H     1 <1>   0.0800 
 32 H       -1.9580    -0.6840    -1.3460 H     1 <1>   0.0800 
 33 H       -2.2980     0.4090    -0.0420 H     1 <1>   0.0800 
 34 H       -1.9980    -2.1150     2.6920 H     1 <1>   0.0800 
 35 H       -2.3210    -0.4430     2.3610 H     1 <1>   0.0800 
 36 H       -4.3840    -0.2180    -1.2020 H     1 <1>   0.0800 
 37 H       -4.4230    -1.6470     2.8320 H     1 <1>   0.0800 
 38 H       -3.6620    -2.4560    -1.9880 H     1 <1>   0.0800 
 39 H       -5.1690    -2.5400    -1.1370 H     1 <1>   0.0800 
 40 H       -3.7010    -3.8850     2.0450 H     1 <1>   0.0800 
 41 H       -5.1920    -3.4050     1.3060 H     1 <1>   0.0800 
 42 H       -5.6510    -0.9670     0.7910 H     1 <1>   0.0800 
 43 H       -4.4810     0.2400     1.2300 H     1 <1>   0.0800 
 44 H        5.0150    -4.2580    -1.2210 H     1 <1>   0.0800 
 45 H        5.0030    -4.8500     0.4370 H     1 <1>   0.0800 
 46 H       -5.8740    -4.6150    -0.5040 H     1 <1>   0.1500 
 47 H       -1.6760    -5.4220    -0.7470 H     1 <1>   0.1500 
 48 H        6.8070    -2.6400    -0.6290 H     1 <1>   0.0800 
 49 H        7.3230    -4.2690    -0.2730 H     1 <1>   0.0800 
 50 H        6.7950    -3.2300     1.0270 H     1 <1>   0.0800 
 51 H       -6.3330    -6.8520    -1.3010 H     1 <1>   0.1500 
 52 H       -2.1570    -7.6360    -1.5360 H     1 <1>   0.1500 
 53 H       -5.4960    -8.8290    -2.5220 H     1 <1>   0.0800 
 54 H       -4.6390    -9.4820    -1.1440 H     1 <1>   0.0800 
 55 H       -3.7840    -9.1430    -2.6320 H     1 <1>   0.0800 
@<TRIPOS>BOND
  1   1   2  2   
  2   2   3  am  
  3   2   4  1   
  4   3   5  1   
  5   3  27  1   
  6   4   6  1   
  7   4   7  1   
  8   4   8  1   
  9   5   9  1   
 10   5  28  1   
 11   5  29  1   
 12   6  10  1   
 13   6  30  1   
 14   6  31  1   
 15   7  11  1   
 16   7  32  1   
 17   7  33  1   
 18   8  12  1   
 19   8  34  1   
 20   8  35  1   
 21   9  13  2   
 22   9  14  1   
 23  10  15  1   
 24  10  16  1   
 25  10  17  1   
 26  11  16  1   
 27  11  18  1   
 28  11  36  1   
 29  12  17  1   
 30  12  18  1   
 31  12  37  1   
 32  14  19  1   
 33  15  20  ar  
 34  15  21  ar  
 35  16  38  1   
 36  16  39  1   
 37  17  40  1   
 38  17  41  1   
 39  18  42  1   
 40  18  43  1   
 41  19  22  1   
 42  19  44  1   
 43  19  45  1   
 44  20  23  ar  
 45  20  46  1   
 46  21  24  ar  
 47  21  47  1   
 48  22  48  1   
 49  22  49  1   
 50  22  50  1   
 51  23  25  ar  
 52  23  51  1   
 53  24  25  ar  
 54  24  52  1   
 55  25  26  1   
 56  26  53  1   
 57  26  54  1   
 58  26  55  1   
@<TRIPOS>SUBSTRUCTURE
  1 ****   6 GROUP 4 **** **** 0

# MOE 2024.06 (io_trps.svl 2023.06)
