@<TRIPOS>MOLECULE
NONAME
34 34 1 0 0 
SMALL
USER_CHARGES


@<TRIPOS>ATOM
  1 O        0.1880     0.0330    -0.2360 O.2   1 <1>  -0.5700 
  2 C        1.1880    -0.6330    -0.0560 C.2   1 <1>   0.5440 
  3 N        1.1920    -1.9750    -0.3360 N.am  1 <1>  -0.7300 
  4 C        2.3840    -0.0150     0.4910 C.ar  1 <1>   0.0860 
  5 C        0.1730    -2.8560    -0.9360 C.3   1 <1>   0.3000 
  6 C        3.6640    -0.4550     0.1480 C.ar  1 <1>  -0.1500 
  7 C        2.2930     1.0490     1.3890 C.ar  1 <1>  -0.1500 
  8 C       -0.7480    -3.4360     0.1590 C.3   1 <1>  -0.1600 
  9 C        0.9600    -4.0050    -1.5700 C.3   1 <1>  -0.2400 
 10 C       -0.6070    -2.1530    -2.0550 C.3   1 <1>  -0.2400 
 11 C        4.7970     0.1280     0.6880 C.ar  1 <1>  -0.1500 
 12 C        3.4210     1.6380     1.9320 C.ar  1 <1>  -0.1500 
 13 C       -1.5280    -2.4110     1.0040 C.3   1 <1>  -0.1600 
 14 C        4.6770     1.1750     1.5830 C.ar  1 <1>  -0.1500 
 15 C       -2.4380    -3.1120     2.0170 C.3   1 <1>  -0.2400 
 16 H        1.9940    -2.5010     0.0030 H     1 <1>   0.3700 
 17 H        3.7770    -1.2580    -0.5580 H     1 <1>   0.1500 
 18 H        1.3170     1.4150     1.6600 H     1 <1>   0.1500 
 19 H       -0.1570    -4.0400     0.8230 H     1 <1>   0.0800 
 20 H       -1.4580    -4.0910    -0.3140 H     1 <1>   0.0800 
 21 H        1.6240    -3.6310    -2.3300 H     1 <1>   0.0800 
 22 H        0.2870    -4.7060    -2.0300 H     1 <1>   0.0800 
 23 H        1.5350    -4.5330    -0.8300 H     1 <1>   0.0800 
 24 H        0.0710    -1.7210    -2.7680 H     1 <1>   0.0800 
 25 H       -1.2390    -1.3760    -1.6690 H     1 <1>   0.0800 
 26 H       -1.2380    -2.8570    -2.5660 H     1 <1>   0.0800 
 27 H        5.7740    -0.2290     0.4090 H     1 <1>   0.1500 
 28 H        3.3210     2.4560     2.6240 H     1 <1>   0.1500 
 29 H       -2.1280    -1.7830     0.3710 H     1 <1>   0.0800 
 30 H       -0.8400    -1.7780     1.5370 H     1 <1>   0.0800 
 31 H        5.5560     1.6310     2.0040 H     1 <1>   0.1500 
 32 H       -3.1590    -3.7310     1.5120 H     1 <1>   0.0800 
 33 H       -2.9670    -2.3780     2.6000 H     1 <1>   0.0800 
 34 H       -1.8580    -3.7250     2.6850 H     1 <1>   0.0800 
@<TRIPOS>BOND
  1   1   2  2   
  2   2   3  am  
  3   2   4  1   
  4   3   5  1   
  5   3  16  1   
  6   4   6  ar  
  7   4   7  ar  
  8   5   8  1   
  9   5   9  1   
 10   5  10  1   
 11   6  11  ar  
 12   6  17  1   
 13   7  12  ar  
 14   7  18  1   
 15   8  13  1   
 16   8  19  1   
 17   8  20  1   
 18   9  21  1   
 19   9  22  1   
 20   9  23  1   
 21  10  24  1   
 22  10  25  1   
 23  10  26  1   
 24  11  14  ar  
 25  11  27  1   
 26  12  14  ar  
 27  12  28  1   
 28  13  15  1   
 29  13  29  1   
 30  13  30  1   
 31  14  31  1   
 32  15  32  1   
 33  15  33  1   
 34  15  34  1   
@<TRIPOS>SUBSTRUCTURE
  1 ****   2 GROUP 4 **** **** 0

# MOE 2024.06 (io_trps.svl 2023.06)
