@<TRIPOS>MOLECULE
NONAME
46 48 1 0 0 
SMALL
USER_CHARGES


@<TRIPOS>ATOM
  1 S       -0.2560     0.2330    -0.8180 S.o2  1 <1>   1.4470 
  2 O       -0.6830     0.6120    -2.1490 O.2   1 <1>  -0.6500 
  3 O       -0.6460    -1.0580    -0.2950 O.2   1 <1>  -0.6500 
  4 N       -0.8620     1.4120     0.2400 N.am  1 <1>  -0.8490 
  5 C        1.5430     0.4190    -0.6720 C.ar  1 <1>  -0.0090 
  6 C       -2.2770     1.1790     0.5430 C.3   1 <1>   0.1960 
  7 C       -0.6520     2.7710    -0.2720 C.3   1 <1>   0.1960 
  8 C        2.3600     0.4460    -1.7970 C.ar  1 <1>  -0.1500 
  9 C        2.1570     0.5310     0.5690 C.ar  1 <1>  -0.1500 
 10 C       -2.7600     2.1590     1.6180 C.3   1 <1>  -0.1600 
 11 C       -1.0640     3.8030     0.7820 C.3   1 <1>  -0.1600 
 12 C        3.7320     0.5860    -1.6860 C.ar  1 <1>  -0.1500 
 13 C        3.5280     0.6740     0.6850 C.ar  1 <1>  -0.1500 
 14 C       -2.5260     3.6150     1.2010 C.3   1 <1>  -0.1600 
 15 C        4.3410     0.7010    -0.4430 C.ar  1 <1>   0.1170 
 16 N        5.7320     0.8540    -0.3830 N.am  1 <1>  -0.5470 
 17 C        6.6300     0.6130     0.6190 C.2   1 <1>   0.6900 
 18 O        6.2920     0.0890     1.6640 O.2   1 <1>  -0.5700 
 19 N        7.9390     0.9530     0.4160 N.am  1 <1>  -0.6600 
 20 C        8.4550     1.8600    -0.6340 C.3   1 <1>   0.1400 
 21 C        8.9750     0.6820     1.4370 C.3   1 <1>   0.1400 
 22 C        9.7870     2.3660    -0.0900 C.3   1 <1>  -0.1600 
 23 C       10.2580     1.2670     0.8580 C.3   1 <1>  -0.1600 
 24 H       -2.4110     0.1750     0.9110 H     1 <1>   0.0800 
 25 H       -2.8660     1.2890    -0.3540 H     1 <1>   0.0800 
 26 H       -1.2280     2.9190    -1.1710 H     1 <1>   0.0800 
 27 H        0.3890     2.9140    -0.5110 H     1 <1>   0.0800 
 28 H        1.9120     0.3550    -2.7730 H     1 <1>   0.1500 
 29 H        1.5500     0.5080     1.4600 H     1 <1>   0.1500 
 30 H       -2.2310     1.9530     2.5320 H     1 <1>   0.0800 
 31 H       -3.8080     1.9980     1.8020 H     1 <1>   0.0800 
 32 H       -0.9250     4.7930     0.3860 H     1 <1>   0.0800 
 33 H       -0.4220     3.6980     1.6400 H     1 <1>   0.0800 
 34 H        4.3340     0.6000    -2.5760 H     1 <1>   0.1500 
 35 H        3.9650     0.7650     1.6630 H     1 <1>   0.1500 
 36 H       -2.7650     4.2760     2.0160 H     1 <1>   0.0800 
 37 H       -3.1700     3.8580     0.3720 H     1 <1>   0.0800 
 38 H        6.1900     1.0820    -1.2560 H     1 <1>   0.3700 
 39 H        7.7750     2.6740    -0.8170 H     1 <1>   0.0800 
 40 H        8.6140     1.2970    -1.5380 H     1 <1>   0.0800 
 41 H        9.0620    -0.3760     1.6190 H     1 <1>   0.0800 
 42 H        8.7060     1.1830     2.3510 H     1 <1>   0.0800 
 43 H        9.6160     3.2740     0.4620 H     1 <1>   0.0800 
 44 H       10.4940     2.5610    -0.8760 H     1 <1>   0.0800 
 45 H       10.7730     0.5000     0.3060 H     1 <1>   0.0800 
 46 H       10.9090     1.6400     1.6300 H     1 <1>   0.0800 
@<TRIPOS>BOND
  1   1   2  2   
  2   1   3  2   
  3   1   4  am  
  4   1   5  1   
  5   4   6  1   
  6   4   7  1   
  7   5   8  ar  
  8   5   9  ar  
  9   6  10  1   
 10   6  24  1   
 11   6  25  1   
 12   7  11  1   
 13   7  26  1   
 14   7  27  1   
 15   8  12  ar  
 16   8  28  1   
 17   9  13  ar  
 18   9  29  1   
 19  10  14  1   
 20  10  30  1   
 21  10  31  1   
 22  11  14  1   
 23  11  32  1   
 24  11  33  1   
 25  12  15  ar  
 26  12  34  1   
 27  13  15  ar  
 28  13  35  1   
 29  14  36  1   
 30  14  37  1   
 31  15  16  1   
 32  16  17  am  
 33  16  38  1   
 34  17  18  2   
 35  17  19  am  
 36  19  20  1   
 37  19  21  1   
 38  20  22  1   
 39  20  39  1   
 40  20  40  1   
 41  21  23  1   
 42  21  41  1   
 43  21  42  1   
 44  22  23  1   
 45  22  43  1   
 46  22  44  1   
 47  23  45  1   
 48  23  46  1   
@<TRIPOS>SUBSTRUCTURE
  1 ****  13 GROUP 4 **** **** 0

# MOE 2024.06 (io_trps.svl 2023.06)
