@<TRIPOS>MOLECULE
NONAME
33 33 1 0 0 
SMALL
USER_CHARGES


@<TRIPOS>ATOM
  1 O        0.4960     2.9260    -0.8580 O.2   1 <1>  -0.5700 
  2 C        0.9500     1.9120    -0.3570 C.2   1 <1>   0.5440 
  3 N        0.0540     1.0030     0.1330 N.am  1 <1>  -0.7300 
  4 C        2.3930     1.7050    -0.2840 C.ar  1 <1>   0.0860 
  5 C       -1.4260     1.1080     0.1130 C.3   1 <1>   0.0600 
  6 C        3.0160     0.5040     0.1160 C.ar  1 <1>   0.0830 
  7 C        3.2400     2.7650    -0.6330 C.ar  1 <1>  -0.1500 
  8 O        2.2430    -0.5610     0.4600 O.3   1 <1>  -0.3620 
  9 C        4.4050     0.4080     0.1550 C.ar  1 <1>  -0.1500 
 10 C        4.6160     2.6660    -0.5940 C.ar  1 <1>  -0.1500 
 11 C        2.7690    -1.8170     0.8240 C.3   1 <1>   0.1200 
 12 C        5.2100     1.4750    -0.1950 C.ar  1 <1>   0.0830 
 13 C        1.5960    -2.7500     1.1100 C.3   1 <1>  -0.2400 
 14 O        6.5470     1.2850    -0.1250 O.3   1 <1>  -0.3630 
 15 C        7.4600     2.3040    -0.4610 C.3   1 <1>   0.1200 
 16 C        8.8710     1.7550    -0.2720 C.3   1 <1>  -0.2400 
 17 H        0.4540     0.1290     0.4940 H     1 <1>   0.3700 
 18 H       -1.7300     2.0620    -0.2840 H     1 <1>   0.0800 
 19 H       -1.8090     1.0100     1.1130 H     1 <1>   0.0800 
 20 H       -1.8350     0.3280    -0.5050 H     1 <1>   0.0800 
 21 H        2.8020     3.6990    -0.9450 H     1 <1>   0.1500 
 22 H        4.9040    -0.4910     0.4570 H     1 <1>   0.1500 
 23 H        5.2050     3.5180    -0.8750 H     1 <1>   0.1500 
 24 H        3.3790    -1.6930     1.7020 H     1 <1>   0.0800 
 25 H        3.3610    -2.1900     0.0060 H     1 <1>   0.0800 
 26 H        1.0040    -2.3640     1.9200 H     1 <1>   0.0800 
 27 H        1.9640    -3.7210     1.3870 H     1 <1>   0.0800 
 28 H        0.9830    -2.8540     0.2320 H     1 <1>   0.0800 
 29 H        7.2870     3.1440     0.1900 H     1 <1>   0.0800 
 30 H        7.2950     2.5850    -1.4870 H     1 <1>   0.0800 
 31 H        9.0190     1.4630     0.7520 H     1 <1>   0.0800 
 32 H        9.5930     2.5120    -0.5200 H     1 <1>   0.0800 
 33 H        9.0260     0.9070    -0.9140 H     1 <1>   0.0800 
@<TRIPOS>BOND
  1   1   2  2   
  2   2   3  am  
  3   2   4  1   
  4   3   5  1   
  5   3  17  1   
  6   4   6  ar  
  7   4   7  ar  
  8   5  18  1   
  9   5  19  1   
 10   5  20  1   
 11   6   8  1   
 12   6   9  ar  
 13   7  10  ar  
 14   7  21  1   
 15   8  11  1   
 16   9  12  ar  
 17   9  22  1   
 18  10  12  ar  
 19  10  23  1   
 20  11  13  1   
 21  11  24  1   
 22  11  25  1   
 23  12  14  1   
 24  13  26  1   
 25  13  27  1   
 26  13  28  1   
 27  14  15  1   
 28  15  16  1   
 29  15  29  1   
 30  15  30  1   
 31  16  31  1   
 32  16  32  1   
 33  16  33  1   
@<TRIPOS>SUBSTRUCTURE
  1 ****   6 GROUP 4 **** **** 0

# MOE 2024.06 (io_trps.svl 2023.06)
