@<TRIPOS>MOLECULE
NONAME
42 42 1 0 0 
SMALL
USER_CHARGES


@<TRIPOS>ATOM
  1 O       -6.0690     3.3390     2.7350 O.3   1 <1>  -0.6800 
  2 C       -6.5220     2.4610     1.7910 C.3   1 <1>   0.4800 
  3 C       -5.3630     2.1650     0.9020 C.1   1 <1>  -0.2000 
  4 C       -7.0040     1.2120     2.5190 C.3   1 <1>  -0.2400 
  5 C       -7.6430     3.1540     1.0290 C.3   1 <1>  -0.2400 
  6 C       -4.4240     1.9950     0.1920 C.1   1 <1>  -0.2000 
  7 C       -3.2340     1.9020    -0.6920 C.3   1 <1>   0.5430 
  8 N       -2.5900     3.2430    -0.7060 N.4   1 <1>  -0.9590 
  9 C       -3.4420     4.2820    -1.3410 C.3   1 <1>   0.4230 
 10 C       -1.1880     3.1800    -1.2050 C.3   1 <1>   0.4860 
 11 C       -3.4570     4.1500    -2.8650 C.3   1 <1>  -0.2400 
 12 C       -2.9490     5.6610    -0.9130 C.3   1 <1>  -0.2400 
 13 C       -0.3880     2.2630    -0.3020 C.ar  1 <1>  -0.1430 
 14 C        0.0270     1.0200    -0.7610 C.ar  1 <1>  -0.1500 
 15 C       -0.0730     2.6540     0.9920 C.ar  1 <1>  -0.1500 
 16 C        0.7360     0.1730     0.0720 C.ar  1 <1>  -0.1500 
 17 C        0.6360     1.8040     1.8230 C.ar  1 <1>  -0.1500 
 18 C        1.0380     0.5630     1.3640 C.ar  1 <1>  -0.1500 
 19 H       -5.4360     2.8730     3.3090 H     1 <1>   0.4000 
 20 H       -6.1990     0.7500     3.0600 H     1 <1>   0.0800 
 21 H       -7.3820     0.5010     1.8080 H     1 <1>   0.0800 
 22 H       -7.7970     1.4610     3.2010 H     1 <1>   0.0800 
 23 H       -7.2800     4.0530     0.5650 H     1 <1>   0.0800 
 24 H       -8.4480     3.4030     1.6970 H     1 <1>   0.0800 
 25 H       -8.0250     2.5040     0.2630 H     1 <1>   0.0800 
 26 H       -3.5250     1.6050    -1.6860 H     1 <1>   0.0800 
 27 H       -2.5620     1.1600    -0.2910 H     1 <1>   0.0800 
 28 H       -2.5310     3.4890     0.2880 H     1 <1>   0.4500 
 29 H       -4.4540     4.1730    -0.9810 H     1 <1>   0.0800 
 30 H       -0.7410     4.1600    -1.1930 H     1 <1>   0.0800 
 31 H       -1.1670     2.8090    -2.2170 H     1 <1>   0.0800 
 32 H       -4.1430     4.8730    -3.2710 H     1 <1>   0.0800 
 33 H       -2.4920     4.3450    -3.2960 H     1 <1>   0.0800 
 34 H       -3.8020     3.1790    -3.1680 H     1 <1>   0.0800 
 35 H       -1.9730     5.8810    -1.3050 H     1 <1>   0.0800 
 36 H       -2.9380     5.7430     0.1590 H     1 <1>   0.0800 
 37 H       -3.6260     6.4100    -1.2870 H     1 <1>   0.0800 
 38 H       -0.1890     0.6950    -1.7650 H     1 <1>   0.1500 
 39 H       -0.3670     3.6180     1.3720 H     1 <1>   0.1500 
 40 H        1.0600    -0.7920    -0.2830 H     1 <1>   0.1500 
 41 H        0.8810     2.1060     2.8280 H     1 <1>   0.1500 
 42 H        1.5910    -0.0970     2.0110 H     1 <1>   0.1500 
@<TRIPOS>BOND
  1   1   2  1   
  2   1  19  1   
  3   2   3  1   
  4   2   4  1   
  5   2   5  1   
  6   3   6  3   
  7   4  20  1   
  8   4  21  1   
  9   4  22  1   
 10   5  23  1   
 11   5  24  1   
 12   5  25  1   
 13   6   7  1   
 14   7   8  1   
 15   7  26  1   
 16   7  27  1   
 17   8   9  1   
 18   8  10  1   
 19   8  28  1   
 20   9  11  1   
 21   9  12  1   
 22   9  29  1   
 23  10  13  1   
 24  10  30  1   
 25  10  31  1   
 26  11  32  1   
 27  11  33  1   
 28  11  34  1   
 29  12  35  1   
 30  12  36  1   
 31  12  37  1   
 32  13  14  ar  
 33  13  15  ar  
 34  14  16  ar  
 35  14  38  1   
 36  15  17  ar  
 37  15  39  1   
 38  16  18  ar  
 39  16  40  1   
 40  17  18  ar  
 41  17  41  1   
 42  18  42  1   
@<TRIPOS>SUBSTRUCTURE
  1 ****   7 GROUP 4 **** **** 0

# MOE 2024.06 (io_trps.svl 2023.06)
