@<TRIPOS>MOLECULE
NONAME
56 60 1 0 0 
SMALL
USER_CHARGES


@<TRIPOS>ATOM
  1 O        0.7730    -0.0990    -1.3160 O.2   1 <1>  -0.5700 
  2 C       -0.1630    -0.8540    -1.1330 C.2   1 <1>   0.5440 
  3 N       -1.3880    -0.4850    -1.6480 N.am  1 <1>  -0.6600 
  4 C       -0.0120    -2.0760    -0.3600 C.ar  1 <1>   0.0860 
  5 C       -2.6400    -0.6760    -0.8670 C.3   1 <1>   0.1400 
  6 C       -1.4790     0.6200    -2.6420 C.3   1 <1>   0.1400 
  7 C        0.5420    -2.1080     0.9280 C.ar  1 <1>  -0.1440 
  8 C       -0.4580    -3.2800    -0.9070 C.ar  1 <1>  -0.1500 
  9 C       -3.0140     0.6410    -0.1560 C.3   1 <1>   0.3430 
 10 C       -1.8080     1.9330    -1.9130 C.3   1 <1>   0.3430 
 11 C        0.6230    -3.3040     1.6240 C.ar  1 <1>  -0.1500 
 12 C        1.0730    -0.8440     1.5950 C.3   1 <1>  -0.0970 
 13 C       -0.3770    -4.4690    -0.2080 C.ar  1 <1>  -0.1500 
 14 N       -3.0810     1.8340    -1.0920 N.4   1 <1>  -0.9590 
 15 C        0.1630    -4.4810     1.0630 C.ar  1 <1>  -0.1500 
 16 C       -3.4510     3.1170    -0.4060 C.3   1 <1>   0.5030 
 17 C       -2.3840     3.5480     0.6270 C.3   1 <1>  -0.1600 
 18 C       -4.8090     2.9460     0.3180 C.3   1 <1>  -0.1600 
 19 C       -3.6110     4.2400    -1.4590 C.3   1 <1>  -0.1600 
 20 C       -2.8020     4.8670     1.3060 C.3   1 <1>  -0.0800 
 21 C       -5.2340     4.2600     0.9980 C.3   1 <1>  -0.0800 
 22 C       -4.0300     5.5620    -0.7890 C.3   1 <1>  -0.0800 
 23 C       -4.1540     4.6700     2.0170 C.3   1 <1>  -0.1600 
 24 C       -2.9550     5.9660     0.2380 C.3   1 <1>  -0.1600 
 25 C       -5.3720     5.3620    -0.0660 C.3   1 <1>  -0.1600 
 26 H       -2.5120    -1.4510    -0.1300 H     1 <1>   0.0800 
 27 H       -3.4330    -0.9810    -1.5270 H     1 <1>   0.0800 
 28 H       -2.2380     0.3950    -3.3700 H     1 <1>   0.0800 
 29 H       -0.5450     0.7260    -3.1690 H     1 <1>   0.0800 
 30 H       -0.8720    -3.2830    -1.9000 H     1 <1>   0.1500 
 31 H       -2.2770     0.8260     0.6070 H     1 <1>   0.0800 
 32 H       -3.9630     0.5010     0.3330 H     1 <1>   0.0800 
 33 H       -1.8960     2.7140    -2.6480 H     1 <1>   0.0800 
 34 H       -0.9750     2.1720    -1.2720 H     1 <1>   0.0800 
 35 H        1.0500    -3.3320     2.6120 H     1 <1>   0.1500 
 36 H        0.3420    -0.0580     1.5520 H     1 <1>   0.0800 
 37 H        1.9630    -0.5150     1.0880 H     1 <1>   0.0800 
 38 H        1.3190    -1.0220     2.6260 H     1 <1>   0.0800 
 39 H       -0.7270    -5.3860    -0.6520 H     1 <1>   0.1500 
 40 H       -3.8430     1.6530    -1.7530 H     1 <1>   0.4500 
 41 H        0.2320    -5.4040     1.6130 H     1 <1>   0.1500 
 42 H       -1.4320     3.7000     0.1520 H     1 <1>   0.0800 
 43 H       -2.2660     2.7990     1.3890 H     1 <1>   0.0800 
 44 H       -4.7490     2.1990     1.0870 H     1 <1>   0.0800 
 45 H       -5.5700     2.6540    -0.3830 H     1 <1>   0.0800 
 46 H       -2.6860     4.4280    -1.9720 H     1 <1>   0.0800 
 47 H       -4.3550     3.9670    -2.1860 H     1 <1>   0.0800 
 48 H       -2.0550     5.1640     2.0250 H     1 <1>   0.0800 
 49 H       -6.1770     4.1260     1.5040 H     1 <1>   0.0800 
 50 H       -4.1310     6.3370    -1.5310 H     1 <1>   0.0800 
 51 H       -4.0630     3.9200     2.7830 H     1 <1>   0.0800 
 52 H       -4.4450     5.5870     2.5020 H     1 <1>   0.0800 
 53 H       -2.0140     6.1330    -0.2570 H     1 <1>   0.0800 
 54 H       -3.2360     6.8930     0.7100 H     1 <1>   0.0800 
 55 H       -5.6730     6.2840     0.4030 H     1 <1>   0.0800 
 56 H       -6.1390     5.0990    -0.7750 H     1 <1>   0.0800 
@<TRIPOS>BOND
  1   1   2  2   
  2   2   3  am  
  3   2   4  1   
  4   3   5  1   
  5   3   6  1   
  6   4   7  ar  
  7   4   8  ar  
  8   5   9  1   
  9   5  26  1   
 10   5  27  1   
 11   6  10  1   
 12   6  28  1   
 13   6  29  1   
 14   7  11  ar  
 15   7  12  1   
 16   8  13  ar  
 17   8  30  1   
 18   9  14  1   
 19   9  31  1   
 20   9  32  1   
 21  10  14  1   
 22  10  33  1   
 23  10  34  1   
 24  11  15  ar  
 25  11  35  1   
 26  12  36  1   
 27  12  37  1   
 28  12  38  1   
 29  13  15  ar  
 30  13  39  1   
 31  14  16  1   
 32  14  40  1   
 33  15  41  1   
 34  16  17  1   
 35  16  18  1   
 36  16  19  1   
 37  17  20  1   
 38  17  42  1   
 39  17  43  1   
 40  18  21  1   
 41  18  44  1   
 42  18  45  1   
 43  19  22  1   
 44  19  46  1   
 45  19  47  1   
 46  20  23  1   
 47  20  24  1   
 48  20  48  1   
 49  21  23  1   
 50  21  25  1   
 51  21  49  1   
 52  22  24  1   
 53  22  25  1   
 54  22  50  1   
 55  23  51  1   
 56  23  52  1   
 57  24  53  1   
 58  24  54  1   
 59  25  55  1   
 60  25  56  1   
@<TRIPOS>SUBSTRUCTURE
  1 ****   9 GROUP 4 **** **** 0

# MOE 2024.06 (io_trps.svl 2023.06)
