@<TRIPOS>MOLECULE
NONAME
30 30 1 0 0 
SMALL
USER_CHARGES


@<TRIPOS>ATOM
  1 CL       0.5720     0.8620     1.3220 Cl    1 <1>  -0.1770 
  2 C       -1.0660     1.3440     0.9560 C.ar  1 <1>   0.1770 
  3 C       -1.9100     0.4520     0.3200 C.ar  1 <1>  -0.1500 
  4 C       -1.4990     2.6080     1.3090 C.ar  1 <1>  -0.1500 
  5 C       -3.2080     0.8370     0.0330 C.ar  1 <1>  -0.1500 
  6 C       -2.7990     2.9830     1.0180 C.ar  1 <1>  -0.1500 
  7 C       -3.6720     2.1070     0.3750 C.ar  1 <1>   0.1990 
  8 N       -4.9860     2.4790     0.0900 N.am  1 <1>  -0.6930 
  9 S       -5.3150     4.0620    -0.5530 S.o2  1 <1>   1.3330 
 10 C       -6.0740     1.6900     0.7560 C.3   1 <1>   0.3370 
 11 O       -4.2570     4.3400    -1.4920 O.2   1 <1>  -0.6500 
 12 O       -5.5410     4.9450     0.5630 O.2   1 <1>  -0.6500 
 13 C       -6.8160     3.9240    -1.5050 C.3   1 <1>  -0.1350 
 14 C       -7.0570     1.0640    -0.2620 C.2   1 <1>   0.5690 
 15 C       -6.7480     2.5020     1.8730 C.3   1 <1>  -0.2400 
 16 O       -8.2360     0.9950    -0.0240 O.2   1 <1>  -0.5700 
 17 N       -6.6010     0.5980    -1.4460 N.am  1 <1>  -0.8000 
 18 H       -1.5470    -0.5250     0.0560 H     1 <1>   0.1500 
 19 H       -0.8260     3.2870     1.8020 H     1 <1>   0.1500 
 20 H       -3.8620     0.1470    -0.4640 H     1 <1>   0.1500 
 21 H       -3.1370     3.9660     1.2960 H     1 <1>   0.1500 
 22 H       -5.6110     0.8530     1.2480 H     1 <1>   0.0800 
 23 H       -6.7020     3.1960    -2.2830 H     1 <1>   0.0800 
 24 H       -7.0390     4.8690    -1.9610 H     1 <1>   0.0800 
 25 H       -7.6440     3.6530    -0.8820 H     1 <1>   0.0800 
 26 H       -7.3720     3.2790     1.4720 H     1 <1>   0.0800 
 27 H       -6.0070     2.9340     2.5220 H     1 <1>   0.0800 
 28 H       -7.3740     1.8530     2.4590 H     1 <1>   0.0800 
 29 H       -7.2500     0.1670    -2.1070 H     1 <1>   0.3700 
 30 H       -5.6300     0.6990    -1.7500 H     1 <1>   0.3700 
@<TRIPOS>BOND
  1   1   2  1   
  2   2   3  ar  
  3   2   4  ar  
  4   3   5  ar  
  5   3  18  1   
  6   4   6  ar  
  7   4  19  1   
  8   5   7  ar  
  9   5  20  1   
 10   6   7  ar  
 11   6  21  1   
 12   7   8  1   
 13   8   9  am  
 14   8  10  1   
 15   9  11  2   
 16   9  12  2   
 17   9  13  1   
 18  10  14  1   
 19  10  15  1   
 20  10  22  1   
 21  13  23  1   
 22  13  24  1   
 23  13  25  1   
 24  14  16  2   
 25  14  17  am  
 26  15  26  1   
 27  15  27  1   
 28  15  28  1   
 29  17  29  1   
 30  17  30  1   
@<TRIPOS>SUBSTRUCTURE
  1 ****   8 GROUP 4 **** **** 0

# MOE 2024.06 (io_trps.svl 2023.06)
