@<TRIPOS>MOLECULE
NONAME
45 47 1 0 0 
SMALL
USER_CHARGES


@<TRIPOS>ATOM
  1 P        0.1560     0.5240     0.2350 P.3   1 <1>   1.2420 
  2 O       -0.4160     1.3670     1.2890 O.2   1 <1>  -0.7000 
  3 O       -0.5190    -0.9410     0.1970 O.3   1 <1>  -0.5510 
  4 O       -0.2290     1.0650    -1.2320 O.3   1 <1>  -0.5510 
  5 C        1.9650     0.2750     0.1960 C.3   1 <1>   0.4330 
  6 C       -0.7530    -1.5590    -1.0190 C.3   1 <1>   0.1200 
  7 C       -1.5130     0.8180    -1.6820 C.3   1 <1>   0.1200 
  8 N        2.6340    -0.4830     1.3120 N.pl3 1 <1>  -0.8690 
  9 C        2.7780     1.5630     0.0780 C.ar  1 <1>  -0.1440 
 10 C       -1.7090    -0.6970    -1.8600 C.3   1 <1>  -0.1600 
 11 C        3.0850    -1.7530     0.9960 C.ar  1 <1>   0.1000 
 12 C        2.6300     2.5820     1.0090 C.ar  1 <1>  -0.1500 
 13 C        3.6900     1.7230    -0.9580 C.ar  1 <1>  -0.1500 
 14 C        4.4190    -1.9680     0.6800 C.ar  1 <1>  -0.1500 
 15 C        2.2070    -2.8280     0.9730 C.ar  1 <1>  -0.1500 
 16 C        3.3740     3.7440     0.9020 C.ar  1 <1>  -0.1500 
 17 C        4.4340     2.8850    -1.0650 C.ar  1 <1>  -0.1500 
 18 C        4.8630    -3.2310     0.3330 C.ar  1 <1>  -0.1500 
 19 C        2.6500    -4.0910     0.6260 C.ar  1 <1>  -0.1500 
 20 C        4.2750     3.8970    -0.1350 C.ar  1 <1>  -0.1500 
 21 C        3.9810    -4.3010     0.3010 C.ar  1 <1>  -0.1440 
 22 C        4.4690    -5.6900    -0.0800 C.3   1 <1>  -0.0170 
 23 C        4.3540    -5.9040    -1.5910 C.3   1 <1>  -0.2400 
 24 H        2.1650    -0.2840    -0.6990 H     1 <1>   0.0800 
 25 H       -1.1750    -2.5310    -0.8280 H     1 <1>   0.0800 
 26 H        0.1930    -1.6810    -1.5200 H     1 <1>   0.0800 
 27 H       -1.6530     1.3410    -2.6120 H     1 <1>   0.0800 
 28 H       -2.2010     1.2110    -0.9500 H     1 <1>   0.0800 
 29 H        3.3680     0.1230     1.6950 H     1 <1>   0.4000 
 30 H       -2.7250    -0.9440    -1.6060 H     1 <1>   0.0800 
 31 H       -1.5830    -0.9520    -2.8970 H     1 <1>   0.0800 
 32 H        1.9330     2.4800     1.8260 H     1 <1>   0.1500 
 33 H        3.8300     0.9440    -1.6880 H     1 <1>   0.1500 
 34 H        5.1080    -1.1440     0.7030 H     1 <1>   0.1500 
 35 H        1.1780    -2.6680     1.2400 H     1 <1>   0.1500 
 36 H        3.2470     4.5300     1.6270 H     1 <1>   0.1500 
 37 H        5.1370     3.0020    -1.8710 H     1 <1>   0.1500 
 38 H        5.8990    -3.3810     0.0860 H     1 <1>   0.1500 
 39 H        1.9540    -4.9110     0.6130 H     1 <1>   0.1500 
 40 H        4.8520     4.8020    -0.2190 H     1 <1>   0.1500 
 41 H        3.8860    -6.4330     0.4350 H     1 <1>   0.0800 
 42 H        5.4940    -5.8110     0.2250 H     1 <1>   0.0800 
 43 H        3.3300    -5.8020    -1.9030 H     1 <1>   0.0800 
 44 H        4.7000    -6.8880    -1.8530 H     1 <1>   0.0800 
 45 H        4.9480    -5.1760    -2.1150 H     1 <1>   0.0800 
@<TRIPOS>BOND
  1   1   2  2   
  2   1   3  1   
  3   1   4  1   
  4   1   5  1   
  5   3   6  1   
  6   4   7  1   
  7   5   8  1   
  8   5   9  1   
  9   5  24  1   
 10   6  10  1   
 11   6  25  1   
 12   6  26  1   
 13   7  10  1   
 14   7  27  1   
 15   7  28  1   
 16   8  11  1   
 17   8  29  1   
 18   9  12  ar  
 19   9  13  ar  
 20  10  30  1   
 21  10  31  1   
 22  11  14  ar  
 23  11  15  ar  
 24  12  16  ar  
 25  12  32  1   
 26  13  17  ar  
 27  13  33  1   
 28  14  18  ar  
 29  14  34  1   
 30  15  19  ar  
 31  15  35  1   
 32  16  20  ar  
 33  16  36  1   
 34  17  20  ar  
 35  17  37  1   
 36  18  21  ar  
 37  18  38  1   
 38  19  21  ar  
 39  19  39  1   
 40  20  40  1   
 41  21  22  1   
 42  22  23  1   
 43  22  41  1   
 44  22  42  1   
 45  23  43  1   
 46  23  44  1   
 47  23  45  1   
@<TRIPOS>SUBSTRUCTURE
  1 ****   5 GROUP 4 **** **** 0

# MOE 2024.06 (io_trps.svl 2023.06)
