@<TRIPOS>MOLECULE
NONAME
38 40 1 0 0 
SMALL
USER_CHARGES


@<TRIPOS>ATOM
  1 F       -2.9950     3.4500     0.1880 F     1 <1>  -0.1900 
  2 C       -3.7860     2.4150     0.1660 C.ar  1 <1>   0.1900 
  3 C       -4.7500     2.3290    -0.8190 C.ar  1 <1>  -0.1500 
  4 C       -3.6340     1.4350     1.1260 C.ar  1 <1>  -0.1500 
  5 C       -5.5870     1.2270    -0.8340 C.ar  1 <1>  -0.1500 
  6 C       -4.4800     0.3400     1.0960 C.ar  1 <1>  -0.1500 
  7 C       -5.4800     0.2110     0.1240 C.ar  1 <1>   0.0860 
  8 C       -6.3420    -0.9580     0.1260 C.2   1 <1>   0.6340 
  9 O       -5.9300    -2.0670     0.3870 O.2   1 <1>  -0.5700 
 10 O       -7.6590    -0.8550    -0.1360 O.3   1 <1>  -0.0870 
 11 N       -8.3580     0.2760    -0.0350 N.2   1 <1>  -0.5130 
 12 C       -9.6110     0.1980     0.0480 C.2   1 <1>   0.3280 
 13 C      -10.4300     1.4990     0.1710 C.3   1 <1>  -0.0990 
 14 C      -10.3730    -1.1620     0.0440 C.3   1 <1>  -0.0990 
 15 C      -11.8420     1.0960     0.5630 C.3   1 <1>   0.4230 
 16 C      -11.9300    -1.1000     0.0370 C.3   1 <1>   0.4230 
 17 N      -12.3040     0.1890    -0.5320 N.4   1 <1>  -0.9590 
 18 C      -12.8250     0.5820     1.5950 C.3   1 <1>  -0.1600 
 19 C      -12.6260    -0.9520     1.4130 C.3   1 <1>  -0.1600 
 20 C      -11.9430     0.4160    -1.9790 C.3   1 <1>   0.2630 
 21 H       -4.8350     3.1090    -1.5550 H     1 <1>   0.1500 
 22 H       -2.8690     1.5310     1.8770 H     1 <1>   0.1500 
 23 H       -6.3360     1.1490    -1.6030 H     1 <1>   0.1500 
 24 H       -4.3680    -0.4360     1.8350 H     1 <1>   0.1500 
 25 H      -10.0040     2.1080     0.9490 H     1 <1>   0.0800 
 26 H      -10.3990     2.0770    -0.7340 H     1 <1>   0.0800 
 27 H      -10.0690    -1.7030    -0.8340 H     1 <1>   0.0800 
 28 H      -10.0460    -1.7510     0.8830 H     1 <1>   0.0800 
 29 H      -11.2230     0.5760     1.2730 H     1 <1>   0.0800 
 30 H      -12.3480    -1.9260    -0.5180 H     1 <1>   0.0800 
 31 H      -13.3310     0.2230    -0.4850 H     1 <1>   0.4500 
 32 H      -12.5760     0.9100     2.5910 H     1 <1>   0.0800 
 33 H      -13.8310     0.8940     1.3660 H     1 <1>   0.0800 
 34 H      -13.5740    -1.4620     1.4180 H     1 <1>   0.0800 
 35 H      -12.0150    -1.3710     2.1950 H     1 <1>   0.0800 
 36 H      -10.8800     0.3300    -2.1320 H     1 <1>   0.0800 
 37 H      -12.2570     1.4000    -2.2890 H     1 <1>   0.0800 
 38 H      -12.4360    -0.3110    -2.6040 H     1 <1>   0.0800 
@<TRIPOS>BOND
  1   1   2  1   
  2   2   3  ar  
  3   2   4  ar  
  4   3   5  ar  
  5   3  21  1   
  6   4   6  ar  
  7   4  22  1   
  8   5   7  ar  
  9   5  23  1   
 10   6   7  ar  
 11   6  24  1   
 12   7   8  1   
 13   8   9  2   
 14   8  10  1   
 15  10  11  1   
 16  11  12  2   
 17  12  13  1   
 18  12  14  1   
 19  13  15  1   
 20  13  25  1   
 21  13  26  1   
 22  14  16  1   
 23  14  27  1   
 24  14  28  1   
 25  15  17  1   
 26  15  18  1   
 27  15  29  1   
 28  16  17  1   
 29  16  19  1   
 30  16  30  1   
 31  17  20  1   
 32  17  31  1   
 33  18  19  1   
 34  18  32  1   
 35  18  33  1   
 36  19  34  1   
 37  19  35  1   
 38  20  36  1   
 39  20  37  1   
 40  20  38  1   
@<TRIPOS>SUBSTRUCTURE
  1 ****  11 GROUP 4 **** **** 0

# MOE 2024.06 (io_trps.svl 2023.06)
