@<TRIPOS>MOLECULE
NONAME
39 41 1 0 0 
SMALL
USER_CHARGES


@<TRIPOS>ATOM
  1 CL      -0.4700    -1.9480     1.1990 Cl    1 <1>  -0.1770 
  2 C        0.7930    -2.3770     0.0770 C.ar  1 <1>   0.1770 
  3 C        2.1100    -2.2800     0.4840 C.ar  1 <1>  -0.1500 
  4 C        0.4600    -2.8060    -1.1920 C.ar  1 <1>  -0.1500 
  5 C        3.1340    -2.6200    -0.3960 C.ar  1 <1>  -0.1440 
  6 C        1.4730    -3.1430    -2.0720 C.ar  1 <1>  -0.1500 
  7 C        2.7970    -3.0500    -1.6750 C.ar  1 <1>  -0.1500 
  8 C        4.6110    -2.5510    -0.0230 C.3   1 <1>   0.5660 
  9 N        4.7870    -3.0850     1.3450 N.4   1 <1>  -0.9060 
 10 C        5.2250    -1.1450    -0.1470 C.3   1 <1>  -0.0800 
 11 C        6.2230    -3.2250     1.7030 C.3   1 <1>   0.3430 
 12 C        6.7170    -1.2340     0.2210 C.3   1 <1>   0.2800 
 13 C        4.5020    -0.0330     0.6530 C.3   1 <1>  -0.1600 
 14 C        6.9150    -1.8650     1.6080 C.3   1 <1>  -0.1600 
 15 O        7.3000    -2.0970    -0.6800 O.3   1 <1>  -0.6800 
 16 C        7.4160     0.1260     0.0800 C.3   1 <1>  -0.1600 
 17 C        5.2150     1.3170     0.4900 C.3   1 <1>  -0.1600 
 18 C        6.6990     1.2340     0.8680 C.3   1 <1>  -0.1600 
 19 H        2.2970    -1.9300     1.4820 H     1 <1>   0.1500 
 20 H       -0.5730    -2.8720    -1.4830 H     1 <1>   0.1500 
 21 H        1.2270    -3.4770    -3.0670 H     1 <1>   0.1500 
 22 H        3.5630    -3.3180    -2.3860 H     1 <1>   0.1500 
 23 H        5.1470    -3.1930    -0.7050 H     1 <1>   0.0800 
 24 H        4.3070    -3.9910     1.3850 H     1 <1>   0.4500 
 25 H        4.3140    -2.4520     1.9930 H     1 <1>   0.4500 
 26 H        5.1630    -0.8630    -1.1850 H     1 <1>   0.0800 
 27 H        6.7010    -3.9100     1.0200 H     1 <1>   0.0800 
 28 H        6.3220    -3.6170     2.7020 H     1 <1>   0.0800 
 29 H        4.4540    -0.2740     1.7000 H     1 <1>   0.0800 
 30 H        3.4930     0.0830     0.2940 H     1 <1>   0.0800 
 31 H        7.9660    -1.9880     1.8020 H     1 <1>   0.0800 
 32 H        6.5310    -1.2210     2.3780 H     1 <1>   0.0800 
 33 H        8.2270    -1.8250    -0.8500 H     1 <1>   0.4000 
 34 H        7.4250     0.4130    -0.9590 H     1 <1>   0.0800 
 35 H        8.4360     0.0610     0.4180 H     1 <1>   0.0800 
 36 H        4.7300     2.0590     1.1010 H     1 <1>   0.0800 
 37 H        5.1310     1.6410    -0.5350 H     1 <1>   0.0800 
 38 H        7.1700     2.1810     0.6590 H     1 <1>   0.0800 
 39 H        6.7930     1.0600     1.9260 H     1 <1>   0.0800 
@<TRIPOS>BOND
  1   1   2  1   
  2   2   3  ar  
  3   2   4  ar  
  4   3   5  ar  
  5   3  19  1   
  6   4   6  ar  
  7   4  20  1   
  8   5   7  ar  
  9   5   8  1   
 10   6   7  ar  
 11   6  21  1   
 12   7  22  1   
 13   8   9  1   
 14   8  10  1   
 15   8  23  1   
 16   9  11  1   
 17   9  24  1   
 18   9  25  1   
 19  10  12  1   
 20  10  13  1   
 21  10  26  1   
 22  11  14  1   
 23  11  27  1   
 24  11  28  1   
 25  12  14  1   
 26  12  15  1   
 27  12  16  1   
 28  13  17  1   
 29  13  29  1   
 30  13  30  1   
 31  14  31  1   
 32  14  32  1   
 33  15  33  1   
 34  16  18  1   
 35  16  34  1   
 36  16  35  1   
 37  17  18  1   
 38  17  36  1   
 39  17  37  1   
 40  18  38  1   
 41  18  39  1   
@<TRIPOS>SUBSTRUCTURE
  1 ****   8 GROUP 4 **** **** 0

# MOE 2024.06 (io_trps.svl 2023.06)
