@<TRIPOS>MOLECULE
NONAME
51 53 1 0 0 
SMALL
USER_CHARGES


@<TRIPOS>ATOM
  1 S        0.1070    -0.2860     0.3220 S.o2  1 <1>   1.3330 
  2 O        1.4880    -0.6600     0.1260 O.2   1 <1>  -0.6500 
  3 O       -0.3210     0.2560     1.5910 O.2   1 <1>  -0.6500 
  4 N       -0.8600    -1.6350    -0.0200 N.am  1 <1>  -0.8490 
  5 C       -0.3250     0.8530    -0.9760 C.3   1 <1>  -0.1350 
  6 C       -2.2540    -1.4510     0.4210 C.3   1 <1>   0.1960 
  7 C       -0.2940    -2.8510     0.5770 C.3   1 <1>   0.1960 
  8 C       -3.1270    -2.6160    -0.0680 C.3   1 <1>  -0.0190 
  9 C       -1.0930    -4.0850     0.1390 C.3   1 <1>  -0.1600 
 10 C       -4.5860    -2.4100     0.3190 C.2   1 <1>   0.5690 
 11 C       -2.5840    -3.9490     0.4770 C.3   1 <1>  -0.1600 
 12 O       -4.8480    -1.7300     1.2810 O.2   1 <1>  -0.5700 
 13 N       -5.5330    -3.0280    -0.4510 N.am  1 <1>  -0.5470 
 14 C       -6.9360    -3.0190    -0.3650 C.ar  1 <1>   0.1170 
 15 C       -7.6460    -4.0620    -0.9500 C.ar  1 <1>  -0.1500 
 16 C       -7.6520    -2.0050     0.2640 C.ar  1 <1>  -0.1500 
 17 C       -9.0280    -4.0930    -0.9020 C.ar  1 <1>  -0.1500 
 18 C       -9.0340    -2.0310     0.3170 C.ar  1 <1>  -0.1500 
 19 C       -9.7330    -3.0830    -0.2700 C.ar  1 <1>   0.0820 
 20 O      -11.0860    -3.1930    -0.2670 O.3   1 <1>  -0.3620 
 21 C      -11.8900    -2.2220     0.3650 C.3   1 <1>   0.2630 
 22 C      -13.3500    -2.6220     0.2240 C.ar  1 <1>  -0.1440 
 23 C      -13.8570    -3.6750     0.9700 C.ar  1 <1>  -0.1500 
 24 C      -14.1880    -1.9390    -0.6440 C.ar  1 <1>  -0.1500 
 25 C      -15.1880    -4.0380     0.8550 C.ar  1 <1>  -0.1500 
 26 C      -15.5200    -2.3000    -0.7600 C.ar  1 <1>  -0.1500 
 27 C      -16.0210    -3.3490    -0.0100 C.ar  1 <1>  -0.1500 
 28 H        0.2640     1.7450    -0.8890 H     1 <1>   0.0800 
 29 H       -1.3610     1.1200    -0.9150 H     1 <1>   0.0800 
 30 H       -0.1350     0.4080    -1.9330 H     1 <1>   0.0800 
 31 H       -2.6460    -0.5300     0.0240 H     1 <1>   0.0800 
 32 H       -2.2930    -1.3890     1.4980 H     1 <1>   0.0800 
 33 H       -0.2990    -2.7650     1.6520 H     1 <1>   0.0800 
 34 H        0.7270    -2.9760     0.2560 H     1 <1>   0.0800 
 35 H       -3.0710    -2.6270    -1.1420 H     1 <1>   0.0800 
 36 H       -0.6900    -4.9560     0.6250 H     1 <1>   0.0800 
 37 H       -0.9670    -4.2150    -0.9220 H     1 <1>   0.0800 
 38 H       -3.1300    -4.7770     0.0600 H     1 <1>   0.0800 
 39 H       -2.7100    -3.9720     1.5470 H     1 <1>   0.0800 
 40 H       -5.1660    -3.6370    -1.1790 H     1 <1>   0.3700 
 41 H       -7.1220    -4.8590    -1.4430 H     1 <1>   0.1500 
 42 H       -7.1320    -1.1820     0.7180 H     1 <1>   0.1500 
 43 H       -9.5730    -4.9030    -1.3540 H     1 <1>   0.1500 
 44 H       -9.5390    -1.2270     0.8160 H     1 <1>   0.1500 
 45 H      -11.7070    -1.2730    -0.1050 H     1 <1>   0.0800 
 46 H      -11.6160    -2.1780     1.4050 H     1 <1>   0.0800 
 47 H      -13.2130    -4.2190     1.6390 H     1 <1>   0.1500 
 48 H      -13.8090    -1.1250    -1.2360 H     1 <1>   0.1500 
 49 H      -15.5740    -4.8570     1.4360 H     1 <1>   0.1500 
 50 H      -16.1650    -1.7670    -1.4360 H     1 <1>   0.1500 
 51 H      -17.0550    -3.6310    -0.1000 H     1 <1>   0.1500 
@<TRIPOS>BOND
  1   1   2  2   
  2   1   3  2   
  3   1   4  am  
  4   1   5  1   
  5   4   6  1   
  6   4   7  1   
  7   5  28  1   
  8   5  29  1   
  9   5  30  1   
 10   6   8  1   
 11   6  31  1   
 12   6  32  1   
 13   7   9  1   
 14   7  33  1   
 15   7  34  1   
 16   8  10  1   
 17   8  11  1   
 18   8  35  1   
 19   9  11  1   
 20   9  36  1   
 21   9  37  1   
 22  10  12  2   
 23  10  13  am  
 24  11  38  1   
 25  11  39  1   
 26  13  14  1   
 27  13  40  1   
 28  14  15  ar  
 29  14  16  ar  
 30  15  17  ar  
 31  15  41  1   
 32  16  18  ar  
 33  16  42  1   
 34  17  19  ar  
 35  17  43  1   
 36  18  19  ar  
 37  18  44  1   
 38  19  20  1   
 39  20  21  1   
 40  21  22  1   
 41  21  45  1   
 42  21  46  1   
 43  22  23  ar  
 44  22  24  ar  
 45  23  25  ar  
 46  23  47  1   
 47  24  26  ar  
 48  24  48  1   
 49  25  27  ar  
 50  25  49  1   
 51  26  27  ar  
 52  26  50  1   
 53  27  51  1   
@<TRIPOS>SUBSTRUCTURE
  1 ****  14 GROUP 4 **** **** 0

# MOE 2024.06 (io_trps.svl 2023.06)
