@<TRIPOS>MOLECULE
NONAME
38 39 1 0 0 
SMALL
USER_CHARGES


@<TRIPOS>ATOM
  1 S       -2.5930     0.7170    -1.0150 S.3   1 <1>  -0.0800 
  2 C       -2.4790     2.1950    -0.0690 C.2   1 <1>  -0.1400 
  3 C       -4.0770     0.2590    -0.2000 C.2   1 <1>  -0.1100 
  4 C       -3.5150     2.2900     0.7860 C.2   1 <1>  -0.1500 
  5 C       -1.2940     3.0850    -0.3450 C.3   1 <1>   0.5230 
  6 C       -4.4230     1.1860     0.7110 C.2   1 <1>  -0.1500 
  7 N       -0.0910     2.2880    -0.0060 N.4   1 <1>  -0.9060 
  8 C        1.1940     2.9700    -0.3020 C.3   1 <1>   0.3430 
  9 C        2.3680     2.0470     0.0590 C.3   1 <1>  -0.1600 
 10 C        3.7160     2.7270    -0.2300 C.3   1 <1>   0.3430 
 11 N        4.8620     1.8770     0.2100 N.4   1 <1>  -0.9590 
 12 C        6.1410     2.6830     0.2200 C.3   1 <1>   0.3430 
 13 C        5.0580     0.6420    -0.6430 C.3   1 <1>   0.3430 
 14 C        7.3650     1.8170     0.5760 C.3   1 <1>   0.1200 
 15 C        6.3310    -0.1320    -0.2480 C.3   1 <1>   0.1200 
 16 O        7.4380     0.7180    -0.2820 O.3   1 <1>  -0.5600 
 17 H       -4.5430    -0.6660    -0.4930 H     1 <1>   0.1500 
 18 H       -3.7020     3.0910     1.4840 H     1 <1>   0.1500 
 19 H       -1.3500     3.9740     0.2640 H     1 <1>   0.0800 
 20 H       -1.2880     3.3680    -1.3860 H     1 <1>   0.0800 
 21 H       -5.2950     1.1410     1.3430 H     1 <1>   0.1500 
 22 H       -0.1910     1.4060    -0.5300 H     1 <1>   0.4500 
 23 H       -0.1810     2.0300     0.9850 H     1 <1>   0.4500 
 24 H        1.2580     3.8840     0.2690 H     1 <1>   0.0800 
 25 H        1.2370     3.2220    -1.3510 H     1 <1>   0.0800 
 26 H        2.2910     1.1450    -0.5220 H     1 <1>   0.0800 
 27 H        2.3150     1.8070     1.1060 H     1 <1>   0.0800 
 28 H        3.7540     3.6670     0.3000 H     1 <1>   0.0800 
 29 H        3.8080     2.9380    -1.2840 H     1 <1>   0.0800 
 30 H        4.7150     1.5600     1.1780 H     1 <1>   0.4500 
 31 H        6.0660     3.4900     0.9300 H     1 <1>   0.0800 
 32 H        6.3110     3.1140    -0.7530 H     1 <1>   0.0800 
 33 H        5.1490     0.9240    -1.6790 H     1 <1>   0.0800 
 34 H        4.2100    -0.0150    -0.5500 H     1 <1>   0.0800 
 35 H        7.3180     1.4640     1.5920 H     1 <1>   0.0800 
 36 H        8.2710     2.3860     0.4540 H     1 <1>   0.0800 
 37 H        6.5130    -0.9300    -0.9480 H     1 <1>   0.0800 
 38 H        6.2470    -0.5560     0.7380 H     1 <1>   0.0800 
@<TRIPOS>BOND
  1   1   2  1   
  2   1   3  1   
  3   2   4  2   
  4   2   5  1   
  5   3   6  2   
  6   3  17  1   
  7   4   6  1   
  8   4  18  1   
  9   5   7  1   
 10   5  19  1   
 11   5  20  1   
 12   6  21  1   
 13   7   8  1   
 14   7  22  1   
 15   7  23  1   
 16   8   9  1   
 17   8  24  1   
 18   8  25  1   
 19   9  10  1   
 20   9  26  1   
 21   9  27  1   
 22  10  11  1   
 23  10  28  1   
 24  10  29  1   
 25  11  12  1   
 26  11  13  1   
 27  11  30  1   
 28  12  14  1   
 29  12  31  1   
 30  12  32  1   
 31  13  15  1   
 32  13  33  1   
 33  13  34  1   
 34  14  16  1   
 35  14  35  1   
 36  14  36  1   
 37  15  16  1   
 38  15  37  1   
 39  15  38  1   
@<TRIPOS>SUBSTRUCTURE
  1 ****   9 GROUP 4 **** **** 0

# MOE 2024.06 (io_trps.svl 2023.06)
