@<TRIPOS>MOLECULE
NONAME
40 41 1 0 0 
SMALL
USER_CHARGES


@<TRIPOS>ATOM
  1 O        0.9460     0.0470     1.5410 O.3   1 <1>  -0.6800 
  2 C        1.2410    -0.4890     0.3130 C.3   1 <1>   0.4180 
  3 C        0.1810    -1.5540     0.0720 C.2   1 <1>  -0.2880 
  4 C        1.1300     0.6490    -0.7100 C.3   1 <1>  -0.1600 
  5 C        2.6910    -1.0150     0.3640 C.3   1 <1>  -0.1600 
  6 C        0.3380    -2.8750    -0.1230 C.2   1 <1>  -0.2880 
  7 C        2.0660     1.8470    -0.4250 C.3   1 <1>  -0.1600 
  8 C        3.7880     0.0400     0.0920 C.3   1 <1>  -0.1600 
  9 C       -0.7220    -3.9410    -0.3640 C.3   1 <1>   0.4180 
 10 C        3.3350     1.4790     0.3690 C.3   1 <1>  -0.1600 
 11 O       -0.4270    -4.4770    -1.5930 O.3   1 <1>  -0.6800 
 12 C       -0.6110    -5.0780     0.6590 C.3   1 <1>  -0.1600 
 13 C       -2.1720    -3.4140    -0.4160 C.3   1 <1>  -0.1600 
 14 C       -1.5480    -6.2760     0.3750 C.3   1 <1>  -0.1600 
 15 C       -3.2690    -4.4700    -0.1450 C.3   1 <1>  -0.1600 
 16 C       -2.8160    -5.9080    -0.4200 C.3   1 <1>  -0.1600 
 17 H        1.5780     0.7690     1.6950 H     1 <1>   0.4000 
 18 H       -0.7880    -1.0940     0.0810 H     1 <1>   0.1500 
 19 H        1.3790     0.2380    -1.6720 H     1 <1>   0.0800 
 20 H        0.1110     0.9890    -0.7710 H     1 <1>   0.0800 
 21 H        2.8550    -1.4950     1.3130 H     1 <1>   0.0800 
 22 H        2.8100    -1.7670    -0.3930 H     1 <1>   0.0800 
 23 H        1.3080    -3.3360    -0.1320 H     1 <1>   0.1500 
 24 H        2.3510     2.2830    -1.3680 H     1 <1>   0.0800 
 25 H        1.5260     2.6010     0.1210 H     1 <1>   0.0800 
 26 H        4.6610    -0.1890     0.6790 H     1 <1>   0.0800 
 27 H        4.0740    -0.0230    -0.9440 H     1 <1>   0.0800 
 28 H        3.1530     1.5900     1.4240 H     1 <1>   0.0800 
 29 H        4.1260     2.1630     0.1140 H     1 <1>   0.0800 
 30 H       -1.0590    -5.1990    -1.7460 H     1 <1>   0.4000 
 31 H        0.4070    -5.4180     0.7200 H     1 <1>   0.0800 
 32 H       -0.8610    -4.6670     1.6210 H     1 <1>   0.0800 
 33 H       -2.2910    -2.6620     0.3410 H     1 <1>   0.0800 
 34 H       -2.3350    -2.9340    -1.3650 H     1 <1>   0.0800 
 35 H       -1.0070    -7.0310    -0.1720 H     1 <1>   0.0800 
 36 H       -1.8330    -6.7120     1.3170 H     1 <1>   0.0800 
 37 H       -3.5560    -4.4060     0.8910 H     1 <1>   0.0800 
 38 H       -4.1420    -4.2410    -0.7320 H     1 <1>   0.0800 
 39 H       -3.6070    -6.5920    -0.1650 H     1 <1>   0.0800 
 40 H       -2.6330    -6.0200    -1.4750 H     1 <1>   0.0800 
@<TRIPOS>BOND
  1   1   2  1   
  2   1  17  1   
  3   2   3  1   
  4   2   4  1   
  5   2   5  1   
  6   3   6  2   
  7   3  18  1   
  8   4   7  1   
  9   4  19  1   
 10   4  20  1   
 11   5   8  1   
 12   5  21  1   
 13   5  22  1   
 14   6   9  1   
 15   6  23  1   
 16   7  10  1   
 17   7  24  1   
 18   7  25  1   
 19   8  10  1   
 20   8  26  1   
 21   8  27  1   
 22   9  11  1   
 23   9  12  1   
 24   9  13  1   
 25  10  28  1   
 26  10  29  1   
 27  11  30  1   
 28  12  14  1   
 29  12  31  1   
 30  12  32  1   
 31  13  15  1   
 32  13  33  1   
 33  13  34  1   
 34  14  16  1   
 35  14  35  1   
 36  14  36  1   
 37  15  16  1   
 38  15  37  1   
 39  15  38  1   
 40  16  39  1   
 41  16  40  1   
@<TRIPOS>SUBSTRUCTURE
  1 ****   6 GROUP 4 **** **** 0

# MOE 2024.06 (io_trps.svl 2023.06)
