@<TRIPOS>MOLECULE
NONAME
55 57 1 0 0 
SMALL
USER_CHARGES


@<TRIPOS>ATOM
  1 O       -0.1750    -3.8630    -0.1040 O.3   1 <1>  -0.3630 
  2 C       -1.5210    -3.9410    -0.2620 C.ar  1 <1>   0.0830 
  3 C        0.4760    -2.6170     0.0520 C.3   1 <1>   0.1200 
  4 C       -2.0540    -5.2040    -0.4500 C.ar  1 <1>  -0.1500 
  5 C       -2.3680    -2.8350    -0.2450 C.ar  1 <1>  -0.1500 
  6 C        1.9840    -2.8530     0.2010 C.3   1 <1>   0.2000 
  7 C       -3.4170    -5.3810    -0.6200 C.ar  1 <1>   0.0830 
  8 C       -3.7310    -3.0060    -0.4150 C.ar  1 <1>  -0.1500 
  9 O        2.1730    -3.7970     1.2060 O.3   1 <1>  -0.6800 
 10 C        2.7390    -1.5480     0.5390 C.3   1 <1>   0.1100 
 11 O       -3.8490    -6.6550    -0.7970 O.3   1 <1>  -0.3630 
 12 C       -4.2590    -4.2720    -0.6020 C.ar  1 <1>  -0.1500 
 13 N        4.2060    -1.5990     0.3040 N.3   1 <1>  -0.8100 
 14 C       -5.2180    -6.9460    -0.9740 C.3   1 <1>   0.0400 
 15 C        4.8160    -0.2630     0.4940 C.3   1 <1>   0.1100 
 16 C        4.8790    -2.6060     1.1740 C.3   1 <1>   0.1100 
 17 C        6.3260    -0.2540     0.1460 C.3   1 <1>   0.3430 
 18 C        6.4210    -2.5040     1.1550 C.3   1 <1>   0.3430 
 19 N        6.8700    -1.6440     0.0130 N.4   1 <1>  -0.9590 
 20 C        8.3270    -1.7070    -0.2650 C.3   1 <1>   0.4860 
 21 C        8.7100    -3.1490    -0.5360 C.ar  1 <1>  -0.1430 
 22 C        8.3250    -3.7670    -1.7180 C.ar  1 <1>  -0.1500 
 23 C        9.4400    -3.8640     0.4030 C.ar  1 <1>  -0.1500 
 24 C        8.6580    -5.0900    -1.9520 C.ar  1 <1>  -0.1500 
 25 C        9.7720    -5.1860     0.1660 C.ar  1 <1>  -0.1500 
 26 C        9.3790    -5.8000    -1.0090 C.ar  1 <1>  -0.1500 
 27 H        0.0850    -2.1350     0.9310 H     1 <1>   0.0800 
 28 H        0.2750    -2.0170    -0.8180 H     1 <1>   0.0800 
 29 H       -1.4070    -6.0600    -0.4650 H     1 <1>   0.1500 
 30 H       -1.9910    -1.8410    -0.1010 H     1 <1>   0.1500 
 31 H        2.3640    -3.2600    -0.7200 H     1 <1>   0.0800 
 32 H       -4.3840    -2.1510    -0.4010 H     1 <1>   0.1500 
 33 H        1.4980    -4.5010     1.0870 H     1 <1>   0.4000 
 34 H        2.5320    -1.2760     1.5610 H     1 <1>   0.0800 
 35 H        2.3350    -0.7740    -0.0900 H     1 <1>   0.0800 
 36 H       -5.3190    -4.3750    -0.7310 H     1 <1>   0.1500 
 37 H       -5.3200    -8.0090    -1.0920 H     1 <1>   0.0800 
 38 H       -5.5700    -6.4450    -1.8580 H     1 <1>   0.0800 
 39 H       -5.7590    -6.6210    -0.1030 H     1 <1>   0.0800 
 40 H        4.6880     0.0480     1.5180 H     1 <1>   0.0800 
 41 H        4.3140     0.4590    -0.1280 H     1 <1>   0.0800 
 42 H        4.6150    -3.5920     0.8340 H     1 <1>   0.0800 
 43 H        4.5310    -2.5150     2.1890 H     1 <1>   0.0800 
 44 H        6.8580     0.2850     0.9120 H     1 <1>   0.0800 
 45 H        6.4620     0.2760    -0.7830 H     1 <1>   0.0800 
 46 H        6.8320    -3.4970     1.0670 H     1 <1>   0.0800 
 47 H        6.7630    -2.0850     2.0870 H     1 <1>   0.0800 
 48 H        6.3650    -2.0500    -0.7890 H     1 <1>   0.4500 
 49 H        8.8830    -1.3330     0.5790 H     1 <1>   0.0800 
 50 H        8.5670    -1.1070    -1.1270 H     1 <1>   0.0800 
 51 H        7.7670    -3.2340    -2.4690 H     1 <1>   0.1500 
 52 H        9.7610    -3.4070     1.3230 H     1 <1>   0.1500 
 53 H        8.3590    -5.5700    -2.8680 H     1 <1>   0.1500 
 54 H       10.3390    -5.7420     0.8950 H     1 <1>   0.1500 
 55 H        9.6380    -6.8290    -1.1930 H     1 <1>   0.1500 
@<TRIPOS>BOND
  1   1   2  1   
  2   1   3  1   
  3   2   4  ar  
  4   2   5  ar  
  5   3   6  1   
  6   3  27  1   
  7   3  28  1   
  8   4   7  ar  
  9   4  29  1   
 10   5   8  ar  
 11   5  30  1   
 12   6   9  1   
 13   6  10  1   
 14   6  31  1   
 15   7  11  1   
 16   7  12  ar  
 17   8  12  ar  
 18   8  32  1   
 19   9  33  1   
 20  10  13  1   
 21  10  34  1   
 22  10  35  1   
 23  11  14  1   
 24  12  36  1   
 25  13  15  1   
 26  13  16  1   
 27  14  37  1   
 28  14  38  1   
 29  14  39  1   
 30  15  17  1   
 31  15  40  1   
 32  15  41  1   
 33  16  18  1   
 34  16  42  1   
 35  16  43  1   
 36  17  19  1   
 37  17  44  1   
 38  17  45  1   
 39  18  19  1   
 40  18  46  1   
 41  18  47  1   
 42  19  20  1   
 43  19  48  1   
 44  20  21  1   
 45  20  49  1   
 46  20  50  1   
 47  21  22  ar  
 48  21  23  ar  
 49  22  24  ar  
 50  22  51  1   
 51  23  25  ar  
 52  23  52  1   
 53  24  26  ar  
 54  24  53  1   
 55  25  26  ar  
 56  25  54  1   
 57  26  55  1   
@<TRIPOS>SUBSTRUCTURE
  1 ****   6 GROUP 4 **** **** 0

# MOE 2024.06 (io_trps.svl 2023.06)
