@<TRIPOS>MOLECULE
NONAME
39 41 1 0 0 
SMALL
USER_CHARGES


@<TRIPOS>ATOM
  1 BR      -0.2250     1.0740    -1.1590 Br    1 <1>  -0.1110 
  2 C        1.2990    -0.1030    -0.9690 C.ar  1 <1>   0.1110 
  3 C        1.1440    -1.4320    -0.6400 C.ar  1 <1>   0.3920 
  4 C        2.5620     0.3820    -1.1600 C.ar  1 <1>   0.1600 
  5 O       -0.0950    -1.9230    -0.4450 O.3   1 <1>  -0.3630 
  6 N        2.1850    -2.2290    -0.5120 N.ar  1 <1>  -0.6200 
  7 N        3.6150    -0.3960    -1.0330 N.ar  1 <1>  -0.6200 
  8 C       -0.2810    -3.2760    -0.0840 C.3   1 <1>   0.2630 
  9 C        3.3800    -1.6720    -0.7120 C.ar  1 <1>   0.7200 
 10 C       -1.7690    -3.5390     0.0910 C.ar  1 <1>  -0.1440 
 11 N        4.4800    -2.4920    -0.5760 N.pl3 1 <1>  -0.8380 
 12 C       -2.4740    -2.9030     1.1010 C.ar  1 <1>  -0.1500 
 13 C       -2.4350    -4.4180    -0.7510 C.ar  1 <1>  -0.1500 
 14 C        4.4120    -3.9690    -0.7500 C.3   1 <1>   0.2090 
 15 C        5.8420    -1.9660    -0.2830 C.3   1 <1>   0.2090 
 16 C       -3.8270    -3.1440     1.2720 C.ar  1 <1>  -0.1500 
 17 C       -3.7870    -4.6610    -0.5820 C.ar  1 <1>  -0.1500 
 18 C        4.9420    -4.6570     0.5110 C.3   1 <1>  -0.1600 
 19 C        6.3950    -2.6490     0.9730 C.3   1 <1>  -0.1600 
 20 C       -4.4840    -4.0240     0.4310 C.ar  1 <1>  -0.1500 
 21 C        6.3600    -4.1810     0.8600 C.3   1 <1>  -0.1600 
 22 H        2.7130     1.4160    -1.4190 H     1 <1>   0.1500 
 23 H        0.2420    -3.4570     0.8390 H     1 <1>   0.0800 
 24 H        0.1330    -3.8940    -0.8610 H     1 <1>   0.0800 
 25 H       -1.9690    -2.2130     1.7550 H     1 <1>   0.1500 
 26 H       -1.9050    -4.9170    -1.5440 H     1 <1>   0.1500 
 27 H        5.0180    -4.2460    -1.5960 H     1 <1>   0.0800 
 28 H        3.4060    -4.2980    -0.9480 H     1 <1>   0.0800 
 29 H        5.8240    -0.9020    -0.1210 H     1 <1>   0.0800 
 30 H        6.4830    -2.1650    -1.1240 H     1 <1>   0.0800 
 31 H       -4.3670    -2.6450     2.0580 H     1 <1>   0.1500 
 32 H       -4.2990    -5.3440    -1.2370 H     1 <1>   0.1500 
 33 H        4.9430    -5.7210     0.3620 H     1 <1>   0.0800 
 34 H        4.2730    -4.4380     1.3260 H     1 <1>   0.0800 
 35 H        5.8060    -2.3360     1.8170 H     1 <1>   0.0800 
 36 H        7.4050    -2.3210     1.1390 H     1 <1>   0.0800 
 37 H       -5.5350    -4.2120     0.5620 H     1 <1>   0.1500 
 38 H        7.0430    -4.4970     0.0900 H     1 <1>   0.0800 
 39 H        6.6740    -4.6220     1.7900 H     1 <1>   0.0800 
@<TRIPOS>BOND
  1   1   2  1   
  2   2   3  ar  
  3   2   4  ar  
  4   3   5  1   
  5   3   6  ar  
  6   4   7  ar  
  7   4  22  1   
  8   5   8  1   
  9   6   9  ar  
 10   7   9  ar  
 11   8  10  1   
 12   8  23  1   
 13   8  24  1   
 14   9  11  1   
 15  10  12  ar  
 16  10  13  ar  
 17  11  14  1   
 18  11  15  1   
 19  12  16  ar  
 20  12  25  1   
 21  13  17  ar  
 22  13  26  1   
 23  14  18  1   
 24  14  27  1   
 25  14  28  1   
 26  15  19  1   
 27  15  29  1   
 28  15  30  1   
 29  16  20  ar  
 30  16  31  1   
 31  17  20  ar  
 32  17  32  1   
 33  18  21  1   
 34  18  33  1   
 35  18  34  1   
 36  19  21  1   
 37  19  35  1   
 38  19  36  1   
 39  20  37  1   
 40  21  38  1   
 41  21  39  1   
@<TRIPOS>SUBSTRUCTURE
  1 ****   6 GROUP 4 **** **** 0

# MOE 2024.06 (io_trps.svl 2023.06)
