@<TRIPOS>MOLECULE
NONAME
47 48 1 0 0 
SMALL
USER_CHARGES


@<TRIPOS>ATOM
  1 O       -1.9760     0.7780     0.8310 O.2   1 <1>  -0.5700 
  2 C       -1.4850     1.8650     0.6280 C.2   1 <1>   0.6900 
  3 N       -2.0330     2.8360    -0.1610 N.am  1 <1>  -0.4200 
  4 N       -0.3360     2.2810     1.1940 N.am  1 <1>  -0.7300 
  5 C       -1.2580     3.9570    -0.1020 C.2   1 <1>   0.5690 
  6 C       -3.2870     2.6920    -0.9330 C.3   1 <1>   0.1400 
  7 C       -0.0690     3.6810     0.8410 C.3   1 <1>   0.3610 
  8 O       -1.4650     4.9950    -0.6860 O.2   1 <1>  -0.5700 
  9 C       -4.4920     2.6220     0.0040 C.3   1 <1>   0.1200 
 10 C        1.2890     3.7610     0.1410 C.3   1 <1>  -0.2400 
 11 C       -0.1060     4.5270     2.1150 C.3   1 <1>  -0.2400 
 12 O       -5.6630     2.6720    -0.7810 O.3   1 <1>  -0.3620 
 13 C       -6.8360     2.8100    -0.1160 C.ar  1 <1>   0.0820 
 14 C       -7.1680     3.9620     0.6070 C.ar  1 <1>   0.0820 
 15 C       -7.7300     1.7530    -0.1710 C.ar  1 <1>  -0.1500 
 16 O       -6.3600     5.0520     0.6770 O.3   1 <1>  -0.3630 
 17 C       -8.3670     4.0140     1.2980 C.ar  1 <1>  -0.1500 
 18 C       -8.9340     1.8200     0.5110 C.ar  1 <1>  -0.1500 
 19 C       -6.0760     5.7490    -0.5180 C.3   1 <1>   0.2000 
 20 C       -9.2500     2.9480     1.2500 C.ar  1 <1>  -0.1500 
 21 C       -4.7330     6.4650    -0.3140 C.3   1 <1>  -0.1600 
 22 C       -7.2320     6.7150    -0.7920 C.3   1 <1>  -0.2400 
 23 C       -4.1700     7.0690    -1.6070 C.3   1 <1>  -0.2400 
 24 H        0.1170     1.7880     1.9610 H     1 <1>   0.3700 
 25 H       -3.2360     1.7930    -1.5220 H     1 <1>   0.0800 
 26 H       -3.3950     3.5380    -1.5890 H     1 <1>   0.0800 
 27 H       -4.4870     3.4550     0.6820 H     1 <1>   0.0800 
 28 H       -4.4990     1.6990     0.5570 H     1 <1>   0.0800 
 29 H        1.3010     3.1250    -0.7260 H     1 <1>   0.0800 
 30 H        2.0780     3.4660     0.8090 H     1 <1>   0.0800 
 31 H        1.4710     4.7710    -0.1800 H     1 <1>   0.0800 
 32 H       -1.0550     4.4190     2.6100 H     1 <1>   0.0800 
 33 H        0.0250     5.5640     1.8630 H     1 <1>   0.0800 
 34 H        0.6820     4.2370     2.7870 H     1 <1>   0.0800 
 35 H       -7.4770     0.8790    -0.7420 H     1 <1>   0.1500 
 36 H       -8.6060     4.8940     1.8680 H     1 <1>   0.1500 
 37 H       -9.6230     0.9950     0.4670 H     1 <1>   0.1500 
 38 H       -5.9890     5.0410    -1.3240 H     1 <1>   0.0800 
 39 H      -10.1820     2.9980     1.7850 H     1 <1>   0.1500 
 40 H       -4.0180     5.7530     0.0580 H     1 <1>   0.0800 
 41 H       -4.8460     7.2390     0.4240 H     1 <1>   0.0800 
 42 H       -7.3280     7.4210     0.0120 H     1 <1>   0.0800 
 43 H       -8.1510     6.1670    -0.8980 H     1 <1>   0.0800 
 44 H       -7.0600     7.2520    -1.7060 H     1 <1>   0.0800 
 45 H       -4.0710     6.3100    -2.3640 H     1 <1>   0.0800 
 46 H       -3.1940     7.4810    -1.4180 H     1 <1>   0.0800 
 47 H       -4.8040     7.8550    -1.9770 H     1 <1>   0.0800 
@<TRIPOS>BOND
  1   1   2  2   
  2   2   3  am  
  3   2   4  am  
  4   3   5  am  
  5   3   6  1   
  6   4   7  1   
  7   4  24  1   
  8   5   7  1   
  9   5   8  2   
 10   6   9  1   
 11   6  25  1   
 12   6  26  1   
 13   7  10  1   
 14   7  11  1   
 15   9  12  1   
 16   9  27  1   
 17   9  28  1   
 18  10  29  1   
 19  10  30  1   
 20  10  31  1   
 21  11  32  1   
 22  11  33  1   
 23  11  34  1   
 24  12  13  1   
 25  13  14  ar  
 26  13  15  ar  
 27  14  16  1   
 28  14  17  ar  
 29  15  18  ar  
 30  15  35  1   
 31  16  19  1   
 32  17  20  ar  
 33  17  36  1   
 34  18  20  ar  
 35  18  37  1   
 36  19  21  1   
 37  19  22  1   
 38  19  38  1   
 39  20  39  1   
 40  21  23  1   
 41  21  40  1   
 42  21  41  1   
 43  22  42  1   
 44  22  43  1   
 45  22  44  1   
 46  23  45  1   
 47  23  46  1   
 48  23  47  1   
@<TRIPOS>SUBSTRUCTURE
  1 ****   9 GROUP 4 **** **** 0

# MOE 2024.06 (io_trps.svl 2023.06)
