@<TRIPOS>MOLECULE
NONAME
39 40 1 0 0 
SMALL
USER_CHARGES


@<TRIPOS>ATOM
  1 O        2.0050    -3.3920     0.7100 O.2   1 <1>  -0.5700 
  2 C        1.2380    -2.4860     0.4480 C.2   1 <1>   0.5440 
  3 N        1.4500    -1.2770     1.0540 N.am  1 <1>  -0.7300 
  4 C        0.1720    -2.6680    -0.5230 C.ar  1 <1>   0.0860 
  5 C        2.0880    -1.0530     2.3820 C.3   1 <1>   0.1400 
  6 C       -0.3530    -3.9380    -0.7730 C.ar  1 <1>  -0.1500 
  7 C       -0.3640    -1.6010    -1.2500 C.ar  1 <1>  -0.1500 
  8 C        3.5700    -1.4550     2.4820 C.3   1 <1>  -0.1600 
  9 C       -1.3640    -4.1350    -1.6950 C.ar  1 <1>  -0.1500 
 10 C       -1.3760    -1.7930    -2.1730 C.ar  1 <1>  -0.1500 
 11 C        4.4460    -1.0060     1.3090 C.3   1 <1>   0.3430 
 12 C       -1.8780    -3.0610    -2.3970 C.ar  1 <1>  -0.1500 
 13 N        4.3770    -2.0200     0.2330 N.4   1 <1>  -0.9590 
 14 C        5.2920    -3.1900     0.4410 C.3   1 <1>   0.3430 
 15 C        4.5300    -1.4480    -1.1420 C.3   1 <1>   0.3430 
 16 C        5.1510    -4.2080    -0.7070 C.3   1 <1>   0.1200 
 17 C        4.4290    -2.5510    -2.2130 C.3   1 <1>   0.1200 
 18 O        5.3410    -3.5770    -1.9420 O.3   1 <1>  -0.5600 
 19 H        0.7330    -0.5710     0.8560 H     1 <1>   0.3700 
 20 H        1.5280    -1.5930     3.1290 H     1 <1>   0.0800 
 21 H        2.0010    -0.0050     2.6180 H     1 <1>   0.0800 
 22 H        0.0370    -4.7840    -0.2320 H     1 <1>   0.1500 
 23 H        0.0100    -0.6040    -1.1050 H     1 <1>   0.1500 
 24 H        3.6480    -2.5160     2.6390 H     1 <1>   0.0800 
 25 H        3.9560    -0.9930     3.3730 H     1 <1>   0.0800 
 26 H       -1.7520    -5.1250    -1.8670 H     1 <1>   0.1500 
 27 H       -1.7780    -0.9570    -2.7220 H     1 <1>   0.1500 
 28 H        5.4690    -0.8920     1.6300 H     1 <1>   0.0800 
 29 H        4.0930    -0.0540     0.9500 H     1 <1>   0.0800 
 30 H       -2.6670    -3.2130    -3.1150 H     1 <1>   0.1500 
 31 H        3.4170    -2.4190     0.3000 H     1 <1>   0.4500 
 32 H        5.0600    -3.6770     1.3730 H     1 <1>   0.0800 
 33 H        6.3150    -2.8540     0.4800 H     1 <1>   0.0800 
 34 H        5.4900    -0.9680    -1.2340 H     1 <1>   0.0800 
 35 H        3.7660    -0.7100    -1.3190 H     1 <1>   0.0800 
 36 H        4.1760    -4.6660    -0.6950 H     1 <1>   0.0800 
 37 H        5.8950    -4.9790    -0.6140 H     1 <1>   0.0800 
 38 H        4.6640    -2.1510    -3.1840 H     1 <1>   0.0800 
 39 H        3.4370    -2.9700    -2.2440 H     1 <1>   0.0800 
@<TRIPOS>BOND
  1   1   2  2   
  2   2   3  am  
  3   2   4  1   
  4   3   5  1   
  5   3  19  1   
  6   4   6  ar  
  7   4   7  ar  
  8   5   8  1   
  9   5  20  1   
 10   5  21  1   
 11   6   9  ar  
 12   6  22  1   
 13   7  10  ar  
 14   7  23  1   
 15   8  11  1   
 16   8  24  1   
 17   8  25  1   
 18   9  12  ar  
 19   9  26  1   
 20  10  12  ar  
 21  10  27  1   
 22  11  13  1   
 23  11  28  1   
 24  11  29  1   
 25  12  30  1   
 26  13  14  1   
 27  13  15  1   
 28  13  31  1   
 29  14  16  1   
 30  14  32  1   
 31  14  33  1   
 32  15  17  1   
 33  15  34  1   
 34  15  35  1   
 35  16  18  1   
 36  16  36  1   
 37  16  37  1   
 38  17  18  1   
 39  17  38  1   
 40  17  39  1   
@<TRIPOS>SUBSTRUCTURE
  1 ****   2 GROUP 4 **** **** 0

# MOE 2024.06 (io_trps.svl 2023.06)
