@<TRIPOS>MOLECULE
NONAME
33 33 1 0 0 
SMALL
USER_CHARGES


@<TRIPOS>ATOM
  1 CL       0.1870    -1.1940     0.9740 Cl    1 <1>  -0.1770 
  2 C        1.9150    -1.4180     0.8970 C.ar  1 <1>   0.1770 
  3 C        2.5790    -1.1810    -0.2900 C.ar  1 <1>  -0.1500 
  4 C        2.5980    -1.8320     2.0240 C.ar  1 <1>  -0.1500 
  5 C        3.9510    -1.3630    -0.3450 C.ar  1 <1>  -0.1500 
  6 C        3.9700    -2.0110     1.9550 C.ar  1 <1>  -0.1500 
  7 C        4.6690    -1.7810     0.7730 C.ar  1 <1>  -0.0090 
  8 S        6.4660    -2.0270     0.6780 S.o2  1 <1>   1.4470 
  9 O        6.9540    -2.5750     1.9240 O.2   1 <1>  -0.6500 
 10 O        7.0700    -0.8250     0.1430 O.2   1 <1>  -0.6500 
 11 N        6.6220    -3.2220    -0.5140 N.am  1 <1>  -0.8490 
 12 C        8.0070    -3.3090    -1.0550 C.3   1 <1>   0.2570 
 13 C        6.1450    -4.5430    -0.0810 C.3   1 <1>   0.1160 
 14 C        9.0900    -3.9010    -0.1260 C.2   1 <1>   0.5690 
 15 O        9.1640    -5.1110    -0.1000 O.2   1 <1>  -0.5700 
 16 N        9.9480    -3.1210     0.6220 N.am  1 <1>  -0.6600 
 17 C       10.8560    -3.7350     1.6330 C.3   1 <1>   0.0600 
 18 C        9.9990    -1.6320     0.6200 C.3   1 <1>   0.0600 
 19 H        2.0290    -0.8580    -1.1560 H     1 <1>   0.1500 
 20 H        2.0610    -2.0100     2.9390 H     1 <1>   0.1500 
 21 H        4.4770    -1.1800    -1.2680 H     1 <1>   0.1500 
 22 H        4.5060    -2.3330     2.8340 H     1 <1>   0.1500 
 23 H        8.3140    -2.3430    -1.4070 H     1 <1>   0.0800 
 24 H        7.9770    -3.9390    -1.9250 H     1 <1>   0.0800 
 25 H        5.1010    -4.4950     0.1750 H     1 <1>   0.0800 
 26 H        6.6950    -4.8860     0.7810 H     1 <1>   0.0800 
 27 H        6.2670    -5.2600    -0.8750 H     1 <1>   0.0800 
 28 H       10.7370    -4.8040     1.6650 H     1 <1>   0.0800 
 29 H       10.6290    -3.3400     2.6080 H     1 <1>   0.0800 
 30 H       11.8780    -3.5110     1.3870 H     1 <1>   0.0800 
 31 H        9.6260    -1.2220    -0.2990 H     1 <1>   0.0800 
 32 H       11.0160    -1.3020     0.7410 H     1 <1>   0.0800 
 33 H        9.4130    -1.2500     1.4390 H     1 <1>   0.0800 
@<TRIPOS>BOND
  1   1   2  1   
  2   2   3  ar  
  3   2   4  ar  
  4   3   5  ar  
  5   3  19  1   
  6   4   6  ar  
  7   4  20  1   
  8   5   7  ar  
  9   5  21  1   
 10   6   7  ar  
 11   6  22  1   
 12   7   8  1   
 13   8   9  2   
 14   8  10  2   
 15   8  11  am  
 16  11  12  1   
 17  11  13  1   
 18  12  14  1   
 19  12  23  1   
 20  12  24  1   
 21  13  25  1   
 22  13  26  1   
 23  13  27  1   
 24  14  15  2   
 25  14  16  am  
 26  16  17  1   
 27  16  18  1   
 28  17  28  1   
 29  17  29  1   
 30  17  30  1   
 31  18  31  1   
 32  18  32  1   
 33  18  33  1   
@<TRIPOS>SUBSTRUCTURE
  1 ****   8 GROUP 4 **** **** 0

# MOE 2024.06 (io_trps.svl 2023.06)
