@<TRIPOS>MOLECULE
NONAME
48 50 1 0 0 
SMALL
USER_CHARGES


@<TRIPOS>ATOM
  1 S       -0.6340     0.3170     1.2410 S.o2  1 <1>   1.4470 
  2 O       -1.3610     1.4580     1.7620 O.2   1 <1>  -0.6500 
  3 O       -0.5380    -0.9010     2.0140 O.2   1 <1>  -0.6500 
  4 N       -1.3530    -0.0800    -0.2370 N.am  1 <1>  -0.8490 
  5 C        1.0090     0.9080     0.7600 C.ar  1 <1>  -0.0090 
  6 C       -0.6720    -1.1880    -0.9420 C.3   1 <1>   0.1960 
  7 C       -2.7840    -0.3710    -0.0910 C.3   1 <1>   0.1960 
  8 C        1.1210     2.1180     0.0960 C.ar  1 <1>  -0.1500 
  9 C        2.1770     0.2080     1.0380 C.ar  1 <1>  -0.1500 
 10 C       -1.5670    -1.9270    -1.9640 C.3   1 <1>   0.1200 
 11 C       -3.4610    -0.6150    -1.4610 C.3   1 <1>   0.1200 
 12 C        2.3460     2.6830    -0.2430 C.ar  1 <1>   0.0860 
 13 C        3.4110     0.7190     0.6700 C.ar  1 <1>  -0.1500 
 14 O       -2.5800    -1.0950    -2.4440 O.3   1 <1>  -0.5600 
 15 C        2.3950     4.0010    -0.8450 C.2   1 <1>   0.5440 
 16 C        3.4930     1.9450     0.0370 C.ar  1 <1>  -0.1500 
 17 O        2.9850     4.1680    -1.8910 O.2   1 <1>  -0.5700 
 18 N        1.7490     5.0790    -0.2680 N.am  1 <1>  -0.6600 
 19 C        1.4320     6.3070    -1.0570 C.3   1 <1>   0.1400 
 20 C        1.2730     5.1260     1.1490 C.3   1 <1>   0.1400 
 21 C       -0.0790     6.6030    -0.9960 C.3   1 <1>   0.3430 
 22 C       -0.2400     5.4200     1.2020 C.3   1 <1>   0.3430 
 23 N       -0.6020     6.6610     0.4210 N.4   1 <1>  -0.9590 
 24 C       -2.0810     6.8760     0.4340 C.3   1 <1>   0.2630 
 25 H       -0.3080    -1.9190    -0.2400 H     1 <1>   0.0800 
 26 H        0.1830    -0.7900    -1.4610 H     1 <1>   0.0800 
 27 H       -3.2830     0.4480     0.3990 H     1 <1>   0.0800 
 28 H       -2.9130    -1.2440     0.5280 H     1 <1>   0.0800 
 29 H        0.2190     2.6440    -0.1600 H     1 <1>   0.1500 
 30 H        2.1220    -0.7410     1.5470 H     1 <1>   0.1500 
 31 H       -2.0270    -2.7870    -1.5080 H     1 <1>   0.0800 
 32 H       -0.9820    -2.2600    -2.8020 H     1 <1>   0.0800 
 33 H       -3.8710     0.3070    -1.8320 H     1 <1>   0.0800 
 34 H       -4.2650    -1.3220    -1.3550 H     1 <1>   0.0800 
 35 H        4.3090     0.1620     0.8820 H     1 <1>   0.1500 
 36 H        4.4530     2.3450    -0.2450 H     1 <1>   0.1500 
 37 H        1.7200     6.1810    -2.0870 H     1 <1>   0.0800 
 38 H        1.9910     7.1380    -0.6640 H     1 <1>   0.0800 
 39 H        1.8080     5.9000     1.6720 H     1 <1>   0.0800 
 40 H        1.4790     4.2020     1.6590 H     1 <1>   0.0800 
 41 H       -0.5930     5.8270    -1.5390 H     1 <1>   0.0800 
 42 H       -0.2730     7.5370    -1.4970 H     1 <1>   0.0800 
 43 H       -0.5410     5.5330     2.2310 H     1 <1>   0.0800 
 44 H       -0.7670     4.5700     0.8000 H     1 <1>   0.0800 
 45 H       -0.1480     7.4610     0.8840 H     1 <1>   0.4500 
 46 H       -2.5840     6.0510    -0.0460 H     1 <1>   0.0800 
 47 H       -2.3330     7.7840    -0.0890 H     1 <1>   0.0800 
 48 H       -2.4400     6.9540     1.4480 H     1 <1>   0.0800 
@<TRIPOS>BOND
  1   1   2  2   
  2   1   3  2   
  3   1   4  am  
  4   1   5  1   
  5   4   6  1   
  6   4   7  1   
  7   5   8  ar  
  8   5   9  ar  
  9   6  10  1   
 10   6  25  1   
 11   6  26  1   
 12   7  11  1   
 13   7  27  1   
 14   7  28  1   
 15   8  12  ar  
 16   8  29  1   
 17   9  13  ar  
 18   9  30  1   
 19  10  14  1   
 20  10  31  1   
 21  10  32  1   
 22  11  14  1   
 23  11  33  1   
 24  11  34  1   
 25  12  15  1   
 26  12  16  ar  
 27  13  16  ar  
 28  13  35  1   
 29  15  17  2   
 30  15  18  am  
 31  16  36  1   
 32  18  19  1   
 33  18  20  1   
 34  19  21  1   
 35  19  37  1   
 36  19  38  1   
 37  20  22  1   
 38  20  39  1   
 39  20  40  1   
 40  21  23  1   
 41  21  41  1   
 42  21  42  1   
 43  22  23  1   
 44  22  43  1   
 45  22  44  1   
 46  23  24  1   
 47  23  45  1   
 48  24  46  1   
 49  24  47  1   
 50  24  48  1   
@<TRIPOS>SUBSTRUCTURE
  1 ****   8 GROUP 4 **** **** 0

# MOE 2024.06 (io_trps.svl 2023.06)
