@<TRIPOS>MOLECULE
NONAME
36 37 1 0 0 
SMALL
USER_CHARGES


@<TRIPOS>ATOM
  1 O      -13.1460     1.8510    -0.4900 O.3   1 <1>  -0.3630 
  2 C      -11.8250     1.5270    -0.4920 C.ar  1 <1>   0.0820 
  3 C      -13.6500     3.0320     0.0930 C.3   1 <1>   0.2000 
  4 C      -10.8140     2.3400     0.0150 C.ar  1 <1>  -0.1500 
  5 C      -11.4950     0.3010    -1.0450 C.ar  1 <1>  -0.1500 
  6 C      -13.7530     2.8350     1.6070 C.3   1 <1>  -0.2400 
  7 C      -15.0260     3.2800    -0.5220 C.3   1 <1>  -0.2400 
  8 C       -9.4940     1.9250    -0.0340 C.ar  1 <1>  -0.1500 
  9 C      -10.1770    -0.1160    -1.0940 C.ar  1 <1>  -0.1500 
 10 C       -9.1690     0.6900    -0.5910 C.ar  1 <1>   0.0820 
 11 O       -7.9010     0.2080    -0.6790 O.3   1 <1>  -0.3630 
 12 C       -6.8060     0.9600    -0.2080 C.3   1 <1>   0.1200 
 13 C       -5.5370     0.1520    -0.4580 C.3   1 <1>   0.0960 
 14 N       -4.3700     0.9030     0.0350 N.pl3 1 <1>   0.0480 
 15 C       -3.7710     0.8060     1.2430 C.2   1 <1>   0.0360 
 16 C       -3.6840     1.8630    -0.6100 C.2   1 <1>  -0.3020 
 17 N       -2.7790     1.6200     1.4050 N.2   1 <1>  -0.5650 
 18 C       -2.7200     2.2860     0.2370 C.2   1 <1>   0.0770 
 19 H      -13.0020     3.8530    -0.1590 H     1 <1>   0.0800 
 20 H      -11.0330     3.2960     0.4500 H     1 <1>   0.1500 
 21 H      -12.2780    -0.3240    -1.4350 H     1 <1>   0.1500 
 22 H      -14.3970     2.0030     1.8290 H     1 <1>   0.0800 
 23 H      -14.1630     3.7170     2.0640 H     1 <1>   0.0800 
 24 H      -12.7850     2.6530     2.0340 H     1 <1>   0.0800 
 25 H      -15.6830     2.4550    -0.3130 H     1 <1>   0.0800 
 26 H      -14.9330     3.4000    -1.5860 H     1 <1>   0.0800 
 27 H      -15.4560     4.1760    -0.1140 H     1 <1>   0.0800 
 28 H       -8.7400     2.5750     0.3660 H     1 <1>   0.1500 
 29 H       -9.9250    -1.0680    -1.5240 H     1 <1>   0.1500 
 30 H       -6.9440     1.1350     0.8450 H     1 <1>   0.0800 
 31 H       -6.7760     1.8890    -0.7500 H     1 <1>   0.0800 
 32 H       -5.4140    -0.0270    -1.5100 H     1 <1>   0.0800 
 33 H       -5.5910    -0.7880     0.0610 H     1 <1>   0.0800 
 34 H       -4.1050     0.1100     1.9930 H     1 <1>   0.1500 
 35 H       -3.9070     2.1880    -1.6100 H     1 <1>   0.1500 
 36 H       -1.9760     3.0460     0.0660 H     1 <1>   0.1500 
@<TRIPOS>BOND
  1   1   2  1   
  2   1   3  1   
  3   2   4  ar  
  4   2   5  ar  
  5   3   6  1   
  6   3   7  1   
  7   3  19  1   
  8   4   8  ar  
  9   4  20  1   
 10   5   9  ar  
 11   5  21  1   
 12   6  22  1   
 13   6  23  1   
 14   6  24  1   
 15   7  25  1   
 16   7  26  1   
 17   7  27  1   
 18   8  10  ar  
 19   8  28  1   
 20   9  10  ar  
 21   9  29  1   
 22  10  11  1   
 23  11  12  1   
 24  12  13  1   
 25  12  30  1   
 26  12  31  1   
 27  13  14  1   
 28  13  32  1   
 29  13  33  1   
 30  14  15  1   
 31  14  16  1   
 32  15  17  2   
 33  15  34  1   
 34  16  18  2   
 35  16  35  1   
 36  17  18  1   
 37  18  36  1   
@<TRIPOS>SUBSTRUCTURE
  1 ****   8 GROUP 4 **** **** 0

# MOE 2024.06 (io_trps.svl 2023.06)
