@<TRIPOS>MOLECULE
NONAME
37 38 1 0 0 
SMALL
USER_CHARGES


@<TRIPOS>ATOM
  1 O       -0.5250    -0.3130    -0.0770 O.2   1 <1>  -0.5700 
  2 C       -0.8870    -1.4480     0.1310 C.2   1 <1>   0.4950 
  3 C       -0.0690    -2.5960    -0.1200 C.2   1 <1>   0.0290 
  4 C       -2.2910    -1.5830     0.6980 C.3   1 <1>  -0.0990 
  5 C       -0.6320    -3.8980     0.1120 C.2   1 <1>   0.4950 
  6 C        1.2220    -2.4160    -0.5740 C.2   1 <1>  -0.0500 
  7 C       -2.9720    -2.8990     0.3050 C.3   1 <1>   0.0000 
  8 O       -0.0590    -4.9450    -0.1010 O.2   1 <1>  -0.5700 
  9 C       -2.0330    -4.0530     0.6820 C.3   1 <1>  -0.0990 
 10 N        2.1130    -3.3940    -0.8720 N.pl3 1 <1>  -0.8690 
 11 C       -3.2800    -2.9220    -1.2040 C.3   1 <1>  -0.2400 
 12 C       -4.2960    -3.0420     1.0710 C.3   1 <1>  -0.2400 
 13 C        3.5040    -3.2140    -1.3470 C.3   1 <1>   0.3530 
 14 C        4.2140    -2.1500    -0.5280 C.ar  1 <1>  -0.1430 
 15 C        4.3610    -2.3130     0.8420 C.ar  1 <1>   0.1600 
 16 C        4.7250    -1.0110    -1.1200 C.ar  1 <1>  -0.1500 
 17 N        4.9760    -1.4610     1.6480 N.ar  1 <1>  -0.6200 
 18 C        5.3610    -0.1090    -0.2940 C.ar  1 <1>  -0.1500 
 19 C        5.4580    -0.3780     1.0600 C.ar  1 <1>   0.1600 
 20 H       -2.2180    -1.5070     1.7680 H     1 <1>   0.0800 
 21 H       -2.8850    -0.7520     0.3580 H     1 <1>   0.0800 
 22 H        1.5760    -1.4030    -0.7080 H     1 <1>   0.1500 
 23 H       -2.4490    -4.9830     0.3350 H     1 <1>   0.0800 
 24 H       -1.9430    -4.1230     1.7510 H     1 <1>   0.0800 
 25 H        1.8070    -4.3800    -0.7720 H     1 <1>   0.4000 
 26 H       -2.3890    -2.8260    -1.7990 H     1 <1>   0.0800 
 27 H       -3.9410    -2.1140    -1.4650 H     1 <1>   0.0800 
 28 H       -3.7620    -3.8450    -1.4760 H     1 <1>   0.0800 
 29 H       -4.9630    -2.2330     0.8280 H     1 <1>   0.0800 
 30 H       -4.1300    -3.0320     2.1340 H     1 <1>   0.0800 
 31 H       -4.7840    -3.9670     0.8160 H     1 <1>   0.0800 
 32 H        4.0330    -4.1470    -1.2520 H     1 <1>   0.0800 
 33 H        3.4870    -2.9400    -2.3880 H     1 <1>   0.0800 
 34 H        3.9460    -3.1960     1.2980 H     1 <1>   0.1500 
 35 H        4.6320    -0.8280    -2.1760 H     1 <1>   0.1500 
 36 H        5.7770     0.7980    -0.6930 H     1 <1>   0.1500 
 37 H        5.9570     0.3340     1.6940 H     1 <1>   0.1500 
@<TRIPOS>BOND
  1   1   2  2   
  2   2   3  1   
  3   2   4  1   
  4   3   5  1   
  5   3   6  2   
  6   4   7  1   
  7   4  20  1   
  8   4  21  1   
  9   5   8  2   
 10   5   9  1   
 11   6  10  1   
 12   6  22  1   
 13   7   9  1   
 14   7  11  1   
 15   7  12  1   
 16   9  23  1   
 17   9  24  1   
 18  10  13  1   
 19  10  25  1   
 20  11  26  1   
 21  11  27  1   
 22  11  28  1   
 23  12  29  1   
 24  12  30  1   
 25  12  31  1   
 26  13  14  1   
 27  13  32  1   
 28  13  33  1   
 29  14  15  ar  
 30  14  16  ar  
 31  15  17  ar  
 32  15  34  1   
 33  16  18  ar  
 34  16  35  1   
 35  17  19  ar  
 36  18  19  ar  
 37  18  36  1   
 38  19  37  1   
@<TRIPOS>SUBSTRUCTURE
  1 ****   6 GROUP 4 **** **** 0

# MOE 2024.06 (io_trps.svl 2023.06)
