@<TRIPOS>MOLECULE
NONAME
41 41 1 0 0 
SMALL
USER_CHARGES


@<TRIPOS>ATOM
  1 O       -8.0900     2.8950    -0.0710 O.3   1 <1>  -0.3630 
  2 C       -6.8980     2.2510    -0.1520 C.ar  1 <1>   0.0830 
  3 C       -9.3030     2.2170    -0.2680 C.3   1 <1>   0.1200 
  4 C       -5.7620     3.0180     0.0580 C.ar  1 <1>  -0.1500 
  5 C       -6.7710     0.8940    -0.4300 C.ar  1 <1>  -0.1500 
  6 C      -10.4210     3.2470    -0.1030 C.3   1 <1>   0.3430 
  7 C       -4.4860     2.4640     0.0000 C.ar  1 <1>  -0.1440 
  8 C       -5.5130     0.3280    -0.4930 C.ar  1 <1>  -0.1500 
  9 N      -11.7710     2.6410    -0.2970 N.4   1 <1>  -0.9060 
 10 C       -4.3880     1.1050    -0.2800 C.ar  1 <1>  -0.1500 
 11 C       -3.1990     3.2870     0.2290 C.3   1 <1>   0.1430 
 12 C      -12.8600     3.6140    -0.1210 C.3   1 <1>   0.4810 
 13 C       -2.3170     3.2220    -1.0280 C.3   1 <1>  -0.2400 
 14 C       -3.4710     4.7710     0.5270 C.3   1 <1>  -0.2400 
 15 C       -2.4270     2.7090     1.4250 C.3   1 <1>  -0.2400 
 16 C      -14.1350     2.8180    -0.2340 C.2   1 <1>  -0.2880 
 17 C      -14.9490     2.5180     0.7840 C.2   1 <1>  -0.3000 
 18 H       -9.3750     1.4410     0.4740 H     1 <1>   0.0800 
 19 H       -9.2960     1.8050    -1.2630 H     1 <1>   0.0800 
 20 H       -5.9100     4.0580     0.2690 H     1 <1>   0.1500 
 21 H       -7.6210     0.2630    -0.6000 H     1 <1>   0.1500 
 22 H      -10.2690     4.0350    -0.8240 H     1 <1>   0.0800 
 23 H      -10.3520     3.6710     0.8860 H     1 <1>   0.0800 
 24 H       -5.4020    -0.7210    -0.7070 H     1 <1>   0.1500 
 25 H      -11.9390     1.8860     0.3800 H     1 <1>   0.4500 
 26 H      -11.8600     2.2250    -1.2320 H     1 <1>   0.4500 
 27 H       -3.4240     0.6310    -0.3360 H     1 <1>   0.1500 
 28 H      -12.8240     4.3850    -0.8750 H     1 <1>   0.0800 
 29 H      -12.7990     4.0700     0.8550 H     1 <1>   0.0800 
 30 H       -2.8630     3.5910    -1.8780 H     1 <1>   0.0800 
 31 H       -2.0110     2.2140    -1.2360 H     1 <1>   0.0800 
 32 H       -1.4320     3.8190    -0.9020 H     1 <1>   0.0800 
 33 H       -4.0650     4.8750     1.4180 H     1 <1>   0.0800 
 34 H       -3.9880     5.2330    -0.2950 H     1 <1>   0.0800 
 35 H       -2.5490     5.3020     0.6790 H     1 <1>   0.0800 
 36 H       -3.0490     2.7180     2.3020 H     1 <1>   0.0800 
 37 H       -1.5450     3.2910     1.6250 H     1 <1>   0.0800 
 38 H       -2.1220     1.6970     1.2380 H     1 <1>   0.0800 
 39 H      -14.3490     2.5040    -1.2430 H     1 <1>   0.1500 
 40 H      -15.8600     1.9510     0.6740 H     1 <1>   0.1500 
 41 H      -14.7960     2.8090     1.8120 H     1 <1>   0.1500 
@<TRIPOS>BOND
  1   1   2  1   
  2   1   3  1   
  3   2   4  ar  
  4   2   5  ar  
  5   3   6  1   
  6   3  18  1   
  7   3  19  1   
  8   4   7  ar  
  9   4  20  1   
 10   5   8  ar  
 11   5  21  1   
 12   6   9  1   
 13   6  22  1   
 14   6  23  1   
 15   7  10  ar  
 16   7  11  1   
 17   8  10  ar  
 18   8  24  1   
 19   9  12  1   
 20   9  25  1   
 21   9  26  1   
 22  10  27  1   
 23  11  13  1   
 24  11  14  1   
 25  11  15  1   
 26  12  16  1   
 27  12  28  1   
 28  12  29  1   
 29  13  30  1   
 30  13  31  1   
 31  13  32  1   
 32  14  33  1   
 33  14  34  1   
 34  14  35  1   
 35  15  36  1   
 36  15  37  1   
 37  15  38  1   
 38  16  17  2   
 39  16  39  1   
 40  17  40  1   
 41  17  41  1   
@<TRIPOS>SUBSTRUCTURE
  1 ****   2 GROUP 4 **** **** 0

# MOE 2024.06 (io_trps.svl 2023.06)
