@<TRIPOS>MOLECULE
11841
33 33 1 0 0 
SMALL
USER_CHARGES


@<TRIPOS>ATOM
  1 CL       0.0970    -0.8490     0.0810 Cl    1 <1>  -0.1770 
  2 C        1.3660    -1.8750     0.7100 C.ar  1 <1>   0.1770 
  3 C        1.3970    -2.2210     2.0510 C.ar  1 <1>   0.1770 
  4 C        2.3370    -2.3370    -0.1580 C.ar  1 <1>  -0.1500 
  5 CL       0.1720    -1.6420     3.1580 Cl    1 <1>  -0.1770 
  6 C        2.4050    -3.0350     2.5320 C.ar  1 <1>  -0.1500 
  7 C        3.3620    -3.1540     0.3080 C.ar  1 <1>   0.1170 
  8 C        3.3780    -3.4990     1.6610 C.ar  1 <1>  -0.1500 
  9 N        4.3240    -3.6120    -0.6040 N.am  1 <1>  -0.5470 
 10 C        5.6340    -3.9370    -0.4170 C.2   1 <1>   0.6900 
 11 O        6.1750    -3.8220     0.6640 O.2   1 <1>  -0.5700 
 12 N        6.3310    -4.4160    -1.4820 N.am  1 <1>  -0.7300 
 13 C        7.8180    -4.4840    -1.6940 C.3   1 <1>   0.1400 
 14 C        8.7060    -4.6380    -0.4330 C.3   1 <1>   0.3430 
 15 N        8.1980    -5.6580     0.5380 N.4   1 <1>  -0.9590 
 16 C        8.9880    -5.6450     1.8030 C.3   1 <1>   0.2630 
 17 C        8.0640    -7.0340    -0.0260 C.3   1 <1>   0.2630 
 18 H        2.2890    -2.0500    -1.1920 H     1 <1>   0.1500 
 19 H        2.4240    -3.3010     3.5740 H     1 <1>   0.1500 
 20 H        4.1540    -4.1370     2.0430 H     1 <1>   0.1500 
 21 H        4.0330    -3.5750    -1.5770 H     1 <1>   0.3700 
 22 H        5.7960    -4.5420    -2.3440 H     1 <1>   0.3700 
 23 H        8.1270    -3.5930    -2.2120 H     1 <1>   0.0800 
 24 H        8.0270    -5.3110    -2.3510 H     1 <1>   0.0800 
 25 H        8.7420    -3.6800     0.0610 H     1 <1>   0.0800 
 26 H        9.7100    -4.8860    -0.7350 H     1 <1>   0.0800 
 27 H        7.2450    -5.2970     0.7710 H     1 <1>   0.4500 
 28 H       10.0030    -5.9540     1.6170 H     1 <1>   0.0800 
 29 H        8.5470    -6.3150     2.5240 H     1 <1>   0.0800 
 30 H        8.9970    -4.6520     2.2230 H     1 <1>   0.0800 
 31 H        9.0270    -7.4120    -0.3280 H     1 <1>   0.0800 
 32 H        7.4090    -7.0230    -0.8820 H     1 <1>   0.0800 
 33 H        7.6470    -7.6990     0.7120 H     1 <1>   0.0800 
@<TRIPOS>BOND
  1   1   2  1   
  2   2   3  ar  
  3   2   4  ar  
  4   3   5  1   
  5   3   6  ar  
  6   4   7  ar  
  7   4  18  1   
  8   6   8  ar  
  9   6  19  1   
 10   7   8  ar  
 11   7   9  1   
 12   8  20  1   
 13   9  10  am  
 14   9  21  1   
 15  10  11  2   
 16  10  12  am  
 17  12  13  1   
 18  12  22  1   
 19  13  14  1   
 20  13  23  1   
 21  13  24  1   
 22  14  15  1   
 23  14  25  1   
 24  14  26  1   
 25  15  16  1   
 26  15  17  1   
 27  15  27  1   
 28  16  28  1   
 29  16  29  1   
 30  16  30  1   
 31  17  31  1   
 32  17  32  1   
 33  17  33  1   
@<TRIPOS>SUBSTRUCTURE
  1 ****   9 GROUP 4 **** **** 0

# MOE 2024.06 (io_trps.svl 2023.06)
