@<TRIPOS>MOLECULE
NONAME
51 54 1 0 0 
SMALL
USER_CHARGES


@<TRIPOS>ATOM
  1 O        0.9720    -0.2480    -0.8060 O.2   1 <1>  -0.5700 
  2 C        1.9170    -0.9820    -0.6340 C.2   1 <1>   0.6900 
  3 N        1.8330    -2.3520    -0.8270 N.am  1 <1>  -0.4360 
  4 N        3.1010    -0.4340    -0.2350 N.am  1 <1>  -0.4900 
  5 C        2.9700    -3.1080    -0.5790 C.2   1 <1>   0.4260 
  6 C        0.5620    -2.9940    -1.2740 C.3   1 <1>   0.0600 
  7 C        4.2330    -1.1590     0.0050 C.2   1 <1>   0.7030 
  8 N        3.1190    -4.4510    -0.6720 N.pl3 1 <1>  -0.7000 
  9 C        4.1560    -2.5820    -0.1770 C.2   1 <1>   0.2770 
 10 O        5.2410    -0.5810     0.3560 O.2   1 <1>  -0.5700 
 11 C        4.3660    -4.7600    -0.3340 C.cat 1 <1>   0.6560 
 12 N        5.0430    -3.6550    -0.0280 N.pl3 1 <1>  -0.7640 
 13 C        4.8640    -6.2160    -0.3230 C.3   1 <1>   0.2540 
 14 C        6.4590    -3.4970     0.4190 C.3   1 <1>   0.3540 
 15 N        3.7430    -7.1860    -0.2090 N.3   1 <1>  -0.8100 
 16 C        7.3480    -3.0580    -0.7460 C.3   1 <1>  -0.0160 
 17 C        4.1550    -8.5330    -0.6710 C.3   1 <1>   0.1100 
 18 C        3.2450    -7.2870     1.1870 C.3   1 <1>   0.1100 
 19 C        8.7840    -2.9500    -0.2660 C.ar  1 <1>  -0.1440 
 20 C        3.0250    -9.5620    -0.4830 C.3   1 <1>   0.1200 
 21 C        2.1380    -8.3480     1.3100 C.3   1 <1>   0.1200 
 22 C        9.6750    -3.9950    -0.4580 C.ar  1 <1>  -0.1500 
 23 C        9.2110    -1.8000     0.3800 C.ar  1 <1>  -0.1500 
 24 O        2.6060    -9.5790     0.8500 O.3   1 <1>  -0.5600 
 25 C       10.9780    -3.8930    -0.0030 C.ar  1 <1>  -0.1500 
 26 C       10.5140    -1.6980     0.8340 C.ar  1 <1>  -0.1500 
 27 C       11.3980    -2.7440     0.6440 C.ar  1 <1>  -0.1500 
 28 H        3.1300     0.5750    -0.1070 H     1 <1>   0.3700 
 29 H       -0.1540    -2.2520    -1.5830 H     1 <1>   0.0800 
 30 H        0.1370    -3.5630    -0.4660 H     1 <1>   0.0800 
 31 H        0.7520    -3.6450    -2.1090 H     1 <1>   0.0800 
 32 H        2.4350    -5.1710    -0.9240 H     1 <1>   0.4500 
 33 H        5.5610    -6.3640     0.4830 H     1 <1>   0.0800 
 34 H        5.3840    -6.3840    -1.2500 H     1 <1>   0.0800 
 35 H        6.8280    -4.4270     0.8170 H     1 <1>   0.0800 
 36 H        6.5110    -2.7630     1.2060 H     1 <1>   0.0800 
 37 H        7.0290    -2.1010    -1.1160 H     1 <1>   0.0800 
 38 H        7.2880    -3.7710    -1.5480 H     1 <1>   0.0800 
 39 H        5.0170    -8.8690    -0.1190 H     1 <1>   0.0800 
 40 H        4.4170    -8.4950    -1.7140 H     1 <1>   0.0800 
 41 H        2.8520    -6.3390     1.5100 H     1 <1>   0.0800 
 42 H        4.0490    -7.5610     1.8500 H     1 <1>   0.0800 
 43 H        3.3730   -10.5490    -0.7300 H     1 <1>   0.0800 
 44 H        2.1820    -9.3260    -1.1080 H     1 <1>   0.0800 
 45 H        1.2710    -8.0720     0.7360 H     1 <1>   0.0800 
 46 H        1.8490    -8.4730     2.3380 H     1 <1>   0.0800 
 47 H        9.3710    -4.8950    -0.9640 H     1 <1>   0.1500 
 48 H        8.5370    -0.9730     0.5330 H     1 <1>   0.1500 
 49 H       11.6690    -4.7050    -0.1540 H     1 <1>   0.1500 
 50 H       10.8420    -0.8020     1.3350 H     1 <1>   0.1500 
 51 H       12.4120    -2.6640     0.9970 H     1 <1>   0.1500 
@<TRIPOS>BOND
  1   1   2  2   
  2   2   3  am  
  3   2   4  am  
  4   3   5  1   
  5   3   6  1   
  6   4   7  am  
  7   4  28  1   
  8   5   8  1   
  9   5   9  2   
 10   6  29  1   
 11   6  30  1   
 12   6  31  1   
 13   7   9  1   
 14   7  10  2   
 15   8  11  ar  
 16   8  32  1   
 17   9  12  1   
 18  11  12  ar  
 19  11  13  1   
 20  12  14  1   
 21  13  15  1   
 22  13  33  1   
 23  13  34  1   
 24  14  16  1   
 25  14  35  1   
 26  14  36  1   
 27  15  17  1   
 28  15  18  1   
 29  16  19  1   
 30  16  37  1   
 31  16  38  1   
 32  17  20  1   
 33  17  39  1   
 34  17  40  1   
 35  18  21  1   
 36  18  41  1   
 37  18  42  1   
 38  19  22  ar  
 39  19  23  ar  
 40  20  24  1   
 41  20  43  1   
 42  20  44  1   
 43  21  24  1   
 44  21  45  1   
 45  21  46  1   
 46  22  25  ar  
 47  22  47  1   
 48  23  26  ar  
 49  23  48  1   
 50  25  27  ar  
 51  25  49  1   
 52  26  27  ar  
 53  26  50  1   
 54  27  51  1   
@<TRIPOS>SUBSTRUCTURE
  1 ****  12 GROUP 4 **** **** 0

# MOE 2024.06 (io_trps.svl 2023.06)
