@<TRIPOS>MOLECULE
NONAME
38 41 1 0 0 
SMALL
USER_CHARGES


@<TRIPOS>ATOM
  1 O        0.3020    -0.4270     1.4110 O.2   1 <1>  -0.5700 
  2 C       -0.1750    -1.0930     0.5300 C.2   1 <1>   0.5690 
  3 N        0.3170    -2.2400    -0.0750 N.am  1 <1>  -0.2370 
  4 C       -1.4480    -0.7500    -0.1670 C.3   1 <1>  -0.0190 
  5 C        1.6240    -2.7630     0.0730 C.ar  1 <1>   0.1170 
  6 C       -0.6940    -2.7850    -0.8580 C.2   1 <1>   0.5690 
  7 C       -2.7390     0.0430    -0.0150 C.3   1 <1>   0.4180 
  8 C       -1.9830    -2.1500    -0.4290 C.3   1 <1>  -0.0190 
  9 C        1.8470    -4.1380     0.0770 C.ar  1 <1>  -0.1500 
 10 C        2.7220    -1.9190     0.2200 C.ar  1 <1>  -0.1500 
 11 O       -0.6130    -3.6320    -1.7090 O.2   1 <1>  -0.5700 
 12 O       -3.2830    -0.4240    -1.2160 O.3   1 <1>  -0.5600 
 13 C       -3.7720    -0.5740     0.9170 C.2   1 <1>  -0.2880 
 14 C       -2.5990     1.5760     0.0080 C.3   1 <1>   0.1200 
 15 C       -3.3900    -1.7940    -0.9570 C.3   1 <1>   0.3380 
 16 C        3.1230    -4.6520     0.2230 C.ar  1 <1>  -0.1500 
 17 C        3.9990    -2.4300     0.3670 C.ar  1 <1>  -0.1500 
 18 C       -4.2180    -1.6690     0.3060 C.2   1 <1>  -0.2880 
 19 O       -3.8690     2.2050     0.0440 O.3   1 <1>  -0.4300 
 20 C        4.2010    -3.7990     0.3680 C.ar  1 <1>  -0.1500 
 21 C       -4.0780     3.5150     0.0190 C.2   1 <1>   0.6590 
 22 O       -5.1810     3.9580     0.1780 O.2   1 <1>  -0.5700 
 23 C       -2.9100     4.4490    -0.2130 C.3   1 <1>  -0.1790 
 24 H       -1.0500    -0.3490    -1.0890 H     1 <1>   0.0800 
 25 H       -2.1560    -2.6670     0.5020 H     1 <1>   0.0800 
 26 H        1.0220    -4.8180    -0.0380 H     1 <1>   0.1500 
 27 H        2.5860    -0.8530     0.2230 H     1 <1>   0.1500 
 28 H       -4.0280    -0.1070     1.8520 H     1 <1>   0.1500 
 29 H       -2.0720     1.9050    -0.8690 H     1 <1>   0.0800 
 30 H       -2.0590     1.8710     0.8900 H     1 <1>   0.0800 
 31 H       -3.8060    -2.3410    -1.7870 H     1 <1>   0.0800 
 32 H        3.2770    -5.7180     0.2220 H     1 <1>   0.1500 
 33 H        4.8370    -1.7640     0.4810 H     1 <1>   0.1500 
 34 H       -4.9630    -2.4000     0.5690 H     1 <1>   0.1500 
 35 H        5.1950    -4.1980     0.4820 H     1 <1>   0.1500 
 36 H       -2.4620     4.2460    -1.1670 H     1 <1>   0.0800 
 37 H       -2.1830     4.3350     0.5690 H     1 <1>   0.0800 
 38 H       -3.2620     5.4640    -0.2080 H     1 <1>   0.0800 
@<TRIPOS>BOND
  1   1   2  2   
  2   2   3  am  
  3   2   4  1   
  4   3   5  1   
  5   3   6  am  
  6   4   7  1   
  7   4   8  1   
  8   4  24  1   
  9   5   9  ar  
 10   5  10  ar  
 11   6   8  1   
 12   6  11  2   
 13   7  12  1   
 14   7  13  1   
 15   7  14  1   
 16   8  15  1   
 17   8  25  1   
 18   9  16  ar  
 19   9  26  1   
 20  10  17  ar  
 21  10  27  1   
 22  12  15  1   
 23  13  18  2   
 24  13  28  1   
 25  14  19  1   
 26  14  29  1   
 27  14  30  1   
 28  15  18  1   
 29  15  31  1   
 30  16  20  ar  
 31  16  32  1   
 32  17  20  ar  
 33  17  33  1   
 34  18  34  1   
 35  19  21  1   
 36  20  35  1   
 37  21  22  2   
 38  21  23  1   
 39  23  36  1   
 40  23  37  1   
 41  23  38  1   
@<TRIPOS>SUBSTRUCTURE
  1 ****   4 GROUP 4 **** **** 0

# MOE 2024.06 (io_trps.svl 2023.06)
