@<TRIPOS>MOLECULE
NONAME
47 48 1 0 0 
SMALL
USER_CHARGES


@<TRIPOS>ATOM
  1 CL       3.5770     0.7060    -2.2330 Cl    1 <1>  -0.1770 
  2 C        3.0790     2.0490    -1.2240 C.ar  1 <1>   0.1770 
  3 C        1.7960     2.5760    -1.3200 C.ar  1 <1>   0.0820 
  4 C        3.9970     2.5730    -0.3370 C.ar  1 <1>  -0.1500 
  5 O        0.8760     2.0800    -2.1830 O.3   1 <1>  -0.3630 
  6 C        1.4420     3.6590    -0.5320 C.ar  1 <1>  -0.1500 
  7 C        3.6440     3.6440     0.4740 C.ar  1 <1>   0.1990 
  8 C        0.2290     0.8940    -1.7800 C.3   1 <1>   0.0400 
  9 C        2.3600     4.1950     0.3660 C.ar  1 <1>   0.0830 
 10 N        4.5460     4.1870     1.3870 N.am  1 <1>  -0.7570 
 11 O        2.0710     5.2620     1.1730 O.3   1 <1>  -0.3630 
 12 S        5.4700     3.2850     2.5130 S.o2  1 <1>   1.4470 
 13 C        0.7880     5.8500     1.1730 C.3   1 <1>   0.0400 
 14 O        5.7990     4.2550     3.5290 O.2   1 <1>  -0.6500 
 15 O        4.6900     2.1130     2.8340 O.2   1 <1>  -0.6500 
 16 C        6.9460     2.8480     1.5580 C.ar  1 <1>  -0.0090 
 17 C        7.2930     1.5240     1.3290 C.ar  1 <1>  -0.1500 
 18 C        7.7650     3.8270     1.0130 C.ar  1 <1>  -0.1500 
 19 C        8.4080     1.1880     0.5800 C.ar  1 <1>  -0.1500 
 20 C        8.8810     3.4950     0.2650 C.ar  1 <1>  -0.1500 
 21 C        9.2260     2.1700     0.0300 C.ar  1 <1>  -0.1430 
 22 C       10.4770     1.8480    -0.8170 C.3   1 <1>   0.1430 
 23 C       10.7230     0.3390    -0.9850 C.3   1 <1>  -0.2400 
 24 C       10.3120     2.4490    -2.2210 C.3   1 <1>  -0.2400 
 25 C       11.7210     2.4490    -0.1460 C.3   1 <1>  -0.2400 
 26 H        4.9800     2.1460    -0.2900 H     1 <1>   0.1500 
 27 H        0.4520     4.0560    -0.6430 H     1 <1>   0.1500 
 28 H       -0.4900     0.6300    -2.5350 H     1 <1>   0.0800 
 29 H       -0.2680     1.0680    -0.8420 H     1 <1>   0.0800 
 30 H        0.9560     0.1080    -1.6780 H     1 <1>   0.0800 
 31 H        4.1830     5.0100     1.8650 H     1 <1>   0.4200 
 32 H        0.7860     6.6490     1.8920 H     1 <1>   0.0800 
 33 H        0.0620     5.1070     1.4530 H     1 <1>   0.0800 
 34 H        0.5820     6.2420     0.1930 H     1 <1>   0.0800 
 35 H        6.6810     0.7390     1.7410 H     1 <1>   0.1500 
 36 H        7.5270     4.8640     1.1760 H     1 <1>   0.1500 
 37 H        8.6140     0.1430     0.4420 H     1 <1>   0.1500 
 38 H        9.4810     4.2920    -0.1360 H     1 <1>   0.1500 
 39 H        9.8900    -0.1280    -1.4780 H     1 <1>   0.0800 
 40 H       10.8720    -0.1280    -0.0270 H     1 <1>   0.0800 
 41 H       11.6020     0.1630    -1.5800 H     1 <1>   0.0800 
 42 H        9.4230     2.0610    -2.6850 H     1 <1>   0.0800 
 43 H       11.1570     2.2040    -2.8410 H     1 <1>   0.0800 
 44 H       10.2300     3.5190    -2.1790 H     1 <1>   0.0800 
 45 H       11.8240     2.0600     0.8510 H     1 <1>   0.0800 
 46 H       11.6500     3.5190    -0.0840 H     1 <1>   0.0800 
 47 H       12.6080     2.2060    -0.7030 H     1 <1>   0.0800 
@<TRIPOS>BOND
  1   1   2  1   
  2   2   3  ar  
  3   2   4  ar  
  4   3   5  1   
  5   3   6  ar  
  6   4   7  ar  
  7   4  26  1   
  8   5   8  1   
  9   6   9  ar  
 10   6  27  1   
 11   7   9  ar  
 12   7  10  1   
 13   8  28  1   
 14   8  29  1   
 15   8  30  1   
 16   9  11  1   
 17  10  12  am  
 18  10  31  1   
 19  11  13  1   
 20  12  14  2   
 21  12  15  2   
 22  12  16  1   
 23  13  32  1   
 24  13  33  1   
 25  13  34  1   
 26  16  17  ar  
 27  16  18  ar  
 28  17  19  ar  
 29  17  35  1   
 30  18  20  ar  
 31  18  36  1   
 32  19  21  ar  
 33  19  37  1   
 34  20  21  ar  
 35  20  38  1   
 36  21  22  1   
 37  22  23  1   
 38  22  24  1   
 39  22  25  1   
 40  23  39  1   
 41  23  40  1   
 42  23  41  1   
 43  24  42  1   
 44  24  43  1   
 45  24  44  1   
 46  25  45  1   
 47  25  46  1   
 48  25  47  1   
@<TRIPOS>SUBSTRUCTURE
  1 ****   4 GROUP 4 **** **** 0

# MOE 2024.06 (io_trps.svl 2023.06)
