@<TRIPOS>MOLECULE
NONAME
43 44 1 0 0 
SMALL
USER_CHARGES


@<TRIPOS>ATOM
  1 BR       0.2140     1.1440    -0.5770 Br    1 <1>  -0.1110 
  2 C        2.0140     0.5410    -0.2510 C.ar  1 <1>   0.1110 
  3 C        2.5940     0.8100     0.9740 C.ar  1 <1>  -0.1500 
  4 C        2.6770    -0.1450    -1.2500 C.ar  1 <1>  -0.1500 
  5 C        3.8880     0.3730     1.2000 C.ar  1 <1>  -0.1500 
  6 C        3.9710    -0.5790    -1.0140 C.ar  1 <1>  -0.1500 
  7 C        4.5810    -0.3200     0.2150 C.ar  1 <1>   0.0830 
  8 O        5.8430    -0.7110     0.5250 O.3   1 <1>  -0.3630 
  9 C        6.6220    -1.4670    -0.3780 C.3   1 <1>   0.1200 
 10 C        7.9800    -1.7520     0.2760 C.3   1 <1>   0.2000 
 11 O        8.5330    -0.5490     0.7180 O.3   1 <1>  -0.6800 
 12 C        8.9750    -2.4350    -0.6870 C.3   1 <1>   0.3430 
 13 N       10.3810    -2.2090    -0.2350 N.4   1 <1>  -0.9590 
 14 C       11.4100    -2.2390    -1.3190 C.3   1 <1>   0.3430 
 15 C       10.8030    -3.0460     0.9420 C.3   1 <1>   0.3430 
 16 C       12.7830    -1.7370    -0.7980 C.3   1 <1>   0.2000 
 17 C       12.3330    -3.0030     1.2010 C.3   1 <1>   0.2000 
 18 O       12.9080    -1.8770     0.5950 O.3   1 <1>  -0.5600 
 19 C       12.9840    -0.2510    -1.0880 C.3   1 <1>  -0.2400 
 20 C       13.0730    -4.2660     0.7420 C.3   1 <1>  -0.2400 
 21 H        2.0470     1.3470     1.7280 H     1 <1>   0.1500 
 22 H        2.1880    -0.3330    -2.1890 H     1 <1>   0.1500 
 23 H        4.3640     0.5670     2.1440 H     1 <1>   0.1500 
 24 H        4.4780    -1.1090    -1.7970 H     1 <1>   0.1500 
 25 H        6.7470    -0.8940    -1.2810 H     1 <1>   0.0800 
 26 H        6.1010    -2.3840    -0.5910 H     1 <1>   0.0800 
 27 H        7.8270    -2.3780     1.1390 H     1 <1>   0.0800 
 28 H        7.8210    -0.0140     1.1420 H     1 <1>   0.4000 
 29 H        8.8450    -1.9960    -1.6630 H     1 <1>   0.0800 
 30 H        8.7610    -3.4880    -0.7660 H     1 <1>   0.0800 
 31 H       10.3740    -1.2350     0.1310 H     1 <1>   0.4500 
 32 H       11.1030    -1.6240    -2.1490 H     1 <1>   0.0800 
 33 H       11.5230    -3.2460    -1.6820 H     1 <1>   0.0800 
 34 H       10.5120    -4.0710     0.7910 H     1 <1>   0.0800 
 35 H       10.2970    -2.6930     1.8250 H     1 <1>   0.0800 
 36 H       13.5770    -2.2970    -1.2640 H     1 <1>   0.0800 
 37 H       12.4940    -2.8940     2.2610 H     1 <1>   0.0800 
 38 H       12.2220     0.3380    -0.6090 H     1 <1>   0.0800 
 39 H       12.9510    -0.0660    -2.1470 H     1 <1>   0.0800 
 40 H       13.9470     0.0630    -0.7240 H     1 <1>   0.0800 
 41 H       12.9040    -4.4820    -0.2960 H     1 <1>   0.0800 
 42 H       12.7390    -5.1110     1.3170 H     1 <1>   0.0800 
 43 H       14.1300    -4.1490     0.9130 H     1 <1>   0.0800 
@<TRIPOS>BOND
  1   1   2  1   
  2   2   3  ar  
  3   2   4  ar  
  4   3   5  ar  
  5   3  21  1   
  6   4   6  ar  
  7   4  22  1   
  8   5   7  ar  
  9   5  23  1   
 10   6   7  ar  
 11   6  24  1   
 12   7   8  1   
 13   8   9  1   
 14   9  10  1   
 15   9  25  1   
 16   9  26  1   
 17  10  11  1   
 18  10  12  1   
 19  10  27  1   
 20  11  28  1   
 21  12  13  1   
 22  12  29  1   
 23  12  30  1   
 24  13  14  1   
 25  13  15  1   
 26  13  31  1   
 27  14  16  1   
 28  14  32  1   
 29  14  33  1   
 30  15  17  1   
 31  15  34  1   
 32  15  35  1   
 33  16  18  1   
 34  16  19  1   
 35  16  36  1   
 36  17  18  1   
 37  17  20  1   
 38  17  37  1   
 39  19  38  1   
 40  19  39  1   
 41  19  40  1   
 42  20  41  1   
 43  20  42  1   
 44  20  43  1   
@<TRIPOS>SUBSTRUCTURE
  1 ****  10 GROUP 4 **** **** 0

# MOE 2024.06 (io_trps.svl 2023.06)
