@<TRIPOS>MOLECULE
NONAME
57 59 1 0 0 
SMALL
USER_CHARGES


@<TRIPOS>ATOM
  1 S        0.2390    -5.9170    -0.8590 S.3   1 <1>  -0.3710 
  2 C        1.8650    -6.2360    -0.1700 C.2   1 <1>   0.6510 
  3 C       -0.4370    -7.6250    -1.1590 C.3   1 <1>   0.0700 
  4 N        2.0970    -7.4640     0.0710 N.2   1 <1>  -0.6210 
  5 N        2.7100    -5.1750     0.0640 N.am  1 <1>  -0.2370 
  6 C       -0.7350    -8.2970     0.1940 C.3   1 <1>   0.3430 
  7 C        3.2800    -7.8080     0.6330 C.2   1 <1>   0.0210 
  8 C        3.9420    -5.4980     0.6370 C.2   1 <1>   0.6160 
  9 C        2.3730    -3.8500    -0.2700 C.ar  1 <1>   0.1170 
 10 N       -0.5320    -9.7810     0.1660 N.4   1 <1>  -0.9590 
 11 O        3.4110    -9.0150     0.8550 O.3   1 <1>  -0.8500 
 12 C        4.2290    -6.8340     0.9230 C.2   1 <1>  -0.1240 
 13 O        4.7380    -4.5710     0.8760 O.2   1 <1>  -0.5700 
 14 C        1.9220    -2.9670     0.7040 C.ar  1 <1>  -0.1500 
 15 C        2.4810    -3.4020    -1.5820 C.ar  1 <1>  -0.1500 
 16 C       -1.1750   -10.4710     1.3300 C.3   1 <1>   0.3430 
 17 C        0.9410   -10.1160     0.1880 C.3   1 <1>   0.3430 
 18 C        5.5640    -7.2340     1.5440 C.3   1 <1>  -0.0220 
 19 C        1.5760    -1.6690     0.3750 C.ar  1 <1>  -0.1500 
 20 C        2.1360    -2.1040    -1.9150 C.ar  1 <1>  -0.1500 
 21 C       -0.7600   -11.9590     1.4310 C.3   1 <1>   0.1200 
 22 C        1.1860   -11.6360     0.1540 C.3   1 <1>   0.1200 
 23 C        6.6210    -7.4560     0.4520 C.3   1 <1>  -0.1600 
 24 C        1.6820    -1.2360    -0.9360 C.ar  1 <1>  -0.1500 
 25 O       -0.0150   -12.3570     0.3140 O.3   1 <1>  -0.5600 
 26 C        8.0350    -7.7230     1.0010 C.3   1 <1>  -0.0800 
 27 C        9.0350    -7.7840    -0.1590 C.3   1 <1>  -0.2400 
 28 C        8.1040    -9.0290     1.8050 C.3   1 <1>  -0.2400 
 29 H        0.3170    -8.1520    -1.7160 H     1 <1>   0.0800 
 30 H       -1.3280    -7.5150    -1.7500 H     1 <1>   0.0800 
 31 H       -1.7490    -8.0680     0.4730 H     1 <1>   0.0800 
 32 H       -0.0840    -7.8770     0.9430 H     1 <1>   0.0800 
 33 H       -0.8980   -10.2100    -0.6910 H     1 <1>   0.4500 
 34 H        1.8490    -3.3020     1.7240 H     1 <1>   0.1500 
 35 H        2.8380    -4.0740    -2.3420 H     1 <1>   0.1500 
 36 H       -2.2460   -10.4100     1.2440 H     1 <1>   0.0800 
 37 H       -0.8920    -9.9760     2.2450 H     1 <1>   0.0800 
 38 H        1.3820    -9.7210     1.0890 H     1 <1>   0.0800 
 39 H        1.4660    -9.6540    -0.6320 H     1 <1>   0.0800 
 40 H        5.4240    -8.1380     2.1100 H     1 <1>   0.0800 
 41 H        5.8920    -6.4690     2.2240 H     1 <1>   0.0800 
 42 H        1.2280    -0.9950     1.1380 H     1 <1>   0.1500 
 43 H        2.2220    -1.7690    -2.9340 H     1 <1>   0.1500 
 44 H       -1.6310   -12.5870     1.4890 H     1 <1>   0.0800 
 45 H       -0.1640   -12.1250     2.3130 H     1 <1>   0.0800 
 46 H        1.8760   -11.9130     0.9340 H     1 <1>   0.0800 
 47 H        1.6210   -11.9150    -0.7890 H     1 <1>   0.0800 
 48 H        6.6490    -6.5760    -0.1670 H     1 <1>   0.0800 
 49 H        6.3030    -8.2790    -0.1650 H     1 <1>   0.0800 
 50 H        1.4140    -0.2260    -1.1940 H     1 <1>   0.1500 
 51 H        8.3140    -6.9050     1.6450 H     1 <1>   0.0800 
 52 H        8.7850    -8.5880    -0.8290 H     1 <1>   0.0800 
 53 H       10.0310    -7.9410     0.2130 H     1 <1>   0.0800 
 54 H        9.0210    -6.8610    -0.7110 H     1 <1>   0.0800 
 55 H        7.7610    -9.8550     1.2070 H     1 <1>   0.0800 
 56 H        7.4910    -8.9670     2.6850 H     1 <1>   0.0800 
 57 H        9.1150    -9.2240     2.1170 H     1 <1>   0.0800 
@<TRIPOS>BOND
  1   1   2  1   
  2   1   3  1   
  3   2   4  2   
  4   2   5  1   
  5   3   6  1   
  6   3  29  1   
  7   3  30  1   
  8   4   7  1   
  9   5   8  am  
 10   5   9  1   
 11   6  10  1   
 12   6  31  1   
 13   6  32  1   
 14   7  11  1   
 15   7  12  2   
 16   8  12  1   
 17   8  13  2   
 18   9  14  ar  
 19   9  15  ar  
 20  10  16  1   
 21  10  17  1   
 22  10  33  1   
 23  12  18  1   
 24  14  19  ar  
 25  14  34  1   
 26  15  20  ar  
 27  15  35  1   
 28  16  21  1   
 29  16  36  1   
 30  16  37  1   
 31  17  22  1   
 32  17  38  1   
 33  17  39  1   
 34  18  23  1   
 35  18  40  1   
 36  18  41  1   
 37  19  24  ar  
 38  19  42  1   
 39  20  24  ar  
 40  20  43  1   
 41  21  25  1   
 42  21  44  1   
 43  21  45  1   
 44  22  25  1   
 45  22  46  1   
 46  22  47  1   
 47  23  26  1   
 48  23  48  1   
 49  23  49  1   
 50  24  50  1   
 51  26  27  1   
 52  26  28  1   
 53  26  51  1   
 54  27  52  1   
 55  27  53  1   
 56  27  54  1   
 57  28  55  1   
 58  28  56  1   
 59  28  57  1   
@<TRIPOS>SUBSTRUCTURE
  1 ****   4 GROUP 4 **** **** 0

# MOE 2024.06 (io_trps.svl 2023.06)
