@<TRIPOS>MOLECULE
NONAME
64 68 1 0 0 
SMALL
USER_CHARGES


@<TRIPOS>ATOM
  1 O       -8.6170    -0.0750    -0.2760 O.2   1 <1>  -0.5700 
  2 C       -8.5530     0.9780    -0.8620 C.2   1 <1>   0.6590 
  3 O       -7.5470     1.2170    -1.6990 O.3   1 <1>  -0.4300 
  4 C       -9.5740     2.1150    -0.6690 C.3   1 <1>   0.0610 
  5 C       -6.5720     0.2630    -2.0930 C.3   1 <1>   0.1200 
  6 C       -8.8860     3.3170     0.0170 C.3   1 <1>  -0.1600 
  7 C      -10.7640     1.6720     0.2180 C.3   1 <1>  -0.1600 
  8 C      -10.1390     2.5730    -2.0340 C.3   1 <1>  -0.1600 
  9 C       -5.4780     0.0950    -1.0210 C.3   1 <1>   0.3430 
 10 C       -9.8680     4.4860     0.2370 C.3   1 <1>   0.1440 
 11 C      -11.7970     2.8060     0.4310 C.3   1 <1>   0.1440 
 12 C      -11.1390     3.7220    -1.8410 C.3   1 <1>  -0.0800 
 13 N       -5.9590    -0.6560     0.1830 N.4   1 <1>  -0.9590 
 14 C       -9.1330     5.6360     0.9610 C.ar  1 <1>  -0.1440 
 15 C      -11.0570     3.9910     1.0920 C.3   1 <1>  -0.1600 
 16 C      -10.4280     4.8970    -1.1490 C.3   1 <1>  -0.1600 
 17 C      -12.9930     2.3780     1.3120 C.ar  1 <1>  -0.1440 
 18 C      -12.3040     3.2450    -0.9590 C.3   1 <1>  -0.1600 
 19 C       -5.2100    -0.2730     1.4160 C.3   1 <1>   0.2630 
 20 C       -5.9450    -2.1360    -0.0250 C.3   1 <1>   0.2630 
 21 C       -8.6290     5.4300     2.2430 C.ar  1 <1>  -0.1500 
 22 C       -8.9370     6.8910     0.3870 C.ar  1 <1>  -0.1500 
 23 C      -13.9900     3.3030     1.6070 C.ar  1 <1>  -0.1500 
 24 C      -13.1300     1.0940     1.8360 C.ar  1 <1>  -0.1500 
 25 C       -7.9580     6.4300     2.9250 C.ar  1 <1>  -0.1500 
 26 C       -8.2650     7.8930     1.0650 C.ar  1 <1>  -0.1500 
 27 C      -15.0790     2.9660     2.3920 C.ar  1 <1>  -0.1500 
 28 C      -14.2180     0.7530     2.6210 C.ar  1 <1>  -0.1500 
 29 C       -7.7740     7.6650     2.3360 C.ar  1 <1>  -0.1500 
 30 C      -15.1950     1.6880     2.9020 C.ar  1 <1>  -0.1500 
 31 H       -6.1250     0.6350    -2.9980 H     1 <1>   0.0800 
 32 H       -7.0610    -0.6700    -2.3150 H     1 <1>   0.0800 
 33 H       -8.0640     3.6650    -0.5840 H     1 <1>   0.0800 
 34 H       -8.4830     2.9980     0.9610 H     1 <1>   0.0800 
 35 H      -10.3910     1.3480     1.1740 H     1 <1>   0.0800 
 36 H      -11.2500     0.8320    -0.2490 H     1 <1>   0.0800 
 37 H      -10.6270     1.7480    -2.5240 H     1 <1>   0.0800 
 38 H       -9.3410     2.9050    -2.6750 H     1 <1>   0.0800 
 39 H       -5.1390     1.0760    -0.7330 H     1 <1>   0.0800 
 40 H       -4.6390    -0.4280    -1.4510 H     1 <1>   0.0800 
 41 H      -11.5180     4.0390    -2.7980 H     1 <1>   0.0800 
 42 H       -6.9630    -0.3940     0.3120 H     1 <1>   0.4500 
 43 H      -10.7230     3.6790     2.0640 H     1 <1>   0.0800 
 44 H      -11.7290     4.8160     1.2420 H     1 <1>   0.0800 
 45 H       -9.6260     5.2350    -1.7820 H     1 <1>   0.0800 
 46 H      -11.1230     5.7100    -1.0320 H     1 <1>   0.0800 
 47 H      -13.0150     4.0460    -0.8610 H     1 <1>   0.0800 
 48 H      -12.8120     2.4230    -1.4330 H     1 <1>   0.0800 
 49 H       -4.1690    -0.5370     1.3200 H     1 <1>   0.0800 
 50 H       -5.6190    -0.7830     2.2730 H     1 <1>   0.0800 
 51 H       -5.2850     0.7890     1.5830 H     1 <1>   0.0800 
 52 H       -4.9380    -2.4840    -0.1930 H     1 <1>   0.0800 
 53 H       -6.5520    -2.3990    -0.8760 H     1 <1>   0.0800 
 54 H       -6.3450    -2.6370     0.8420 H     1 <1>   0.0800 
 55 H       -8.7520     4.4830     2.7340 H     1 <1>   0.1500 
 56 H       -9.2980     7.1240    -0.5960 H     1 <1>   0.1500 
 57 H      -13.9340     4.3070     1.2270 H     1 <1>   0.1500 
 58 H      -12.4030     0.3270     1.6500 H     1 <1>   0.1500 
 59 H       -7.5800     6.2460     3.9150 H     1 <1>   0.1500 
 60 H       -8.1260     8.8540     0.6020 H     1 <1>   0.1500 
 61 H      -15.8360     3.7000     2.6060 H     1 <1>   0.1500 
 62 H      -14.3020    -0.2450     3.0150 H     1 <1>   0.1500 
 63 H       -7.2530     8.4450     2.8630 H     1 <1>   0.1500 
 64 H      -16.0400     1.4220     3.5130 H     1 <1>   0.1500 
@<TRIPOS>BOND
  1   1   2  2   
  2   2   3  1   
  3   2   4  1   
  4   3   5  1   
  5   4   6  1   
  6   4   7  1   
  7   4   8  1   
  8   5   9  1   
  9   5  31  1   
 10   5  32  1   
 11   6  10  1   
 12   6  33  1   
 13   6  34  1   
 14   7  11  1   
 15   7  35  1   
 16   7  36  1   
 17   8  12  1   
 18   8  37  1   
 19   8  38  1   
 20   9  13  1   
 21   9  39  1   
 22   9  40  1   
 23  10  14  1   
 24  10  15  1   
 25  10  16  1   
 26  11  15  1   
 27  11  17  1   
 28  11  18  1   
 29  12  16  1   
 30  12  18  1   
 31  12  41  1   
 32  13  19  1   
 33  13  20  1   
 34  13  42  1   
 35  14  21  ar  
 36  14  22  ar  
 37  15  43  1   
 38  15  44  1   
 39  16  45  1   
 40  16  46  1   
 41  17  23  ar  
 42  17  24  ar  
 43  18  47  1   
 44  18  48  1   
 45  19  49  1   
 46  19  50  1   
 47  19  51  1   
 48  20  52  1   
 49  20  53  1   
 50  20  54  1   
 51  21  25  ar  
 52  21  55  1   
 53  22  26  ar  
 54  22  56  1   
 55  23  27  ar  
 56  23  57  1   
 57  24  28  ar  
 58  24  58  1   
 59  25  29  ar  
 60  25  59  1   
 61  26  29  ar  
 62  26  60  1   
 63  27  30  ar  
 64  27  61  1   
 65  28  30  ar  
 66  28  62  1   
 67  29  63  1   
 68  30  64  1   
@<TRIPOS>SUBSTRUCTURE
  1 ****   6 GROUP 4 **** **** 0

# MOE 2024.06 (io_trps.svl 2023.06)
