@<TRIPOS>MOLECULE
NONAME
47 49 1 0 0 
SMALL
USER_CHARGES


@<TRIPOS>ATOM
  1 CL       0.0040     0.5340    -1.4110 Cl    1 <1>  -0.1770 
  2 C        0.6320    -0.8750    -0.5970 C.ar  1 <1>   0.1770 
  3 C       -0.2130    -1.7550     0.0620 C.ar  1 <1>  -0.0090 
  4 C        2.0010    -1.0660    -0.6300 C.ar  1 <1>  -0.1500 
  5 S       -2.0000    -1.4690     0.0630 S.o2  1 <1>   1.4470 
  6 C        0.3800    -2.8290     0.7210 C.ar  1 <1>  -0.1500 
  7 C        2.5550    -2.1560     0.0110 C.ar  1 <1>  -0.1500 
  8 O       -2.5170    -1.2930    -1.2730 O.2   1 <1>  -0.6500 
  9 O       -2.3410    -0.5500     1.1200 O.2   1 <1>  -0.6500 
 10 N       -2.6510    -2.9520     0.6360 N.am  1 <1>  -0.7570 
 11 C        1.7540    -3.0670     0.6970 C.ar  1 <1>   0.0860 
 12 C       -2.5890    -4.2330     0.0950 C.ar  1 <1>   0.1990 
 13 C        2.3440    -4.2090     1.3710 C.2   1 <1>   0.5440 
 14 C       -2.8710    -5.3360     0.9060 C.ar  1 <1>  -0.1440 
 15 C       -2.2300    -4.4540    -1.2320 C.ar  1 <1>  -0.1500 
 16 O        3.2810    -4.0310     2.1240 O.2   1 <1>  -0.5700 
 17 N        1.8800    -5.4920     1.1760 N.am  1 <1>  -0.6600 
 18 C       -2.7840    -6.6160     0.3830 C.ar  1 <1>  -0.1500 
 19 C       -3.2720    -5.1650     2.3670 C.3   1 <1>  -0.0970 
 20 C       -2.1380    -5.7330    -1.7500 C.ar  1 <1>  -0.1430 
 21 C        0.9730    -5.9180     0.0840 C.3   1 <1>   0.1400 
 22 C        2.5170    -6.6670     1.8140 C.3   1 <1>   0.1400 
 23 C       -2.4180    -6.8150    -0.9360 C.ar  1 <1>  -0.1500 
 24 C       -1.7440    -5.9610    -3.1990 C.3   1 <1>  -0.0970 
 25 C        0.9480    -7.4410     0.1550 C.3   1 <1>  -0.1600 
 26 C        2.2470    -7.8220     0.8580 C.3   1 <1>  -0.1600 
 27 H        2.6250    -0.3610    -1.1530 H     1 <1>   0.1500 
 28 H       -0.2260    -3.5150     1.2850 H     1 <1>   0.1500 
 29 H        3.6210    -2.3120    -0.0050 H     1 <1>   0.1500 
 30 H       -3.1080    -2.8120     1.5290 H     1 <1>   0.4200 
 31 H       -2.0280    -3.6210    -1.8780 H     1 <1>   0.1500 
 32 H       -3.0020    -7.4720     0.9980 H     1 <1>   0.1500 
 33 H       -4.1850    -4.6010     2.4350 H     1 <1>   0.0800 
 34 H       -2.4970    -4.6510     2.9070 H     1 <1>   0.0800 
 35 H       -3.4320    -6.1180     2.8370 H     1 <1>   0.0800 
 36 H        1.3710    -5.5910    -0.8620 H     1 <1>   0.0800 
 37 H       -0.0150    -5.5190     0.2220 H     1 <1>   0.0800 
 38 H        2.0460    -6.8440     2.7660 H     1 <1>   0.0800 
 39 H        3.5730    -6.5130     1.9580 H     1 <1>   0.0800 
 40 H       -2.3580    -7.8170    -1.3270 H     1 <1>   0.1500 
 41 H       -1.4930    -5.0340    -3.6820 H     1 <1>   0.0800 
 42 H       -2.5620    -6.4120    -3.7310 H     1 <1>   0.0800 
 43 H       -0.8930    -6.6160    -3.2510 H     1 <1>   0.0800 
 44 H        0.8610    -7.8840    -0.8210 H     1 <1>   0.0800 
 45 H        0.1070    -7.7460     0.7530 H     1 <1>   0.0800 
 46 H        2.1760    -8.7620     1.3760 H     1 <1>   0.0800 
 47 H        3.0500    -7.8750     0.1430 H     1 <1>   0.0800 
@<TRIPOS>BOND
  1   1   2  1   
  2   2   3  ar  
  3   2   4  ar  
  4   3   5  1   
  5   3   6  ar  
  6   4   7  ar  
  7   4  27  1   
  8   5   8  2   
  9   5   9  2   
 10   5  10  am  
 11   6  11  ar  
 12   6  28  1   
 13   7  11  ar  
 14   7  29  1   
 15  10  12  1   
 16  10  30  1   
 17  11  13  1   
 18  12  14  ar  
 19  12  15  ar  
 20  13  16  2   
 21  13  17  am  
 22  14  18  ar  
 23  14  19  1   
 24  15  20  ar  
 25  15  31  1   
 26  17  21  1   
 27  17  22  1   
 28  18  23  ar  
 29  18  32  1   
 30  19  33  1   
 31  19  34  1   
 32  19  35  1   
 33  20  23  ar  
 34  20  24  1   
 35  21  25  1   
 36  21  36  1   
 37  21  37  1   
 38  22  26  1   
 39  22  38  1   
 40  22  39  1   
 41  23  40  1   
 42  24  41  1   
 43  24  42  1   
 44  24  43  1   
 45  25  26  1   
 46  25  44  1   
 47  25  45  1   
 48  26  46  1   
 49  26  47  1   
@<TRIPOS>SUBSTRUCTURE
  1 ****   6 GROUP 4 **** **** 0

# MOE 2024.06 (io_trps.svl 2023.06)
