@<TRIPOS>MOLECULE
NONAME
26 26 1 0 0 
SMALL
USER_CHARGES


@<TRIPOS>ATOM
  1 BR      -0.3780    -0.6620     0.0800 Br    1 <1>  -0.1110 
  2 C        1.4910    -1.1420     0.0720 C.ar  1 <1>   0.1110 
  3 C        1.9160    -2.2630    -0.6270 C.ar  1 <1>  -0.1440 
  4 C        2.3610    -0.3330     0.7800 C.ar  1 <1>  -0.1500 
  5 C        3.2690    -2.5640    -0.6000 C.ar  1 <1>  -0.1500 
  6 C        0.9430    -3.1400    -1.3990 C.3   1 <1>  -0.0960 
  7 C        3.7080    -0.6480     0.7950 C.ar  1 <1>  -0.1500 
  8 C        4.1660    -1.7690     0.1020 C.ar  1 <1>   0.0830 
  9 O        5.4680    -2.1490     0.0650 O.3   1 <1>  -0.3630 
 10 C        6.4700    -1.4070     0.7500 C.3   1 <1>   0.1810 
 11 C        7.8530    -2.0210     0.5650 C.2   1 <1>   0.5690 
 12 O        8.7950    -1.4840     1.0980 O.2   1 <1>  -0.5700 
 13 N        7.9950    -3.1480    -0.1860 N.am  1 <1>  -0.7300 
 14 C        9.2660    -3.8610    -0.4580 C.3   1 <1>   0.0600 
 15 H        1.9860     0.5260     1.3070 H     1 <1>   0.1500 
 16 H        3.6450    -3.4220    -1.1270 H     1 <1>   0.1500 
 17 H        0.4490    -2.5610    -2.1590 H     1 <1>   0.0800 
 18 H        0.2020    -3.5440    -0.7320 H     1 <1>   0.0800 
 19 H        1.4550    -3.9580    -1.8740 H     1 <1>   0.0800 
 20 H        4.3750    -0.0140     1.3480 H     1 <1>   0.1500 
 21 H        6.2290    -1.3950     1.7970 H     1 <1>   0.0800 
 22 H        6.4770    -0.4050     0.3610 H     1 <1>   0.0800 
 23 H        7.1440    -3.5390    -0.6030 H     1 <1>   0.3700 
 24 H       10.0870    -3.3600     0.0280 H     1 <1>   0.0800 
 25 H        9.4520    -3.8830    -1.5180 H     1 <1>   0.0800 
 26 H        9.2050    -4.8690    -0.0860 H     1 <1>   0.0800 
@<TRIPOS>BOND
  1   1   2  1   
  2   2   3  ar  
  3   2   4  ar  
  4   3   5  ar  
  5   3   6  1   
  6   4   7  ar  
  7   4  15  1   
  8   5   8  ar  
  9   5  16  1   
 10   6  17  1   
 11   6  18  1   
 12   6  19  1   
 13   7   8  ar  
 14   7  20  1   
 15   8   9  1   
 16   9  10  1   
 17  10  11  1   
 18  10  21  1   
 19  10  22  1   
 20  11  12  2   
 21  11  13  am  
 22  13  14  1   
 23  13  23  1   
 24  14  24  1   
 25  14  25  1   
 26  14  26  1   
@<TRIPOS>SUBSTRUCTURE
  1 ****   8 GROUP 4 **** **** 0

# MOE 2024.06 (io_trps.svl 2023.06)
