@<TRIPOS>MOLECULE
NONAME
48 49 1 0 0 
SMALL
USER_CHARGES


@<TRIPOS>ATOM
  1 O        0.7550     0.2970     0.0550 O.3   1 <1>  -0.3630 
  2 C       -0.5040     0.8080    -0.0600 C.ar  1 <1>   0.0830 
  3 C        1.9010     1.0890    -0.1300 C.3   1 <1>   0.1200 
  4 C       -1.5830    -0.0580     0.1420 C.ar  1 <1>   0.0830 
  5 C       -0.7440     2.1450    -0.3680 C.ar  1 <1>  -0.1500 
  6 C        3.1210     0.1900     0.0750 C.3   1 <1>  -0.1600 
  7 O       -1.3100    -1.3610     0.4420 O.3   1 <1>  -0.3630 
  8 C       -2.8830     0.4290     0.0330 C.ar  1 <1>  -0.1500 
  9 C       -2.0410     2.6160    -0.4740 C.ar  1 <1>  -0.1500 
 10 C        4.4340     0.9620    -0.1090 C.3   1 <1>  -0.1600 
 11 C       -2.3360    -2.3030     0.6620 C.3   1 <1>   0.0400 
 12 C       -3.1090     1.7600    -0.2740 C.ar  1 <1>  -0.1500 
 13 C        5.6400     0.0360     0.1050 C.3   1 <1>  -0.1600 
 14 C        6.9530     0.8000    -0.0740 C.3   1 <1>   0.3430 
 15 N        8.1130    -0.0740     0.2490 N.4   1 <1>  -0.9590 
 16 C        9.3400     0.7480     0.4650 C.3   1 <1>   0.3430 
 17 C        8.3400    -1.1270    -0.7880 C.3   1 <1>   0.3430 
 18 C       10.4850    -0.1460     0.9430 C.3   1 <1>  -0.1600 
 19 C        9.4650    -2.0610    -0.3390 C.3   1 <1>  -0.1600 
 20 C       10.7580    -1.2930    -0.0390 C.3   1 <1>  -0.1600 
 21 H        1.8830     1.8850     0.5940 H     1 <1>   0.0800 
 22 H        1.8790     1.4870    -1.1300 H     1 <1>   0.0800 
 23 H        0.0600     2.8360    -0.5290 H     1 <1>   0.1500 
 24 H        3.0710    -0.6190    -0.6340 H     1 <1>   0.0800 
 25 H        3.0770    -0.2230     1.0680 H     1 <1>   0.0800 
 26 H       -3.7320    -0.2090     0.1820 H     1 <1>   0.1500 
 27 H       -2.2210     3.6500    -0.7120 H     1 <1>   0.1500 
 28 H        4.4670     1.7750     0.5980 H     1 <1>   0.0800 
 29 H        4.4630     1.3780    -1.1030 H     1 <1>   0.0800 
 30 H       -1.8760    -3.2490     0.8790 H     1 <1>   0.0800 
 31 H       -2.9330    -2.3820    -0.2290 H     1 <1>   0.0800 
 32 H       -2.9280    -1.9830     1.5000 H     1 <1>   0.0800 
 33 H       -4.1160     2.1290    -0.3570 H     1 <1>   0.1500 
 34 H        5.5790    -0.7710    -0.6030 H     1 <1>   0.0800 
 35 H        5.5920    -0.3700     1.1000 H     1 <1>   0.0800 
 36 H        6.9480     1.6500     0.5900 H     1 <1>   0.0800 
 37 H        7.0330     1.1650    -1.0860 H     1 <1>   0.0800 
 38 H        7.9150    -0.5560     1.1350 H     1 <1>   0.4500 
 39 H        9.1500     1.5110     1.2030 H     1 <1>   0.0800 
 40 H        9.6230     1.2310    -0.4570 H     1 <1>   0.0800 
 41 H        8.6090    -0.6640    -1.7240 H     1 <1>   0.0800 
 42 H        7.4420    -1.7030    -0.9400 H     1 <1>   0.0800 
 43 H       10.2480    -0.5430     1.9150 H     1 <1>   0.0800 
 44 H       11.3760     0.4500     1.0490 H     1 <1>   0.0800 
 45 H        9.6530    -2.7830    -1.1150 H     1 <1>   0.0800 
 46 H        9.1500    -2.6060     0.5350 H     1 <1>   0.0800 
 47 H       11.4950    -1.9620     0.3750 H     1 <1>   0.0800 
 48 H       11.1590    -0.8930    -0.9560 H     1 <1>   0.0800 
@<TRIPOS>BOND
  1   1   2  1   
  2   1   3  1   
  3   2   4  ar  
  4   2   5  ar  
  5   3   6  1   
  6   3  21  1   
  7   3  22  1   
  8   4   7  1   
  9   4   8  ar  
 10   5   9  ar  
 11   5  23  1   
 12   6  10  1   
 13   6  24  1   
 14   6  25  1   
 15   7  11  1   
 16   8  12  ar  
 17   8  26  1   
 18   9  12  ar  
 19   9  27  1   
 20  10  13  1   
 21  10  28  1   
 22  10  29  1   
 23  11  30  1   
 24  11  31  1   
 25  11  32  1   
 26  12  33  1   
 27  13  14  1   
 28  13  34  1   
 29  13  35  1   
 30  14  15  1   
 31  14  36  1   
 32  14  37  1   
 33  15  16  1   
 34  15  17  1   
 35  15  38  1   
 36  16  18  1   
 37  16  39  1   
 38  16  40  1   
 39  17  19  1   
 40  17  41  1   
 41  17  42  1   
 42  18  20  1   
 43  18  43  1   
 44  18  44  1   
 45  19  20  1   
 46  19  45  1   
 47  19  46  1   
 48  20  47  1   
 49  20  48  1   
@<TRIPOS>SUBSTRUCTURE
  1 ****   6 GROUP 4 **** **** 0

# MOE 2024.06 (io_trps.svl 2023.06)
