@<TRIPOS>MOLECULE
NONAME
34 34 1 0 0 
SMALL
USER_CHARGES


@<TRIPOS>ATOM
  1 S        0.3430     0.3000    -1.3150 S.o2  1 <1>   1.3330 
  2 O       -0.1120     1.4310    -2.0810 O.2   1 <1>  -0.6500 
  3 O        0.1140    -1.0520    -1.7600 O.2   1 <1>  -0.6500 
  4 N        2.0330     0.5350    -1.1260 N.am  1 <1>  -0.7570 
  5 C       -0.2360     0.4740     0.3590 C.3   1 <1>  -0.1350 
  6 C        2.8740    -0.2660    -0.3640 C.ar  1 <1>   0.1990 
  7 C        3.6830     0.2880     0.6450 C.ar  1 <1>   0.0860 
  8 C        2.9240    -1.6380    -0.5990 C.ar  1 <1>  -0.1500 
  9 C        3.6860     1.7130     0.9030 C.2   1 <1>   0.5440 
 10 C        4.4740    -0.5740     1.4080 C.ar  1 <1>  -0.1500 
 11 C        3.7250    -2.4670     0.1590 C.ar  1 <1>  -0.1500 
 12 O        2.6500     2.3470     0.9280 O.2   1 <1>  -0.5700 
 13 N        4.8200     2.4370     1.1110 N.am  1 <1>  -0.7300 
 14 C        4.5010    -1.9330     1.1720 C.ar  1 <1>  -0.1500 
 15 C        6.2120     2.1000     0.7100 C.3   1 <1>   0.1400 
 16 C        6.6990     3.0580    -0.3760 C.3   1 <1>   0.1200 
 17 O        8.0150     2.7290    -0.6840 O.3   1 <1>  -0.5600 
 18 C        8.5770     3.5180    -1.6830 C.3   1 <1>   0.0400 
 19 H        2.1780     1.5400    -1.0070 H     1 <1>   0.4200 
 20 H       -1.3040     0.3860     0.3890 H     1 <1>   0.0800 
 21 H        0.0420     1.4340     0.7490 H     1 <1>   0.0800 
 22 H        0.1910    -0.2880     0.9800 H     1 <1>   0.0800 
 23 H        2.3320    -2.0610    -1.3910 H     1 <1>   0.1500 
 24 H        5.0770    -0.1660     2.2020 H     1 <1>   0.1500 
 25 H        3.7460    -3.5260    -0.0370 H     1 <1>   0.1500 
 26 H        4.6570     3.4150     1.3650 H     1 <1>   0.3700 
 27 H        5.1210    -2.5800     1.7710 H     1 <1>   0.1500 
 28 H        6.2610     1.0950     0.3290 H     1 <1>   0.0800 
 29 H        6.8540     2.1790     1.5700 H     1 <1>   0.0800 
 30 H        6.6750     4.0750    -0.0220 H     1 <1>   0.0800 
 31 H        6.1000     2.9530    -1.2640 H     1 <1>   0.0800 
 32 H        9.5880     3.1850    -1.8430 H     1 <1>   0.0800 
 33 H        8.5810     4.5460    -1.3650 H     1 <1>   0.0800 
 34 H        8.0100     3.4010    -2.5900 H     1 <1>   0.0800 
@<TRIPOS>BOND
  1   1   2  2   
  2   1   3  2   
  3   1   4  am  
  4   1   5  1   
  5   4   6  1   
  6   4  19  1   
  7   5  20  1   
  8   5  21  1   
  9   5  22  1   
 10   6   7  ar  
 11   6   8  ar  
 12   7   9  1   
 13   7  10  ar  
 14   8  11  ar  
 15   8  23  1   
 16   9  12  2   
 17   9  13  am  
 18  10  14  ar  
 19  10  24  1   
 20  11  14  ar  
 21  11  25  1   
 22  13  15  1   
 23  13  26  1   
 24  14  27  1   
 25  15  16  1   
 26  15  28  1   
 27  15  29  1   
 28  16  17  1   
 29  16  30  1   
 30  16  31  1   
 31  17  18  1   
 32  18  32  1   
 33  18  33  1   
 34  18  34  1   
@<TRIPOS>SUBSTRUCTURE
  1 ****   7 GROUP 4 **** **** 0

# MOE 2024.06 (io_trps.svl 2023.06)
