@<TRIPOS>MOLECULE
NONAME
50 51 1 0 0 
SMALL
USER_CHARGES


@<TRIPOS>ATOM
  1 O       -1.9440     1.6340    -2.2100 O.2   1 <1>  -0.5700 
  2 C       -1.6190     1.7870    -1.0580 C.2   1 <1>   0.6590 
  3 O       -1.3940     0.7490    -0.2560 O.3   1 <1>  -0.4300 
  4 C       -1.4360     3.2000    -0.4600 C.3   1 <1>   0.2510 
  5 C       -1.5040    -0.5770    -0.7150 C.3   1 <1>   0.1200 
  6 N       -0.0210     3.5740    -0.1370 N.3   1 <1>  -0.8100 
  7 C       -2.3110     3.3620     0.7980 C.3   1 <1>  -0.1600 
  8 C       -1.1570    -1.5060     0.4440 C.3   1 <1>  -0.2400 
  9 C        0.0740     4.9650     0.3460 C.3   1 <1>   0.1100 
 10 C        0.8750     3.3570    -1.2950 C.3   1 <1>   0.2530 
 11 C       -2.2270     4.7780     1.3770 C.3   1 <1>  -0.1600 
 12 C       -0.7610     5.1480     1.6150 C.3   1 <1>  -0.1600 
 13 C        2.3380     3.5840    -0.9330 C.ar  1 <1>  -0.1430 
 14 C        2.8810     2.9860     0.1940 C.ar  1 <1>  -0.1500 
 15 C        3.1450     4.3870    -1.7250 C.ar  1 <1>  -0.1500 
 16 C        4.2130     3.1790     0.5260 C.ar  1 <1>   0.0830 
 17 C        4.4750     4.5930    -1.3980 C.ar  1 <1>  -0.1500 
 18 O        4.7210     2.5900     1.6380 O.3   1 <1>  -0.3620 
 19 C        5.0240     3.9920    -0.2680 C.ar  1 <1>   0.0830 
 20 C        4.7830     1.1810     1.6670 C.3   1 <1>   0.1200 
 21 O        6.3290     4.1550     0.0970 O.3   1 <1>  -0.3630 
 22 C        5.9680     0.7130     0.8220 C.3   1 <1>  -0.2400 
 23 C        7.1870     5.0260    -0.6030 C.3   1 <1>   0.0400 
 24 H       -1.7980     3.8890    -1.2030 H     1 <1>   0.0800 
 25 H       -0.8200    -0.7110    -1.5360 H     1 <1>   0.0800 
 26 H       -2.5140    -0.7390    -1.0530 H     1 <1>   0.0800 
 27 H       -1.9860     2.6530     1.5400 H     1 <1>   0.0800 
 28 H       -3.3330     3.1360     0.5530 H     1 <1>   0.0800 
 29 H       -0.1520    -1.3200     0.7780 H     1 <1>   0.0800 
 30 H       -1.2280    -2.5290     0.1240 H     1 <1>   0.0800 
 31 H       -1.8410    -1.3530     1.2590 H     1 <1>   0.0800 
 32 H       -0.2640     5.6440    -0.4180 H     1 <1>   0.0800 
 33 H        1.0980     5.2050     0.5810 H     1 <1>   0.0800 
 34 H        0.5870     4.0090    -2.1020 H     1 <1>   0.0800 
 35 H        0.7880     2.3420    -1.6400 H     1 <1>   0.0800 
 36 H       -2.7740     4.8300     2.3030 H     1 <1>   0.0800 
 37 H       -2.6670     5.4780     0.6870 H     1 <1>   0.0800 
 38 H       -0.6930     6.1710     1.9410 H     1 <1>   0.0800 
 39 H       -0.3470     4.5280     2.3910 H     1 <1>   0.0800 
 40 H        2.2560     2.3780     0.8240 H     1 <1>   0.1500 
 41 H        2.7390     4.8590    -2.6030 H     1 <1>   0.1500 
 42 H        5.0650     5.2220    -2.0360 H     1 <1>   0.1500 
 43 H        3.8560     0.7740     1.3040 H     1 <1>   0.0800 
 44 H        4.9180     0.8890     2.6930 H     1 <1>   0.0800 
 45 H        5.8200     0.9810    -0.2090 H     1 <1>   0.0800 
 46 H        6.0630    -0.3550     0.8870 H     1 <1>   0.0800 
 47 H        6.8750     1.1640     1.1810 H     1 <1>   0.0800 
 48 H        8.1430     5.0160    -0.1110 H     1 <1>   0.0800 
 49 H        6.7740     6.0190    -0.5770 H     1 <1>   0.0800 
 50 H        7.2930     4.6750    -1.6140 H     1 <1>   0.0800 
@<TRIPOS>BOND
  1   1   2  2   
  2   2   3  1   
  3   2   4  1   
  4   3   5  1   
  5   4   6  1   
  6   4   7  1   
  7   4  24  1   
  8   5   8  1   
  9   5  25  1   
 10   5  26  1   
 11   6   9  1   
 12   6  10  1   
 13   7  11  1   
 14   7  27  1   
 15   7  28  1   
 16   8  29  1   
 17   8  30  1   
 18   8  31  1   
 19   9  12  1   
 20   9  32  1   
 21   9  33  1   
 22  10  13  1   
 23  10  34  1   
 24  10  35  1   
 25  11  12  1   
 26  11  36  1   
 27  11  37  1   
 28  12  38  1   
 29  12  39  1   
 30  13  14  ar  
 31  13  15  ar  
 32  14  16  ar  
 33  14  40  1   
 34  15  17  ar  
 35  15  41  1   
 36  16  18  1   
 37  16  19  ar  
 38  17  19  ar  
 39  17  42  1   
 40  18  20  1   
 41  19  21  1   
 42  20  22  1   
 43  20  43  1   
 44  20  44  1   
 45  21  23  1   
 46  22  45  1   
 47  22  46  1   
 48  22  47  1   
 49  23  48  1   
 50  23  49  1   
 51  23  50  1   
@<TRIPOS>SUBSTRUCTURE
  1 ****  14 GROUP 4 **** **** 0

# MOE 2024.06 (io_trps.svl 2023.06)
