@<TRIPOS>MOLECULE
NONAME
50 51 1 0 0 
SMALL
USER_CHARGES


@<TRIPOS>ATOM
  1 S        0.3210     0.3080    -1.4310 S.o2  1 <1>   1.4470 
  2 O        1.5330     0.2890    -2.2170 O.2   1 <1>  -0.6500 
  3 O       -0.9530     0.0870    -2.0800 O.2   1 <1>  -0.6500 
  4 N        0.4660    -0.8930    -0.2360 N.am  1 <1>  -0.8490 
  5 C        0.2830     1.8350    -0.4540 C.ar  1 <1>  -0.0090 
  6 C        1.0550    -2.1430    -0.7950 C.3   1 <1>   0.2570 
  7 C       -0.8010    -1.1770     0.4470 C.3   1 <1>   0.1160 
  8 C        1.4520     2.3630     0.0820 C.ar  1 <1>  -0.1500 
  9 C       -0.9100     2.5010    -0.1930 C.ar  1 <1>  -0.1500 
 10 C        2.5900    -2.1690    -0.8270 C.2   1 <1>   0.5690 
 11 C        1.4320     3.5100     0.8560 C.ar  1 <1>  -0.1500 
 12 C       -0.9410     3.6500     0.5800 C.ar  1 <1>  -0.1500 
 13 O        3.1460    -3.0000    -1.5060 O.2   1 <1>  -0.5700 
 14 N        3.2740    -1.2820    -0.0580 N.am  1 <1>  -0.7300 
 15 C        0.2380     4.1600     1.1130 C.ar  1 <1>   0.0830 
 16 C        4.7310    -1.0860    -0.0480 C.3   1 <1>   0.2200 
 17 O        0.3010     5.2740     1.8810 O.3   1 <1>  -0.3630 
 18 C        5.1880    -1.1290     1.4170 C.3   1 <1>  -0.1600 
 19 C        5.0250     0.2650    -0.7160 C.3   1 <1>  -0.1600 
 20 C       -0.8520     6.0280     2.1820 C.3   1 <1>   0.0400 
 21 C        6.7080    -1.2180     1.6220 C.3   1 <1>  -0.1600 
 22 C        6.4200     0.3780    -1.3520 C.3   1 <1>  -0.1600 
 23 C        7.5190    -0.1040     0.9430 C.3   1 <1>  -0.1600 
 24 C        7.5810    -0.2700    -0.5820 C.3   1 <1>  -0.1600 
 25 H        0.6860    -2.3130    -1.7920 H     1 <1>   0.0800 
 26 H        0.7580    -2.9840    -0.1950 H     1 <1>   0.0800 
 27 H       -1.2100    -0.2720     0.8610 H     1 <1>   0.0800 
 28 H       -0.6390    -1.8720     1.2530 H     1 <1>   0.0800 
 29 H       -1.5170    -1.5990    -0.2410 H     1 <1>   0.0800 
 30 H        2.3900     1.8710    -0.1120 H     1 <1>   0.1500 
 31 H       -1.8300     2.1160    -0.6020 H     1 <1>   0.1500 
 32 H        2.3430     3.9090     1.2650 H     1 <1>   0.1500 
 33 H       -1.8850     4.1310     0.7540 H     1 <1>   0.1500 
 34 H        2.7230    -0.5980     0.4620 H     1 <1>   0.3700 
 35 H        5.1930    -1.8840    -0.6070 H     1 <1>   0.0800 
 36 H        4.7510    -1.9970     1.8810 H     1 <1>   0.0800 
 37 H        4.8170    -0.2620     1.9330 H     1 <1>   0.0800 
 38 H        4.9020     1.0530     0.0050 H     1 <1>   0.0800 
 39 H        4.3070     0.4330    -1.5020 H     1 <1>   0.0800 
 40 H       -0.5550     6.8630     2.7900 H     1 <1>   0.0800 
 41 H       -1.5430     5.4080     2.7250 H     1 <1>   0.0800 
 42 H       -1.2880     6.3810     1.2640 H     1 <1>   0.0800 
 43 H        7.0550    -2.1760     1.2730 H     1 <1>   0.0800 
 44 H        6.9020    -1.1820     2.6800 H     1 <1>   0.0800 
 45 H        6.6350     1.4230    -1.4920 H     1 <1>   0.0800 
 46 H        6.3860    -0.0680    -2.3320 H     1 <1>   0.0800 
 47 H        8.5260    -0.1640     1.3210 H     1 <1>   0.0800 
 48 H        7.1370     0.8660     1.2090 H     1 <1>   0.0800 
 49 H        8.4960     0.1720    -0.9390 H     1 <1>   0.0800 
 50 H        7.6320    -1.3170    -0.8280 H     1 <1>   0.0800 
@<TRIPOS>BOND
  1   1   2  2   
  2   1   3  2   
  3   1   4  am  
  4   1   5  1   
  5   4   6  1   
  6   4   7  1   
  7   5   8  ar  
  8   5   9  ar  
  9   6  10  1   
 10   6  25  1   
 11   6  26  1   
 12   7  27  1   
 13   7  28  1   
 14   7  29  1   
 15   8  11  ar  
 16   8  30  1   
 17   9  12  ar  
 18   9  31  1   
 19  10  13  2   
 20  10  14  am  
 21  11  15  ar  
 22  11  32  1   
 23  12  15  ar  
 24  12  33  1   
 25  14  16  1   
 26  14  34  1   
 27  15  17  1   
 28  16  18  1   
 29  16  19  1   
 30  16  35  1   
 31  17  20  1   
 32  18  21  1   
 33  18  36  1   
 34  18  37  1   
 35  19  22  1   
 36  19  38  1   
 37  19  39  1   
 38  20  40  1   
 39  20  41  1   
 40  20  42  1   
 41  21  23  1   
 42  21  43  1   
 43  21  44  1   
 44  22  24  1   
 45  22  45  1   
 46  22  46  1   
 47  23  24  1   
 48  23  47  1   
 49  23  48  1   
 50  24  49  1   
 51  24  50  1   
@<TRIPOS>SUBSTRUCTURE
  1 ****   8 GROUP 4 **** **** 0

# MOE 2024.06 (io_trps.svl 2023.06)
