@<TRIPOS>MOLECULE
Structure492
20 21 1 0 0 
SMALL
USER_CHARGES


@<TRIPOS>ATOM
  1 N       -0.1380     0.1760    -0.2230 N.ar  1 <1>  -0.6200 
  2 C       -1.2560     0.8400    -0.0660 C.ar  1 <1>   0.1660 
  3 C        0.9700     0.9020    -0.2220 C.ar  1 <1>   0.4700 
  4 C       -1.2730     2.2110     0.0870 C.ar  1 <1>  -0.1440 
  5 C       -2.5300     0.0170    -0.0800 C.3   1 <1>  -0.0160 
  6 N        1.0730     2.2130    -0.0840 N.ar  1 <1>  -0.6200 
  7 C       -0.0580     2.8590     0.0710 C.ar  1 <1>   0.1600 
  8 C       -2.5580     2.9870     0.2750 C.3   1 <1>   0.4870 
  9 C       -3.7420     0.8240     0.3870 C.3   1 <1>   0.3430 
 10 N       -3.7170     2.1890    -0.2150 N.4   1 <1>  -0.9060 
 11 H        1.8950     0.3620    -0.3500 H     1 <1>   0.1500 
 12 H       -2.4100    -0.8390     0.5600 H     1 <1>   0.0800 
 13 H       -2.6970    -0.3490    -1.0770 H     1 <1>   0.0800 
 14 H        0.0040     3.9290     0.1890 H     1 <1>   0.1500 
 15 H       -2.5000     3.9200    -0.2640 H     1 <1>   0.0800 
 16 H       -2.6830     3.2090     1.3230 H     1 <1>   0.0800 
 17 H       -3.7180     0.9040     1.4620 H     1 <1>   0.0800 
 18 H       -4.6460     0.3050     0.1080 H     1 <1>   0.0800 
 19 H       -3.6420     2.1040    -1.2370 H     1 <1>   0.4500 
 20 H       -4.5940     2.6870    -0.0130 H     1 <1>   0.4500 
@<TRIPOS>BOND
  1   1   2  ar  
  2   1   3  ar  
  3   2   4  ar  
  4   2   5  1   
  5   3   6  ar  
  6   3  11  1   
  7   4   7  ar  
  8   4   8  1   
  9   5   9  1   
 10   5  12  1   
 11   5  13  1   
 12   6   7  ar  
 13   7  14  1   
 14   8  10  1   
 15   8  15  1   
 16   8  16  1   
 17   9  10  1   
 18   9  17  1   
 19   9  18  1   
 20  10  19  1   
 21  10  20  1   
@<TRIPOS>SUBSTRUCTURE
  1 ****   2 GROUP 4 **** **** 0

# MOE 2024.06 (io_trps.svl 2023.06)
