@<TRIPOS>MOLECULE
NONAME
33 33 1 0 0 
SMALL
USER_CHARGES


@<TRIPOS>ATOM
  1 S        0.9260     0.7560    -0.4960 S.3   1 <1>  -0.3310 
  2 C       -0.7680     1.3680    -0.5590 C.ar  1 <1>   0.1020 
  3 C        1.4260     0.7590     1.2990 C.3   1 <1>   0.1310 
  4 C       -1.3460     1.4820    -1.8100 C.ar  1 <1>  -0.1500 
  5 C       -1.4730     1.7130     0.5840 C.ar  1 <1>  -0.1500 
  6 C        2.8610     0.2890     1.4940 C.2   1 <1>   0.5690 
  7 C       -2.6440     1.9470    -1.9250 C.ar  1 <1>  -0.1500 
  8 C       -2.7720     2.1780     0.4630 C.ar  1 <1>  -0.1500 
  9 O        3.2900     0.2250     2.6200 O.2   1 <1>  -0.5700 
 10 N        3.6200    -0.0450     0.4170 N.am  1 <1>  -0.7300 
 11 C       -3.3560     2.2940    -0.7880 C.ar  1 <1>  -0.1500 
 12 C        5.0290    -0.4810     0.4560 C.3   1 <1>   0.1400 
 13 C        5.8190     0.2950    -0.5950 C.3   1 <1>  -0.1600 
 14 C        7.2940    -0.0980    -0.5620 C.3   1 <1>   0.1200 
 15 O        7.9390     0.6060    -1.5690 O.3   1 <1>  -0.5600 
 16 C        9.3060     0.3620    -1.6440 C.3   1 <1>   0.0400 
 17 H        0.7540     0.1040     1.8200 H     1 <1>   0.0800 
 18 H        1.3220     1.7650     1.6590 H     1 <1>   0.0800 
 19 H       -0.7830     1.2090    -2.6850 H     1 <1>   0.1500 
 20 H       -1.0400     1.6290     1.5610 H     1 <1>   0.1500 
 21 H       -3.1000     2.0380    -2.8950 H     1 <1>   0.1500 
 22 H       -3.3310     2.4490     1.3420 H     1 <1>   0.1500 
 23 H        3.1930     0.0260    -0.5120 H     1 <1>   0.3700 
 24 H       -4.3660     2.6550    -0.8780 H     1 <1>   0.1500 
 25 H        5.0770    -1.5380     0.2540 H     1 <1>   0.0800 
 26 H        5.4390    -0.3000     1.4360 H     1 <1>   0.0800 
 27 H        5.7370     1.3490    -0.3960 H     1 <1>   0.0800 
 28 H        5.4230     0.0820    -1.5720 H     1 <1>   0.0800 
 29 H        7.4140    -1.1520    -0.7480 H     1 <1>   0.0800 
 30 H        7.7360     0.1650     0.3840 H     1 <1>   0.0800 
 31 H        9.7060     0.9500    -2.4500 H     1 <1>   0.0800 
 32 H        9.4700    -0.6840    -1.8400 H     1 <1>   0.0800 
 33 H        9.7700     0.6530    -0.7170 H     1 <1>   0.0800 
@<TRIPOS>BOND
  1   1   2  1   
  2   1   3  1   
  3   2   4  ar  
  4   2   5  ar  
  5   3   6  1   
  6   3  17  1   
  7   3  18  1   
  8   4   7  ar  
  9   4  19  1   
 10   5   8  ar  
 11   5  20  1   
 12   6   9  2   
 13   6  10  am  
 14   7  11  ar  
 15   7  21  1   
 16   8  11  ar  
 17   8  22  1   
 18  10  12  1   
 19  10  23  1   
 20  11  24  1   
 21  12  13  1   
 22  12  25  1   
 23  12  26  1   
 24  13  14  1   
 25  13  27  1   
 26  13  28  1   
 27  14  15  1   
 28  14  29  1   
 29  14  30  1   
 30  15  16  1   
 31  16  31  1   
 32  16  32  1   
 33  16  33  1   
@<TRIPOS>SUBSTRUCTURE
  1 ****   1 GROUP 4 **** **** 0

# MOE 2024.06 (io_trps.svl 2023.06)
