@<TRIPOS>MOLECULE
NONAME
43 45 1 0 0 
SMALL
USER_CHARGES


@<TRIPOS>ATOM
  1 S       -0.2730    -0.3500     0.3330 S.3   1 <1>  -0.0800 
  2 C        0.8870     0.9380    -0.0250 C.2   1 <1>   0.1040 
  3 C       -1.6010     0.7690     0.1600 C.2   1 <1>  -0.1400 
  4 N        2.2490     0.6740    -0.0420 N.am  1 <1>  -0.4940 
  5 C        0.2460     2.1340    -0.2530 C.2   1 <1>  -0.0860 
  6 C       -1.1820     1.9860    -0.1360 C.2   1 <1>  -0.1810 
  7 C       -3.0750     0.5680     0.2920 C.3   1 <1>   0.0200 
  8 C        3.0230    -0.4400     0.2050 C.2   1 <1>   0.5440 
  9 C        0.8760     3.3900    -0.5600 C.2   1 <1>   0.8060 
 10 C       -2.3570     2.9210    -0.2750 C.3   1 <1>   0.0210 
 11 C       -3.5840     2.0030    -0.0050 C.3   1 <1>  -0.1600 
 12 O        2.5110    -1.5220     0.4060 O.2   1 <1>  -0.5700 
 13 C        4.4700    -0.3010     0.1980 C.ar  1 <1>   0.0860 
 14 O        0.2700     4.4360    -0.6970 O.2   1 <1>  -0.5700 
 15 O        2.2130     3.4000    -0.6980 O.3   1 <1>  -0.4300 
 16 C        5.0980     0.9210     0.4530 C.ar  1 <1>  -0.1500 
 17 C        5.2950    -1.3940    -0.0720 C.ar  1 <1>  -0.1500 
 18 C        2.9560     4.5770    -0.9400 C.3   1 <1>   0.1200 
 19 C        6.4740     1.0560     0.4200 C.ar  1 <1>   0.0830 
 20 C        6.6720    -1.2750    -0.1020 C.ar  1 <1>  -0.1500 
 21 C        3.3110     5.2150     0.4010 C.3   1 <1>  -0.2400 
 22 O        6.9670     2.2940     0.6700 O.3   1 <1>  -0.3630 
 23 C        7.2680    -0.0510     0.1400 C.ar  1 <1>  -0.1500 
 24 C        8.3560     2.5360     0.7120 C.3   1 <1>   0.0400 
 25 H        2.8060     1.4900    -0.2990 H     1 <1>   0.3700 
 26 H       -3.3280     0.2510     1.2890 H     1 <1>   0.0800 
 27 H       -3.4290    -0.1420    -0.4340 H     1 <1>   0.0800 
 28 H       -2.3910     3.3390    -1.2670 H     1 <1>   0.0800 
 29 H       -2.2940     3.7140     0.4500 H     1 <1>   0.0800 
 30 H       -4.1420     2.3750     0.8360 H     1 <1>   0.0800 
 31 H       -4.2280     1.9910    -0.8660 H     1 <1>   0.0800 
 32 H        4.5200     1.7930     0.6930 H     1 <1>   0.1500 
 33 H        4.8410    -2.3530    -0.2610 H     1 <1>   0.1500 
 34 H        2.3840     5.2480    -1.5600 H     1 <1>   0.0800 
 35 H        3.8520     4.2960    -1.4670 H     1 <1>   0.0800 
 36 H        7.2810    -2.1380    -0.3150 H     1 <1>   0.1500 
 37 H        3.9010     6.0980     0.2350 H     1 <1>   0.0800 
 38 H        2.4180     5.5010     0.9280 H     1 <1>   0.0800 
 39 H        3.8840     4.5320     1.0020 H     1 <1>   0.0800 
 40 H        8.3390     0.0180     0.1080 H     1 <1>   0.1500 
 41 H        8.7960     1.9220     1.4790 H     1 <1>   0.0800 
 42 H        8.5080     3.5750     0.9450 H     1 <1>   0.0800 
 43 H        8.7800     2.3120    -0.2510 H     1 <1>   0.0800 
@<TRIPOS>BOND
  1   1   2  1   
  2   1   3  1   
  3   2   4  1   
  4   2   5  2   
  5   3   6  2   
  6   3   7  1   
  7   4   8  am  
  8   4  25  1   
  9   5   6  1   
 10   5   9  1   
 11   6  10  1   
 12   7  11  1   
 13   7  26  1   
 14   7  27  1   
 15   8  12  2   
 16   8  13  1   
 17   9  14  2   
 18   9  15  1   
 19  10  11  1   
 20  10  28  1   
 21  10  29  1   
 22  11  30  1   
 23  11  31  1   
 24  13  16  ar  
 25  13  17  ar  
 26  15  18  1   
 27  16  19  ar  
 28  16  32  1   
 29  17  20  ar  
 30  17  33  1   
 31  18  21  1   
 32  18  34  1   
 33  18  35  1   
 34  19  22  1   
 35  19  23  ar  
 36  20  23  ar  
 37  20  36  1   
 38  21  37  1   
 39  21  38  1   
 40  21  39  1   
 41  22  24  1   
 42  23  40  1   
 43  24  41  1   
 44  24  42  1   
 45  24  43  1   
@<TRIPOS>SUBSTRUCTURE
  1 ****   4 GROUP 4 **** **** 0

# MOE 2024.06 (io_trps.svl 2023.06)
