@<TRIPOS>MOLECULE
NONAME
44 45 1 0 0 
SMALL
USER_CHARGES


@<TRIPOS>ATOM
  1 O        0.6490     0.1990     1.0500 O.2   1 <1>  -0.5700 
  2 C        1.6350     0.3320     0.3520 C.2   1 <1>   0.8060 
  3 O        1.9910     1.5690    -0.0180 O.3   1 <1>  -0.4300 
  4 C        2.4350    -0.7640    -0.1090 C.2   1 <1>  -0.0860 
  5 C        1.2580     2.7010     0.3930 C.3   1 <1>   0.1200 
  6 C        3.7920    -0.6850    -0.4280 C.2   1 <1>   0.3720 
  7 C        2.1230    -2.0790    -0.3430 C.2   1 <1>  -0.2050 
  8 C        1.9390     3.9390    -0.1830 C.3   1 <1>  -0.2400 
  9 N        4.2930    -1.7880    -0.8360 N.2   1 <1>  -0.7070 
 10 N        4.6150     0.4020    -0.3430 N.pl3 1 <1>  -0.8830 
 11 N        3.2600    -2.6910    -0.7990 N.pl3 1 <1>   0.5610 
 12 C        0.8770    -2.7700    -0.1490 C.ar  1 <1>   0.0530 
 13 C        3.4130    -4.0590    -1.1170 C.2   1 <1>   0.5180 
 14 C        0.3000    -2.8540     1.1160 C.ar  1 <1>  -0.1500 
 15 C        0.2140    -3.3880    -1.2070 C.ar  1 <1>  -0.1500 
 16 O        2.9750    -4.5370    -2.1410 O.2   1 <1>  -0.5700 
 17 C        4.1770    -4.9590    -0.1120 C.3   1 <1>   0.0610 
 18 C       -0.8850    -3.5360     1.3200 C.ar  1 <1>  -0.1500 
 19 C       -0.9690    -4.0740    -1.0090 C.ar  1 <1>  -0.1500 
 20 C        5.6860    -4.9130    -0.4110 C.3   1 <1>  -0.2400 
 21 C        3.7120    -6.4260    -0.2250 C.3   1 <1>  -0.2400 
 22 C        3.9530    -4.5240     1.3530 C.3   1 <1>  -0.2400 
 23 C       -1.5220    -4.1510     0.2570 C.ar  1 <1>  -0.1500 
 24 H        1.2500     2.7310     1.4700 H     1 <1>   0.0800 
 25 H        0.2490     2.6080     0.0270 H     1 <1>   0.0800 
 26 H        2.9450     4.0160     0.1870 H     1 <1>   0.0800 
 27 H        1.3980     4.8190     0.1140 H     1 <1>   0.0800 
 28 H        1.9500     3.8910    -1.2570 H     1 <1>   0.0800 
 29 H        5.4550     0.2290    -0.8980 H     1 <1>   0.4000 
 30 H        4.1510     1.2660    -0.6370 H     1 <1>   0.4000 
 31 H        0.7830    -2.3720     1.9470 H     1 <1>   0.1500 
 32 H        0.6310    -3.3350    -2.1980 H     1 <1>   0.1500 
 33 H       -1.3150    -3.5850     2.3060 H     1 <1>   0.1500 
 34 H       -1.4610    -4.5490    -1.8400 H     1 <1>   0.1500 
 35 H        5.8740    -5.2320    -1.4220 H     1 <1>   0.0800 
 36 H        6.2290    -5.5570     0.2570 H     1 <1>   0.0800 
 37 H        6.0650    -3.9120    -0.2990 H     1 <1>   0.0800 
 38 H        4.2300    -7.0520     0.4800 H     1 <1>   0.0800 
 39 H        3.9000    -6.8070    -1.2140 H     1 <1>   0.0800 
 40 H        2.6550    -6.4980    -0.0350 H     1 <1>   0.0800 
 41 H        4.4520    -5.1980     2.0270 H     1 <1>   0.0800 
 42 H        2.9040    -4.5260     1.5910 H     1 <1>   0.0800 
 43 H        4.3450    -3.5370     1.5300 H     1 <1>   0.0800 
 44 H       -2.4440    -4.6830     0.4130 H     1 <1>   0.1500 
@<TRIPOS>BOND
  1   1   2  2   
  2   2   3  1   
  3   2   4  1   
  4   3   5  1   
  5   4   6  1   
  6   4   7  2   
  7   5   8  1   
  8   5  24  1   
  9   5  25  1   
 10   6   9  2   
 11   6  10  1   
 12   7  11  1   
 13   7  12  1   
 14   8  26  1   
 15   8  27  1   
 16   8  28  1   
 17   9  11  1   
 18  10  29  1   
 19  10  30  1   
 20  11  13  1   
 21  12  14  ar  
 22  12  15  ar  
 23  13  16  2   
 24  13  17  1   
 25  14  18  ar  
 26  14  31  1   
 27  15  19  ar  
 28  15  32  1   
 29  17  20  1   
 30  17  21  1   
 31  17  22  1   
 32  18  23  ar  
 33  18  33  1   
 34  19  23  ar  
 35  19  34  1   
 36  20  35  1   
 37  20  36  1   
 38  20  37  1   
 39  21  38  1   
 40  21  39  1   
 41  21  40  1   
 42  22  41  1   
 43  22  42  1   
 44  22  43  1   
 45  23  44  1   
@<TRIPOS>SUBSTRUCTURE
  1 ****   7 GROUP 4 **** **** 0

# MOE 2024.06 (io_trps.svl 2023.06)
