@<TRIPOS>MOLECULE
NONAME
28 29 1 0 0 
SMALL
USER_CHARGES


@<TRIPOS>ATOM
  1 BR       1.4300     1.0020    -2.7900 Br    1 <1>  -0.1110 
  2 C        2.2800     1.3560    -1.0940 C.ar  1 <1>   0.1110 
  3 C        2.0310     2.5530    -0.4350 C.ar  1 <1>   0.0830 
  4 C        3.1260     0.3900    -0.5870 C.ar  1 <1>  -0.1500 
  5 O        1.1860     3.4490    -1.0060 O.3   1 <1>  -0.3630 
  6 C        2.6710     2.7630     0.7830 C.ar  1 <1>  -0.1500 
  7 C        3.7680     0.5990     0.6280 C.ar  1 <1>  -0.0090 
  8 C        0.8810     4.6770    -0.3850 C.3   1 <1>   0.0400 
  9 C        3.5240     1.7960     1.2960 C.ar  1 <1>  -0.1500 
 10 S        4.9170    -0.6300     1.3050 S.o2  1 <1>   1.4470 
 11 O        4.8150    -0.6630     2.7460 O.2   1 <1>  -0.6500 
 12 O        4.8470    -1.8700     0.5640 O.2   1 <1>  -0.6500 
 13 N        6.4290     0.0270     0.9930 N.am  1 <1>  -0.7890 
 14 C        6.8360    -0.0290    -0.3900 C.3   1 <1>   0.1310 
 15 C        7.9480     0.8670    -0.8150 C.3   1 <1>  -0.2000 
 16 C        6.5420     1.1420    -1.2640 C.3   1 <1>  -0.2000 
 17 H        3.2860    -0.5200    -1.1400 H     1 <1>   0.1500 
 18 H        2.5200     3.6670     1.3430 H     1 <1>   0.1500 
 19 H        0.1940     5.2090    -1.0190 H     1 <1>   0.0800 
 20 H        1.7860     5.2460    -0.2700 H     1 <1>   0.0800 
 21 H        0.4210     4.4830     0.5680 H     1 <1>   0.0800 
 22 H        4.0150     1.9750     2.2390 H     1 <1>   0.1500 
 23 H        7.0620    -0.5590     1.5300 H     1 <1>   0.4200 
 24 H        6.8000    -1.0210    -0.8160 H     1 <1>   0.1000 
 25 H        8.6530     0.5160    -1.5480 H     1 <1>   0.1000 
 26 H        8.3940     1.5220    -0.0870 H     1 <1>   0.1000 
 27 H        6.0280     1.9910    -0.8480 H     1 <1>   0.1000 
 28 H        6.2940     0.9710    -2.2970 H     1 <1>   0.1000 
@<TRIPOS>BOND
  1   1   2  1   
  2   2   3  ar  
  3   2   4  ar  
  4   3   5  1   
  5   3   6  ar  
  6   4   7  ar  
  7   4  17  1   
  8   5   8  1   
  9   6   9  ar  
 10   6  18  1   
 11   7   9  ar  
 12   7  10  1   
 13   8  19  1   
 14   8  20  1   
 15   8  21  1   
 16   9  22  1   
 17  10  11  2   
 18  10  12  2   
 19  10  13  am  
 20  13  14  1   
 21  13  23  1   
 22  14  15  1   
 23  14  16  1   
 24  14  24  1   
 25  15  16  1   
 26  15  25  1   
 27  15  26  1   
 28  16  27  1   
 29  16  28  1   
@<TRIPOS>SUBSTRUCTURE
  1 ****   7 GROUP 4 **** **** 0

# MOE 2024.06 (io_trps.svl 2023.06)
