@<TRIPOS>MOLECULE
NONAME
34 33 1 0 0 
SMALL
USER_CHARGES


@<TRIPOS>ATOM
  1 F        0.1530    -0.1930    -0.5430 F     1 <1>  -0.3400 
  2 C       -0.2800    -1.3100    -1.1320 C.3   1 <1>   1.0200 
  3 F       -1.6030    -1.1590    -1.1320 F     1 <1>  -0.3400 
  4 F        0.0400    -1.1900    -2.4200 F     1 <1>  -0.3400 
  5 C        0.2100    -2.6150    -0.3890 C.3   1 <1>   0.4380 
  6 N       -0.6150    -2.7550     0.9010 N.am  1 <1>  -0.7300 
  7 C        0.0210    -3.7650    -1.4390 C.3   1 <1>   1.0200 
  8 C        1.7240    -2.6430     0.0860 C.2   1 <1>  -0.1240 
  9 C       -1.8800    -3.1790     1.0860 C.2   1 <1>   0.7800 
 10 F        1.0330    -3.8530    -2.3030 F     1 <1>  -0.3400 
 11 F       -1.0580    -3.6520    -2.2170 F     1 <1>  -0.3400 
 12 F       -0.0900    -4.9840    -0.9200 F     1 <1>  -0.3400 
 13 C        2.0870    -3.6130     1.0460 C.2   1 <1>  -0.2880 
 14 C        2.6470    -1.7560    -0.4960 C.2   1 <1>   0.4950 
 15 O       -2.3430    -3.3390     2.1960 O.2   1 <1>  -0.5700 
 16 O       -2.6280    -3.4140     0.0130 O.3   1 <1>  -0.4300 
 17 O        1.2860    -4.3300     1.6230 O.3   1 <1>  -0.8500 
 18 C        3.5010    -3.9940     1.4480 C.3   1 <1>  -0.1020 
 19 O        2.4990    -1.2220    -1.5890 O.2   1 <1>  -0.5700 
 20 C        3.9460    -1.3150     0.1530 C.3   1 <1>  -0.1790 
 21 C       -3.9230    -3.9650     0.0950 C.3   1 <1>   0.1200 
 22 C       -3.8020    -5.4860     0.1570 C.3   1 <1>  -0.2400 
 23 H        0.0340    -3.2060     1.5850 H     1 <1>   0.3700 
 24 H        3.5100    -5.0170     1.7810 H     1 <1>   0.0800 
 25 H        3.8350    -3.3860     2.2670 H     1 <1>   0.0800 
 26 H        4.1780    -3.9320     0.6190 H     1 <1>   0.0800 
 27 H        4.7610    -1.9110    -0.2110 H     1 <1>   0.0800 
 28 H        3.8770    -1.3780     1.2210 H     1 <1>   0.0800 
 29 H        4.1370    -0.2880    -0.0990 H     1 <1>   0.0800 
 30 H       -4.4560    -3.6660    -0.7900 H     1 <1>   0.0800 
 31 H       -4.4270    -3.5680     0.9610 H     1 <1>   0.0800 
 32 H       -3.2760    -5.8500    -0.7070 H     1 <1>   0.0800 
 33 H       -4.7800    -5.9300     0.1820 H     1 <1>   0.0800 
 34 H       -3.2710    -5.7790     1.0470 H     1 <1>   0.0800 
@<TRIPOS>BOND
  1   1   2  1   
  2   2   3  1   
  3   2   4  1   
  4   2   5  1   
  5   5   6  1   
  6   5   7  1   
  7   5   8  1   
  8   6   9  am  
  9   6  23  1   
 10   7  10  1   
 11   7  11  1   
 12   7  12  1   
 13   8  13  2   
 14   8  14  1   
 15   9  15  2   
 16   9  16  1   
 17  13  17  1   
 18  13  18  1   
 19  14  19  2   
 20  14  20  1   
 21  16  21  1   
 22  18  24  1   
 23  18  25  1   
 24  18  26  1   
 25  20  27  1   
 26  20  28  1   
 27  20  29  1   
 28  21  22  1   
 29  21  30  1   
 30  21  31  1   
 31  22  32  1   
 32  22  33  1   
 33  22  34  1   
@<TRIPOS>SUBSTRUCTURE
  1 ****   5 GROUP 4 **** **** 0

# MOE 2024.06 (io_trps.svl 2023.06)
