@<TRIPOS>MOLECULE
NONAME
42 43 1 0 0 
SMALL
USER_CHARGES


@<TRIPOS>ATOM
  1 F        3.6380    -1.3880    -3.6160 F     1 <1>  -0.1900 
  2 C        3.4270    -1.5040    -2.3340 C.ar  1 <1>   0.1900 
  3 C        4.2790    -0.8540    -1.4610 C.ar  1 <1>  -0.1500 
  4 C        2.3650    -2.2710    -1.8980 C.ar  1 <1>  -0.1500 
  5 C        4.0640    -0.9800    -0.0950 C.ar  1 <1>  -0.1440 
  6 C        2.1500    -2.3880    -0.5350 C.ar  1 <1>  -0.1500 
  7 C        2.9940    -1.7450     0.3590 C.ar  1 <1>  -0.1500 
  8 C        4.9900    -0.2960     0.8940 C.3   1 <1>   0.4870 
  9 N        6.3070    -0.9810     0.8720 N.4   1 <1>  -0.9590 
 10 C        6.2550    -2.4540     1.1600 C.3   1 <1>   0.3430 
 11 C        7.3650    -0.3060     1.6940 C.3   1 <1>   0.3430 
 12 C        7.6330    -3.1140     0.9000 C.3   1 <1>   0.1100 
 13 C        8.7220    -1.0400     1.5680 C.3   1 <1>   0.1100 
 14 N        8.6730    -2.1190     0.5470 N.3   1 <1>  -0.8100 
 15 C       10.0110    -2.7500     0.3030 C.3   1 <1>   0.1710 
 16 C       11.0720    -1.8910    -0.4100 C.2   1 <1>   0.6590 
 17 O       11.0000    -0.6910    -0.5110 O.2   1 <1>  -0.5700 
 18 O       12.1000    -2.5710    -0.9020 O.3   1 <1>  -0.4300 
 19 C       13.1560    -1.9280    -1.5790 C.3   1 <1>   0.1200 
 20 C       14.1600    -2.9930    -2.0090 C.3   1 <1>  -0.2400 
 21 H        5.0850    -0.2660    -1.8650 H     1 <1>   0.1500 
 22 H        1.7230    -2.7600    -2.6100 H     1 <1>   0.1500 
 23 H        1.3230    -2.9770    -0.1740 H     1 <1>   0.1500 
 24 H        2.7990    -1.8490     1.4140 H     1 <1>   0.1500 
 25 H        4.5660    -0.3390     1.8830 H     1 <1>   0.0800 
 26 H        5.1070     0.7390     0.6160 H     1 <1>   0.0800 
 27 H        6.6840    -0.9470    -0.0880 H     1 <1>   0.4500 
 28 H        5.5200    -2.9300     0.5310 H     1 <1>   0.0800 
 29 H        5.9670    -2.6200     2.1850 H     1 <1>   0.0800 
 30 H        7.0730    -0.2760     2.7310 H     1 <1>   0.0800 
 31 H        7.4930     0.7100     1.3580 H     1 <1>   0.0800 
 32 H        7.5300    -3.8190     0.0920 H     1 <1>   0.0800 
 33 H        7.9320    -3.6670     1.7750 H     1 <1>   0.0800 
 34 H        8.9940    -1.4540     2.5240 H     1 <1>   0.0800 
 35 H        9.4720    -0.3120     1.3120 H     1 <1>   0.0800 
 36 H        9.8680    -3.6200    -0.3130 H     1 <1>   0.0800 
 37 H       10.4270    -3.0830     1.2370 H     1 <1>   0.0800 
 38 H       13.6100    -1.2170    -0.9090 H     1 <1>   0.0800 
 39 H       12.7510    -1.4110    -2.4330 H     1 <1>   0.0800 
 40 H       14.5510    -3.5060    -1.1490 H     1 <1>   0.0800 
 41 H       14.9780    -2.5290    -2.5300 H     1 <1>   0.0800 
 42 H       13.6920    -3.7000    -2.6700 H     1 <1>   0.0800 
@<TRIPOS>BOND
  1   1   2  1   
  2   2   3  ar  
  3   2   4  ar  
  4   3   5  ar  
  5   3  21  1   
  6   4   6  ar  
  7   4  22  1   
  8   5   7  ar  
  9   5   8  1   
 10   6   7  ar  
 11   6  23  1   
 12   7  24  1   
 13   8   9  1   
 14   8  25  1   
 15   8  26  1   
 16   9  10  1   
 17   9  11  1   
 18   9  27  1   
 19  10  12  1   
 20  10  28  1   
 21  10  29  1   
 22  11  13  1   
 23  11  30  1   
 24  11  31  1   
 25  12  14  1   
 26  12  32  1   
 27  12  33  1   
 28  13  14  1   
 29  13  34  1   
 30  13  35  1   
 31  14  15  1   
 32  15  16  1   
 33  15  36  1   
 34  15  37  1   
 35  16  17  2   
 36  16  18  1   
 37  18  19  1   
 38  19  20  1   
 39  19  38  1   
 40  19  39  1   
 41  20  40  1   
 42  20  41  1   
 43  20  42  1   
@<TRIPOS>SUBSTRUCTURE
  1 ****   9 GROUP 4 **** **** 0

# MOE 2024.06 (io_trps.svl 2023.06)
