@<TRIPOS>MOLECULE
NONAME
31 32 1 0 0 
SMALL
USER_CHARGES


@<TRIPOS>ATOM
  1 O       -8.1880     3.2360    -1.0290 O.3   1 <1>  -0.0190 
  2 N       -6.9670     3.6550    -0.9130 N.2   1 <1>  -0.4100 
  3 C       -8.1190     1.9640    -0.7360 C.2   1 <1>   0.2980 
  4 C       -6.2360     2.6550    -0.5630 C.2   1 <1>   0.4620 
  5 N       -6.9590     1.5350    -0.4470 N.2   1 <1>  -0.5650 
  6 C       -9.4000     1.1380    -0.7940 C.3   1 <1>   0.2900 
  7 C       -4.8020     2.6970    -0.3230 C.ar  1 <1>   0.0540 
  8 N      -10.4710     1.6870     0.0580 N.3   1 <1>  -0.9000 
  9 C       -4.0900     1.5650     0.0810 C.ar  1 <1>  -0.1500 
 10 C       -4.0760     3.8770    -0.4890 C.ar  1 <1>  -0.1500 
 11 C      -11.7310     0.9830    -0.1090 C.3   1 <1>   0.1100 
 12 C       -2.7240     1.6010     0.3090 C.ar  1 <1>  -0.1430 
 13 C       -2.7120     3.9250    -0.2670 C.ar  1 <1>  -0.1500 
 14 C      -12.7600     1.6470     0.7940 C.3   1 <1>  -0.2400 
 15 C       -2.0350     2.7880     0.1310 C.ar  1 <1>  -0.1500 
 16 C       -1.9800     0.3510     0.7460 C.3   1 <1>  -0.0970 
 17 H       -9.1770     0.1330    -0.4780 H     1 <1>   0.0800 
 18 H       -9.7330     1.1060    -1.8170 H     1 <1>   0.0800 
 19 H      -10.6060     2.6780    -0.1800 H     1 <1>   0.3600 
 20 H       -4.6220     0.6400     0.2190 H     1 <1>   0.1500 
 21 H       -4.5870     4.7720    -0.7990 H     1 <1>   0.1500 
 22 H      -11.6110    -0.0510     0.1740 H     1 <1>   0.0800 
 23 H      -12.0560     1.0330    -1.1350 H     1 <1>   0.0800 
 24 H       -2.1760     4.8490    -0.4040 H     1 <1>   0.1500 
 25 H      -12.4360     1.6010     1.8190 H     1 <1>   0.0800 
 26 H      -13.7010     1.1330     0.7110 H     1 <1>   0.0800 
 27 H      -12.9050     2.6730     0.5110 H     1 <1>   0.0800 
 28 H       -0.9740     2.8300     0.3020 H     1 <1>   0.1500 
 29 H       -2.6610    -0.3750     1.1520 H     1 <1>   0.0800 
 30 H       -1.2550     0.5960     1.5010 H     1 <1>   0.0800 
 31 H       -1.4730    -0.0830    -0.0960 H     1 <1>   0.0800 
@<TRIPOS>BOND
  1   1   2  1   
  2   1   3  1   
  3   2   4  2   
  4   3   5  2   
  5   3   6  1   
  6   4   5  1   
  7   4   7  1   
  8   6   8  1   
  9   6  17  1   
 10   6  18  1   
 11   7   9  ar  
 12   7  10  ar  
 13   8  11  1   
 14   8  19  1   
 15   9  12  ar  
 16   9  20  1   
 17  10  13  ar  
 18  10  21  1   
 19  11  14  1   
 20  11  22  1   
 21  11  23  1   
 22  12  15  ar  
 23  12  16  1   
 24  13  15  ar  
 25  13  24  1   
 26  14  25  1   
 27  14  26  1   
 28  14  27  1   
 29  15  28  1   
 30  16  29  1   
 31  16  30  1   
 32  16  31  1   
@<TRIPOS>SUBSTRUCTURE
  1 ****   4 GROUP 4 **** **** 0

# MOE 2024.06 (io_trps.svl 2023.06)
