@<TRIPOS>MOLECULE
NONAME
49 51 1 0 0 
SMALL
USER_CHARGES


@<TRIPOS>ATOM
  1 F       -0.4440    -0.4930     0.7650 F     1 <1>  -0.3400 
  2 C       -0.4340    -1.8010     0.5330 C.3   1 <1>   1.1640 
  3 F       -1.4960    -2.0510    -0.2240 F     1 <1>  -0.3400 
  4 F       -0.6600    -2.3880     1.7010 F     1 <1>  -0.3400 
  5 C        0.8810    -2.2790    -0.1030 C.ar  1 <1>  -0.1440 
  6 C        2.0700    -1.5920     0.1160 C.ar  1 <1>  -0.1500 
  7 C        0.9080    -3.4160    -0.9050 C.ar  1 <1>  -0.1500 
  8 C        3.2650    -2.0160    -0.4530 C.ar  1 <1>   0.1000 
  9 C        2.0930    -3.8480    -1.4750 C.ar  1 <1>  -0.1500 
 10 N        4.4530    -1.3290    -0.2380 N.pl3 1 <1>  -0.8380 
 11 C        3.2630    -3.1500    -1.2500 C.ar  1 <1>  -0.1500 
 12 C        5.0860    -1.4880     1.1020 C.3   1 <1>   0.2090 
 13 C        4.5630     0.0350    -0.8310 C.3   1 <1>   0.2090 
 14 C        6.5490    -0.9950     1.0780 C.3   1 <1>   0.3430 
 15 C        6.0310     0.5110    -0.8350 C.3   1 <1>   0.3430 
 16 N        6.6830     0.4080     0.5300 N.4   1 <1>  -0.9590 
 17 C        8.0960     0.8840     0.5680 C.3   1 <1>   0.4230 
 18 C        8.0900     2.4180     0.5360 C.3   1 <1>  -0.1600 
 19 C        8.9500     0.2300    -0.5360 C.3   1 <1>  -0.1600 
 20 C        9.4780     3.0660     0.6610 C.3   1 <1>  -0.1600 
 21 C       10.4500     0.3280    -0.2210 C.3   1 <1>  -0.1600 
 22 C       10.3170     2.9170    -0.6150 C.3   1 <1>  -0.1600 
 23 C       11.1300     1.6160    -0.7110 C.3   1 <1>  -0.1600 
 24 H        2.0810    -0.7150     0.7370 H     1 <1>   0.1500 
 25 H        0.0060    -3.9760    -1.0920 H     1 <1>   0.1500 
 26 H        2.1030    -4.7290    -2.0950 H     1 <1>   0.1500 
 27 H        4.1850    -3.4810    -1.6920 H     1 <1>   0.1500 
 28 H        5.0650    -2.5280     1.3820 H     1 <1>   0.0800 
 29 H        4.5240    -0.9380     1.8370 H     1 <1>   0.0800 
 30 H        3.9550     0.7250    -0.2720 H     1 <1>   0.0800 
 31 H        4.1930     0.0110    -1.8420 H     1 <1>   0.0800 
 32 H        7.1150    -1.6780     0.4670 H     1 <1>   0.0800 
 33 H        6.9490    -1.0390     2.0770 H     1 <1>   0.0800 
 34 H        6.0670     1.5280    -1.1870 H     1 <1>   0.0800 
 35 H        6.5720    -0.1000    -1.5390 H     1 <1>   0.0800 
 36 H        6.1500     1.0200     1.1580 H     1 <1>   0.4500 
 37 H        8.5180     0.5910     1.5160 H     1 <1>   0.0800 
 38 H        7.5000     2.7700     1.3640 H     1 <1>   0.0800 
 39 H        7.6300     2.7730    -0.3700 H     1 <1>   0.0800 
 40 H        8.7510     0.6680    -1.4980 H     1 <1>   0.0800 
 41 H        8.7150    -0.8170    -0.5940 H     1 <1>   0.0800 
 42 H       10.0140     2.6840     1.5140 H     1 <1>   0.0800 
 43 H        9.3310     4.1200     0.8310 H     1 <1>   0.0800 
 44 H       10.9580    -0.5010    -0.6860 H     1 <1>   0.0800 
 45 H       10.6080     0.2260     0.8400 H     1 <1>   0.0800 
 46 H       11.0160     3.7360    -0.6600 H     1 <1>   0.0800 
 47 H        9.6850     3.0130    -1.4810 H     1 <1>   0.0800 
 48 H       11.4170     1.4850    -1.7410 H     1 <1>   0.0800 
 49 H       12.0440     1.7390    -0.1540 H     1 <1>   0.0800 
@<TRIPOS>BOND
  1   1   2  1   
  2   2   3  1   
  3   2   4  1   
  4   2   5  1   
  5   5   6  ar  
  6   5   7  ar  
  7   6   8  ar  
  8   6  24  1   
  9   7   9  ar  
 10   7  25  1   
 11   8  10  1   
 12   8  11  ar  
 13   9  11  ar  
 14   9  26  1   
 15  10  12  1   
 16  10  13  1   
 17  11  27  1   
 18  12  14  1   
 19  12  28  1   
 20  12  29  1   
 21  13  15  1   
 22  13  30  1   
 23  13  31  1   
 24  14  16  1   
 25  14  32  1   
 26  14  33  1   
 27  15  16  1   
 28  15  34  1   
 29  15  35  1   
 30  16  17  1   
 31  16  36  1   
 32  17  18  1   
 33  17  19  1   
 34  17  37  1   
 35  18  20  1   
 36  18  38  1   
 37  18  39  1   
 38  19  21  1   
 39  19  40  1   
 40  19  41  1   
 41  20  22  1   
 42  20  42  1   
 43  20  43  1   
 44  21  23  1   
 45  21  44  1   
 46  21  45  1   
 47  22  23  1   
 48  22  46  1   
 49  22  47  1   
 50  23  48  1   
 51  23  49  1   
@<TRIPOS>SUBSTRUCTURE
  1 ****  10 GROUP 4 **** **** 0

# MOE 2024.06 (io_trps.svl 2023.06)
