@<TRIPOS>MOLECULE
NONAME
51 52 1 0 0 
SMALL
USER_CHARGES


@<TRIPOS>ATOM
  1 S        1.3510    -1.2740     0.6580 S.o2  1 <1>   1.4470 
  2 O        2.5580    -2.0710     0.5600 O.2   1 <1>  -0.6500 
  3 O        1.0430    -0.6990     1.9490 O.2   1 <1>  -0.6500 
  4 N        1.5810     0.0070    -0.4290 N.am  1 <1>  -0.8490 
  5 C       -0.0620    -2.2110     0.0250 C.ar  1 <1>  -0.0090 
  6 C        2.3810     1.1340     0.1330 C.3   1 <1>   0.2570 
  7 C        1.9940    -0.4190    -1.7700 C.3   1 <1>   0.1960 
  8 C       -1.3080    -1.6150    -0.1330 C.ar  1 <1>   0.0820 
  9 C        0.0620    -3.5550    -0.3120 C.ar  1 <1>  -0.1500 
 10 C        3.9150     1.0440     0.0470 C.2   1 <1>   0.5690 
 11 C        1.7830     0.7050    -2.7810 C.3   1 <1>  -0.2400 
 12 O       -1.4810    -0.3140     0.1720 O.3   1 <1>  -0.3630 
 13 C       -2.3880    -2.3330    -0.6250 C.ar  1 <1>  -0.1500 
 14 C       -1.0110    -4.2850    -0.7970 C.ar  1 <1>  -0.1440 
 15 O        4.5030     2.0070    -0.3830 O.2   1 <1>  -0.5700 
 16 N        4.5510    -0.1060     0.4380 N.am  1 <1>  -0.5470 
 17 C       -2.1760    -0.0290     1.3650 C.3   1 <1>   0.0400 
 18 C       -2.2390    -3.6660    -0.9550 C.ar  1 <1>  -0.1500 
 19 C       -0.8450    -5.7510    -1.1570 C.3   1 <1>  -0.0970 
 20 C        5.9050    -0.4690     0.4750 C.ar  1 <1>   0.1170 
 21 C        6.9540     0.4420     0.4100 C.ar  1 <1>  -0.1500 
 22 C        6.2110    -1.8200     0.5940 C.ar  1 <1>  -0.1500 
 23 C        8.2720     0.0220     0.4570 C.ar  1 <1>   0.0820 
 24 C        7.5240    -2.2520     0.6420 C.ar  1 <1>  -0.1500 
 25 O        9.2260     0.9860     0.3850 O.3   1 <1>  -0.3620 
 26 C        8.5580    -1.3360     0.5730 C.ar  1 <1>  -0.1500 
 27 C       10.5980     0.6630     0.4000 C.3   1 <1>   0.0400 
 28 H        2.1160     1.2990     1.1620 H     1 <1>   0.0800 
 29 H        2.0920     2.0300    -0.3860 H     1 <1>   0.0800 
 30 H        1.3890    -1.2570    -2.0760 H     1 <1>   0.0800 
 31 H        3.0230    -0.7400    -1.7730 H     1 <1>   0.0800 
 32 H        1.0170    -4.0380    -0.1930 H     1 <1>   0.1500 
 33 H        0.7730     1.0710    -2.7240 H     1 <1>   0.0800 
 34 H        1.9540     0.3290    -3.7730 H     1 <1>   0.0800 
 35 H        2.4730     1.5130    -2.6140 H     1 <1>   0.0800 
 36 H       -3.3370    -1.8450    -0.7540 H     1 <1>   0.1500 
 37 H        3.9190    -0.8850     0.6600 H     1 <1>   0.3700 
 38 H       -2.1970     1.0380     1.4940 H     1 <1>   0.0800 
 39 H       -1.6560    -0.4870     2.1880 H     1 <1>   0.0800 
 40 H       -3.1780    -0.4130     1.2910 H     1 <1>   0.0800 
 41 H       -3.0810    -4.2190    -1.3360 H     1 <1>   0.1500 
 42 H       -0.0430    -6.1930    -0.5940 H     1 <1>   0.0800 
 43 H       -0.6270    -5.8470    -2.2050 H     1 <1>   0.0800 
 44 H       -1.7480    -6.2940    -0.9400 H     1 <1>   0.0800 
 45 H        6.7590     1.4940     0.3260 H     1 <1>   0.1500 
 46 H        5.4130    -2.5390     0.6500 H     1 <1>   0.1500 
 47 H        7.7400    -3.3020     0.7340 H     1 <1>   0.1500 
 48 H        9.5680    -1.6940     0.6110 H     1 <1>   0.1500 
 49 H       11.1560     1.5790     0.3230 H     1 <1>   0.0800 
 50 H       10.8160     0.0310    -0.4420 H     1 <1>   0.0800 
 51 H       10.8300     0.1690     1.3260 H     1 <1>   0.0800 
@<TRIPOS>BOND
  1   1   2  2   
  2   1   3  2   
  3   1   4  am  
  4   1   5  1   
  5   4   6  1   
  6   4   7  1   
  7   5   8  ar  
  8   5   9  ar  
  9   6  10  1   
 10   6  28  1   
 11   6  29  1   
 12   7  11  1   
 13   7  30  1   
 14   7  31  1   
 15   8  12  1   
 16   8  13  ar  
 17   9  14  ar  
 18   9  32  1   
 19  10  15  2   
 20  10  16  am  
 21  11  33  1   
 22  11  34  1   
 23  11  35  1   
 24  12  17  1   
 25  13  18  ar  
 26  13  36  1   
 27  14  18  ar  
 28  14  19  1   
 29  16  20  1   
 30  16  37  1   
 31  17  38  1   
 32  17  39  1   
 33  17  40  1   
 34  18  41  1   
 35  19  42  1   
 36  19  43  1   
 37  19  44  1   
 38  20  21  ar  
 39  20  22  ar  
 40  21  23  ar  
 41  21  45  1   
 42  22  24  ar  
 43  22  46  1   
 44  23  25  1   
 45  23  26  ar  
 46  24  26  ar  
 47  24  47  1   
 48  25  27  1   
 49  26  48  1   
 50  27  49  1   
 51  27  50  1   
 52  27  51  1   
@<TRIPOS>SUBSTRUCTURE
  1 ****   2 GROUP 4 **** **** 0

# MOE 2024.06 (io_trps.svl 2023.06)
