@<TRIPOS>MOLECULE
NONAME
36 37 1 0 0 
SMALL
USER_CHARGES


@<TRIPOS>ATOM
  1 O        0.0090     0.3080    -0.6680 O.2   1 <1>  -0.5700 
  2 C        0.0360     1.3410    -0.0430 C.2   1 <1>   0.5690 
  3 N       -1.0960     1.8970     0.4550 N.am  1 <1>  -0.7300 
  4 C        1.3830     2.0270     0.1940 C.3   1 <1>  -0.0190 
  5 C       -2.4700     1.4140     0.2430 C.3   1 <1>   0.2200 
  6 C        1.3360     3.4240     0.8240 C.3   1 <1>  -0.1600 
  7 C        2.1860     2.2570    -1.0900 C.3   1 <1>  -0.1600 
  8 C       -3.2880     2.5550    -0.4110 C.3   1 <1>   0.2000 
  9 C       -2.9940     0.9550     1.6070 C.3   1 <1>  -0.2400 
 10 C        2.7140     4.0190     0.5390 C.3   1 <1>  -0.1600 
 11 C        3.1950     3.3630    -0.7600 C.3   1 <1>  -0.1600 
 12 O       -3.2620     3.7100     0.3780 O.3   1 <1>  -0.5600 
 13 C       -4.7670     2.2900    -0.6600 C.3   1 <1>  -0.1600 
 14 C       -4.3710     4.5170     0.1220 C.3   1 <1>   0.1200 
 15 C       -5.3290     3.6960    -0.7390 C.3   1 <1>  -0.1600 
 16 H       -1.0660     2.8130     0.9080 H     1 <1>   0.3700 
 17 H        1.9600     1.3870     0.8380 H     1 <1>   0.0800 
 18 H       -2.4530     0.5710    -0.4270 H     1 <1>   0.0800 
 19 H        1.1230     3.3860     1.8780 H     1 <1>   0.0800 
 20 H        0.5920     4.0250     0.3280 H     1 <1>   0.0800 
 21 H        1.5230     2.5990    -1.8670 H     1 <1>   0.0800 
 22 H        2.6680     1.3530    -1.4200 H     1 <1>   0.0800 
 23 H       -2.8240     2.8090    -1.3490 H     1 <1>   0.0800 
 24 H       -3.0970     1.7940     2.2730 H     1 <1>   0.0800 
 25 H       -2.3150     0.2410     2.0360 H     1 <1>   0.0800 
 26 H       -3.9500     0.4780     1.5030 H     1 <1>   0.0800 
 27 H        3.3880     3.7600     1.3390 H     1 <1>   0.0800 
 28 H        2.6710     5.0910     0.4530 H     1 <1>   0.0800 
 29 H        3.2360     4.0800    -1.5620 H     1 <1>   0.0800 
 30 H        4.1770     2.9440    -0.6180 H     1 <1>   0.0800 
 31 H       -5.2100     1.7710     0.1700 H     1 <1>   0.0800 
 32 H       -4.9290     1.7260    -1.5610 H     1 <1>   0.0800 
 33 H       -4.0420     5.4080    -0.3840 H     1 <1>   0.0800 
 34 H       -4.8150     4.7740     1.0690 H     1 <1>   0.0800 
 35 H       -6.3410     3.7560    -0.3800 H     1 <1>   0.0800 
 36 H       -5.2930     4.0590    -1.7520 H     1 <1>   0.0800 
@<TRIPOS>BOND
  1   1   2  2   
  2   2   3  am  
  3   2   4  1   
  4   3   5  1   
  5   3  16  1   
  6   4   6  1   
  7   4   7  1   
  8   4  17  1   
  9   5   8  1   
 10   5   9  1   
 11   5  18  1   
 12   6  10  1   
 13   6  19  1   
 14   6  20  1   
 15   7  11  1   
 16   7  21  1   
 17   7  22  1   
 18   8  12  1   
 19   8  13  1   
 20   8  23  1   
 21   9  24  1   
 22   9  25  1   
 23   9  26  1   
 24  10  11  1   
 25  10  27  1   
 26  10  28  1   
 27  11  29  1   
 28  11  30  1   
 29  12  14  1   
 30  13  15  1   
 31  13  31  1   
 32  13  32  1   
 33  14  15  1   
 34  14  33  1   
 35  14  34  1   
 36  15  35  1   
 37  15  36  1   
@<TRIPOS>SUBSTRUCTURE
  1 ****   3 GROUP 4 **** **** 0

# MOE 2024.06 (io_trps.svl 2023.06)
