@<TRIPOS>MOLECULE
NONAME
26 27 1 0 0 
SMALL
USER_CHARGES


@<TRIPOS>ATOM
  1 O       -0.9490     0.2420    -1.6860 O.3   1 <1>  -0.8500 
  2 C       -1.7990     0.9290    -1.1200 C.2   1 <1>  -0.0730 
  3 O       -2.9990     0.3620    -0.9180 O.3   1 <1>  -0.1530 
  4 C       -1.5900     2.2270    -0.6870 C.2   1 <1>  -0.1360 
  5 C       -3.9930     1.0170    -0.3280 C.2   1 <1>  -0.0620 
  6 C       -2.5860     2.9510    -0.0520 C.2   1 <1>   0.5410 
  7 C       -3.8630     2.2990     0.1320 C.2   1 <1>   0.0290 
  8 C       -5.2610     0.1870    -0.2160 C.3   1 <1>  -0.0220 
  9 O       -2.3570     4.1060     0.3490 O.2   1 <1>  -0.5700 
 10 C       -4.9680     2.9520     0.7840 C.2   1 <1>   0.4950 
 11 C       -6.5070     1.0520     0.0630 C.3   1 <1>   0.0000 
 12 O       -5.0560     4.1180     1.0750 O.2   1 <1>  -0.5700 
 13 C       -6.1700     2.0920     1.1490 C.3   1 <1>  -0.0990 
 14 C       -6.9540     1.7640    -1.2290 C.3   1 <1>  -0.2400 
 15 C       -7.6610     0.1590     0.5450 C.3   1 <1>  -0.2400 
 16 H       -0.6310     2.6720    -0.8480 H     1 <1>   0.1500 
 17 H       -5.1140    -0.5250     0.5770 H     1 <1>   0.0800 
 18 H       -5.4000    -0.3700    -1.1260 H     1 <1>   0.0800 
 19 H       -7.0190     2.7310     1.3160 H     1 <1>   0.0800 
 20 H       -5.9480     1.5960     2.0760 H     1 <1>   0.0800 
 21 H       -6.1650     2.3730    -1.6350 H     1 <1>   0.0800 
 22 H       -7.8030     2.3970    -1.0390 H     1 <1>   0.0800 
 23 H       -7.2310     1.0440    -1.9790 H     1 <1>   0.0800 
 24 H       -7.3950    -0.3490     1.4550 H     1 <1>   0.0800 
 25 H       -7.8990    -0.5820    -0.1980 H     1 <1>   0.0800 
 26 H       -8.5420     0.7480     0.7310 H     1 <1>   0.0800 
@<TRIPOS>BOND
  1   1   2  1   
  2   2   3  1   
  3   2   4  2   
  4   3   5  1   
  5   4   6  1   
  6   4  16  1   
  7   5   7  2   
  8   5   8  1   
  9   6   7  1   
 10   6   9  2   
 11   7  10  1   
 12   8  11  1   
 13   8  17  1   
 14   8  18  1   
 15  10  12  2   
 16  10  13  1   
 17  11  13  1   
 18  11  14  1   
 19  11  15  1   
 20  13  19  1   
 21  13  20  1   
 22  14  21  1   
 23  14  22  1   
 24  14  23  1   
 25  15  24  1   
 26  15  25  1   
 27  15  26  1   
@<TRIPOS>SUBSTRUCTURE
  1 ****   7 GROUP 4 **** **** 0

# MOE 2024.06 (io_trps.svl 2023.06)
