@<TRIPOS>MOLECULE
NONAME
37 37 1 0 0 
SMALL
USER_CHARGES


@<TRIPOS>ATOM
  1 S        0.2150    -0.2290     1.4080 S.o2  1 <1>   1.4470 
  2 O        0.3240    -0.4960     2.8260 O.2   1 <1>  -0.6500 
  3 O        0.4290     1.1170     0.9240 O.2   1 <1>  -0.6500 
  4 N        1.3870    -1.1950     0.6540 N.am  1 <1>  -0.8490 
  5 C       -1.3590    -0.8510     0.7570 C.ar  1 <1>  -0.0090 
  6 C        2.7420    -0.6580     0.9560 C.3   1 <1>   0.2570 
  7 C        1.3000    -2.6140     1.0260 C.3   1 <1>   0.1960 
  8 C       -2.1940    -1.6540     1.5270 C.ar  1 <1>  -0.1500 
  9 C       -1.7570    -0.5610    -0.5430 C.ar  1 <1>  -0.1500 
 10 C        3.8670    -1.2570     0.1040 C.2   1 <1>   0.5690 
 11 C        0.7740    -3.4050    -0.1670 C.3   1 <1>  -0.2400 
 12 C       -3.3790    -2.1520     1.0150 C.ar  1 <1>  -0.1500 
 13 C       -2.9410    -1.0540    -1.0650 C.ar  1 <1>  -0.1500 
 14 O        4.9170    -1.5410     0.6300 O.2   1 <1>  -0.5700 
 15 N        3.6440    -1.4610    -1.2240 N.am  1 <1>  -0.7300 
 16 C       -3.7620    -1.8590    -0.2820 C.ar  1 <1>   0.0820 
 17 C        4.6150    -2.0210    -2.1950 C.3   1 <1>   0.0600 
 18 O       -4.9340    -2.3860    -0.7090 O.3   1 <1>  -0.3620 
 19 C       -5.4300    -2.1260    -2.0030 C.3   1 <1>   0.0400 
 20 H        2.9720    -0.8150     1.9960 H     1 <1>   0.0800 
 21 H        2.7610     0.4020     0.7790 H     1 <1>   0.0800 
 22 H        0.6520    -2.7600     1.8750 H     1 <1>   0.0800 
 23 H        2.2680    -3.0060     1.2940 H     1 <1>   0.0800 
 24 H       -1.9160    -1.8930     2.5410 H     1 <1>   0.1500 
 25 H       -1.1260     0.0620    -1.1560 H     1 <1>   0.1500 
 26 H        1.4360    -3.3000    -1.0060 H     1 <1>   0.0800 
 27 H       -0.2110    -3.0770    -0.4450 H     1 <1>   0.0800 
 28 H        0.7200    -4.4470     0.0910 H     1 <1>   0.0800 
 29 H       -4.0180    -2.7720     1.6200 H     1 <1>   0.1500 
 30 H       -3.2060    -0.8020    -2.0740 H     1 <1>   0.1500 
 31 H        2.7010    -1.2620    -1.5700 H     1 <1>   0.3700 
 32 H        4.2420    -2.9500    -2.5880 H     1 <1>   0.0800 
 33 H        5.5620    -2.2020    -1.7140 H     1 <1>   0.0800 
 34 H        4.7640    -1.3260    -3.0030 H     1 <1>   0.0800 
 35 H       -6.3680    -2.6400    -2.1100 H     1 <1>   0.0800 
 36 H       -4.7270    -2.4970    -2.7280 H     1 <1>   0.0800 
 37 H       -5.5780    -1.0670    -2.1140 H     1 <1>   0.0800 
@<TRIPOS>BOND
  1   1   2  2   
  2   1   3  2   
  3   1   4  am  
  4   1   5  1   
  5   4   6  1   
  6   4   7  1   
  7   5   8  ar  
  8   5   9  ar  
  9   6  10  1   
 10   6  20  1   
 11   6  21  1   
 12   7  11  1   
 13   7  22  1   
 14   7  23  1   
 15   8  12  ar  
 16   8  24  1   
 17   9  13  ar  
 18   9  25  1   
 19  10  14  2   
 20  10  15  am  
 21  11  26  1   
 22  11  27  1   
 23  11  28  1   
 24  12  16  ar  
 25  12  29  1   
 26  13  16  ar  
 27  13  30  1   
 28  15  17  1   
 29  15  31  1   
 30  16  18  1   
 31  17  32  1   
 32  17  33  1   
 33  17  34  1   
 34  18  19  1   
 35  19  35  1   
 36  19  36  1   
 37  19  37  1   
@<TRIPOS>SUBSTRUCTURE
  1 ****   5 GROUP 4 **** **** 0

# MOE 2024.06 (io_trps.svl 2023.06)
