@<TRIPOS>MOLECULE
NONAME
51 53 1 0 0 
SMALL
USER_CHARGES


@<TRIPOS>ATOM
  1 S       -1.6560    -0.7030    -1.5710 S.o2  1 <1>   1.3330 
  2 O       -0.8390    -0.1520    -0.5150 O.2   1 <1>  -0.6500 
  3 O       -1.2500    -1.9130    -2.2470 O.2   1 <1>  -0.6500 
  4 N       -3.2150    -0.9390    -0.9530 N.am  1 <1>  -0.8490 
  5 C       -1.9210     0.5450    -2.8110 C.3   1 <1>  -0.1350 
  6 C       -3.4020    -2.3150    -0.4590 C.3   1 <1>   0.1960 
  7 C       -3.5500     0.0200     0.1150 C.3   1 <1>   0.1960 
  8 C       -4.8410    -2.5630     0.0230 C.3   1 <1>   0.1400 
  9 C       -4.9960    -0.1470     0.6120 C.3   1 <1>   0.1400 
 10 N       -5.2640    -1.5540     1.0440 N.am  1 <1>  -0.6600 
 11 C       -5.9300    -1.9380     2.1900 C.2   1 <1>   0.5690 
 12 O       -6.1110    -3.1110     2.4290 O.2   1 <1>  -0.5700 
 13 C       -6.4830    -0.9470     3.2380 C.3   1 <1>   0.2610 
 14 O       -7.1520     0.1670     2.6620 O.3   1 <1>  -0.3630 
 15 C       -5.3930    -0.4000     4.1680 C.3   1 <1>  -0.2400 
 16 C       -8.2620     0.0350     1.8960 C.ar  1 <1>   0.0820 
 17 C       -8.9480    -1.1620     1.7090 C.ar  1 <1>  -0.1500 
 18 C       -8.7200     1.1800     1.2640 C.ar  1 <1>  -0.1500 
 19 C      -10.0640    -1.1990     0.8940 C.ar  1 <1>  -0.1500 
 20 C       -9.8360     1.1340     0.4510 C.ar  1 <1>  -0.1500 
 21 C      -10.5290    -0.0560     0.2490 C.ar  1 <1>   0.0000 
 22 C      -11.6960    -0.1040    -0.6010 C.ar  1 <1>   0.0000 
 23 C      -11.7500    -0.9580    -1.6990 C.ar  1 <1>  -0.1500 
 24 C      -12.8010     0.7040    -0.3470 C.ar  1 <1>  -0.1500 
 25 C      -12.8660    -1.0060    -2.5150 C.ar  1 <1>  -0.1500 
 26 C      -13.9200     0.6620    -1.1600 C.ar  1 <1>  -0.1500 
 27 C      -13.9540    -0.1950    -2.2460 C.ar  1 <1>  -0.1500 
 28 H       -2.3030     1.4410    -2.3650 H     1 <1>   0.0800 
 29 H       -2.6210     0.1920    -3.5420 H     1 <1>   0.0800 
 30 H       -0.9950     0.7730    -3.3030 H     1 <1>   0.0800 
 31 H       -2.7150    -2.5130     0.3480 H     1 <1>   0.0800 
 32 H       -3.1910    -3.0170    -1.2490 H     1 <1>   0.0800 
 33 H       -3.4240     1.0250    -0.2490 H     1 <1>   0.0800 
 34 H       -2.8820    -0.1130     0.9510 H     1 <1>   0.0800 
 35 H       -4.9030    -3.5600     0.4250 H     1 <1>   0.0800 
 36 H       -5.5070    -2.5080    -0.8190 H     1 <1>   0.0800 
 37 H       -5.6770     0.1120    -0.1800 H     1 <1>   0.0800 
 38 H       -5.1510     0.5430     1.4190 H     1 <1>   0.0800 
 39 H       -7.2060    -1.4650     3.8420 H     1 <1>   0.0800 
 40 H       -4.6470     0.1350     3.6110 H     1 <1>   0.0800 
 41 H       -4.9140    -1.2180     4.6760 H     1 <1>   0.0800 
 42 H       -5.8300     0.2500     4.9040 H     1 <1>   0.0800 
 43 H       -8.6350    -2.0720     2.1860 H     1 <1>   0.1500 
 44 H       -8.1960     2.1060     1.4130 H     1 <1>   0.1500 
 45 H      -10.5900    -2.1270     0.7550 H     1 <1>   0.1500 
 46 H      -10.1790     2.0290    -0.0390 H     1 <1>   0.1500 
 47 H      -10.9050    -1.5880    -1.9140 H     1 <1>   0.1500 
 48 H      -12.7810     1.3670     0.4990 H     1 <1>   0.1500 
 49 H      -12.8880    -1.6730    -3.3590 H     1 <1>   0.1500 
 50 H      -14.7640     1.2930    -0.9460 H     1 <1>   0.1500 
 51 H      -14.8240    -0.2290    -2.8790 H     1 <1>   0.1500 
@<TRIPOS>BOND
  1   1   2  2   
  2   1   3  2   
  3   1   4  am  
  4   1   5  1   
  5   4   6  1   
  6   4   7  1   
  7   5  28  1   
  8   5  29  1   
  9   5  30  1   
 10   6   8  1   
 11   6  31  1   
 12   6  32  1   
 13   7   9  1   
 14   7  33  1   
 15   7  34  1   
 16   8  10  1   
 17   8  35  1   
 18   8  36  1   
 19   9  10  1   
 20   9  37  1   
 21   9  38  1   
 22  10  11  am  
 23  11  12  2   
 24  11  13  1   
 25  13  14  1   
 26  13  15  1   
 27  13  39  1   
 28  14  16  1   
 29  15  40  1   
 30  15  41  1   
 31  15  42  1   
 32  16  17  ar  
 33  16  18  ar  
 34  17  19  ar  
 35  17  43  1   
 36  18  20  ar  
 37  18  44  1   
 38  19  21  ar  
 39  19  45  1   
 40  20  21  ar  
 41  20  46  1   
 42  21  22  1   
 43  22  23  ar  
 44  22  24  ar  
 45  23  25  ar  
 46  23  47  1   
 47  24  26  ar  
 48  24  48  1   
 49  25  27  ar  
 50  25  49  1   
 51  26  27  ar  
 52  26  50  1   
 53  27  51  1   
@<TRIPOS>SUBSTRUCTURE
  1 ****  16 GROUP 4 **** **** 0

# MOE 2024.06 (io_trps.svl 2023.06)
