@<TRIPOS>MOLECULE
NONAME
53 55 1 0 0 
SMALL
USER_CHARGES


@<TRIPOS>ATOM
  1 CL      -1.0500    -1.3340     1.4020 Cl    1 <1>  -0.1770 
  2 C        0.3570    -2.3630     1.4690 C.ar  1 <1>   0.1770 
  3 C        0.6400    -3.2730     0.4600 C.ar  1 <1>  -0.0090 
  4 C        1.1720    -2.2360     2.5790 C.ar  1 <1>  -0.1500 
  5 S       -0.4300    -3.4530    -0.9850 S.o2  1 <1>   1.4470 
  6 C        1.7740    -4.0630     0.6110 C.ar  1 <1>  -0.1500 
  7 C        2.2940    -3.0330     2.7010 C.ar  1 <1>  -0.1500 
  8 O       -0.7220    -2.1590    -1.5610 O.2   1 <1>  -0.6500 
  9 O        0.1050    -4.4820    -1.8500 O.2   1 <1>  -0.6500 
 10 N       -1.8670    -4.0650    -0.3310 N.am  1 <1>  -0.8490 
 11 C        2.6180    -3.9640     1.7170 C.ar  1 <1>   0.0860 
 12 C       -3.0030    -3.9250    -1.2230 C.3   1 <1>   0.1960 
 13 C       -1.8310    -5.4690     0.0420 C.3   1 <1>   0.1960 
 14 C        3.7800    -4.8210     1.8370 C.2   1 <1>   0.5440 
 15 C       -4.0660    -4.8500    -0.6400 C.3   1 <1>  -0.1600 
 16 C       -3.2960    -5.8350     0.2410 C.3   1 <1>  -0.1600 
 17 O        3.6080    -6.0220     1.9070 O.2   1 <1>  -0.5700 
 18 N        5.0650    -4.3150     1.8650 N.am  1 <1>  -0.6600 
 19 C        6.2440    -5.1990     2.0830 C.3   1 <1>   0.1400 
 20 C        5.4130    -2.9150     1.5000 C.3   1 <1>   0.1400 
 21 C        7.0970    -5.2310     0.8120 C.3   1 <1>  -0.1600 
 22 C        6.2620    -2.9190     0.2270 C.3   1 <1>  -0.1600 
 23 C        7.5120    -3.8140     0.3700 C.3   1 <1>  -0.0190 
 24 C        8.3550    -3.8620    -0.9040 C.2   1 <1>   0.6590 
 25 O        7.9450    -3.4760    -1.9700 O.2   1 <1>  -0.5700 
 26 O        9.5780    -4.3560    -0.7600 O.3   1 <1>  -0.4300 
 27 C       10.4600    -4.4640    -1.8520 C.3   1 <1>   0.1200 
 28 C       11.7640    -5.0740    -1.3490 C.3   1 <1>  -0.2400 
 29 H        0.9200    -1.5200     3.3420 H     1 <1>   0.1500 
 30 H        2.0200    -4.7900    -0.1470 H     1 <1>   0.1500 
 31 H        2.9280    -2.9470     3.5680 H     1 <1>   0.1500 
 32 H       -2.7320    -4.2530    -2.2140 H     1 <1>   0.0800 
 33 H       -3.3350    -2.9000    -1.2620 H     1 <1>   0.0800 
 34 H       -1.2520    -5.6210     0.9380 H     1 <1>   0.0800 
 35 H       -1.4200    -6.0620    -0.7590 H     1 <1>   0.0800 
 36 H       -4.6040    -5.3470    -1.4270 H     1 <1>   0.0800 
 37 H       -4.7580    -4.2790    -0.0460 H     1 <1>   0.0800 
 38 H       -3.5620    -5.6960     1.2740 H     1 <1>   0.0800 
 39 H       -3.4780    -6.8590    -0.0360 H     1 <1>   0.0800 
 40 H        5.9340    -6.1990     2.3350 H     1 <1>   0.0800 
 41 H        6.8220    -4.8170     2.9070 H     1 <1>   0.0800 
 42 H        5.9650    -2.4680     2.3100 H     1 <1>   0.0800 
 43 H        4.5300    -2.3240     1.3320 H     1 <1>   0.0800 
 44 H        6.5320    -5.7080     0.0300 H     1 <1>   0.0800 
 45 H        7.9730    -5.8280     0.9940 H     1 <1>   0.0800 
 46 H        6.5640    -1.9130    -0.0030 H     1 <1>   0.0800 
 47 H        5.6550    -3.2700    -0.5910 H     1 <1>   0.0800 
 48 H        8.1350    -3.3920     1.1380 H     1 <1>   0.0800 
 49 H       10.6230    -3.4800    -2.2580 H     1 <1>   0.0800 
 50 H       10.0020    -5.0910    -2.5990 H     1 <1>   0.0800 
 51 H       12.2040    -4.4420    -0.5990 H     1 <1>   0.0800 
 52 H       12.4570    -5.1700    -2.1650 H     1 <1>   0.0800 
 53 H       11.5820    -6.0510    -0.9380 H     1 <1>   0.0800 
@<TRIPOS>BOND
  1   1   2  1   
  2   2   3  ar  
  3   2   4  ar  
  4   3   5  1   
  5   3   6  ar  
  6   4   7  ar  
  7   4  29  1   
  8   5   8  2   
  9   5   9  2   
 10   5  10  am  
 11   6  11  ar  
 12   6  30  1   
 13   7  11  ar  
 14   7  31  1   
 15  10  12  1   
 16  10  13  1   
 17  11  14  1   
 18  12  15  1   
 19  12  32  1   
 20  12  33  1   
 21  13  16  1   
 22  13  34  1   
 23  13  35  1   
 24  14  17  2   
 25  14  18  am  
 26  15  16  1   
 27  15  36  1   
 28  15  37  1   
 29  16  38  1   
 30  16  39  1   
 31  18  19  1   
 32  18  20  1   
 33  19  21  1   
 34  19  40  1   
 35  19  41  1   
 36  20  22  1   
 37  20  42  1   
 38  20  43  1   
 39  21  23  1   
 40  21  44  1   
 41  21  45  1   
 42  22  23  1   
 43  22  46  1   
 44  22  47  1   
 45  23  24  1   
 46  23  48  1   
 47  24  25  2   
 48  24  26  1   
 49  26  27  1   
 50  27  28  1   
 51  27  49  1   
 52  27  50  1   
 53  28  51  1   
 54  28  52  1   
 55  28  53  1   
@<TRIPOS>SUBSTRUCTURE
  1 ****   6 GROUP 4 **** **** 0

# MOE 2024.06 (io_trps.svl 2023.06)
