@<TRIPOS>MOLECULE
NONAME
49 52 1 0 0 
SMALL
USER_CHARGES


@<TRIPOS>ATOM
  1 S        0.8200     0.5750     1.3390 S.3   1 <1>  -0.3320 
  2 C        1.7100     1.9450     0.6140 C.ar  1 <1>   0.7220 
  3 C       -0.8440     1.2350     1.8110 C.3   1 <1>   0.0700 
  4 N        1.0840     3.1290     0.5880 N.ar  1 <1>  -0.3100 
  5 N        2.9110     1.6520     0.1740 N.ar  1 <1>  -0.6200 
  6 C       -1.7390     1.2330     0.5680 C.3   1 <1>  -0.1600 
  7 N        1.6890     4.1660     0.0680 N.ar  1 <1>  -0.3100 
  8 C        3.5010     2.7100    -0.3410 C.ar  1 <1>   0.3930 
  9 C       -3.1410     1.7550     0.8970 C.3   1 <1>  -0.2400 
 10 C        2.9200     3.9760    -0.4110 C.ar  1 <1>   0.3100 
 11 O        4.7200     2.5060    -0.8400 O.3   1 <1>  -0.3630 
 12 C        3.6440     5.0770    -0.9990 C.ar  1 <1>   0.0000 
 13 C        5.8170     2.9640    -0.0870 C.3   1 <1>   0.6800 
 14 C        5.0080     5.2510    -0.7160 C.ar  1 <1>   0.1170 
 15 C        3.0230     5.9730    -1.8680 C.ar  1 <1>  -0.1500 
 16 N        5.6570     4.4160     0.2140 N.am  1 <1>  -0.4770 
 17 C        7.0880     2.6760    -0.8820 C.2   1 <1>  -0.3320 
 18 C        5.7080     6.2810    -1.3330 C.ar  1 <1>  -0.1500 
 19 C        3.7280     6.9990    -2.4640 C.ar  1 <1>  -0.1500 
 20 C        6.0380     4.8180     1.4690 C.2   1 <1>   0.5690 
 21 N        7.3880     1.4280    -1.3520 N.pl3 1 <1>   0.0480 
 22 C        8.0930     3.5280    -1.2290 C.2   1 <1>  -0.1500 
 23 C        5.0780     7.1510    -2.2010 C.ar  1 <1>  -0.1500 
 24 O        6.5330     4.0610     2.2670 O.2   1 <1>  -0.5700 
 25 C        5.8170     6.2480     1.9100 C.3   1 <1>  -0.1790 
 26 C        8.5790     1.5150    -2.0000 C.2   1 <1>  -0.3020 
 27 C        6.6040     0.1860    -1.2030 C.3   1 <1>   0.0160 
 28 C        9.0390     2.7900    -1.9430 C.2   1 <1>  -0.1500 
 29 H       -0.7120     2.2220     2.2180 H     1 <1>   0.0800 
 30 H       -1.2330     0.5800     2.5700 H     1 <1>   0.0800 
 31 H       -1.8120     0.2300     0.1850 H     1 <1>   0.0800 
 32 H       -1.3020     1.8550    -0.1940 H     1 <1>   0.0800 
 33 H       -3.6080     1.1370     1.6440 H     1 <1>   0.0800 
 34 H       -3.7530     1.7440     0.0120 H     1 <1>   0.0800 
 35 H       -3.0900     2.7650     1.2630 H     1 <1>   0.0800 
 36 H        5.8300     2.3890     0.8240 H     1 <1>   0.0800 
 37 H        1.9730     5.8600    -2.0820 H     1 <1>   0.1500 
 38 H        6.7560     6.4070    -1.1300 H     1 <1>   0.1500 
 39 H        3.2320     7.6790    -3.1360 H     1 <1>   0.1500 
 40 H        8.1850     4.5760    -1.0090 H     1 <1>   0.1500 
 41 H        5.6320     7.9460    -2.6710 H     1 <1>   0.1500 
 42 H        4.8010     6.5420     1.7270 H     1 <1>   0.0800 
 43 H        6.4830     6.9010     1.3790 H     1 <1>   0.0800 
 44 H        6.0150     6.3380     2.9630 H     1 <1>   0.0800 
 45 H        9.0420     0.6660    -2.4700 H     1 <1>   0.1500 
 46 H        6.2920     0.0770    -0.1810 H     1 <1>   0.0800 
 47 H        7.2080    -0.6580    -1.4820 H     1 <1>   0.0800 
 48 H        5.7400     0.2330    -1.8400 H     1 <1>   0.0800 
 49 H        9.9510     3.1840    -2.3560 H     1 <1>   0.1500 
@<TRIPOS>BOND
  1   1   2  1   
  2   1   3  1   
  3   2   4  ar  
  4   2   5  ar  
  5   3   6  1   
  6   3  29  1   
  7   3  30  1   
  8   4   7  ar  
  9   5   8  ar  
 10   6   9  1   
 11   6  31  1   
 12   6  32  1   
 13   7  10  ar  
 14   8  10  ar  
 15   8  11  1   
 16   9  33  1   
 17   9  34  1   
 18   9  35  1   
 19  10  12  1   
 20  11  13  1   
 21  12  14  ar  
 22  12  15  ar  
 23  13  16  1   
 24  13  17  1   
 25  13  36  1   
 26  14  16  1   
 27  14  18  ar  
 28  15  19  ar  
 29  15  37  1   
 30  16  20  am  
 31  17  21  1   
 32  17  22  2   
 33  18  23  ar  
 34  18  38  1   
 35  19  23  ar  
 36  19  39  1   
 37  20  24  2   
 38  20  25  1   
 39  21  26  1   
 40  21  27  1   
 41  22  28  1   
 42  22  40  1   
 43  23  41  1   
 44  25  42  1   
 45  25  43  1   
 46  25  44  1   
 47  26  28  2   
 48  26  45  1   
 49  27  46  1   
 50  27  47  1   
 51  27  48  1   
 52  28  49  1   
@<TRIPOS>SUBSTRUCTURE
  1 ****   8 GROUP 4 **** **** 0

# MOE 2024.06 (io_trps.svl 2023.06)
