@<TRIPOS>MOLECULE
NONAME
43 46 1 0 0 
SMALL
USER_CHARGES


@<TRIPOS>ATOM
  1 S       -0.2010     0.1080    -0.7870 S.3   1 <1>  -0.0800 
  2 C        0.8460    -1.3070    -0.8200 C.ar  1 <1>   0.2970 
  3 C       -1.6320    -0.9020    -0.6120 C.2   1 <1>  -0.1100 
  4 N        2.1520    -1.2110    -0.9420 N.ar  1 <1>  -0.5670 
  5 C        0.1120    -2.4660    -0.7120 C.ar  1 <1>   0.0000 
  6 C       -1.3090    -2.2100    -0.5800 C.2   1 <1>  -0.1810 
  7 C        2.7410    -2.3890    -0.9680 C.ar  1 <1>   0.4700 
  8 C        0.8770    -3.6390    -0.7640 C.ar  1 <1>   0.4100 
  9 C       -2.3210    -3.3360    -0.4010 C.3   1 <1>   0.3810 
 10 N        2.1880    -3.5910    -0.8940 N.ar  1 <1>  -0.6200 
 11 N        0.2980    -4.8840    -0.7510 N.pl3 1 <1>  -0.8690 
 12 O       -3.6080    -2.8640    -0.7660 O.3   1 <1>  -0.3630 
 13 C       -2.3510    -3.8210     1.0560 C.3   1 <1>   0.1200 
 14 C        0.7670    -6.0740    -0.0250 C.3   1 <1>   0.3690 
 15 C       -4.6700    -3.6120    -0.3750 C.ar  1 <1>   0.0830 
 16 O       -3.3540    -4.8060     1.2380 O.3   1 <1>  -0.3630 
 17 C       -0.4460    -6.9870     0.1310 C.3   1 <1>  -0.2400 
 18 C        1.8240    -6.7880    -0.8660 C.3   1 <1>  -0.2400 
 19 C        1.3120    -5.7050     1.3560 C.3   1 <1>  -0.2400 
 20 C       -4.5400    -4.5900     0.6140 C.ar  1 <1>   0.0830 
 21 C       -5.8960    -3.3970    -0.9780 C.ar  1 <1>  -0.1500 
 22 C       -5.6350    -5.3550     0.9770 C.ar  1 <1>  -0.1500 
 23 C       -6.9910    -4.1620    -0.6080 C.ar  1 <1>  -0.1500 
 24 C       -6.8600    -5.1400     0.3660 C.ar  1 <1>  -0.1500 
 25 H       -2.5810    -0.3970    -0.5430 H     1 <1>   0.1500 
 26 H        3.8130    -2.3740    -1.0670 H     1 <1>   0.1500 
 27 H       -2.0930    -4.1530    -1.0600 H     1 <1>   0.0800 
 28 H       -0.0290    -5.1710    -1.6740 H     1 <1>   0.4000 
 29 H       -2.5650    -2.9980     1.7140 H     1 <1>   0.0800 
 30 H       -1.4070    -4.2490     1.3310 H     1 <1>   0.0800 
 31 H       -1.2070    -6.5110     0.7220 H     1 <1>   0.0800 
 32 H       -0.1630    -7.8970     0.6280 H     1 <1>   0.0800 
 33 H       -0.8580    -7.2420    -0.8280 H     1 <1>   0.0800 
 34 H        1.4390    -7.0240    -1.8410 H     1 <1>   0.0800 
 35 H        2.1210    -7.7030    -0.3870 H     1 <1>   0.0800 
 36 H        2.7000    -6.1760    -0.9760 H     1 <1>   0.0800 
 37 H        0.5820    -5.1550     1.9190 H     1 <1>   0.0800 
 38 H        2.2060    -5.1170     1.2710 H     1 <1>   0.0800 
 39 H        1.5590    -6.5970     1.9030 H     1 <1>   0.0800 
 40 H       -5.9880    -2.6390    -1.7340 H     1 <1>   0.1500 
 41 H       -5.5260    -6.1090     1.7350 H     1 <1>   0.1500 
 42 H       -7.9450    -3.9960    -1.0790 H     1 <1>   0.1500 
 43 H       -7.7120    -5.7340     0.6490 H     1 <1>   0.1500 
@<TRIPOS>BOND
  1   1   2  1   
  2   1   3  1   
  3   2   4  ar  
  4   2   5  ar  
  5   3   6  2   
  6   3  25  1   
  7   4   7  ar  
  8   5   6  1   
  9   5   8  ar  
 10   6   9  1   
 11   7  10  ar  
 12   7  26  1   
 13   8  10  ar  
 14   8  11  1   
 15   9  12  1   
 16   9  13  1   
 17   9  27  1   
 18  11  14  1   
 19  11  28  1   
 20  12  15  1   
 21  13  16  1   
 22  13  29  1   
 23  13  30  1   
 24  14  17  1   
 25  14  18  1   
 26  14  19  1   
 27  15  20  ar  
 28  15  21  ar  
 29  16  20  1   
 30  17  31  1   
 31  17  32  1   
 32  17  33  1   
 33  18  34  1   
 34  18  35  1   
 35  18  36  1   
 36  19  37  1   
 37  19  38  1   
 38  19  39  1   
 39  20  22  ar  
 40  21  23  ar  
 41  21  40  1   
 42  22  24  ar  
 43  22  41  1   
 44  23  24  ar  
 45  23  42  1   
 46  24  43  1   
@<TRIPOS>SUBSTRUCTURE
  1 ****   9 GROUP 4 **** **** 0

# MOE 2024.06 (io_trps.svl 2023.06)
