@<TRIPOS>MOLECULE
NONAME
38 41 1 0 0 
SMALL
USER_CHARGES


@<TRIPOS>ATOM
  1 S       -0.3660     0.2360     1.3420 S.3   1 <1>  -0.0800 
  2 C        0.2010     1.7220     0.6130 C.2   1 <1>   0.2980 
  3 C       -2.0340     0.7330     1.0730 C.2   1 <1>  -0.1400 
  4 N        1.5190     2.0550     0.4750 N.pl3 1 <1>  -0.7750 
  5 C       -0.8170     2.5160     0.1960 C.2   1 <1>  -0.0860 
  6 C       -2.1010     1.9250     0.4660 C.2   1 <1>  -0.1810 
  7 C       -3.2090    -0.1250     1.5000 C.3   1 <1>   0.3000 
  8 C        1.8200     3.2270    -0.0970 C.cat 1 <1>   1.2000 
  9 C       -0.4470     3.7550    -0.4110 C.2   1 <1>   0.9990 
 10 C       -3.4660     2.5170     0.1520 C.3   1 <1>   0.0210 
 11 O       -4.3890     0.6350     1.3910 O.3   1 <1>  -0.5600 
 12 N        0.8840     4.0360    -0.5180 N.pl3 1 <1>  -0.7530 
 13 N        2.9950     3.7820    -0.3510 N.pl3 1 <1>  -0.5260 
 14 O       -1.2240     4.5740    -0.8430 O.2   1 <1>  -0.5700 
 15 C       -4.5800     1.4370     0.2520 C.3   1 <1>   0.2800 
 16 C        1.5280     5.1080    -1.0430 C.2   1 <1>   0.7330 
 17 N        2.8020     4.9920    -0.9600 N.2   1 <1>  -0.3180 
 18 C        4.3580     3.2720    -0.0760 C.3   1 <1>   0.1680 
 19 C       -5.9450     2.0990     0.4430 C.3   1 <1>  -0.2400 
 20 C       -4.6310     0.5370    -0.9930 C.3   1 <1>  -0.2400 
 21 C        4.7960     2.3550    -1.2150 C.3   1 <1>  -0.2400 
 22 H        2.2620     1.4320     0.7900 H     1 <1>   0.4500 
 23 H       -3.1100    -0.4260     2.5280 H     1 <1>   0.0800 
 24 H       -3.3000    -1.0000     0.8810 H     1 <1>   0.0800 
 25 H       -3.4750     2.9440    -0.8350 H     1 <1>   0.0800 
 26 H       -3.6680     3.3090     0.8510 H     1 <1>   0.0800 
 27 H        0.9980     5.9430    -1.4720 H     1 <1>   0.0600 
 28 H        4.3740     2.7400     0.8600 H     1 <1>   0.0800 
 29 H        5.0390     4.1040     0.0010 H     1 <1>   0.0800 
 30 H       -5.9530     2.6860     1.3440 H     1 <1>   0.0800 
 31 H       -6.7140     1.3500     0.5130 H     1 <1>   0.0800 
 32 H       -6.1710     2.7430    -0.3870 H     1 <1>   0.0800 
 33 H       -3.6710     0.1050    -1.2080 H     1 <1>   0.0800 
 34 H       -4.9270     1.1130    -1.8500 H     1 <1>   0.0800 
 35 H       -5.3510    -0.2490    -0.8530 H     1 <1>   0.0800 
 36 H        4.1490     1.5010    -1.3010 H     1 <1>   0.0800 
 37 H        5.7950     2.0020    -1.0280 H     1 <1>   0.0800 
 38 H        4.8040     2.8950    -2.1460 H     1 <1>   0.0800 
@<TRIPOS>BOND
  1   1   2  1   
  2   1   3  1   
  3   2   4  1   
  4   2   5  2   
  5   3   6  2   
  6   3   7  1   
  7   4   8  ar  
  8   4  22  1   
  9   5   6  1   
 10   5   9  1   
 11   6  10  1   
 12   7  11  1   
 13   7  23  1   
 14   7  24  1   
 15   8  12  ar  
 16   8  13  ar  
 17   9  12  1   
 18   9  14  2   
 19  10  15  1   
 20  10  25  1   
 21  10  26  1   
 22  11  15  1   
 23  12  16  1   
 24  13  17  1   
 25  13  18  1   
 26  15  19  1   
 27  15  20  1   
 28  16  17  2   
 29  16  27  1   
 30  18  21  1   
 31  18  28  1   
 32  18  29  1   
 33  19  30  1   
 34  19  31  1   
 35  19  32  1   
 36  20  33  1   
 37  20  34  1   
 38  20  35  1   
 39  21  36  1   
 40  21  37  1   
 41  21  38  1   
@<TRIPOS>SUBSTRUCTURE
  1 ****   5 GROUP 4 **** **** 0

# MOE 2024.06 (io_trps.svl 2023.06)
