@<TRIPOS>MOLECULE
NONAME
50 52 1 0 0 
SMALL
USER_CHARGES


@<TRIPOS>ATOM
  1 F       -1.6020    -0.7940    -1.1100 F     1 <1>  -0.1900 
  2 C       -2.7850    -0.2750    -0.9260 C.ar  1 <1>   0.1900 
  3 C       -3.6250    -0.8600     0.0020 C.ar  1 <1>  -0.1500 
  4 C       -3.1530     0.8310    -1.6660 C.ar  1 <1>  -0.1500 
  5 C       -4.8900    -0.3200     0.1950 C.ar  1 <1>  -0.1440 
  6 C       -4.4110     1.3710    -1.4630 C.ar  1 <1>  -0.1500 
  7 C       -5.2720     0.7990    -0.5380 C.ar  1 <1>  -0.1500 
  8 C       -5.8490    -0.9480     1.1890 C.3   1 <1>   0.4870 
  9 N       -6.3660    -2.2200     0.6170 N.4   1 <1>  -0.9590 
 10 C       -7.1390    -1.9590    -0.6550 C.3   1 <1>   0.3430 
 11 C       -7.2000    -2.9540     1.6370 C.3   1 <1>   0.3430 
 12 C       -7.7880    -3.2380    -1.2230 C.3   1 <1>   0.1400 
 13 C       -7.8820    -4.2110     1.0510 C.3   1 <1>   0.1400 
 14 N       -8.6450    -3.8700    -0.1840 N.am  1 <1>  -0.6600 
 15 C       -9.8730    -3.3040    -0.0130 C.2   1 <1>   0.6900 
 16 O       -9.9840    -2.3820     0.7720 O.2   1 <1>  -0.5700 
 17 N      -10.8980    -3.7470    -0.7850 N.am  1 <1>  -0.5470 
 18 C      -12.1710    -3.1890    -0.9470 C.ar  1 <1>   0.1170 
 19 C      -13.1070    -3.1160     0.0870 C.ar  1 <1>  -0.1430 
 20 C      -12.5160    -2.7040    -2.2020 C.ar  1 <1>  -0.1500 
 21 C      -14.3470    -2.5450    -0.1520 C.ar  1 <1>  -0.1500 
 22 C      -12.8150    -3.6530     1.4830 C.3   1 <1>  -0.0970 
 23 C      -13.7570    -2.1400    -2.4310 C.ar  1 <1>  -0.1500 
 24 C      -14.6800    -2.0570    -1.4040 C.ar  1 <1>  -0.1430 
 25 C      -16.0430    -1.4330    -1.6420 C.3   1 <1>  -0.0970 
 26 H       -3.2720    -1.7140     0.5520 H     1 <1>   0.1500 
 27 H       -2.4680     1.2580    -2.3780 H     1 <1>   0.1500 
 28 H       -4.7160     2.2390    -2.0250 H     1 <1>   0.1500 
 29 H       -6.2440     1.2450    -0.3970 H     1 <1>   0.1500 
 30 H       -6.6660    -0.2720     1.3900 H     1 <1>   0.0800 
 31 H       -5.3290    -1.1380     2.1140 H     1 <1>   0.0800 
 32 H       -5.5540    -2.7970     0.3700 H     1 <1>   0.4500 
 33 H       -6.4860    -1.5330    -1.4010 H     1 <1>   0.0800 
 34 H       -7.9240    -1.2460    -0.4580 H     1 <1>   0.0800 
 35 H       -7.9750    -2.3000     2.0040 H     1 <1>   0.0800 
 36 H       -6.5900    -3.2420     2.4760 H     1 <1>   0.0800 
 37 H       -7.0310    -3.9320    -1.5460 H     1 <1>   0.0800 
 38 H       -8.3890    -2.9800    -2.0790 H     1 <1>   0.0800 
 39 H       -8.5590    -4.6180     1.7850 H     1 <1>   0.0800 
 40 H       -7.1480    -4.9640     0.8270 H     1 <1>   0.0800 
 41 H      -10.6650    -4.5210    -1.4000 H     1 <1>   0.3700 
 42 H      -11.8080    -2.7610    -3.0060 H     1 <1>   0.1500 
 43 H      -15.0650    -2.4780     0.6460 H     1 <1>   0.1500 
 44 H      -12.2530    -4.5670     1.4260 H     1 <1>   0.0800 
 45 H      -13.7280    -3.8560     2.0120 H     1 <1>   0.0800 
 46 H      -12.2510    -2.9280     2.0390 H     1 <1>   0.0800 
 47 H      -14.0000    -1.7650    -3.4100 H     1 <1>   0.1500 
 48 H      -16.0280    -0.4020    -1.3370 H     1 <1>   0.0800 
 49 H      -16.7950    -1.9520    -1.0750 H     1 <1>   0.0800 
 50 H      -16.3080    -1.4840    -2.6830 H     1 <1>   0.0800 
@<TRIPOS>BOND
  1   1   2  1   
  2   2   3  ar  
  3   2   4  ar  
  4   3   5  ar  
  5   3  26  1   
  6   4   6  ar  
  7   4  27  1   
  8   5   7  ar  
  9   5   8  1   
 10   6   7  ar  
 11   6  28  1   
 12   7  29  1   
 13   8   9  1   
 14   8  30  1   
 15   8  31  1   
 16   9  10  1   
 17   9  11  1   
 18   9  32  1   
 19  10  12  1   
 20  10  33  1   
 21  10  34  1   
 22  11  13  1   
 23  11  35  1   
 24  11  36  1   
 25  12  14  1   
 26  12  37  1   
 27  12  38  1   
 28  13  14  1   
 29  13  39  1   
 30  13  40  1   
 31  14  15  am  
 32  15  16  2   
 33  15  17  am  
 34  17  18  1   
 35  17  41  1   
 36  18  19  ar  
 37  18  20  ar  
 38  19  21  ar  
 39  19  22  1   
 40  20  23  ar  
 41  20  42  1   
 42  21  24  ar  
 43  21  43  1   
 44  22  44  1   
 45  22  45  1   
 46  22  46  1   
 47  23  24  ar  
 48  23  47  1   
 49  24  25  1   
 50  25  48  1   
 51  25  49  1   
 52  25  50  1   
@<TRIPOS>SUBSTRUCTURE
  1 ****  10 GROUP 4 **** **** 0

# MOE 2024.06 (io_trps.svl 2023.06)
