@<TRIPOS>MOLECULE
NONAME
40 42 1 0 0 
SMALL
USER_CHARGES


@<TRIPOS>ATOM
  1 BR      -0.5260    -0.7480    -2.1890 Br    1 <1>  -0.1110 
  2 C       -2.0220    -1.2080    -1.0720 C.ar  1 <1>   0.1110 
  3 C       -2.3000    -0.4210     0.0280 C.ar  1 <1>  -0.1500 
  4 C       -2.7810    -2.3160    -1.3970 C.ar  1 <1>  -0.1500 
  5 C       -3.3810    -0.7530     0.8270 C.ar  1 <1>  -0.1500 
  6 C       -3.8600    -2.6410    -0.5920 C.ar  1 <1>  -0.1500 
  7 C       -4.1670    -1.8590     0.5170 C.ar  1 <1>  -0.1430 
  8 C       -5.3610    -2.2070     1.3880 C.3   1 <1>   0.4870 
  9 N       -6.6030    -1.8140     0.6700 N.4   1 <1>  -0.9590 
 10 C       -6.6620    -0.3200     0.4340 C.3   1 <1>   0.3430 
 11 C       -7.8390    -2.3020     1.3880 C.3   1 <1>   0.3430 
 12 C       -7.9600     0.1210    -0.2740 C.3   1 <1>   0.2090 
 13 C       -9.1450    -1.8730     0.6840 C.3   1 <1>   0.2090 
 14 N       -9.1570    -0.4010     0.4490 N.pl3 1 <1>  -0.8380 
 15 C      -10.3810     0.1590     0.1050 C.ar  1 <1>   0.1000 
 16 C      -10.9550    -0.0600    -1.1420 C.ar  1 <1>  -0.1500 
 17 C      -11.0540     0.9570     1.0230 C.ar  1 <1>  -0.1500 
 18 C      -12.1730     0.5140    -1.4440 C.ar  1 <1>   0.1770 
 19 C      -12.2760     1.5300     0.7120 C.ar  1 <1>  -0.1500 
 20 CL     -12.8820     0.2310    -3.0130 Cl    1 <1>  -0.1770 
 21 C      -12.8440     1.3080    -0.5320 C.ar  1 <1>  -0.1500 
 22 H       -1.6780     0.4300     0.2500 H     1 <1>   0.1500 
 23 H       -2.5250    -2.9080    -2.2590 H     1 <1>   0.1500 
 24 H       -3.5920    -0.1430     1.6890 H     1 <1>   0.1500 
 25 H       -4.4440    -3.5110    -0.8410 H     1 <1>   0.1500 
 26 H       -5.2940    -1.6880     2.3300 H     1 <1>   0.0800 
 27 H       -5.3610    -3.2670     1.5810 H     1 <1>   0.0800 
 28 H       -6.5670    -2.2570    -0.2560 H     1 <1>   0.4500 
 29 H       -5.8190    -0.0080    -0.1600 H     1 <1>   0.0800 
 30 H       -6.6090     0.1950     1.3790 H     1 <1>   0.0800 
 31 H       -7.8570    -1.8980     2.3870 H     1 <1>   0.0800 
 32 H       -7.8210    -3.3760     1.4660 H     1 <1>   0.0800 
 33 H       -7.9640    -0.2360    -1.2900 H     1 <1>   0.0800 
 34 H       -8.0040     1.1970    -0.3010 H     1 <1>   0.0800 
 35 H       -9.9880    -2.1380     1.3010 H     1 <1>   0.0800 
 36 H       -9.2460    -2.3920    -0.2540 H     1 <1>   0.0800 
 37 H      -10.4630    -0.6700    -1.8730 H     1 <1>   0.1500 
 38 H      -10.6110     1.1280     1.9870 H     1 <1>   0.1500 
 39 H      -12.7850     2.1460     1.4350 H     1 <1>   0.1500 
 40 H      -13.7920     1.7430    -0.7930 H     1 <1>   0.1500 
@<TRIPOS>BOND
  1   1   2  1   
  2   2   3  ar  
  3   2   4  ar  
  4   3   5  ar  
  5   3  22  1   
  6   4   6  ar  
  7   4  23  1   
  8   5   7  ar  
  9   5  24  1   
 10   6   7  ar  
 11   6  25  1   
 12   7   8  1   
 13   8   9  1   
 14   8  26  1   
 15   8  27  1   
 16   9  10  1   
 17   9  11  1   
 18   9  28  1   
 19  10  12  1   
 20  10  29  1   
 21  10  30  1   
 22  11  13  1   
 23  11  31  1   
 24  11  32  1   
 25  12  14  1   
 26  12  33  1   
 27  12  34  1   
 28  13  14  1   
 29  13  35  1   
 30  13  36  1   
 31  14  15  1   
 32  15  16  ar  
 33  15  17  ar  
 34  16  18  ar  
 35  16  37  1   
 36  17  19  ar  
 37  17  38  1   
 38  18  20  1   
 39  18  21  ar  
 40  19  21  ar  
 41  19  39  1   
 42  21  40  1   
@<TRIPOS>SUBSTRUCTURE
  1 ****  10 GROUP 4 **** **** 0

# MOE 2024.06 (io_trps.svl 2023.06)
