@<TRIPOS>MOLECULE
NONAME
36 36 1 0 0 
SMALL
USER_CHARGES


@<TRIPOS>ATOM
  1 S        0.0310    -0.2240     0.2700 S.3   1 <1>  -0.3710 
  2 C        1.5910     0.6170     0.4250 C.2   1 <1>   0.6410 
  3 C       -1.2530     1.0680    -0.0630 C.3   1 <1>   0.0700 
  4 N        2.6320    -0.0840     0.6560 N.2   1 <1>  -0.6610 
  5 N        1.5660     1.9680     0.2820 N.pl3 1 <1>  -0.5500 
  6 C       -2.6330     0.4010    -0.1690 C.3   1 <1>  -0.0800 
  7 C        3.8070     0.6000     0.7680 C.2   1 <1>   0.7670 
  8 C        2.7100     2.7080     0.3820 C.2   1 <1>  -0.0380 
  9 C       -3.6630     1.4110    -0.6900 C.3   1 <1>  -0.2400 
 10 C       -3.1010    -0.1570     1.1820 C.3   1 <1>  -0.2400 
 11 O        4.8160    -0.0580     0.9820 O.2   1 <1>  -0.5700 
 12 C        3.8600     2.0300     0.6400 C.2   1 <1>  -0.1240 
 13 C        2.5400     4.2060     0.1810 C.3   1 <1>  -0.1020 
 14 C        5.2190     2.7170     0.8020 C.3   1 <1>  -0.0220 
 15 C        5.9550     2.7850    -0.5410 C.3   1 <1>  -0.1600 
 16 C        7.3050     3.4970    -0.4060 C.3   1 <1>  -0.2400 
 17 H       -0.9840     1.5410    -0.9910 H     1 <1>   0.0800 
 18 H       -1.2250     1.7760     0.7470 H     1 <1>   0.0800 
 19 H        0.6680     2.4060     0.0970 H     1 <1>   0.4000 
 20 H       -2.5670    -0.4090    -0.8770 H     1 <1>   0.0800 
 21 H       -3.7620     2.2400    -0.0120 H     1 <1>   0.0800 
 22 H       -4.6240     0.9400    -0.7960 H     1 <1>   0.0800 
 23 H       -3.3670     1.7860    -1.6550 H     1 <1>   0.0800 
 24 H       -3.1600     0.6240     1.9200 H     1 <1>   0.0800 
 25 H       -2.4230    -0.9130     1.5370 H     1 <1>   0.0800 
 26 H       -4.0730    -0.6080     1.0820 H     1 <1>   0.0800 
 27 H        2.0000     4.6270     1.0100 H     1 <1>   0.0800 
 28 H        1.9890     4.3940    -0.7240 H     1 <1>   0.0800 
 29 H        3.4820     4.7120     0.0950 H     1 <1>   0.0800 
 30 H        5.8200     2.1770     1.5140 H     1 <1>   0.0800 
 31 H        5.0950     3.7060     1.2010 H     1 <1>   0.0800 
 32 H        5.3480     3.3070    -1.2610 H     1 <1>   0.0800 
 33 H        6.1180     1.7850    -0.9070 H     1 <1>   0.0800 
 34 H        7.1690     4.5070    -0.0610 H     1 <1>   0.0800 
 35 H        7.8030     3.5250    -1.3590 H     1 <1>   0.0800 
 36 H        7.9360     2.9730     0.2910 H     1 <1>   0.0800 
@<TRIPOS>BOND
  1   1   2  1   
  2   1   3  1   
  3   2   4  2   
  4   2   5  1   
  5   3   6  1   
  6   3  17  1   
  7   3  18  1   
  8   4   7  1   
  9   5   8  1   
 10   5  19  1   
 11   6   9  1   
 12   6  10  1   
 13   6  20  1   
 14   7  11  2   
 15   7  12  1   
 16   8  12  2   
 17   8  13  1   
 18   9  21  1   
 19   9  22  1   
 20   9  23  1   
 21  10  24  1   
 22  10  25  1   
 23  10  26  1   
 24  12  14  1   
 25  13  27  1   
 26  13  28  1   
 27  13  29  1   
 28  14  15  1   
 29  14  30  1   
 30  14  31  1   
 31  15  16  1   
 32  15  32  1   
 33  15  33  1   
 34  16  34  1   
 35  16  35  1   
 36  16  36  1   
@<TRIPOS>SUBSTRUCTURE
  1 ****   5 GROUP 4 **** **** 0

# MOE 2024.06 (io_trps.svl 2023.06)
