@<TRIPOS>MOLECULE
NONAME
49 51 1 0 0 
SMALL
USER_CHARGES


@<TRIPOS>ATOM
  1 S       -0.1250    -0.7010    -3.3830 S.3   1 <1>  -0.3220 
  2 C       -1.2440    -0.3090    -2.0610 C.cat 1 <1>   0.8920 
  3 C        0.9770    -2.0970    -2.8220 C.3   1 <1>   0.1310 
  4 N       -1.2050    -0.8290    -0.8480 N.pl3 1 <1>  -0.7000 
  5 N       -2.2230     0.5730    -2.1840 N.pl3 1 <1>  -0.7640 
  6 C        1.5920    -1.7730    -1.4750 C.2   1 <1>   0.5690 
  7 C       -2.1980    -0.2480    -0.1320 C.2   1 <1>   0.4260 
  8 C       -2.8560     0.6230    -0.9350 C.2   1 <1>   0.2770 
  9 C       -2.6300     1.3950    -3.3600 C.3   1 <1>   0.2740 
 10 O        1.0750    -2.2730    -0.5030 O.2   1 <1>  -0.5700 
 11 N        2.6080    -0.8640    -1.4120 N.am  1 <1>  -0.5470 
 12 N       -2.5190    -0.4660     1.1930 N.am  1 <1>  -0.4360 
 13 C       -3.9630     1.3530    -0.3890 C.2   1 <1>   0.7030 
 14 C        3.2050    -0.2740    -0.2880 C.ar  1 <1>   0.1170 
 15 C       -3.6070     0.2130     1.7210 C.2   1 <1>   0.6900 
 16 C       -1.7060    -1.4020     2.0280 C.3   1 <1>   0.0600 
 17 O       -4.5920     2.1430    -1.0710 O.2   1 <1>  -0.5700 
 18 N       -4.3030     1.1320     0.9400 N.am  1 <1>  -0.4200 
 19 C        3.6920     1.0220    -0.3900 C.ar  1 <1>  -0.1500 
 20 C        3.3360    -0.9350     0.9270 C.ar  1 <1>  -0.1500 
 21 O       -3.9580     0.0000     2.8630 O.2   1 <1>  -0.5700 
 22 C       -5.4590     1.8630     1.5480 C.3   1 <1>   0.0600 
 23 C        4.2830     1.6600     0.6880 C.ar  1 <1>  -0.1440 
 24 C        3.9220    -0.3070     2.0090 C.ar  1 <1>  -0.1500 
 25 C        4.3970     0.9910     1.9020 C.ar  1 <1>  -0.1440 
 26 C        4.7990     3.0830     0.5190 C.3   1 <1>  -0.0970 
 27 C        5.0380     1.6460     3.1180 C.3   1 <1>  -0.0970 
 28 H        1.7360    -2.2310    -3.5710 H     1 <1>   0.0800 
 29 H        0.3690    -2.9830    -2.7610 H     1 <1>   0.0800 
 30 H       -0.5100    -1.5000    -0.4890 H     1 <1>   0.4500 
 31 H       -2.0090     1.1860    -4.2130 H     1 <1>   0.0800 
 32 H       -2.5480     2.4420    -3.1200 H     1 <1>   0.0800 
 33 H       -3.6540     1.1820    -3.6180 H     1 <1>   0.0800 
 34 H        2.9390    -0.4830    -2.2990 H     1 <1>   0.3700 
 35 H       -0.6570    -1.2710     1.8250 H     1 <1>   0.0800 
 36 H       -1.9860    -2.4190     1.8120 H     1 <1>   0.0800 
 37 H       -1.8690    -1.2170     3.0760 H     1 <1>   0.0800 
 38 H        3.6060     1.5410    -1.3260 H     1 <1>   0.1500 
 39 H        2.9880    -1.9450     1.0360 H     1 <1>   0.1500 
 40 H       -5.6740     2.7690     1.0070 H     1 <1>   0.0800 
 41 H       -5.2370     2.1260     2.5680 H     1 <1>   0.0800 
 42 H       -6.3310     1.2330     1.5350 H     1 <1>   0.0800 
 43 H        4.0090    -0.8390     2.9400 H     1 <1>   0.1500 
 44 H        4.6200     3.4460    -0.4770 H     1 <1>   0.0800 
 45 H        5.8570     3.1150     0.7030 H     1 <1>   0.0800 
 46 H        4.3040     3.7400     1.2110 H     1 <1>   0.0800 
 47 H        4.4900     2.5290     3.3930 H     1 <1>   0.0800 
 48 H        6.0540     1.9170     2.8970 H     1 <1>   0.0800 
 49 H        5.0440     0.9780     3.9590 H     1 <1>   0.0800 
@<TRIPOS>BOND
  1   1   2  1   
  2   1   3  1   
  3   2   4  ar  
  4   2   5  ar  
  5   3   6  1   
  6   3  28  1   
  7   3  29  1   
  8   4   7  1   
  9   4  30  1   
 10   5   8  1   
 11   5   9  1   
 12   6  10  2   
 13   6  11  am  
 14   7   8  2   
 15   7  12  1   
 16   8  13  1   
 17   9  31  1   
 18   9  32  1   
 19   9  33  1   
 20  11  14  1   
 21  11  34  1   
 22  12  15  am  
 23  12  16  1   
 24  13  17  2   
 25  13  18  am  
 26  14  19  ar  
 27  14  20  ar  
 28  15  18  am  
 29  15  21  2   
 30  16  35  1   
 31  16  36  1   
 32  16  37  1   
 33  18  22  1   
 34  19  23  ar  
 35  19  38  1   
 36  20  24  ar  
 37  20  39  1   
 38  22  40  1   
 39  22  41  1   
 40  22  42  1   
 41  23  25  ar  
 42  23  26  1   
 43  24  25  ar  
 44  24  43  1   
 45  25  27  1   
 46  26  44  1   
 47  26  45  1   
 48  26  46  1   
 49  27  47  1   
 50  27  48  1   
 51  27  49  1   
@<TRIPOS>SUBSTRUCTURE
  1 ****   4 GROUP 4 **** **** 0

# MOE 2024.06 (io_trps.svl 2023.06)
