@<TRIPOS>MOLECULE
NONAME
45 48 1 0 0 
SMALL
USER_CHARGES


@<TRIPOS>ATOM
  1 O        1.0930    -0.6720     0.5750 O.2   1 <1>  -0.5700 
  2 C        1.0940    -1.8620     0.3930 C.2   1 <1>   0.5690 
  3 N        2.1570    -2.5850    -0.0450 N.am  1 <1>  -0.4200 
  4 C       -0.1020    -2.7560     0.6510 C.3   1 <1>  -0.0190 
  5 C        1.8690    -3.9120    -0.1050 C.2   1 <1>   0.5690 
  6 C        3.4610    -1.9940    -0.4240 C.3   1 <1>   0.1400 
  7 C        0.4350    -4.1740     0.3100 C.3   1 <1>  -0.0190 
  8 C       -1.3510    -2.2910    -0.1210 C.3   1 <1>  -0.0220 
  9 O        2.6400    -4.7780    -0.4270 O.2   1 <1>  -0.5700 
 10 C        4.3110    -1.7330     0.8190 C.3   1 <1>   0.0200 
 11 C       -0.3440    -4.9630    -0.7610 C.3   1 <1>  -0.0220 
 12 C       -2.2870    -3.4520    -0.3880 C.2   1 <1>  -0.2880 
 13 C        5.6360    -1.1170     0.4250 C.2   1 <1>   0.2980 
 14 C       -1.8280    -4.6690    -0.6790 C.2   1 <1>  -0.2880 
 15 O        5.6450     0.0910    -0.0720 O.3   1 <1>  -0.0190 
 16 N        6.7690    -1.6750     0.5260 N.2   1 <1>  -0.5650 
 17 N        6.8980     0.3230    -0.3100 N.2   1 <1>  -0.4100 
 18 C        7.5680    -0.7170     0.0430 C.2   1 <1>   0.4620 
 19 C        9.0100    -0.8710    -0.0540 C.ar  1 <1>   0.0540 
 20 C        9.6520    -2.0500     0.3330 C.ar  1 <1>  -0.1500 
 21 C        9.8180     0.1590    -0.5410 C.ar  1 <1>  -0.1500 
 22 C       11.0250    -2.1980     0.2410 C.ar  1 <1>  -0.1500 
 23 C       11.1900     0.0200    -0.6360 C.ar  1 <1>  -0.1500 
 24 C       11.8070    -1.1570    -0.2470 C.ar  1 <1>   0.0820 
 25 O       13.1550    -1.2150    -0.3700 O.3   1 <1>  -0.3630 
 26 C       13.8770    -2.3690    -0.0020 C.3   1 <1>   0.0400 
 27 H       -0.3250    -2.7220     1.7030 H     1 <1>   0.0800 
 28 H        3.2870    -1.0690    -0.9500 H     1 <1>   0.0800 
 29 H        3.9820    -2.6650    -1.0860 H     1 <1>   0.0800 
 30 H        0.4500    -4.7570     1.2130 H     1 <1>   0.0800 
 31 H       -1.0710    -1.8550    -1.0660 H     1 <1>   0.0800 
 32 H       -1.8550    -1.5320     0.4530 H     1 <1>   0.0800 
 33 H        4.4960    -2.6600     1.3320 H     1 <1>   0.0800 
 34 H        3.8010    -1.0580     1.4830 H     1 <1>   0.0800 
 35 H       -0.1660    -6.0150    -0.6180 H     1 <1>   0.0800 
 36 H        0.0010    -4.7030    -1.7470 H     1 <1>   0.0800 
 37 H       -3.3340    -3.1990    -0.3450 H     1 <1>   0.1500 
 38 H       -2.4620    -5.5140    -0.8990 H     1 <1>   0.1500 
 39 H        9.0640    -2.8680     0.7130 H     1 <1>   0.1500 
 40 H        9.3640     1.0850    -0.8500 H     1 <1>   0.1500 
 41 H       11.4650    -3.1260     0.5530 H     1 <1>   0.1500 
 42 H       11.7950     0.8250    -1.0130 H     1 <1>   0.1500 
 43 H       14.9200    -2.1830    -0.1870 H     1 <1>   0.0800 
 44 H       13.5420    -3.1970    -0.6000 H     1 <1>   0.0800 
 45 H       13.7200    -2.5590     1.0450 H     1 <1>   0.0800 
@<TRIPOS>BOND
  1   1   2  2   
  2   2   3  am  
  3   2   4  1   
  4   3   5  am  
  5   3   6  1   
  6   4   7  1   
  7   4   8  1   
  8   4  27  1   
  9   5   7  1   
 10   5   9  2   
 11   6  10  1   
 12   6  28  1   
 13   6  29  1   
 14   7  11  1   
 15   7  30  1   
 16   8  12  1   
 17   8  31  1   
 18   8  32  1   
 19  10  13  1   
 20  10  33  1   
 21  10  34  1   
 22  11  14  1   
 23  11  35  1   
 24  11  36  1   
 25  12  14  2   
 26  12  37  1   
 27  13  15  1   
 28  13  16  2   
 29  14  38  1   
 30  15  17  1   
 31  16  18  1   
 32  17  18  2   
 33  18  19  1   
 34  19  20  ar  
 35  19  21  ar  
 36  20  22  ar  
 37  20  39  1   
 38  21  23  ar  
 39  21  40  1   
 40  22  24  ar  
 41  22  41  1   
 42  23  24  ar  
 43  23  42  1   
 44  24  25  1   
 45  25  26  1   
 46  26  43  1   
 47  26  44  1   
 48  26  45  1   
@<TRIPOS>SUBSTRUCTURE
  1 ****  13 GROUP 4 **** **** 0

# MOE 2024.06 (io_trps.svl 2023.06)
