@<TRIPOS>MOLECULE
NONAME
46 48 1 0 0 
SMALL
USER_CHARGES


@<TRIPOS>ATOM
  1 O       -0.8980    -0.6230    -1.5690 O.2   1 <1>  -0.5700 
  2 C       -0.7110    -0.9490    -0.4250 C.2   1 <1>   0.5690 
  3 N        0.5040    -1.2330     0.1050 N.am  1 <1>  -0.4200 
  4 C       -1.8010    -1.0980     0.6280 C.3   1 <1>  -0.0190 
  5 C        0.4180    -1.6000     1.4050 C.2   1 <1>   0.5690 
  6 C        1.7780    -1.0230    -0.6020 C.3   1 <1>   0.2840 
  7 C       -1.0190    -1.5970     1.8660 C.3   1 <1>  -0.0990 
  8 C       -2.9310    -2.0660     0.2240 C.3   1 <1>  -0.0170 
  9 O        1.3380    -1.9090     2.1160 O.2   1 <1>  -0.5700 
 10 C        2.2470     0.4030    -0.3690 C.ar  1 <1>  -0.1440 
 11 C       -3.9890    -1.3780    -0.6250 C.ar  1 <1>  -0.1440 
 12 C        3.1200     0.6900     0.6700 C.ar  1 <1>  -0.1500 
 13 C        1.7950     1.4310    -1.1840 C.ar  1 <1>  -0.1500 
 14 C       -5.0660    -0.7490    -0.0170 C.ar  1 <1>  -0.1500 
 15 C       -3.8960    -1.3730    -2.0080 C.ar  1 <1>  -0.1500 
 16 C        3.5450     1.9890     0.8950 C.ar  1 <1>   0.0830 
 17 C        2.2240     2.7310    -0.9730 C.ar  1 <1>  -0.1500 
 18 C       -6.0370    -0.1260    -0.7820 C.ar  1 <1>  -0.1500 
 19 C       -4.8650    -0.7490    -2.7740 C.ar  1 <1>  -0.1500 
 20 O        4.3720     2.2030     1.9470 O.3   1 <1>  -0.3630 
 21 C        3.1110     3.0170     0.0510 C.ar  1 <1>   0.0830 
 22 C       -5.9380    -0.1260    -2.1620 C.ar  1 <1>  -0.1500 
 23 C        3.8200     2.9210     3.0270 C.3   1 <1>   0.0400 
 24 O        3.5170     4.3040     0.1860 O.3   1 <1>  -0.3630 
 25 C        4.8890     4.5550    -0.0240 C.3   1 <1>   0.0400 
 26 H       -2.2100    -0.1250     0.8330 H     1 <1>   0.0800 
 27 H        1.6400    -1.2000    -1.6550 H     1 <1>   0.0800 
 28 H        2.5120    -1.7200    -0.2360 H     1 <1>   0.0800 
 29 H       -1.2940    -2.5940     2.1580 H     1 <1>   0.0800 
 30 H       -1.1340    -0.9280     2.6990 H     1 <1>   0.0800 
 31 H       -3.4140    -2.4450     1.1080 H     1 <1>   0.0800 
 32 H       -2.5250    -2.9090    -0.3060 H     1 <1>   0.0800 
 33 H        3.4690    -0.0900     1.3240 H     1 <1>   0.1500 
 34 H        1.1030     1.2250    -1.9840 H     1 <1>   0.1500 
 35 H       -5.1580    -0.7420     1.0540 H     1 <1>   0.1500 
 36 H       -3.0640    -1.8490    -2.4970 H     1 <1>   0.1500 
 37 H        1.8760     3.5270    -1.6050 H     1 <1>   0.1500 
 38 H       -6.8700     0.3590    -0.3040 H     1 <1>   0.1500 
 39 H       -4.7810    -0.7490    -3.8460 H     1 <1>   0.1500 
 40 H       -6.6910     0.3590    -2.7580 H     1 <1>   0.1500 
 41 H        2.9400     2.4070     3.3710 H     1 <1>   0.0800 
 42 H        3.5700     3.9160     2.7030 H     1 <1>   0.0800 
 43 H        4.5530     2.9630     3.8120 H     1 <1>   0.0800 
 44 H        5.0400     5.6190    -0.0260 H     1 <1>   0.0800 
 45 H        5.1780     4.1390    -0.9730 H     1 <1>   0.0800 
 46 H        5.4600     4.1070     0.7690 H     1 <1>   0.0800 
@<TRIPOS>BOND
  1   1   2  2   
  2   2   3  am  
  3   2   4  1   
  4   3   5  am  
  5   3   6  1   
  6   4   7  1   
  7   4   8  1   
  8   4  26  1   
  9   5   7  1   
 10   5   9  2   
 11   6  10  1   
 12   6  27  1   
 13   6  28  1   
 14   7  29  1   
 15   7  30  1   
 16   8  11  1   
 17   8  31  1   
 18   8  32  1   
 19  10  12  ar  
 20  10  13  ar  
 21  11  14  ar  
 22  11  15  ar  
 23  12  16  ar  
 24  12  33  1   
 25  13  17  ar  
 26  13  34  1   
 27  14  18  ar  
 28  14  35  1   
 29  15  19  ar  
 30  15  36  1   
 31  16  20  1   
 32  16  21  ar  
 33  17  21  ar  
 34  17  37  1   
 35  18  22  ar  
 36  18  38  1   
 37  19  22  ar  
 38  19  39  1   
 39  20  23  1   
 40  21  24  1   
 41  22  40  1   
 42  23  41  1   
 43  23  42  1   
 44  23  43  1   
 45  24  25  1   
 46  25  44  1   
 47  25  45  1   
 48  25  46  1   
@<TRIPOS>SUBSTRUCTURE
  1 ****   2 GROUP 4 **** **** 0

# MOE 2024.06 (io_trps.svl 2023.06)
