@<TRIPOS>MOLECULE
NONAME
34 35 1 0 0 
SMALL
USER_CHARGES


@<TRIPOS>ATOM
  1 O       -0.5200     0.7680    -1.7470 O.2   1 <1>  -0.5700 
  2 C       -0.6910     1.6770    -0.9680 C.2   1 <1>   0.5690 
  3 N       -1.7850     1.8230    -0.1730 N.am  1 <1>  -0.4200 
  4 C        0.2700     2.8700    -0.8100 C.3   1 <1>   0.2510 
  5 C       -1.7550     3.0260     0.4660 C.2   1 <1>   0.5690 
  6 C       -2.8530     0.7990    -0.0760 C.3   1 <1>   0.2200 
  7 N        1.6020     2.5890    -0.1920 N.3   1 <1>  -0.8100 
  8 C       -0.5240     3.8160     0.1060 C.3   1 <1>  -0.0990 
  9 O       -2.5900     3.4640     1.2150 O.2   1 <1>  -0.5700 
 10 C       -4.1790     1.3550    -0.6000 C.3   1 <1>  -0.2400 
 11 C       -2.9810     0.2940     1.3630 C.3   1 <1>  -0.2400 
 12 C        2.5100     3.7540    -0.3150 C.3   1 <1>   0.1100 
 13 C        2.2650     1.4040    -0.7870 C.3   1 <1>   0.1100 
 14 C        3.8960     3.4520     0.2810 C.3   1 <1>   0.1200 
 15 C        3.6700     1.1810    -0.1990 C.3   1 <1>   0.1200 
 16 O        4.4540     2.3310    -0.3380 O.3   1 <1>  -0.5600 
 17 H        0.4080     3.3120    -1.7820 H     1 <1>   0.0800 
 18 H       -2.5800    -0.0410    -0.6950 H     1 <1>   0.0800 
 19 H       -0.8150     4.7070    -0.4170 H     1 <1>   0.0800 
 20 H        0.0060     4.0660     1.0070 H     1 <1>   0.0800 
 21 H       -4.5290     2.1630     0.0170 H     1 <1>   0.0800 
 22 H       -4.9250     0.5810    -0.5950 H     1 <1>   0.0800 
 23 H       -4.0610     1.7020    -1.6110 H     1 <1>   0.0800 
 24 H       -3.3130     1.0790     2.0190 H     1 <1>   0.0800 
 25 H       -2.0360    -0.0830     1.7090 H     1 <1>   0.0800 
 26 H       -3.6990    -0.5040     1.4060 H     1 <1>   0.0800 
 27 H        2.0950     4.6020     0.2010 H     1 <1>   0.0800 
 28 H        2.6330     4.0190    -1.3510 H     1 <1>   0.0800 
 29 H        2.3450     1.5190    -1.8550 H     1 <1>   0.0800 
 30 H        1.6830     0.5210    -0.5890 H     1 <1>   0.0800 
 31 H        3.8210     3.2630     1.3380 H     1 <1>   0.0800 
 32 H        4.5610     4.2810     0.1200 H     1 <1>   0.0800 
 33 H        4.1670     0.3800    -0.7170 H     1 <1>   0.0800 
 34 H        3.6050     0.9320     0.8450 H     1 <1>   0.0800 
@<TRIPOS>BOND
  1   1   2  2   
  2   2   3  am  
  3   2   4  1   
  4   3   5  am  
  5   3   6  1   
  6   4   7  1   
  7   4   8  1   
  8   4  17  1   
  9   5   8  1   
 10   5   9  2   
 11   6  10  1   
 12   6  11  1   
 13   6  18  1   
 14   7  12  1   
 15   7  13  1   
 16   8  19  1   
 17   8  20  1   
 18  10  21  1   
 19  10  22  1   
 20  10  23  1   
 21  11  24  1   
 22  11  25  1   
 23  11  26  1   
 24  12  14  1   
 25  12  27  1   
 26  12  28  1   
 27  13  15  1   
 28  13  29  1   
 29  13  30  1   
 30  14  16  1   
 31  14  31  1   
 32  14  32  1   
 33  15  16  1   
 34  15  33  1   
 35  15  34  1   
@<TRIPOS>SUBSTRUCTURE
  1 ****   4 GROUP 4 **** **** 0

# MOE 2024.06 (io_trps.svl 2023.06)
