@<TRIPOS>MOLECULE
NONAME
49 53 1 0 0 
SMALL
USER_CHARGES


@<TRIPOS>ATOM
  1 O       -0.4970    -1.0180     0.3540 O.2   1 <1>  -0.5700 
  2 C       -1.6990    -1.1190     0.2700 C.2   1 <1>   0.5690 
  3 N       -2.3300    -2.2920    -0.0570 N.am  1 <1>  -0.4770 
  4 C       -2.5610     0.1080     0.5460 C.3   1 <1>   0.1810 
  5 C       -3.7390    -2.3120    -0.2030 C.ar  1 <1>   0.1170 
  6 C       -1.4960    -3.5070    -0.3450 C.3   1 <1>   0.2010 
  7 O       -3.7760     0.0950    -0.1950 O.3   1 <1>  -0.3630 
  8 C       -4.4280    -1.0940    -0.3010 C.ar  1 <1>   0.0830 
  9 C       -4.4850    -3.4870    -0.2610 C.ar  1 <1>  -0.1500 
 10 C       -1.1860    -4.3490     0.8990 C.2   1 <1>   0.5690 
 11 C       -5.7960    -1.0620    -0.5020 C.ar  1 <1>  -0.1500 
 12 C       -5.8560    -3.4530    -0.4520 C.ar  1 <1>  -0.1500 
 13 O       -2.0960    -4.6530     1.6310 O.2   1 <1>  -0.5700 
 14 N        0.0490    -4.8170     1.2130 N.am  1 <1>  -0.7300 
 15 C       -6.5130    -2.2430    -0.5800 C.ar  1 <1>  -0.1500 
 16 C        1.3600    -4.8240     0.5410 C.3   1 <1>   0.3000 
 17 C        1.2680    -5.4230    -0.8770 C.3   1 <1>  -0.1600 
 18 C        2.2830    -5.7220     1.3880 C.3   1 <1>  -0.1600 
 19 C        1.9710    -3.4110     0.4900 C.3   1 <1>  -0.1600 
 20 C        2.6690    -5.4770    -1.5170 C.3   1 <1>  -0.0800 
 21 C        3.6910    -5.7930     0.7670 C.3   1 <1>  -0.0800 
 22 C        3.3720    -3.4650    -0.1510 C.3   1 <1>  -0.0800 
 23 C        3.5850    -6.3670    -0.6570 C.3   1 <1>  -0.1600 
 24 C        3.2570    -4.0520    -1.5720 C.3   1 <1>  -0.1600 
 25 C        4.2820    -4.3720     0.6980 C.3   1 <1>  -0.1600 
 26 H       -2.0240     1.0000     0.2820 H     1 <1>   0.0800 
 27 H       -2.8120     0.1390     1.5900 H     1 <1>   0.0800 
 28 H       -0.5850    -3.1880    -0.8060 H     1 <1>   0.0800 
 29 H       -2.0030    -4.1270    -1.0590 H     1 <1>   0.0800 
 30 H       -4.0090    -4.4430    -0.1470 H     1 <1>   0.1500 
 31 H       -6.2960    -0.1140    -0.5900 H     1 <1>   0.1500 
 32 H       -6.4130    -4.3740    -0.4970 H     1 <1>   0.1500 
 33 H        0.0680    -5.3160     2.1020 H     1 <1>   0.3700 
 34 H       -7.5780    -2.2190    -0.7340 H     1 <1>   0.1500 
 35 H        0.6350    -4.8290    -1.5060 H     1 <1>   0.0800 
 36 H        0.8570    -6.4150    -0.8270 H     1 <1>   0.0800 
 37 H        1.8740    -6.7150     1.4480 H     1 <1>   0.0800 
 38 H        2.3590    -5.3280     2.3870 H     1 <1>   0.0800 
 39 H        2.0410    -3.0040     1.4830 H     1 <1>   0.0800 
 40 H        1.3610    -2.7510    -0.0930 H     1 <1>   0.0800 
 41 H        2.6010    -5.8810    -2.5130 H     1 <1>   0.0800 
 42 H        4.3260    -6.4220     1.3680 H     1 <1>   0.0800 
 43 H        3.7880    -2.4730    -0.1980 H     1 <1>   0.0800 
 44 H        4.5640    -6.4200    -1.1020 H     1 <1>   0.0800 
 45 H        3.1910    -7.3680    -0.6190 H     1 <1>   0.0800 
 46 H        4.2290    -4.0780    -2.0320 H     1 <1>   0.0800 
 47 H        2.6290    -3.4200    -2.1770 H     1 <1>   0.0800 
 48 H        5.2660    -4.4070     0.2650 H     1 <1>   0.0800 
 49 H        4.3770    -3.9660     1.6900 H     1 <1>   0.0800 
@<TRIPOS>BOND
  1   1   2  2   
  2   2   3  am  
  3   2   4  1   
  4   3   5  1   
  5   3   6  1   
  6   4   7  1   
  7   4  26  1   
  8   4  27  1   
  9   5   8  ar  
 10   5   9  ar  
 11   6  10  1   
 12   6  28  1   
 13   6  29  1   
 14   7   8  1   
 15   8  11  ar  
 16   9  12  ar  
 17   9  30  1   
 18  10  13  2   
 19  10  14  am  
 20  11  15  ar  
 21  11  31  1   
 22  12  15  ar  
 23  12  32  1   
 24  14  16  1   
 25  14  33  1   
 26  15  34  1   
 27  16  17  1   
 28  16  18  1   
 29  16  19  1   
 30  17  20  1   
 31  17  35  1   
 32  17  36  1   
 33  18  21  1   
 34  18  37  1   
 35  18  38  1   
 36  19  22  1   
 37  19  39  1   
 38  19  40  1   
 39  20  23  1   
 40  20  24  1   
 41  20  41  1   
 42  21  23  1   
 43  21  25  1   
 44  21  42  1   
 45  22  24  1   
 46  22  25  1   
 47  22  43  1   
 48  23  44  1   
 49  23  45  1   
 50  24  46  1   
 51  24  47  1   
 52  25  48  1   
 53  25  49  1   
@<TRIPOS>SUBSTRUCTURE
  1 ****   6 GROUP 4 **** **** 0

# MOE 2024.06 (io_trps.svl 2023.06)
