@<TRIPOS>MOLECULE
NONAME
40 40 1 0 0 
SMALL
USER_CHARGES


@<TRIPOS>ATOM
  1 O        7.9880    -2.0750     0.2610 O.3   1 <1>  -0.3630 
  2 C        8.1150    -0.7340     0.0700 C.ar  1 <1>   0.0830 
  3 C        6.7350    -2.6940     0.4020 C.3   1 <1>   0.1200 
  4 C        9.3910    -0.2190    -0.1660 C.ar  1 <1>  -0.1440 
  5 C        7.0160     0.1250     0.1040 C.ar  1 <1>  -0.1500 
  6 C        6.9890    -4.1980     0.5300 C.3   1 <1>   0.3430 
  7 C        9.5310     1.1470    -0.3670 C.ar  1 <1>  -0.1500 
  8 C       10.6380    -1.1140    -0.2110 C.3   1 <1>   0.0640 
  9 C        7.1720     1.4840    -0.1000 C.ar  1 <1>  -0.1440 
 10 N        5.7260    -4.9950     0.7070 N.4   1 <1>  -0.9590 
 11 C        8.4370     1.9910    -0.3350 C.ar  1 <1>  -0.1500 
 12 C       11.6340    -0.7220     0.8860 C.3   1 <1>  -0.2400 
 13 C       11.3030    -1.0580    -1.5910 C.3   1 <1>  -0.2400 
 14 C        5.9750     2.4180    -0.0620 C.3   1 <1>  -0.0970 
 15 C        6.0620    -6.4080     1.0670 C.3   1 <1>   0.2630 
 16 C        4.8620    -4.9660    -0.5170 C.3   1 <1>   0.2630 
 17 H        6.1550    -2.4670    -0.4750 H     1 <1>   0.0800 
 18 H        6.2690    -2.3040     1.2900 H     1 <1>   0.0800 
 19 H        6.0260    -0.2410     0.2900 H     1 <1>   0.1500 
 20 H        7.6300    -4.3540     1.3830 H     1 <1>   0.0800 
 21 H        7.5100    -4.5380    -0.3500 H     1 <1>   0.0800 
 22 H       10.5020     1.5700    -0.5510 H     1 <1>   0.1500 
 23 H       10.3630    -2.1380    -0.0350 H     1 <1>   0.0800 
 24 H        5.1960    -4.5890     1.4950 H     1 <1>   0.4500 
 25 H        8.5770     3.0460    -0.4920 H     1 <1>   0.1500 
 26 H       12.0110     0.2720     0.7290 H     1 <1>   0.0800 
 27 H       12.4640    -1.4050     0.8970 H     1 <1>   0.0800 
 28 H       11.1490    -0.7560     1.8460 H     1 <1>   0.0800 
 29 H       11.6730    -0.0710    -1.8010 H     1 <1>   0.0800 
 30 H       10.5900    -1.3250    -2.3500 H     1 <1>   0.0800 
 31 H       12.1270    -1.7480    -1.6350 H     1 <1>   0.0800 
 32 H        5.0770     1.8980    -0.3420 H     1 <1>   0.0800 
 33 H        6.1180     3.2360    -0.7440 H     1 <1>   0.0800 
 34 H        5.8540     2.8130     0.9310 H     1 <1>   0.0800 
 35 H        6.6230    -6.8750     0.2730 H     1 <1>   0.0800 
 36 H        5.1610    -6.9770     1.2330 H     1 <1>   0.0800 
 37 H        6.6530    -6.4360     1.9680 H     1 <1>   0.0800 
 38 H        5.3960    -5.3720    -1.3620 H     1 <1>   0.0800 
 39 H        4.5670    -3.9560    -0.7490 H     1 <1>   0.0800 
 40 H        3.9710    -5.5530    -0.3600 H     1 <1>   0.0800 
@<TRIPOS>BOND
  1   1   2  1   
  2   1   3  1   
  3   2   4  ar  
  4   2   5  ar  
  5   3   6  1   
  6   3  17  1   
  7   3  18  1   
  8   4   7  ar  
  9   4   8  1   
 10   5   9  ar  
 11   5  19  1   
 12   6  10  1   
 13   6  20  1   
 14   6  21  1   
 15   7  11  ar  
 16   7  22  1   
 17   8  12  1   
 18   8  13  1   
 19   8  23  1   
 20   9  11  ar  
 21   9  14  1   
 22  10  15  1   
 23  10  16  1   
 24  10  24  1   
 25  11  25  1   
 26  12  26  1   
 27  12  27  1   
 28  12  28  1   
 29  13  29  1   
 30  13  30  1   
 31  13  31  1   
 32  14  32  1   
 33  14  33  1   
 34  14  34  1   
 35  15  35  1   
 36  15  36  1   
 37  15  37  1   
 38  16  38  1   
 39  16  39  1   
 40  16  40  1   
@<TRIPOS>SUBSTRUCTURE
  1 ****   2 GROUP 4 **** **** 0

# MOE 2024.06 (io_trps.svl 2023.06)
