@<TRIPOS>MOLECULE
NONAME
47 49 1 0 0 
SMALL
USER_CHARGES


@<TRIPOS>ATOM
  1 S       -0.1730    -0.1720    -0.6980 S.3   1 <1>  -0.3320 
  2 C       -1.7310    -0.7910    -0.0450 C.ar  1 <1>   0.1020 
  3 C        0.5110    -1.4850    -1.8030 C.3   1 <1>  -0.0100 
  4 C       -2.2650    -2.0090    -0.4320 C.ar  1 <1>  -0.1500 
  5 C       -2.3870     0.0090     0.8720 C.ar  1 <1>  -0.1500 
  6 C       -3.4730    -2.4230     0.1060 C.ar  1 <1>  -0.1500 
  7 C       -3.5920    -0.4080     1.4080 C.ar  1 <1>  -0.1500 
  8 C       -4.1450    -1.6220     1.0210 C.ar  1 <1>  -0.1430 
  9 C       -5.4780    -2.0640     1.5930 C.3   1 <1>   0.4860 
 10 N       -6.5270    -1.8700     0.5550 N.4   1 <1>  -0.9590 
 11 C       -6.6690    -0.4170     0.1620 C.3   1 <1>   0.3430 
 12 C       -7.8540    -2.4440     0.9850 C.3   1 <1>   0.3430 
 13 C       -7.7470    -0.1920    -0.9200 C.3   1 <1>   0.2090 
 14 C       -8.9520    -2.2740    -0.0880 C.3   1 <1>   0.2090 
 15 N       -9.0350    -0.8610    -0.5600 N.pl3 1 <1>  -0.8380 
 16 C      -10.1600    -0.1100    -0.2310 C.ar  1 <1>   0.1000 
 17 C      -11.3920    -0.4460    -0.7790 C.ar  1 <1>  -0.1500 
 18 C      -10.0940     0.9710     0.6400 C.ar  1 <1>  -0.1500 
 19 C      -12.5470     0.2630    -0.4730 C.ar  1 <1>  -0.1430 
 20 C      -11.2300     1.6920     0.9530 C.ar  1 <1>  -0.1500 
 21 C      -12.4500     1.3420     0.4010 C.ar  1 <1>  -0.1500 
 22 C      -13.8940    -0.1310    -1.0990 C.3   1 <1>   1.1630 
 23 F      -14.9350     0.2250    -0.3560 F     1 <1>  -0.3400 
 24 F      -14.0040    -1.4420    -1.2850 F     1 <1>  -0.3400 
 25 F      -14.0740     0.4300    -2.2870 F     1 <1>  -0.3400 
 26 H        1.4580    -1.1350    -2.1730 H     1 <1>   0.0800 
 27 H       -0.1810    -1.6350    -2.6120 H     1 <1>   0.0800 
 28 H        0.6390    -2.3790    -1.2190 H     1 <1>   0.0800 
 29 H       -1.7550    -2.6360    -1.1380 H     1 <1>   0.1500 
 30 H       -1.9460     0.9480     1.1610 H     1 <1>   0.1500 
 31 H       -3.8720    -3.3760    -0.1980 H     1 <1>   0.1500 
 32 H       -4.0830     0.2260     2.1270 H     1 <1>   0.1500 
 33 H       -5.7110    -1.4860     2.4730 H     1 <1>   0.0800 
 34 H       -5.4180    -3.1030     1.8730 H     1 <1>   0.0800 
 35 H       -6.2140    -2.3700    -0.2860 H     1 <1>   0.4500 
 36 H       -5.7270    -0.0420    -0.2060 H     1 <1>   0.0800 
 37 H       -6.9380     0.1640     1.0280 H     1 <1>   0.0800 
 38 H       -8.1880    -1.9450     1.8800 H     1 <1>   0.0800 
 39 H       -7.7480    -3.4920     1.2110 H     1 <1>   0.0800 
 40 H       -7.4010    -0.5830    -1.8610 H     1 <1>   0.0800 
 41 H       -7.9100     0.8640    -1.0530 H     1 <1>   0.0800 
 42 H       -9.9000    -2.5740     0.3270 H     1 <1>   0.0800 
 43 H       -8.7470    -2.9160    -0.9270 H     1 <1>   0.0800 
 44 H      -11.4310    -1.2760    -1.4630 H     1 <1>   0.1500 
 45 H       -9.1580     1.2530     1.0790 H     1 <1>   0.1500 
 46 H      -11.1700     2.5300     1.6280 H     1 <1>   0.1500 
 47 H      -13.3230     1.9200     0.6570 H     1 <1>   0.1500 
@<TRIPOS>BOND
  1   1   2  1   
  2   1   3  1   
  3   2   4  ar  
  4   2   5  ar  
  5   3  26  1   
  6   3  27  1   
  7   3  28  1   
  8   4   6  ar  
  9   4  29  1   
 10   5   7  ar  
 11   5  30  1   
 12   6   8  ar  
 13   6  31  1   
 14   7   8  ar  
 15   7  32  1   
 16   8   9  1   
 17   9  10  1   
 18   9  33  1   
 19   9  34  1   
 20  10  11  1   
 21  10  12  1   
 22  10  35  1   
 23  11  13  1   
 24  11  36  1   
 25  11  37  1   
 26  12  14  1   
 27  12  38  1   
 28  12  39  1   
 29  13  15  1   
 30  13  40  1   
 31  13  41  1   
 32  14  15  1   
 33  14  42  1   
 34  14  43  1   
 35  15  16  1   
 36  16  17  ar  
 37  16  18  ar  
 38  17  19  ar  
 39  17  44  1   
 40  18  20  ar  
 41  18  45  1   
 42  19  21  ar  
 43  19  22  1   
 44  20  21  ar  
 45  20  46  1   
 46  21  47  1   
 47  22  23  1   
 48  22  24  1   
 49  22  25  1   
@<TRIPOS>SUBSTRUCTURE
  1 ****  13 GROUP 4 **** **** 0

# MOE 2024.06 (io_trps.svl 2023.06)
