@<TRIPOS>MOLECULE
NONAME
42 43 1 0 0 
SMALL
USER_CHARGES


@<TRIPOS>ATOM
  1 O        0.0260    -0.2710     0.3840 O.2   1 <1>  -0.5700 
  2 C       -0.0710    -1.4570     0.1250 C.2   1 <1>   0.5440 
  3 N        1.0800    -2.2070     0.0000 N.am  1 <1>  -0.6600 
  4 C       -1.3870    -2.0430    -0.0360 C.ar  1 <1>   0.0860 
  5 C        2.4130    -1.5300    -0.0240 C.3   1 <1>   0.1400 
  6 C        1.0790    -3.7010     0.0770 C.3   1 <1>   0.1400 
  7 C       -1.7280    -2.7840    -1.1680 C.ar  1 <1>  -0.1500 
  8 C       -2.3700    -1.8850     0.9400 C.ar  1 <1>  -0.1500 
  9 C        3.4760    -2.4360    -0.6640 C.3   1 <1>  -0.0800 
 10 C        2.3300    -4.2100     0.8090 C.3   1 <1>  -0.0800 
 11 C       -2.9790    -3.3540    -1.3070 C.ar  1 <1>  -0.1500 
 12 C       -3.6220    -2.4540     0.8030 C.ar  1 <1>  -0.1500 
 13 C        3.6270    -3.7690     0.0980 C.3   1 <1>  -0.1600 
 14 C        4.8270    -1.7160    -0.7710 C.3   1 <1>  -0.2400 
 15 C        2.2940    -5.7340     0.9740 C.3   1 <1>  -0.2400 
 16 C       -3.9480    -3.2060    -0.3210 C.ar  1 <1>   0.1170 
 17 N       -5.2020    -3.7980    -0.5120 N.am  1 <1>  -0.5470 
 18 C       -6.1800    -4.1340     0.3820 C.2   1 <1>   0.5690 
 19 O       -6.0890    -3.9940     1.5740 O.2   1 <1>  -0.5700 
 20 C       -7.4460    -4.7330    -0.1760 C.3   1 <1>  -0.1790 
 21 H        2.6970    -1.2830     0.9840 H     1 <1>   0.0800 
 22 H        2.3340    -0.6130    -0.5830 H     1 <1>   0.0800 
 23 H        1.0540    -4.1040    -0.9200 H     1 <1>   0.0800 
 24 H        0.2020    -4.0370     0.6040 H     1 <1>   0.0800 
 25 H       -0.9940    -2.9060    -1.9450 H     1 <1>   0.1500 
 26 H       -2.1380    -1.3020     1.8150 H     1 <1>   0.1500 
 27 H        3.1420    -2.6520    -1.6660 H     1 <1>   0.0800 
 28 H        2.3170    -3.7740     1.7940 H     1 <1>   0.0800 
 29 H       -3.2040    -3.9210    -2.1920 H     1 <1>   0.1500 
 30 H       -4.3500    -2.3040     1.5800 H     1 <1>   0.1500 
 31 H        4.4000    -3.6850     0.8430 H     1 <1>   0.0800 
 32 H        3.9400    -4.5200    -0.6060 H     1 <1>   0.0800 
 33 H        5.1920    -1.4480     0.2050 H     1 <1>   0.0800 
 34 H        4.7260    -0.8190    -1.3570 H     1 <1>   0.0800 
 35 H        5.5520    -2.3520    -1.2470 H     1 <1>   0.0800 
 36 H        2.2750    -6.2220     0.0150 H     1 <1>   0.0800 
 37 H        1.4180    -6.0290     1.5260 H     1 <1>   0.0800 
 38 H        3.1620    -6.0700     1.5140 H     1 <1>   0.0800 
 39 H       -5.4110    -4.0460    -1.4760 H     1 <1>   0.3700 
 40 H       -7.2270    -5.6660    -0.6600 H     1 <1>   0.0800 
 41 H       -7.8930    -4.0560    -0.8790 H     1 <1>   0.0800 
 42 H       -8.1430    -4.9130     0.6220 H     1 <1>   0.0800 
@<TRIPOS>BOND
  1   1   2  2   
  2   2   3  am  
  3   2   4  1   
  4   3   5  1   
  5   3   6  1   
  6   4   7  ar  
  7   4   8  ar  
  8   5   9  1   
  9   5  21  1   
 10   5  22  1   
 11   6  10  1   
 12   6  23  1   
 13   6  24  1   
 14   7  11  ar  
 15   7  25  1   
 16   8  12  ar  
 17   8  26  1   
 18   9  13  1   
 19   9  14  1   
 20   9  27  1   
 21  10  13  1   
 22  10  15  1   
 23  10  28  1   
 24  11  16  ar  
 25  11  29  1   
 26  12  16  ar  
 27  12  30  1   
 28  13  31  1   
 29  13  32  1   
 30  14  33  1   
 31  14  34  1   
 32  14  35  1   
 33  15  36  1   
 34  15  37  1   
 35  15  38  1   
 36  16  17  1   
 37  17  18  am  
 38  17  39  1   
 39  18  19  2   
 40  18  20  1   
 41  20  40  1   
 42  20  41  1   
 43  20  42  1   
@<TRIPOS>SUBSTRUCTURE
  1 ****   4 GROUP 4 **** **** 0

# MOE 2024.06 (io_trps.svl 2023.06)
