@<TRIPOS>MOLECULE
NONAME
50 53 1 0 0 
SMALL
USER_CHARGES


@<TRIPOS>ATOM
  1 O       -1.6430    -2.1020    -1.9730 O.2   1 <1>  -0.5700 
  2 C       -1.6120    -1.6840    -0.8380 C.2   1 <1>   0.5690 
  3 N       -0.5980    -2.0230    -0.0010 N.am  1 <1>  -0.7300 
  4 C       -2.7360    -0.7710    -0.3040 C.3   1 <1>   0.0610 
  5 C        0.4880    -2.9440    -0.3310 C.3   1 <1>   0.2810 
  6 C       -2.1510     0.5760     0.1950 C.3   1 <1>  -0.1600 
  7 C       -3.4670    -1.4580     0.8780 C.3   1 <1>  -0.1600 
  8 C       -3.7910    -0.4560    -1.3990 C.3   1 <1>  -0.1600 
  9 C        0.4130    -4.2600     0.4970 C.2   1 <1>   0.5690 
 10 C        1.8050    -2.1840    -0.1330 C.3   1 <1>  -0.2400 
 11 C       -3.2610     1.4870     0.7530 C.3   1 <1>  -0.0800 
 12 C       -4.5810    -0.5530     1.4390 C.3   1 <1>  -0.0800 
 13 C       -4.9090     0.4510    -0.8510 C.3   1 <1>  -0.0800 
 14 O        0.9930    -4.3320     1.5810 O.2   1 <1>  -0.5700 
 15 N       -0.3090    -5.3280     0.0280 N.am  1 <1>  -0.6600 
 16 C       -3.9620     0.7710     1.9230 C.3   1 <1>  -0.1600 
 17 C       -4.2900     1.7710    -0.3570 C.3   1 <1>  -0.1600 
 18 C       -5.6020    -0.2580     0.3260 C.3   1 <1>  -0.1600 
 19 C       -1.1710    -5.3400    -1.1770 C.3   1 <1>   0.1400 
 20 C       -0.3760    -6.6170     0.7450 C.3   1 <1>   0.1400 
 21 C       -1.9380    -6.6560    -1.0940 C.3   1 <1>  -0.1600 
 22 C       -1.0680    -7.5630    -0.2290 C.3   1 <1>  -0.1600 
 23 H       -0.6320    -1.6990     0.9500 H     1 <1>   0.3700 
 24 H        0.4350    -3.2180    -1.3850 H     1 <1>   0.0800 
 25 H       -1.6520     1.0730    -0.6190 H     1 <1>   0.0800 
 26 H       -1.4210     0.4030     0.9640 H     1 <1>   0.0800 
 27 H       -2.7700    -1.6850     1.6650 H     1 <1>   0.0800 
 28 H       -3.8910    -2.3890     0.5450 H     1 <1>   0.0800 
 29 H       -4.2210    -1.3740    -1.7620 H     1 <1>   0.0800 
 30 H       -3.3130     0.0260    -2.2340 H     1 <1>   0.0800 
 31 H        1.9040    -1.8750     0.9080 H     1 <1>   0.0800 
 32 H        1.8210    -1.3050    -0.7780 H     1 <1>   0.0800 
 33 H        2.6400    -2.8350    -0.3920 H     1 <1>   0.0800 
 34 H       -2.8340     2.4130     1.0960 H     1 <1>   0.0800 
 35 H       -5.0720    -1.0470     2.2600 H     1 <1>   0.0800 
 36 H       -5.6260     0.6540    -1.6280 H     1 <1>   0.0800 
 37 H       -3.2540     0.5780     2.7100 H     1 <1>   0.0800 
 38 H       -4.7320     1.4050     2.3270 H     1 <1>   0.0800 
 39 H       -3.8110     2.2780    -1.1770 H     1 <1>   0.0800 
 40 H       -5.0630     2.4170     0.0200 H     1 <1>   0.0800 
 41 H       -6.3910     0.3630     0.7110 H     1 <1>   0.0800 
 42 H       -6.0470    -1.1770    -0.0140 H     1 <1>   0.0800 
 43 H       -0.5550    -5.3170    -2.0590 H     1 <1>   0.0800 
 44 H       -1.8460    -4.5020    -1.1810 H     1 <1>   0.0800 
 45 H       -0.9660    -6.4900     1.6370 H     1 <1>   0.0800 
 46 H        0.6090    -6.9620     1.0090 H     1 <1>   0.0800 
 47 H       -2.1240    -7.0700    -2.0690 H     1 <1>   0.0800 
 48 H       -2.8800    -6.4780    -0.6050 H     1 <1>   0.0800 
 49 H       -1.6400    -8.3160     0.2840 H     1 <1>   0.0800 
 50 H       -0.3220    -8.0440    -0.8370 H     1 <1>   0.0800 
@<TRIPOS>BOND
  1   1   2  2   
  2   2   3  am  
  3   2   4  1   
  4   3   5  1   
  5   3  23  1   
  6   4   6  1   
  7   4   7  1   
  8   4   8  1   
  9   5   9  1   
 10   5  10  1   
 11   5  24  1   
 12   6  11  1   
 13   6  25  1   
 14   6  26  1   
 15   7  12  1   
 16   7  27  1   
 17   7  28  1   
 18   8  13  1   
 19   8  29  1   
 20   8  30  1   
 21   9  14  2   
 22   9  15  am  
 23  10  31  1   
 24  10  32  1   
 25  10  33  1   
 26  11  16  1   
 27  11  17  1   
 28  11  34  1   
 29  12  16  1   
 30  12  18  1   
 31  12  35  1   
 32  13  17  1   
 33  13  18  1   
 34  13  36  1   
 35  15  19  1   
 36  15  20  1   
 37  16  37  1   
 38  16  38  1   
 39  17  39  1   
 40  17  40  1   
 41  18  41  1   
 42  18  42  1   
 43  19  21  1   
 44  19  43  1   
 45  19  44  1   
 46  20  22  1   
 47  20  45  1   
 48  20  46  1   
 49  21  22  1   
 50  21  47  1   
 51  21  48  1   
 52  22  49  1   
 53  22  50  1   
@<TRIPOS>SUBSTRUCTURE
  1 ****   2 GROUP 4 **** **** 0

# MOE 2024.06 (io_trps.svl 2023.06)
