@<TRIPOS>MOLECULE
NONAME
50 52 1 0 0 
SMALL
USER_CHARGES


@<TRIPOS>ATOM
  1 S       -0.0440    -0.2370     1.1520 S.o2  1 <1>   1.4470 
  2 O       -0.6290     0.6530     2.1310 O.2   1 <1>  -0.6500 
  3 O        0.4900    -1.5120     1.5850 O.2   1 <1>  -0.6500 
  4 N        1.2360     0.5940     0.4100 N.am  1 <1>  -0.8490 
  5 C       -1.2250    -0.4810    -0.2060 C.ar  1 <1>  -0.0090 
  6 C        2.0080    -0.2730    -0.4850 C.3   1 <1>   0.1960 
  7 C        2.0950     1.2460     1.4010 C.3   1 <1>   0.1960 
  8 C       -1.7950    -1.7300    -0.4470 C.ar  1 <1>  -0.1500 
  9 C       -1.5890     0.5820    -1.0300 C.ar  1 <1>  -0.1500 
 10 C        3.0460     0.5480    -1.2520 C.3   1 <1>  -0.1600 
 11 C        3.1490     2.1120     0.7050 C.3   1 <1>  -0.1600 
 12 C       -2.6980    -1.9210    -1.4810 C.ar  1 <1>  -0.1500 
 13 C       -2.4890     0.4120    -2.0690 C.ar  1 <1>  -0.1500 
 14 C        3.9870     1.2910    -0.2890 C.3   1 <1>  -0.0190 
 15 C       -3.0280    -0.8420    -2.2760 C.ar  1 <1>   0.1900 
 16 C        4.9900     2.1700    -1.0330 C.2   1 <1>   0.5690 
 17 F       -3.8750    -1.0130    -3.2530 F     1 <1>  -0.1900 
 18 O        4.6010     2.9740    -1.8440 O.2   1 <1>  -0.5700 
 19 N        6.3080     2.0280    -0.7590 N.am  1 <1>  -0.7300 
 20 C        7.3740     2.8190    -1.3900 C.3   1 <1>   0.2840 
 21 C        8.6830     2.4280    -0.7320 C.ar  1 <1>  -0.1430 
 22 C        9.1430     3.1170     0.3790 C.ar  1 <1>  -0.1500 
 23 C        9.4270     1.3700    -1.2300 C.ar  1 <1>  -0.1500 
 24 C       10.3330     2.7520     0.9850 C.ar  1 <1>  -0.1500 
 25 C       10.6170     1.0050    -0.6230 C.ar  1 <1>  -0.1500 
 26 C       11.0750     1.6930     0.4880 C.ar  1 <1>  -0.1430 
 27 C       12.3820     1.2950     1.1510 C.3   1 <1>  -0.0970 
 28 H        1.3480    -0.7470    -1.1930 H     1 <1>   0.0800 
 29 H        2.5010    -1.0460     0.0840 H     1 <1>   0.0800 
 30 H        2.5710     0.5010     2.0190 H     1 <1>   0.0800 
 31 H        1.5010     1.8810     2.0390 H     1 <1>   0.0800 
 32 H       -1.5290    -2.5630     0.1840 H     1 <1>   0.1500 
 33 H       -1.1590     1.5550    -0.8520 H     1 <1>   0.1500 
 34 H        2.5330     1.2550    -1.8820 H     1 <1>   0.0800 
 35 H        3.6190    -0.1020    -1.8890 H     1 <1>   0.0800 
 36 H        3.7930     2.5540     1.4440 H     1 <1>   0.0800 
 37 H        2.6510     2.9120     0.1850 H     1 <1>   0.0800 
 38 H       -3.1380    -2.8840    -1.6690 H     1 <1>   0.1500 
 39 H       -2.7700     1.2320    -2.7060 H     1 <1>   0.1500 
 40 H        4.5370     0.5540     0.2690 H     1 <1>   0.0800 
 41 H        6.6460     1.3630    -0.0620 H     1 <1>   0.3700 
 42 H        7.1760     3.8690    -1.2520 H     1 <1>   0.0800 
 43 H        7.4020     2.6120    -2.4460 H     1 <1>   0.0800 
 44 H        8.5760     3.9390     0.7790 H     1 <1>   0.1500 
 45 H        9.0830     0.8240    -2.0910 H     1 <1>   0.1500 
 46 H       10.6800     3.2970     1.8450 H     1 <1>   0.1500 
 47 H       11.1850     0.1830    -1.0210 H     1 <1>   0.1500 
 48 H       12.3520     1.5140     2.2030 H     1 <1>   0.0800 
 49 H       13.1950     1.8380     0.7060 H     1 <1>   0.0800 
 50 H       12.5590     0.2410     1.0300 H     1 <1>   0.0800 
@<TRIPOS>BOND
  1   1   2  2   
  2   1   3  2   
  3   1   4  am  
  4   1   5  1   
  5   4   6  1   
  6   4   7  1   
  7   5   8  ar  
  8   5   9  ar  
  9   6  10  1   
 10   6  28  1   
 11   6  29  1   
 12   7  11  1   
 13   7  30  1   
 14   7  31  1   
 15   8  12  ar  
 16   8  32  1   
 17   9  13  ar  
 18   9  33  1   
 19  10  14  1   
 20  10  34  1   
 21  10  35  1   
 22  11  14  1   
 23  11  36  1   
 24  11  37  1   
 25  12  15  ar  
 26  12  38  1   
 27  13  15  ar  
 28  13  39  1   
 29  14  16  1   
 30  14  40  1   
 31  15  17  1   
 32  16  18  2   
 33  16  19  am  
 34  19  20  1   
 35  19  41  1   
 36  20  21  1   
 37  20  42  1   
 38  20  43  1   
 39  21  22  ar  
 40  21  23  ar  
 41  22  24  ar  
 42  22  44  1   
 43  23  25  ar  
 44  23  45  1   
 45  24  26  ar  
 46  24  46  1   
 47  25  26  ar  
 48  25  47  1   
 49  26  27  1   
 50  27  48  1   
 51  27  49  1   
 52  27  50  1   
@<TRIPOS>SUBSTRUCTURE
  1 ****  14 GROUP 4 **** **** 0

# MOE 2024.06 (io_trps.svl 2023.06)
