@<TRIPOS>MOLECULE
NONAME
41 41 1 0 0 
SMALL
USER_CHARGES


@<TRIPOS>ATOM
  1 O       -0.2150     0.6100     1.1920 O.2   1 <1>  -0.5700 
  2 C       -0.0770     1.5240     0.4020 C.2   1 <1>   0.5440 
  3 N        1.0140     1.5750    -0.4300 N.am  1 <1>  -0.5390 
  4 C       -1.0670     2.5790     0.3210 C.ar  1 <1>   0.0860 
  5 C        2.3140     1.0630    -0.1940 C.2   1 <1>   0.1230 
  6 C       -0.6980     3.9150     0.1460 C.ar  1 <1>  -0.1500 
  7 C       -2.4290     2.2950     0.4140 C.ar  1 <1>  -0.1500 
  8 C        3.3330     2.1190    -0.1820 C.2   1 <1>   0.6160 
  9 C        2.5330    -0.2730    -0.0300 C.2   1 <1>  -0.2760 
 10 C       -1.6480     4.9160     0.0470 C.ar  1 <1>  -0.1500 
 11 C       -3.3830     3.2910     0.3160 C.ar  1 <1>  -0.1500 
 12 O        3.0250     3.2680     0.0850 O.2   1 <1>  -0.5700 
 13 N        4.6170     1.8670    -0.5660 N.am  1 <1>  -0.7300 
 14 C        3.8370    -0.9050     0.4580 C.3   1 <1>  -0.1020 
 15 C        1.4900    -1.3580    -0.2940 C.3   1 <1>  -0.1020 
 16 C       -2.9930     4.6050     0.1290 C.ar  1 <1>  -0.1500 
 17 C        5.7640     2.7890    -0.4640 C.3   1 <1>   0.1400 
 18 C        6.9960     1.9790    -0.0710 C.3   1 <1>  -0.1600 
 19 C        8.2540     2.8590     0.0090 C.3   1 <1>  -0.2660 
 20 C        9.4810     2.0440     0.3430 C.2   1 <1>   0.9060 
 21 O        9.9070     2.0650     1.5000 O.co2 1 <1>  -0.9000 
 22 O        9.9990     1.3760    -0.5560 O.co2 1 <1>  -0.9000 
 23 H        1.0480     2.4440    -0.9640 H     1 <1>   0.3700 
 24 H        0.3460     4.1790     0.0990 H     1 <1>   0.1500 
 25 H       -2.7350     1.2730     0.5650 H     1 <1>   0.1500 
 26 H       -1.3410     5.9390    -0.0890 H     1 <1>   0.1500 
 27 H       -4.4290     3.0450     0.3880 H     1 <1>   0.1500 
 28 H        4.8540     0.9180    -0.8560 H     1 <1>   0.3700 
 29 H        3.6230    -1.6630     1.1910 H     1 <1>   0.0800 
 30 H        4.4810    -0.1900     0.9360 H     1 <1>   0.0800 
 31 H        4.3620    -1.3630    -0.3610 H     1 <1>   0.0800 
 32 H        1.9040    -2.1330    -0.9140 H     1 <1>   0.0800 
 33 H        0.6240    -0.9690    -0.7970 H     1 <1>   0.0800 
 34 H        1.1690    -1.7920     0.6360 H     1 <1>   0.0800 
 35 H       -3.7340     5.3830     0.0520 H     1 <1>   0.1500 
 36 H        5.9240     3.2660    -1.4160 H     1 <1>   0.0800 
 37 H        5.5650     3.5460     0.2760 H     1 <1>   0.0800 
 38 H        6.8390     1.5180     0.8890 H     1 <1>   0.0800 
 39 H        7.1730     1.2050    -0.7990 H     1 <1>   0.0800 
 40 H        8.1370     3.6120     0.7650 H     1 <1>   0.0800 
 41 H        8.4340     3.3410    -0.9330 H     1 <1>   0.0800 
@<TRIPOS>BOND
  1   1   2  2   
  2   2   3  am  
  3   2   4  1   
  4   3   5  1   
  5   3  23  1   
  6   4   6  ar  
  7   4   7  ar  
  8   5   8  1   
  9   5   9  2   
 10   6  10  ar  
 11   6  24  1   
 12   7  11  ar  
 13   7  25  1   
 14   8  12  2   
 15   8  13  am  
 16   9  14  1   
 17   9  15  1   
 18  10  16  ar  
 19  10  26  1   
 20  11  16  ar  
 21  11  27  1   
 22  13  17  1   
 23  13  28  1   
 24  14  29  1   
 25  14  30  1   
 26  14  31  1   
 27  15  32  1   
 28  15  33  1   
 29  15  34  1   
 30  16  35  1   
 31  17  18  1   
 32  17  36  1   
 33  17  37  1   
 34  18  19  1   
 35  18  38  1   
 36  18  39  1   
 37  19  20  1   
 38  19  40  1   
 39  19  41  1   
 40  20  21  ar  
 41  20  22  ar  
@<TRIPOS>SUBSTRUCTURE
  1 ****   8 GROUP 4 **** **** 0

# MOE 2024.06 (io_trps.svl 2023.06)
