@<TRIPOS>MOLECULE
NONAME
41 44 1 0 0 
SMALL
USER_CHARGES


@<TRIPOS>ATOM
  1 N      -10.0830     1.6220    -1.9160 N.ar  1 <1>  -0.6200 
  2 C       -9.2520     2.5510    -1.4860 C.ar  1 <1>   0.1600 
  3 C      -10.6910     0.9150    -0.9770 C.ar  1 <1>   0.1600 
  4 C       -8.9770     2.8080    -0.1500 C.ar  1 <1>  -0.1440 
  5 C      -10.5000     1.0950     0.3820 C.ar  1 <1>  -0.1500 
  6 C       -9.6220     2.0640     0.8200 C.ar  1 <1>  -0.1500 
  7 C       -7.9820     3.8790     0.2200 C.3   1 <1>   0.4870 
  8 N       -6.6780     3.2100     0.4060 N.4   1 <1>  -0.9060 
  9 C       -5.5550     4.1050     0.7630 C.3   1 <1>   0.4230 
 10 C       -5.1900     5.0410    -0.4150 C.3   1 <1>  -0.0800 
 11 C       -4.3260     3.2460     1.1330 C.3   1 <1>  -0.0800 
 12 C       -4.6990     4.2260    -1.6350 C.3   1 <1>  -0.1600 
 13 C       -4.0510     5.9760     0.0400 C.3   1 <1>  -0.1600 
 14 C       -3.8320     2.4300    -0.0850 C.3   1 <1>  -0.1600 
 15 C       -3.1900     4.1870     1.5840 C.3   1 <1>  -0.1600 
 16 C       -3.4710     3.3810    -1.2430 C.3   1 <1>  -0.0800 
 17 C       -2.8150     5.1480     0.4400 C.3   1 <1>  -0.0800 
 18 C       -2.3470     4.3260    -0.7750 C.3   1 <1>  -0.1600 
 19 H       -8.7670     3.1330    -2.2530 H     1 <1>   0.1500 
 20 H      -11.3800     0.1550    -1.3080 H     1 <1>   0.1500 
 21 H      -11.0380     0.4810     1.0830 H     1 <1>   0.1500 
 22 H       -9.4670     2.2170     1.8760 H     1 <1>   0.1500 
 23 H       -8.2900     4.3680     1.1310 H     1 <1>   0.0800 
 24 H       -7.9240     4.6140    -0.5660 H     1 <1>   0.0800 
 25 H       -6.4230     2.7200    -0.4580 H     1 <1>   0.4500 
 26 H       -6.7800     2.4830     1.1210 H     1 <1>   0.4500 
 27 H       -5.8270     4.7030     1.6180 H     1 <1>   0.0800 
 28 H       -6.0300     5.6530    -0.6920 H     1 <1>   0.0800 
 29 H       -4.5660     2.5860     1.9490 H     1 <1>   0.0800 
 30 H       -5.4750     3.5900    -2.0210 H     1 <1>   0.0800 
 31 H       -4.4240     4.9000    -2.4300 H     1 <1>   0.0800 
 32 H       -4.3700     6.5770     0.8750 H     1 <1>   0.0800 
 33 H       -3.7880     6.6500    -0.7580 H     1 <1>   0.0800 
 34 H       -4.5720     1.7200    -0.4090 H     1 <1>   0.0800 
 35 H       -2.9580     1.8640     0.1920 H     1 <1>   0.0800 
 36 H       -2.3250     3.6090     1.8660 H     1 <1>   0.0800 
 37 H       -3.4930     4.7520     2.4500 H     1 <1>   0.0800 
 38 H       -3.1290     2.8130    -2.0920 H     1 <1>   0.0800 
 39 H       -2.0210     5.8050     0.7590 H     1 <1>   0.0800 
 40 H       -2.0670     4.9870    -1.5780 H     1 <1>   0.0800 
 41 H       -1.4730     3.7530    -0.5140 H     1 <1>   0.0800 
@<TRIPOS>BOND
  1   1   2  ar  
  2   1   3  ar  
  3   2   4  ar  
  4   2  19  1   
  5   3   5  ar  
  6   3  20  1   
  7   4   6  ar  
  8   4   7  1   
  9   5   6  ar  
 10   5  21  1   
 11   6  22  1   
 12   7   8  1   
 13   7  23  1   
 14   7  24  1   
 15   8   9  1   
 16   8  25  1   
 17   8  26  1   
 18   9  10  1   
 19   9  11  1   
 20   9  27  1   
 21  10  12  1   
 22  10  13  1   
 23  10  28  1   
 24  11  14  1   
 25  11  15  1   
 26  11  29  1   
 27  12  16  1   
 28  12  30  1   
 29  12  31  1   
 30  13  17  1   
 31  13  32  1   
 32  13  33  1   
 33  14  16  1   
 34  14  34  1   
 35  14  35  1   
 36  15  17  1   
 37  15  36  1   
 38  15  37  1   
 39  16  18  1   
 40  16  38  1   
 41  17  18  1   
 42  17  39  1   
 43  18  40  1   
 44  18  41  1   
@<TRIPOS>SUBSTRUCTURE
  1 ****   8 GROUP 4 **** **** 0

# MOE 2024.06 (io_trps.svl 2023.06)
