@<TRIPOS>MOLECULE
NONAME
40 41 1 0 0 
SMALL
USER_CHARGES


@<TRIPOS>ATOM
  1 O       -0.3360    -0.0460     0.6220 O.2   1 <1>  -0.5700 
  2 C       -0.2380    -1.0800    -0.0120 C.2   1 <1>   0.6900 
  3 N       -1.3560    -1.7260    -0.4770 N.am  1 <1>  -0.6600 
  4 N        0.9770    -1.6520    -0.2500 N.am  1 <1>  -0.5470 
  5 C       -1.3360    -2.7630    -1.5400 C.3   1 <1>   0.1400 
  6 C       -2.7180    -1.3550    -0.0100 C.3   1 <1>   0.1400 
  7 C        2.2850    -1.2410     0.0500 C.ar  1 <1>   0.1170 
  8 C       -1.1660    -4.1740    -0.9580 C.3   1 <1>  -0.1600 
  9 C       -3.2400    -2.3710     1.0120 C.3   1 <1>  -0.1600 
 10 C        3.2820    -2.1930     0.2950 C.ar  1 <1>  -0.1440 
 11 C        2.6140     0.1110     0.0800 C.ar  1 <1>  -0.1500 
 12 C       -1.8390    -4.4330     0.4030 C.3   1 <1>  -0.1600 
 13 C       -3.2520    -3.8390     0.5420 C.3   1 <1>  -0.1600 
 14 C        4.5770    -1.7600     0.5570 C.ar  1 <1>  -0.1500 
 15 C        2.9170    -3.6840     0.2740 C.3   1 <1>  -0.0170 
 16 C        3.9030     0.5260     0.3460 C.ar  1 <1>  -0.1500 
 17 C        4.8880    -0.4120     0.5830 C.ar  1 <1>  -0.1500 
 18 C        4.0200    -4.6530     0.7130 C.3   1 <1>  -0.2400 
 19 H        0.8840    -2.6100    -0.5580 H     1 <1>   0.3700 
 20 H       -0.5470    -2.5550    -2.2430 H     1 <1>   0.0800 
 21 H       -2.2630    -2.7200    -2.0870 H     1 <1>   0.0800 
 22 H       -3.3860    -1.3050    -0.8510 H     1 <1>   0.0800 
 23 H       -2.7010    -0.3780     0.4430 H     1 <1>   0.0800 
 24 H       -0.1180    -4.3930    -0.8670 H     1 <1>   0.0800 
 25 H       -1.5620    -4.8700    -1.6770 H     1 <1>   0.0800 
 26 H       -4.2460    -2.0880     1.2680 H     1 <1>   0.0800 
 27 H       -2.6550    -2.2820     1.9110 H     1 <1>   0.0800 
 28 H        1.8530     0.8470    -0.1080 H     1 <1>   0.1500 
 29 H       -1.2150    -4.0440     1.1890 H     1 <1>   0.0800 
 30 H       -1.8960    -5.4980     0.5480 H     1 <1>   0.0800 
 31 H       -3.7980    -3.9380    -0.3800 H     1 <1>   0.0800 
 32 H       -3.7770    -4.4110     1.2870 H     1 <1>   0.0800 
 33 H        5.3710    -2.4570     0.7480 H     1 <1>   0.1500 
 34 H        2.6150    -3.9470    -0.7240 H     1 <1>   0.0800 
 35 H        2.0730    -3.8340     0.9260 H     1 <1>   0.0800 
 36 H        4.1370     1.5760     0.3670 H     1 <1>   0.1500 
 37 H        5.8950    -0.0950     0.7900 H     1 <1>   0.1500 
 38 H        4.8590    -4.6000     0.0420 H     1 <1>   0.0800 
 39 H        3.6460    -5.6610     0.7050 H     1 <1>   0.0800 
 40 H        4.3470    -4.4210     1.7120 H     1 <1>   0.0800 
@<TRIPOS>BOND
  1   1   2  2   
  2   2   3  am  
  3   2   4  am  
  4   3   5  1   
  5   3   6  1   
  6   4   7  1   
  7   4  19  1   
  8   5   8  1   
  9   5  20  1   
 10   5  21  1   
 11   6   9  1   
 12   6  22  1   
 13   6  23  1   
 14   7  10  ar  
 15   7  11  ar  
 16   8  12  1   
 17   8  24  1   
 18   8  25  1   
 19   9  13  1   
 20   9  26  1   
 21   9  27  1   
 22  10  14  ar  
 23  10  15  1   
 24  11  16  ar  
 25  11  28  1   
 26  12  13  1   
 27  12  29  1   
 28  12  30  1   
 29  13  31  1   
 30  13  32  1   
 31  14  17  ar  
 32  14  33  1   
 33  15  18  1   
 34  15  34  1   
 35  15  35  1   
 36  16  17  ar  
 37  16  36  1   
 38  17  37  1   
 39  18  38  1   
 40  18  39  1   
 41  18  40  1   
@<TRIPOS>SUBSTRUCTURE
  1 ****   4 GROUP 4 **** **** 0

# MOE 2024.06 (io_trps.svl 2023.06)
