@<TRIPOS>MOLECULE
NONAME
43 45 1 0 0 
SMALL
USER_CHARGES


@<TRIPOS>ATOM
  1 O        0.3750    -0.0390     0.1070 O.3   1 <1>  -0.3630 
  2 C        0.3120    -1.4010     0.0920 C.ar  1 <1>   0.0830 
  3 C        1.3150     0.6020     0.9430 C.3   1 <1>   0.0400 
  4 C        1.4430    -2.2500    -0.0920 C.ar  1 <1>   0.3100 
  5 C       -0.9420    -1.9180     0.2580 C.ar  1 <1>  -0.1500 
  6 N        2.6600    -1.6780    -0.2990 N.ar  1 <1>  -0.6200 
  7 C        1.2510    -3.6630    -0.0640 C.ar  1 <1>   0.0000 
  8 C       -1.1390    -3.2920     0.2780 C.ar  1 <1>  -0.1500 
  9 C        3.6990    -2.4400    -0.4540 C.ar  1 <1>   0.4100 
 10 C       -0.0770    -4.1550     0.1270 C.ar  1 <1>   0.0830 
 11 C        2.4140    -4.4680    -0.2450 C.ar  1 <1>  -0.1440 
 12 N        4.9320    -1.8410    -0.6440 N.pl3 1 <1>  -0.8380 
 13 C        3.6030    -3.8380    -0.4380 C.ar  1 <1>  -0.1500 
 14 O       -0.2810    -5.5000     0.1570 O.3   1 <1>  -0.3630 
 15 C        2.4210    -5.9940    -0.2450 C.3   1 <1>  -0.0970 
 16 C        5.0430    -0.5260    -1.3320 C.3   1 <1>   0.2090 
 17 C        6.1170    -2.2470     0.1570 C.3   1 <1>   0.2090 
 18 C       -1.5560    -6.0900     0.2960 C.3   1 <1>   0.0400 
 19 C        5.4010     0.5700    -0.3230 C.3   1 <1>  -0.1600 
 20 C        6.4700    -1.1490     1.1650 C.3   1 <1>  -0.1600 
 21 C        6.6560     0.2140     0.4860 C.3   1 <1>  -0.1600 
 22 H        0.9170     1.5600     1.2240 H     1 <1>   0.0800 
 23 H        2.2280     0.7350     0.3940 H     1 <1>   0.0800 
 24 H        1.4850    -0.0020     1.8170 H     1 <1>   0.0800 
 25 H       -1.7810    -1.2570     0.3780 H     1 <1>   0.1500 
 26 H       -2.1460    -3.6350     0.4160 H     1 <1>   0.1500 
 27 H        4.5070    -4.3890    -0.5980 H     1 <1>   0.1500 
 28 H        1.7990    -6.3650    -1.0390 H     1 <1>   0.0800 
 29 H        2.0570    -6.3640     0.6960 H     1 <1>   0.0800 
 30 H        3.4130    -6.3810    -0.3920 H     1 <1>   0.0800 
 31 H        4.1170    -0.2820    -1.8260 H     1 <1>   0.0800 
 32 H        5.8100    -0.5930    -2.0840 H     1 <1>   0.0800 
 33 H        6.9460    -2.4160    -0.5090 H     1 <1>   0.0800 
 34 H        5.9160    -3.1610     0.6880 H     1 <1>   0.0800 
 35 H       -1.4330    -7.1570     0.2700 H     1 <1>   0.0800 
 36 H       -2.1770    -5.7740    -0.5230 H     1 <1>   0.0800 
 37 H       -1.9770    -5.7940     1.2400 H     1 <1>   0.0800 
 38 H        4.5680     0.7000     0.3440 H     1 <1>   0.0800 
 39 H        5.5530     1.4970    -0.8460 H     1 <1>   0.0800 
 40 H        7.3700    -1.4220     1.6860 H     1 <1>   0.0800 
 41 H        5.6760    -1.0860     1.8890 H     1 <1>   0.0800 
 42 H        6.8370     0.9710     1.2290 H     1 <1>   0.0800 
 43 H        7.5080     0.1760    -0.1710 H     1 <1>   0.0800 
@<TRIPOS>BOND
  1   1   2  1   
  2   1   3  1   
  3   2   4  ar  
  4   2   5  ar  
  5   3  22  1   
  6   3  23  1   
  7   3  24  1   
  8   4   6  ar  
  9   4   7  ar  
 10   5   8  ar  
 11   5  25  1   
 12   6   9  ar  
 13   7  10  ar  
 14   7  11  ar  
 15   8  10  ar  
 16   8  26  1   
 17   9  12  1   
 18   9  13  ar  
 19  10  14  1   
 20  11  13  ar  
 21  11  15  1   
 22  12  16  1   
 23  12  17  1   
 24  13  27  1   
 25  14  18  1   
 26  15  28  1   
 27  15  29  1   
 28  15  30  1   
 29  16  19  1   
 30  16  31  1   
 31  16  32  1   
 32  17  20  1   
 33  17  33  1   
 34  17  34  1   
 35  18  35  1   
 36  18  36  1   
 37  18  37  1   
 38  19  21  1   
 39  19  38  1   
 40  19  39  1   
 41  20  21  1   
 42  20  40  1   
 43  20  41  1   
 44  21  42  1   
 45  21  43  1   
@<TRIPOS>SUBSTRUCTURE
  1 ****   6 GROUP 4 **** **** 0

# MOE 2024.06 (io_trps.svl 2023.06)
