@<TRIPOS>MOLECULE
NONAME
44 45 1 0 0 
SMALL
USER_CHARGES


@<TRIPOS>ATOM
  1 O       -0.3050    -0.5210     0.3000 O.3   1 <1>  -0.3630 
  2 C       -1.5780    -0.9680     0.1520 C.ar  1 <1>   0.0830 
  3 C        0.7970    -1.3300    -0.0270 C.3   1 <1>   0.1200 
  4 C       -1.9070    -2.2330    -0.3270 C.ar  1 <1>  -0.1500 
  5 C       -2.5910    -0.0920     0.5070 C.ar  1 <1>  -0.1500 
  6 C        2.0620    -0.5180     0.2620 C.3   1 <1>  -0.1600 
  7 C       -3.2350    -2.6050    -0.4440 C.ar  1 <1>  -0.1500 
  8 C       -3.9170    -0.4680     0.3890 C.ar  1 <1>  -0.1500 
  9 C        3.3380    -1.3120    -0.0540 C.3   1 <1>  -0.1600 
 10 C       -4.2460    -1.7270    -0.0860 C.ar  1 <1>  -0.1430 
 11 C        4.5780    -0.4640     0.2420 C.3   1 <1>   0.3430 
 12 C       -5.7010    -2.1390    -0.2180 C.3   1 <1>  -0.0970 
 13 N        5.8170    -1.1850    -0.1580 N.4   1 <1>  -0.9590 
 14 C        6.1320    -2.3270     0.7540 C.3   1 <1>   0.3430 
 15 C        6.9640    -0.2330    -0.2470 C.3   1 <1>   0.3430 
 16 C        7.3430    -3.0950     0.2220 C.3   1 <1>  -0.1600 
 17 C        8.1940    -0.9550    -0.8030 C.3   1 <1>  -0.1600 
 18 C        8.5620    -2.1810     0.0420 C.3   1 <1>  -0.1600 
 19 H        0.7300    -1.5870    -1.0700 H     1 <1>   0.0800 
 20 H        0.7560    -2.2160     0.5830 H     1 <1>   0.0800 
 21 H       -1.1520    -2.9390    -0.6120 H     1 <1>   0.1500 
 22 H       -2.3340     0.8840     0.8750 H     1 <1>   0.1500 
 23 H        2.0560    -0.2380     1.3020 H     1 <1>   0.0800 
 24 H        2.0330     0.3780    -0.3340 H     1 <1>   0.0800 
 25 H       -3.4810    -3.5840    -0.8160 H     1 <1>   0.1500 
 26 H       -4.6910     0.2260     0.6670 H     1 <1>   0.1500 
 27 H        3.3270    -1.5870    -1.0950 H     1 <1>   0.0800 
 28 H        3.3430    -2.2050     0.5460 H     1 <1>   0.0800 
 29 H        4.6130    -0.2170     1.2910 H     1 <1>   0.0800 
 30 H        4.5020     0.4570    -0.3150 H     1 <1>   0.0800 
 31 H       -5.8060    -3.2000    -0.0790 H     1 <1>   0.0800 
 32 H       -6.0650    -1.8780    -1.1950 H     1 <1>   0.0800 
 33 H       -6.3020    -1.6400     0.5220 H     1 <1>   0.0800 
 34 H        5.6760    -1.5730    -1.1000 H     1 <1>   0.4500 
 35 H        5.2900    -2.9970     0.8200 H     1 <1>   0.0800 
 36 H        6.3480    -1.9550     1.7430 H     1 <1>   0.0800 
 37 H        7.1910     0.1580     0.7320 H     1 <1>   0.0800 
 38 H        6.7130     0.5920    -0.8930 H     1 <1>   0.0800 
 39 H        7.0900    -3.5580    -0.7160 H     1 <1>   0.0800 
 40 H        7.5900    -3.8840     0.9120 H     1 <1>   0.0800 
 41 H        9.0260    -0.2720    -0.8180 H     1 <1>   0.0800 
 42 H        8.0050    -1.2520    -1.8200 H     1 <1>   0.0800 
 43 H        9.3620    -2.7260    -0.4320 H     1 <1>   0.0800 
 44 H        8.9150    -1.8590     1.0080 H     1 <1>   0.0800 
@<TRIPOS>BOND
  1   1   2  1   
  2   1   3  1   
  3   2   4  ar  
  4   2   5  ar  
  5   3   6  1   
  6   3  19  1   
  7   3  20  1   
  8   4   7  ar  
  9   4  21  1   
 10   5   8  ar  
 11   5  22  1   
 12   6   9  1   
 13   6  23  1   
 14   6  24  1   
 15   7  10  ar  
 16   7  25  1   
 17   8  10  ar  
 18   8  26  1   
 19   9  11  1   
 20   9  27  1   
 21   9  28  1   
 22  10  12  1   
 23  11  13  1   
 24  11  29  1   
 25  11  30  1   
 26  12  31  1   
 27  12  32  1   
 28  12  33  1   
 29  13  14  1   
 30  13  15  1   
 31  13  34  1   
 32  14  16  1   
 33  14  35  1   
 34  14  36  1   
 35  15  17  1   
 36  15  37  1   
 37  15  38  1   
 38  16  18  1   
 39  16  39  1   
 40  16  40  1   
 41  17  18  1   
 42  17  41  1   
 43  17  42  1   
 44  18  43  1   
 45  18  44  1   
@<TRIPOS>SUBSTRUCTURE
  1 ****   3 GROUP 4 **** **** 0

# MOE 2024.06 (io_trps.svl 2023.06)
