@<TRIPOS>MOLECULE
NONAME
43 44 1 0 0 
SMALL
USER_CHARGES


@<TRIPOS>ATOM
  1 CL       0.1380    -0.1090     1.3930 Cl    1 <1>  -0.1770 
  2 C        1.7000    -0.8480     1.1360 C.ar  1 <1>   0.1770 
  3 C        1.9730    -2.0740     1.7120 C.ar  1 <1>  -0.1500 
  4 C        2.6410    -0.1970     0.3630 C.ar  1 <1>  -0.1500 
  5 C        3.2120    -2.6560     1.5060 C.ar  1 <1>  -0.1500 
  6 C        3.8780    -0.7860     0.1640 C.ar  1 <1>  -0.1500 
  7 C        4.1790    -2.0240     0.7290 C.ar  1 <1>   0.1170 
  8 N        5.4230    -2.6530     0.5610 N.am  1 <1>  -0.5470 
  9 C        6.3560    -2.5280    -0.4330 C.2   1 <1>   0.5690 
 10 O        6.2050    -1.8280    -1.4040 O.2   1 <1>  -0.5700 
 11 C        7.6390    -3.3360    -0.3100 C.3   1 <1>  -0.0190 
 12 C        8.8550    -2.4230    -0.5200 C.3   1 <1>   0.1960 
 13 C        7.6610    -4.5140    -1.3010 C.3   1 <1>  -0.1600 
 14 N       10.1050    -3.1910    -0.3860 N.am  1 <1>  -0.8490 
 15 C        9.0210    -5.2230    -1.2490 C.3   1 <1>  -0.1600 
 16 S       11.4620    -2.1740    -0.4040 S.o2  1 <1>   1.3330 
 17 C       10.1730    -4.2280    -1.4230 C.3   1 <1>   0.1960 
 18 O       11.1530    -1.0040     0.3870 O.2   1 <1>  -0.6500 
 19 O       11.8760    -2.0240    -1.7810 O.2   1 <1>  -0.6500 
 20 C       12.6910    -3.1320     0.4890 C.3   1 <1>  -0.0550 
 21 C       14.0440    -2.4170     0.6370 C.3   1 <1>  -0.1600 
 22 C       15.0510    -3.2810     1.4040 C.3   1 <1>  -0.2400 
 23 H        1.2230    -2.5600     2.3100 H     1 <1>   0.1500 
 24 H        2.4100     0.7570    -0.0760 H     1 <1>   0.1500 
 25 H        3.4230    -3.6120     1.9510 H     1 <1>   0.1500 
 26 H        4.6100    -0.2730    -0.4340 H     1 <1>   0.1500 
 27 H        5.6460    -3.3400     1.2770 H     1 <1>   0.3700 
 28 H        7.7040    -3.7250     0.6900 H     1 <1>   0.0800 
 29 H        8.8220    -1.6410     0.2200 H     1 <1>   0.0800 
 30 H        8.8140    -1.9590    -1.4930 H     1 <1>   0.0800 
 31 H        7.4950    -4.1400    -2.2980 H     1 <1>   0.0800 
 32 H        6.8720    -5.2090    -1.0720 H     1 <1>   0.0800 
 33 H        9.0700    -5.9640    -2.0280 H     1 <1>   0.0800 
 34 H        9.1370    -5.7290    -0.3070 H     1 <1>   0.0800 
 35 H       11.1080    -4.7580    -1.3520 H     1 <1>   0.0800 
 36 H       10.1200    -3.7750    -2.4010 H     1 <1>   0.0800 
 37 H       12.8490    -4.0620    -0.0180 H     1 <1>   0.0800 
 38 H       12.3090    -3.3530     1.4670 H     1 <1>   0.0800 
 39 H       13.8990    -1.4850     1.1590 H     1 <1>   0.0800 
 40 H       14.4360    -2.1900    -0.3400 H     1 <1>   0.0800 
 41 H       14.6870    -3.4980     2.3930 H     1 <1>   0.0800 
 42 H       15.9880    -2.7580     1.4940 H     1 <1>   0.0800 
 43 H       15.2270    -4.2070     0.8860 H     1 <1>   0.0800 
@<TRIPOS>BOND
  1   1   2  1   
  2   2   3  ar  
  3   2   4  ar  
  4   3   5  ar  
  5   3  23  1   
  6   4   6  ar  
  7   4  24  1   
  8   5   7  ar  
  9   5  25  1   
 10   6   7  ar  
 11   6  26  1   
 12   7   8  1   
 13   8   9  am  
 14   8  27  1   
 15   9  10  2   
 16   9  11  1   
 17  11  12  1   
 18  11  13  1   
 19  11  28  1   
 20  12  14  1   
 21  12  29  1   
 22  12  30  1   
 23  13  15  1   
 24  13  31  1   
 25  13  32  1   
 26  14  16  am  
 27  14  17  1   
 28  15  17  1   
 29  15  33  1   
 30  15  34  1   
 31  16  18  2   
 32  16  19  2   
 33  16  20  1   
 34  17  35  1   
 35  17  36  1   
 36  20  21  1   
 37  20  37  1   
 38  20  38  1   
 39  21  22  1   
 40  21  39  1   
 41  21  40  1   
 42  22  41  1   
 43  22  42  1   
 44  22  43  1   
@<TRIPOS>SUBSTRUCTURE
  1 ****  11 GROUP 4 **** **** 0

# MOE 2024.06 (io_trps.svl 2023.06)
