@<TRIPOS>MOLECULE
NONAME
50 52 1 0 0 
SMALL
USER_CHARGES


@<TRIPOS>ATOM
  1 S       -0.0600    -0.0500     0.4740 S.o2  1 <1>   1.4470 
  2 O        0.4170    -1.0490    -0.4530 O.2   1 <1>  -0.6500 
  3 O        0.1240    -0.2320     1.8960 O.2   1 <1>  -0.6500 
  4 N        0.7980     1.3670     0.1000 N.am  1 <1>  -0.8490 
  5 C       -1.7820     0.3860     0.0940 C.ar  1 <1>  -0.0090 
  6 C        0.5590     2.4520     1.0780 C.3   1 <1>   0.1960 
  7 C        2.2480     1.0810     0.0020 C.3   1 <1>   0.1960 
  8 C       -2.7460     0.4730     1.0920 C.ar  1 <1>  -0.1500 
  9 C       -2.1790     0.6660    -1.2070 C.ar  1 <1>  -0.1500 
 10 C        1.3000     3.7610     0.7000 C.3   1 <1>   0.3430 
 11 C        3.1070     2.3500    -0.2310 C.3   1 <1>   0.3430 
 12 C       -4.0520     0.8300     0.8020 C.ar  1 <1>  -0.1500 
 13 C       -3.4830     1.0230    -1.4980 C.ar  1 <1>  -0.1500 
 14 N        2.2540     3.5720    -0.4500 N.4   1 <1>  -0.9590 
 15 C       -4.4560     1.1110    -0.5040 C.ar  1 <1>   0.0860 
 16 C        3.0210     4.8070    -0.7560 C.3   1 <1>   0.3430 
 17 C       -5.8210     1.4840    -0.8260 C.2   1 <1>   0.5440 
 18 C        3.6580     4.6870    -2.1350 C.3   1 <1>  -0.2400 
 19 O       -6.0370     2.2880    -1.7090 O.2   1 <1>  -0.5700 
 20 N       -6.8610     0.8990    -0.1420 N.am  1 <1>  -0.5470 
 21 C       -8.2400     1.1620    -0.1540 C.ar  1 <1>   0.1170 
 22 C       -9.1160     0.1560     0.2390 C.ar  1 <1>  -0.1500 
 23 C       -8.7740     2.3950    -0.5200 C.ar  1 <1>  -0.1500 
 24 C      -10.4830     0.3700     0.2640 C.ar  1 <1>  -0.1500 
 25 C      -10.1400     2.6130    -0.4980 C.ar  1 <1>  -0.1500 
 26 C      -10.9970     1.6000    -0.1050 C.ar  1 <1>  -0.1500 
 27 H        0.8860     2.1420     2.0580 H     1 <1>   0.0800 
 28 H       -0.4960     2.6590     1.1450 H     1 <1>   0.0800 
 29 H        2.4210     0.4010    -0.8160 H     1 <1>   0.0800 
 30 H        2.5880     0.5880     0.8990 H     1 <1>   0.0800 
 31 H       -2.4720     0.2580     2.1130 H     1 <1>   0.1500 
 32 H       -1.4580     0.6000    -2.0050 H     1 <1>   0.1500 
 33 H        1.8320     4.1190     1.5660 H     1 <1>   0.0800 
 34 H        0.5680     4.5080     0.4400 H     1 <1>   0.0800 
 35 H        3.7430     2.1820    -1.0840 H     1 <1>   0.0800 
 36 H        3.7460     2.5000     0.6240 H     1 <1>   0.0800 
 37 H       -4.7660     0.9000     1.6050 H     1 <1>   0.1500 
 38 H       -3.7650     1.2390    -2.5170 H     1 <1>   0.1500 
 39 H        1.6570     3.3380    -1.2580 H     1 <1>   0.4500 
 40 H        3.7810     4.9710    -0.0080 H     1 <1>   0.0800 
 41 H        2.3560     5.6560    -0.7540 H     1 <1>   0.0800 
 42 H        4.4070     3.9160    -2.1600 H     1 <1>   0.0800 
 43 H        4.1420     5.6160    -2.3800 H     1 <1>   0.0800 
 44 H        2.9130     4.4950    -2.8870 H     1 <1>   0.0800 
 45 H       -6.5990     0.0830     0.4050 H     1 <1>   0.3700 
 46 H       -8.7320    -0.8050     0.5250 H     1 <1>   0.1500 
 47 H       -8.1230     3.1940    -0.8230 H     1 <1>   0.1500 
 48 H      -11.1480    -0.4190     0.5690 H     1 <1>   0.1500 
 49 H      -10.5340     3.5710    -0.7870 H     1 <1>   0.1500 
 50 H      -12.0600     1.7690    -0.0880 H     1 <1>   0.1500 
@<TRIPOS>BOND
  1   1   2  2   
  2   1   3  2   
  3   1   4  am  
  4   1   5  1   
  5   4   6  1   
  6   4   7  1   
  7   5   8  ar  
  8   5   9  ar  
  9   6  10  1   
 10   6  27  1   
 11   6  28  1   
 12   7  11  1   
 13   7  29  1   
 14   7  30  1   
 15   8  12  ar  
 16   8  31  1   
 17   9  13  ar  
 18   9  32  1   
 19  10  14  1   
 20  10  33  1   
 21  10  34  1   
 22  11  14  1   
 23  11  35  1   
 24  11  36  1   
 25  12  15  ar  
 26  12  37  1   
 27  13  15  ar  
 28  13  38  1   
 29  14  16  1   
 30  14  39  1   
 31  15  17  1   
 32  16  18  1   
 33  16  40  1   
 34  16  41  1   
 35  17  19  2   
 36  17  20  am  
 37  18  42  1   
 38  18  43  1   
 39  18  44  1   
 40  20  21  1   
 41  20  45  1   
 42  21  22  ar  
 43  21  23  ar  
 44  22  24  ar  
 45  22  46  1   
 46  23  25  ar  
 47  23  47  1   
 48  24  26  ar  
 49  24  48  1   
 50  25  26  ar  
 51  25  49  1   
 52  26  50  1   
@<TRIPOS>SUBSTRUCTURE
  1 ****  13 GROUP 4 **** **** 0

# MOE 2024.06 (io_trps.svl 2023.06)
