@<TRIPOS>MOLECULE
NONAME
36 37 1 0 0 
SMALL
USER_CHARGES


@<TRIPOS>ATOM
  1 S       -0.3080    -0.2800    -0.5810 S.o2  1 <1>   1.5010 
  2 O       -0.3700    -0.1880    -2.0210 O.2   1 <1>  -0.6500 
  3 O       -1.0420    -1.3040     0.1270 O.2   1 <1>  -0.6500 
  4 N       -0.9110     1.2010    -0.0780 N.am  1 <1>  -0.9140 
  5 C        1.3960    -0.2350    -0.0160 C.2   1 <1>  -0.0630 
  6 C       -2.3660     1.2290    -0.0400 C.3   1 <1>   0.1960 
  7 C        1.8270    -0.7720     1.1890 C.2   1 <1>   0.1390 
  8 C        2.5220     0.2990    -0.5520 C.2   1 <1>  -0.3020 
  9 C       -2.8460     2.6250     0.3560 C.3   1 <1>  -0.0160 
 10 N        3.0980    -0.5990     1.3900 N.2   1 <1>  -0.7070 
 11 N        3.5310     0.0670     0.3080 N.pl3 1 <1>   0.3140 
 12 C       -4.3650     2.6670     0.3890 C.ar  1 <1>  -0.1430 
 13 C        4.9460     0.4590     0.1440 C.3   1 <1>   0.0960 
 14 C       -5.0430     2.3090     1.5480 C.ar  1 <1>  -0.1500 
 15 C       -5.0770     3.0570    -0.7400 C.ar  1 <1>  -0.1500 
 16 C        5.1500     1.9450     0.4640 C.3   1 <1>  -0.2400 
 17 C       -6.4270     2.3390     1.5850 C.ar  1 <1>  -0.1500 
 18 C       -6.4610     3.0900    -0.7150 C.ar  1 <1>  -0.1500 
 19 C       -7.1110     2.7300     0.4500 C.ar  1 <1>   0.1900 
 20 F       -8.4160     2.7590     0.4790 F     1 <1>  -0.1900 
 21 H       -0.6160     1.8290    -0.8210 H     1 <1>   0.4200 
 22 H       -2.7260     0.5140     0.6830 H     1 <1>   0.0800 
 23 H       -2.7660     0.9650    -1.0060 H     1 <1>   0.0800 
 24 H        1.1800    -1.2800     1.8870 H     1 <1>   0.1500 
 25 H        2.6510     0.8210    -1.4830 H     1 <1>   0.1500 
 26 H       -2.4810     3.3500    -0.3480 H     1 <1>   0.0800 
 27 H       -2.4580     2.8730     1.3290 H     1 <1>   0.0800 
 28 H        5.2450     0.2490    -0.8660 H     1 <1>   0.0800 
 29 H        5.5400    -0.1440     0.8090 H     1 <1>   0.0800 
 30 H       -4.4980     2.0060     2.4250 H     1 <1>   0.1500 
 31 H       -4.5600     3.3350    -1.6420 H     1 <1>   0.1500 
 32 H        4.5750     2.5580    -0.2060 H     1 <1>   0.0800 
 33 H        6.1890     2.2010     0.3570 H     1 <1>   0.0800 
 34 H        4.8520     2.1470     1.4780 H     1 <1>   0.0800 
 35 H       -6.9680     2.0660     2.4730 H     1 <1>   0.1500 
 36 H       -7.0290     3.3890    -1.5770 H     1 <1>   0.1500 
@<TRIPOS>BOND
  1   1   2  2   
  2   1   3  2   
  3   1   4  am  
  4   1   5  1   
  5   4   6  1   
  6   4  21  1   
  7   5   7  1   
  8   5   8  2   
  9   6   9  1   
 10   6  22  1   
 11   6  23  1   
 12   7  10  2   
 13   7  24  1   
 14   8  11  1   
 15   8  25  1   
 16   9  12  1   
 17   9  26  1   
 18   9  27  1   
 19  10  11  1   
 20  11  13  1   
 21  12  14  ar  
 22  12  15  ar  
 23  13  16  1   
 24  13  28  1   
 25  13  29  1   
 26  14  17  ar  
 27  14  30  1   
 28  15  18  ar  
 29  15  31  1   
 30  16  32  1   
 31  16  33  1   
 32  16  34  1   
 33  17  19  ar  
 34  17  35  1   
 35  18  19  ar  
 36  18  36  1   
 37  19  20  1   
@<TRIPOS>SUBSTRUCTURE
  1 ****   4 GROUP 4 **** **** 0

# MOE 2024.06 (io_trps.svl 2023.06)
