@<TRIPOS>MOLECULE
NONAME
38 39 1 0 0 
SMALL
USER_CHARGES


@<TRIPOS>ATOM
  1 O        0.0160     0.3180    -0.3350 O.2   1 <1>  -0.5700 
  2 C       -0.7420     1.2490    -0.4890 C.2   1 <1>   0.5690 
  3 N       -0.3100     2.5490    -0.3690 N.am  1 <1>  -0.6600 
  4 C       -2.1870     0.9210    -0.8490 C.3   1 <1>   0.1810 
  5 C        1.0820     2.8790     0.0580 C.3   1 <1>   0.1400 
  6 C       -1.1740     3.7630    -0.4940 C.3   1 <1>   0.1400 
  7 O       -3.0640     1.3150     0.1890 O.3   1 <1>  -0.2170 
  8 C        1.0590     3.7880     1.2980 C.3   1 <1>   0.1200 
  9 C       -1.0780     4.6150     0.7820 C.3   1 <1>   0.1200 
 10 N       -4.3270     1.4420    -0.1340 N.2   1 <1>  -0.5130 
 11 O        0.2580     4.9160     1.0740 O.3   1 <1>  -0.5600 
 12 C       -5.1170     1.6600     0.8400 C.2   1 <1>   0.3040 
 13 C       -6.5460     1.8370     0.7610 C.ar  1 <1>   0.0860 
 14 C       -7.2330     1.7750    -0.4540 C.ar  1 <1>  -0.1500 
 15 C       -7.2990     2.0770     1.9110 C.ar  1 <1>  -0.1500 
 16 C       -8.6040     1.9450    -0.5220 C.ar  1 <1>  -0.1500 
 17 C       -8.6690     2.2490     1.8510 C.ar  1 <1>  -0.1500 
 18 C       -9.3340     2.1850     0.6380 C.ar  1 <1>   0.0820 
 19 O      -10.6760     2.3640     0.6640 O.3   1 <1>  -0.3630 
 20 C      -11.4480     2.3180    -0.5160 C.3   1 <1>   0.0400 
 21 H       -2.3020    -0.1370    -0.9910 H     1 <1>   0.0800 
 22 H       -2.4650     1.4350    -1.7490 H     1 <1>   0.0800 
 23 H        1.6330     1.9830     0.2860 H     1 <1>   0.0800 
 24 H        1.5900     3.3840    -0.7450 H     1 <1>   0.0800 
 25 H       -0.8390     4.3490    -1.3320 H     1 <1>   0.0800 
 26 H       -2.2020     3.5020    -0.6650 H     1 <1>   0.0800 
 27 H        2.0530     4.1300     1.5260 H     1 <1>   0.0800 
 28 H        0.6730     3.2530     2.1490 H     1 <1>   0.0800 
 29 H       -1.5060     4.0910     1.6190 H     1 <1>   0.0800 
 30 H       -1.6020     5.5450     0.6490 H     1 <1>   0.0800 
 31 H       -4.7110     1.7250     1.8350 H     1 <1>   0.0600 
 32 H       -6.6780     1.5880    -1.3570 H     1 <1>   0.1500 
 33 H       -6.8060     2.1310     2.8660 H     1 <1>   0.1500 
 34 H       -9.0850     1.8880    -1.4800 H     1 <1>   0.1500 
 35 H       -9.2380     2.4340     2.7450 H     1 <1>   0.1500 
 36 H      -12.4760     2.4860    -0.2480 H     1 <1>   0.0800 
 37 H      -11.3410     1.3470    -0.9650 H     1 <1>   0.0800 
 38 H      -11.1130     3.0920    -1.1830 H     1 <1>   0.0800 
@<TRIPOS>BOND
  1   1   2  2   
  2   2   3  am  
  3   2   4  1   
  4   3   5  1   
  5   3   6  1   
  6   4   7  1   
  7   4  21  1   
  8   4  22  1   
  9   5   8  1   
 10   5  23  1   
 11   5  24  1   
 12   6   9  1   
 13   6  25  1   
 14   6  26  1   
 15   7  10  1   
 16   8  11  1   
 17   8  27  1   
 18   8  28  1   
 19   9  11  1   
 20   9  29  1   
 21   9  30  1   
 22  10  12  2   
 23  12  13  1   
 24  12  31  1   
 25  13  14  ar  
 26  13  15  ar  
 27  14  16  ar  
 28  14  32  1   
 29  15  17  ar  
 30  15  33  1   
 31  16  18  ar  
 32  16  34  1   
 33  17  18  ar  
 34  17  35  1   
 35  18  19  1   
 36  19  20  1   
 37  20  36  1   
 38  20  37  1   
 39  20  38  1   
@<TRIPOS>SUBSTRUCTURE
  1 ****  10 GROUP 4 **** **** 0

# MOE 2024.06 (io_trps.svl 2023.06)
