@<TRIPOS>MOLECULE
NONAME
30 31 1 0 0 
SMALL
USER_CHARGES


@<TRIPOS>ATOM
  1 S       -0.1170     0.6970    -0.6070 S.3   1 <1>  -0.0800 
  2 C       -0.2660    -1.0410    -0.3290 C.2   1 <1>   0.4420 
  3 C        1.6040     0.5930    -0.3010 C.ar  1 <1>   0.0400 
  4 N        0.8340    -1.6230    -0.0440 N.2   1 <1>  -0.5650 
  5 N       -1.4760    -1.6830    -0.4210 N.am  1 <1>  -0.4940 
  6 C        2.5400     1.6120    -0.3210 C.ar  1 <1>  -0.1430 
  7 C        1.9020    -0.7290    -0.0210 C.ar  1 <1>   0.2270 
  8 C       -2.7370    -1.2390    -0.6950 C.2   1 <1>   0.5690 
  9 C        3.8510     1.2620    -0.0410 C.ar  1 <1>  -0.1500 
 10 C        2.1440     3.0440    -0.6370 C.3   1 <1>  -0.0960 
 11 C        3.2280    -1.0600     0.2590 C.ar  1 <1>  -0.1440 
 12 O       -3.0140    -0.0900    -0.9240 O.2   1 <1>  -0.5700 
 13 C       -3.8500    -2.2720    -0.7130 C.3   1 <1>  -0.0990 
 14 C        4.1880    -0.0580     0.2450 C.ar  1 <1>  -0.1500 
 15 C        3.6090    -2.4980     0.5730 C.3   1 <1>  -0.0970 
 16 C       -4.1390    -2.8670     0.6750 C.3   1 <1>  -0.2400 
 17 H       -1.3930    -2.6760    -0.2310 H     1 <1>   0.3700 
 18 H        4.6230     2.0120    -0.0420 H     1 <1>   0.1500 
 19 H        1.7080     3.0940    -1.6180 H     1 <1>   0.0800 
 20 H        2.9980     3.6950    -0.6060 H     1 <1>   0.0800 
 21 H        1.4220     3.3900     0.0810 H     1 <1>   0.0800 
 22 H       -3.5870    -3.0560    -1.4000 H     1 <1>   0.0800 
 23 H       -4.7430    -1.8010    -1.0850 H     1 <1>   0.0800 
 24 H        5.2150    -0.2960     0.4580 H     1 <1>   0.1500 
 25 H        3.3560    -3.1310    -0.2590 H     1 <1>   0.0800 
 26 H        3.0690    -2.8360     1.4390 H     1 <1>   0.0800 
 27 H        4.6630    -2.5870     0.7670 H     1 <1>   0.0800 
 28 H       -3.2790    -3.3850     1.0600 H     1 <1>   0.0800 
 29 H       -4.9590    -3.5620     0.6150 H     1 <1>   0.0800 
 30 H       -4.4070    -2.0830     1.3630 H     1 <1>   0.0800 
@<TRIPOS>BOND
  1   1   2  1   
  2   1   3  1   
  3   2   4  2   
  4   2   5  1   
  5   3   6  ar  
  6   3   7  ar  
  7   4   7  1   
  8   5   8  am  
  9   5  17  1   
 10   6   9  ar  
 11   6  10  1   
 12   7  11  ar  
 13   8  12  2   
 14   8  13  1   
 15   9  14  ar  
 16   9  18  1   
 17  10  19  1   
 18  10  20  1   
 19  10  21  1   
 20  11  14  ar  
 21  11  15  1   
 22  13  16  1   
 23  13  22  1   
 24  13  23  1   
 25  14  24  1   
 26  15  25  1   
 27  15  26  1   
 28  15  27  1   
 29  16  28  1   
 30  16  29  1   
 31  16  30  1   
@<TRIPOS>SUBSTRUCTURE
  1 ****   2 GROUP 4 **** **** 0

# MOE 2024.06 (io_trps.svl 2023.06)
