@<TRIPOS>MOLECULE
NONAME
43 44 1 0 0 
SMALL
USER_CHARGES


@<TRIPOS>ATOM
  1 O       -1.1090    -1.2730     1.9050 O.2   1 <1>  -0.5700 
  2 C       -0.6830    -1.7180     0.8700 C.2   1 <1>   0.5690 
  3 N        0.6190    -1.5650     0.5660 N.am  1 <1>  -0.8000 
  4 C       -1.6040    -2.4580    -0.0980 C.3   1 <1>  -0.0190 
  5 C       -2.9430    -1.7200    -0.2960 C.3   1 <1>  -0.1600 
  6 C       -1.8600    -3.9000     0.3770 C.3   1 <1>  -0.1600 
  7 C       -3.8790    -2.4910    -1.2300 C.3   1 <1>   0.1400 
  8 C       -2.8140    -4.6470    -0.5600 C.3   1 <1>   0.1400 
  9 N       -4.0780    -3.8710    -0.7060 N.am  1 <1>  -0.6600 
 10 C       -5.2860    -4.4210    -0.3490 C.2   1 <1>   0.5690 
 11 O       -5.3770    -5.5780    -0.0090 O.2   1 <1>  -0.5700 
 12 C       -6.5540    -3.5720    -0.3780 C.3   1 <1>  -0.0990 
 13 C       -7.8080    -4.2710     0.1830 C.3   1 <1>  -0.1600 
 14 C       -9.0280    -3.3500     0.1360 C.3   1 <1>   0.1200 
 15 O      -10.1300    -4.0490     0.6660 O.3   1 <1>  -0.3620 
 16 C      -11.3560    -3.4760     0.7520 C.ar  1 <1>   0.0820 
 17 C      -11.6380    -2.1770     0.3340 C.ar  1 <1>  -0.1500 
 18 C      -12.3690    -4.2520     1.2940 C.ar  1 <1>  -0.1500 
 19 C      -12.9210    -1.6720     0.4610 C.ar  1 <1>  -0.1500 
 20 C      -13.6500    -3.7460     1.4200 C.ar  1 <1>  -0.1500 
 21 C      -13.9270    -2.4550     1.0030 C.ar  1 <1>  -0.1500 
 22 H        1.2230    -1.0740     1.2260 H     1 <1>   0.3700 
 23 H        1.0620    -1.9230    -0.2790 H     1 <1>   0.3700 
 24 H       -1.1110    -2.5040    -1.0520 H     1 <1>   0.0800 
 25 H       -2.7590    -0.7410    -0.7000 H     1 <1>   0.0800 
 26 H       -3.4320    -1.5930     0.6550 H     1 <1>   0.0800 
 27 H       -2.2890    -3.8850     1.3650 H     1 <1>   0.0800 
 28 H       -0.9300    -4.4350     0.4360 H     1 <1>   0.0800 
 29 H       -3.4410    -2.5540    -2.2120 H     1 <1>   0.0800 
 30 H       -4.8100    -1.9630    -1.3200 H     1 <1>   0.0800 
 31 H       -3.0090    -5.6280    -0.1610 H     1 <1>   0.0800 
 32 H       -2.3630    -4.7690    -1.5300 H     1 <1>   0.0800 
 33 H       -6.7400    -3.2890    -1.3970 H     1 <1>   0.0800 
 34 H       -6.3710    -2.6850     0.1990 H     1 <1>   0.0800 
 35 H       -7.6240    -4.5640     1.2020 H     1 <1>   0.0800 
 36 H       -8.0110    -5.1570    -0.3950 H     1 <1>   0.0800 
 37 H       -9.2600    -3.0750    -0.8780 H     1 <1>   0.0800 
 38 H       -8.8670    -2.4720     0.7370 H     1 <1>   0.0800 
 39 H      -10.8790    -1.5490    -0.0890 H     1 <1>   0.1500 
 40 H      -12.1430    -5.2530     1.6140 H     1 <1>   0.1500 
 41 H      -13.1400    -0.6690     0.1380 H     1 <1>   0.1500 
 42 H      -14.4300    -4.3560     1.8410 H     1 <1>   0.1500 
 43 H      -14.9230    -2.0600     1.1010 H     1 <1>   0.1500 
@<TRIPOS>BOND
  1   1   2  2   
  2   2   3  am  
  3   2   4  1   
  4   3  22  1   
  5   3  23  1   
  6   4   5  1   
  7   4   6  1   
  8   4  24  1   
  9   5   7  1   
 10   5  25  1   
 11   5  26  1   
 12   6   8  1   
 13   6  27  1   
 14   6  28  1   
 15   7   9  1   
 16   7  29  1   
 17   7  30  1   
 18   8   9  1   
 19   8  31  1   
 20   8  32  1   
 21   9  10  am  
 22  10  11  2   
 23  10  12  1   
 24  12  13  1   
 25  12  33  1   
 26  12  34  1   
 27  13  14  1   
 28  13  35  1   
 29  13  36  1   
 30  14  15  1   
 31  14  37  1   
 32  14  38  1   
 33  15  16  1   
 34  16  17  ar  
 35  16  18  ar  
 36  17  19  ar  
 37  17  39  1   
 38  18  20  ar  
 39  18  40  1   
 40  19  21  ar  
 41  19  41  1   
 42  20  21  ar  
 43  20  42  1   
 44  21  43  1   
@<TRIPOS>SUBSTRUCTURE
  1 ****  12 GROUP 4 **** **** 0

# MOE 2024.06 (io_trps.svl 2023.06)
