@<TRIPOS>MOLECULE
NONAME
45 47 1 0 0 
SMALL
USER_CHARGES


@<TRIPOS>ATOM
  1 S       -7.0540    -4.8680     0.0590 S.3   1 <1>  -0.0800 
  2 C       -6.3890    -3.3150     0.4690 C.2   1 <1>  -0.1120 
  3 C       -5.4750    -5.2810    -0.6350 C.2   1 <1>   0.1980 
  4 N       -6.8390    -2.1770     1.0500 N.pl3 1 <1>   0.0480 
  5 C       -5.1140    -3.2380     0.0580 C.2   1 <1>   0.2270 
  6 N       -4.5950    -4.3600    -0.5690 N.2   1 <1>  -0.5650 
  7 C       -5.3300    -6.6630    -1.2280 C.3   1 <1>  -0.0600 
  8 C       -5.7730    -1.2930     0.9910 C.ar  1 <1>  -0.1520 
  9 C       -8.2490    -1.8270     1.2410 C.3   1 <1>   0.0960 
 10 C       -4.6820    -1.9290     0.3810 C.ar  1 <1>   0.0000 
 11 C       -5.6630     0.0330     1.4160 C.ar  1 <1>  -0.1500 
 12 C       -8.7520    -1.2390    -0.0810 C.3   1 <1>   0.3430 
 13 C       -3.4860    -1.2350     0.1920 C.ar  1 <1>  -0.1500 
 14 C       -4.4760     0.7020     1.2190 C.ar  1 <1>  -0.1500 
 15 N      -10.1990    -0.8330    -0.0350 N.4   1 <1>  -0.9590 
 16 C       -3.3840     0.0740     0.6070 C.ar  1 <1>  -0.1430 
 17 C      -11.0970    -2.0230    -0.0040 C.3   1 <1>   0.3430 
 18 C      -10.5310     0.0510    -1.1890 C.3   1 <1>   0.3430 
 19 C       -2.0960     0.8540     0.4150 C.3   1 <1>  -0.0970 
 20 C      -12.4580    -1.6180     0.5500 C.3   1 <1>  -0.2400 
 21 C       -9.9710     1.4470    -0.9420 C.3   1 <1>  -0.2400 
 22 H       -6.0340    -6.7940    -2.0290 H     1 <1>   0.0800 
 23 H       -5.5060    -7.4050    -0.4720 H     1 <1>   0.0800 
 24 H       -4.3340    -6.7870    -1.6140 H     1 <1>   0.0800 
 25 H       -8.3220    -1.1090     2.0360 H     1 <1>   0.0800 
 26 H       -8.7870    -2.7190     1.5040 H     1 <1>   0.0800 
 27 H       -6.4850     0.5280     1.8990 H     1 <1>   0.1500 
 28 H       -8.6060    -1.9630    -0.8670 H     1 <1>   0.0800 
 29 H       -8.1430    -0.3790    -0.3090 H     1 <1>   0.0800 
 30 H       -2.6660    -1.7480    -0.2790 H     1 <1>   0.1500 
 31 H       -4.3740     1.7230     1.5430 H     1 <1>   0.1500 
 32 H      -10.3700    -0.2850     0.8200 H     1 <1>   0.4500 
 33 H      -10.6810    -2.7860     0.6340 H     1 <1>   0.0800 
 34 H      -11.2050    -2.4370    -0.9940 H     1 <1>   0.0800 
 35 H      -11.6000     0.1260    -1.3010 H     1 <1>   0.0800 
 36 H      -10.1270    -0.3580    -2.1030 H     1 <1>   0.0800 
 37 H       -1.3500     0.2480    -0.0670 H     1 <1>   0.0800 
 38 H       -1.7150     1.1720     1.3690 H     1 <1>   0.0800 
 39 H       -2.2800     1.7210    -0.1940 H     1 <1>   0.0800 
 40 H      -12.3630    -1.2070     1.5400 H     1 <1>   0.0800 
 41 H      -13.0830    -2.4910     0.6160 H     1 <1>   0.0800 
 42 H      -12.9550    -0.9110    -0.0890 H     1 <1>   0.0800 
 43 H      -10.3600     1.8610    -0.0290 H     1 <1>   0.0800 
 44 H      -10.2730     2.0910    -1.7490 H     1 <1>   0.0800 
 45 H       -8.8960     1.4480    -0.9140 H     1 <1>   0.0800 
@<TRIPOS>BOND
  1   1   2  1   
  2   1   3  1   
  3   2   4  1   
  4   2   5  2   
  5   3   6  2   
  6   3   7  1   
  7   4   8  1   
  8   4   9  1   
  9   5   6  1   
 10   5  10  1   
 11   7  22  1   
 12   7  23  1   
 13   7  24  1   
 14   8  10  ar  
 15   8  11  ar  
 16   9  12  1   
 17   9  25  1   
 18   9  26  1   
 19  10  13  ar  
 20  11  14  ar  
 21  11  27  1   
 22  12  15  1   
 23  12  28  1   
 24  12  29  1   
 25  13  16  ar  
 26  13  30  1   
 27  14  16  ar  
 28  14  31  1   
 29  15  17  1   
 30  15  18  1   
 31  15  32  1   
 32  16  19  1   
 33  17  20  1   
 34  17  33  1   
 35  17  34  1   
 36  18  21  1   
 37  18  35  1   
 38  18  36  1   
 39  19  37  1   
 40  19  38  1   
 41  19  39  1   
 42  20  40  1   
 43  20  41  1   
 44  20  42  1   
 45  21  43  1   
 46  21  44  1   
 47  21  45  1   
@<TRIPOS>SUBSTRUCTURE
  1 ****   4 GROUP 4 **** **** 0

# MOE 2024.06 (io_trps.svl 2023.06)
