@<TRIPOS>MOLECULE
NONAME
37 37 1 0 0 
SMALL
USER_CHARGES


@<TRIPOS>ATOM
  1 S        0.0510     0.4740    -0.7560 S.o2  1 <1>   1.4470 
  2 O        0.2000     1.5900     0.1490 O.2   1 <1>  -0.6500 
  3 O        0.1920     0.6640    -2.1790 O.2   1 <1>  -0.6500 
  4 N        1.2610    -0.6300    -0.4060 N.am  1 <1>  -0.9140 
  5 C       -1.4660    -0.4440    -0.3800 C.ar  1 <1>  -0.0090 
  6 C        2.5700     0.0120    -0.2100 C.3   1 <1>   0.3370 
  7 C       -1.7220    -0.8990     0.9080 C.ar  1 <1>  -0.1500 
  8 C       -2.4090    -0.7210    -1.3650 C.ar  1 <1>  -0.1500 
  9 C        3.7110    -0.8030    -0.8570 C.2   1 <1>   0.5690 
 10 C        2.8040     0.1570     1.2970 C.3   1 <1>  -0.2400 
 11 C       -2.8750    -1.6060     1.2030 C.ar  1 <1>  -0.1500 
 12 C       -3.5660    -1.4270    -1.0800 C.ar  1 <1>  -0.1500 
 13 O        4.6020    -0.2230    -1.4300 O.2   1 <1>  -0.5700 
 14 N        3.6750    -2.1660    -0.7770 N.am  1 <1>  -0.7300 
 15 C       -3.8050    -1.8750     0.2140 C.ar  1 <1>   0.0830 
 16 C        4.6880    -3.0910    -1.3450 C.3   1 <1>   0.0600 
 17 O       -4.9070    -2.5700     0.5840 O.3   1 <1>  -0.3630 
 18 C       -5.9340    -2.8690    -0.3340 C.3   1 <1>   0.1200 
 19 C       -7.0230    -3.6370     0.4090 C.3   1 <1>  -0.2400 
 20 H        1.3480    -1.1180    -1.2980 H     1 <1>   0.4200 
 21 H        2.5840     0.9870    -0.6700 H     1 <1>   0.0800 
 22 H       -1.0100    -0.6960     1.6900 H     1 <1>   0.1500 
 23 H       -2.2370    -0.3780    -2.3720 H     1 <1>   0.1500 
 24 H        2.7920    -0.8050     1.7750 H     1 <1>   0.0800 
 25 H        2.0540     0.7850     1.7430 H     1 <1>   0.0800 
 26 H        3.7640     0.6110     1.4680 H     1 <1>   0.0800 
 27 H       -3.0620    -1.9520     2.2040 H     1 <1>   0.1500 
 28 H       -4.2650    -1.6160    -1.8740 H     1 <1>   0.1500 
 29 H        2.9190    -2.5960    -0.2350 H     1 <1>   0.3700 
 30 H        5.4410    -2.5380    -1.8820 H     1 <1>   0.0800 
 31 H        4.2150    -3.7790    -2.0240 H     1 <1>   0.0800 
 32 H        5.1630    -3.6430    -0.5530 H     1 <1>   0.0800 
 33 H       -5.5190    -3.4680    -1.1260 H     1 <1>   0.0800 
 34 H       -6.3200    -1.9440    -0.7260 H     1 <1>   0.0800 
 35 H       -6.6220    -4.5510     0.8100 H     1 <1>   0.0800 
 36 H       -7.8230    -3.8810    -0.2660 H     1 <1>   0.0800 
 37 H       -7.4190    -3.0370     1.2080 H     1 <1>   0.0800 
@<TRIPOS>BOND
  1   1   2  2   
  2   1   3  2   
  3   1   4  am  
  4   1   5  1   
  5   4   6  1   
  6   4  20  1   
  7   5   7  ar  
  8   5   8  ar  
  9   6   9  1   
 10   6  10  1   
 11   6  21  1   
 12   7  11  ar  
 13   7  22  1   
 14   8  12  ar  
 15   8  23  1   
 16   9  13  2   
 17   9  14  am  
 18  10  24  1   
 19  10  25  1   
 20  10  26  1   
 21  11  15  ar  
 22  11  27  1   
 23  12  15  ar  
 24  12  28  1   
 25  14  16  1   
 26  14  29  1   
 27  15  17  1   
 28  16  30  1   
 29  16  31  1   
 30  16  32  1   
 31  17  18  1   
 32  18  19  1   
 33  18  33  1   
 34  18  34  1   
 35  19  35  1   
 36  19  36  1   
 37  19  37  1   
@<TRIPOS>SUBSTRUCTURE
  1 ****   5 GROUP 4 **** **** 0

# MOE 2024.06 (io_trps.svl 2023.06)
