@<TRIPOS>MOLECULE
NONAME
38 38 1 0 0 
SMALL
USER_CHARGES


@<TRIPOS>ATOM
  1 O       -0.1770     0.5880    -0.7270 O.2   1 <1>  -0.5700 
  2 C       -0.0610     1.8040    -0.6920 C.2   1 <1>   0.5440 
  3 N       -1.1510     2.5770    -0.9740 N.am  1 <1>  -0.4300 
  4 C        1.2170     2.4210    -0.3920 C.ar  1 <1>   0.0860 
  5 N       -2.5380     2.1070    -0.9620 N.am  1 <1>  -0.4300 
  6 C        2.4120     1.8450    -0.8140 C.ar  1 <1>  -0.1500 
  7 C        1.3080     3.6120     0.3260 C.ar  1 <1>  -0.1500 
  8 C       -3.4090     2.2970     0.0630 C.2   1 <1>   0.5690 
  9 C        3.6330     2.4380    -0.5500 C.ar  1 <1>  -0.1500 
 10 C        2.5290     4.2070     0.5900 C.ar  1 <1>  -0.1500 
 11 O       -3.1840     3.0670     0.9720 O.2   1 <1>  -0.5700 
 12 C       -4.7190     1.5300     0.0590 C.3   1 <1>  -0.0990 
 13 C        3.7200     3.6340     0.1540 C.ar  1 <1>  -0.1430 
 14 C       -5.7170     2.0600    -0.9840 C.3   1 <1>  -0.2400 
 15 C        5.1080     4.2580     0.4240 C.3   1 <1>   0.1440 
 16 C        5.0360     5.5800     1.2070 C.3   1 <1>  -0.2400 
 17 C        5.8100     4.5490    -0.9110 C.3   1 <1>  -0.2400 
 18 C        5.9600     3.2790     1.2450 C.3   1 <1>  -0.2400 
 19 H       -1.0280     3.5920    -1.0520 H     1 <1>   0.3700 
 20 H       -2.7830     1.4490    -1.7070 H     1 <1>   0.3700 
 21 H        2.3770     0.9160    -1.3560 H     1 <1>   0.1500 
 22 H        0.4120     4.0790     0.6960 H     1 <1>   0.1500 
 23 H        4.5230     1.9490    -0.9020 H     1 <1>   0.1500 
 24 H        2.5230     5.1250     1.1470 H     1 <1>   0.1500 
 25 H       -5.1580     1.6030     1.0380 H     1 <1>   0.0800 
 26 H       -4.5120     0.4920    -0.1270 H     1 <1>   0.0800 
 27 H       -5.9330     3.0970    -0.7920 H     1 <1>   0.0800 
 28 H       -6.6360     1.5030    -0.9320 H     1 <1>   0.0800 
 29 H       -5.3150     1.9690    -1.9780 H     1 <1>   0.0800 
 30 H        4.5800     5.4250     2.1680 H     1 <1>   0.0800 
 31 H        4.4670     6.3110     0.6620 H     1 <1>   0.0800 
 32 H        6.0220     5.9790     1.3680 H     1 <1>   0.0800 
 33 H        5.2040     5.2070    -1.5090 H     1 <1>   0.0800 
 34 H        5.9750     3.6450    -1.4680 H     1 <1>   0.0800 
 35 H        6.7630     5.0170    -0.7460 H     1 <1>   0.0800 
 36 H        5.4600     3.0420     2.1670 H     1 <1>   0.0800 
 37 H        6.9180     3.7090     1.4760 H     1 <1>   0.0800 
 38 H        6.1260     2.3640     0.7080 H     1 <1>   0.0800 
@<TRIPOS>BOND
  1   1   2  2   
  2   2   3  am  
  3   2   4  1   
  4   3   5  1   
  5   3  19  1   
  6   4   6  ar  
  7   4   7  ar  
  8   5   8  am  
  9   5  20  1   
 10   6   9  ar  
 11   6  21  1   
 12   7  10  ar  
 13   7  22  1   
 14   8  11  2   
 15   8  12  1   
 16   9  13  ar  
 17   9  23  1   
 18  10  13  ar  
 19  10  24  1   
 20  12  14  1   
 21  12  25  1   
 22  12  26  1   
 23  13  15  1   
 24  14  27  1   
 25  14  28  1   
 26  14  29  1   
 27  15  16  1   
 28  15  17  1   
 29  15  18  1   
 30  16  30  1   
 31  16  31  1   
 32  16  32  1   
 33  17  33  1   
 34  17  34  1   
 35  17  35  1   
 36  18  36  1   
 37  18  37  1   
 38  18  38  1   
@<TRIPOS>SUBSTRUCTURE
  1 ****   4 GROUP 4 **** **** 0

# MOE 2024.06 (io_trps.svl 2023.06)
