@<TRIPOS>MOLECULE
NONAME
38 39 1 0 0 
SMALL
USER_CHARGES


@<TRIPOS>ATOM
  1 CL       1.6610     0.6350    -1.1070 Cl    1 <1>  -0.1770 
  2 C        1.0270    -0.9020    -0.5570 C.ar  1 <1>   0.1770 
  3 C        1.8140    -1.7410     0.2210 C.ar  1 <1>   0.0830 
  4 C       -0.2610    -1.2590    -0.9190 C.ar  1 <1>  -0.1500 
  5 O        3.0640    -1.3740     0.5910 O.3   1 <1>  -0.3630 
  6 C        1.2780    -2.9570     0.6280 C.ar  1 <1>   0.1770 
  7 C       -0.7800    -2.4760    -0.5030 C.ar  1 <1>  -0.1500 
  8 C        4.1040    -1.7320    -0.2800 C.3   1 <1>   0.1200 
  9 CL       2.2340    -4.0570     1.5970 Cl    1 <1>  -0.1770 
 10 C       -0.0080    -3.3280     0.2730 C.ar  1 <1>  -0.1500 
 11 C        5.3920    -1.1500     0.2990 C.3   1 <1>  -0.1600 
 12 C        6.5840    -1.4740    -0.5990 C.3   1 <1>   0.3430 
 13 N        7.8470    -0.9850     0.0210 N.4   1 <1>  -0.9590 
 14 C        7.9530     0.5080    -0.0020 C.3   1 <1>   0.3430 
 15 C        9.0310    -1.6220    -0.6270 C.3   1 <1>   0.3430 
 16 C        9.2060     0.9490     0.7560 C.3   1 <1>  -0.1600 
 17 C       10.3060    -1.2270     0.1210 C.3   1 <1>  -0.1600 
 18 C       10.4740     0.2960     0.1920 C.3   1 <1>  -0.1600 
 19 H       -0.8490    -0.5890    -1.5220 H     1 <1>   0.1500 
 20 H       -1.7820    -2.7590    -0.7810 H     1 <1>   0.1500 
 21 H        3.8880    -1.3210    -1.2520 H     1 <1>   0.0800 
 22 H        4.1440    -2.8080    -0.3340 H     1 <1>   0.0800 
 23 H       -0.3980    -4.2740     0.6020 H     1 <1>   0.1500 
 24 H        5.5470    -1.5740     1.2760 H     1 <1>   0.0800 
 25 H        5.2650    -0.0860     0.3840 H     1 <1>   0.0800 
 26 H        6.4490    -1.0240    -1.5700 H     1 <1>   0.0800 
 27 H        6.6390    -2.5430    -0.7270 H     1 <1>   0.0800 
 28 H        7.8530    -1.2730     1.0080 H     1 <1>   0.4500 
 29 H        7.0860     0.9520     0.4600 H     1 <1>   0.0800 
 30 H        8.0090     0.8540    -1.0220 H     1 <1>   0.0800 
 31 H        9.1040    -1.3000    -1.6540 H     1 <1>   0.0800 
 32 H        8.9280    -2.6960    -0.6140 H     1 <1>   0.0800 
 33 H        9.0980     0.7020     1.7990 H     1 <1>   0.0800 
 34 H        9.2980     2.0200     0.6890 H     1 <1>   0.0800 
 35 H       11.1560    -1.6540    -0.3830 H     1 <1>   0.0800 
 36 H       10.2810    -1.6410     1.1140 H     1 <1>   0.0800 
 37 H       11.3200     0.5430     0.8120 H     1 <1>   0.0800 
 38 H       10.6680     0.6820    -0.7950 H     1 <1>   0.0800 
@<TRIPOS>BOND
  1   1   2  1   
  2   2   3  ar  
  3   2   4  ar  
  4   3   5  1   
  5   3   6  ar  
  6   4   7  ar  
  7   4  19  1   
  8   5   8  1   
  9   6   9  1   
 10   6  10  ar  
 11   7  10  ar  
 12   7  20  1   
 13   8  11  1   
 14   8  21  1   
 15   8  22  1   
 16  10  23  1   
 17  11  12  1   
 18  11  24  1   
 19  11  25  1   
 20  12  13  1   
 21  12  26  1   
 22  12  27  1   
 23  13  14  1   
 24  13  15  1   
 25  13  28  1   
 26  14  16  1   
 27  14  29  1   
 28  14  30  1   
 29  15  17  1   
 30  15  31  1   
 31  15  32  1   
 32  16  18  1   
 33  16  33  1   
 34  16  34  1   
 35  17  18  1   
 36  17  35  1   
 37  17  36  1   
 38  18  37  1   
 39  18  38  1   
@<TRIPOS>SUBSTRUCTURE
  1 ****   8 GROUP 4 **** **** 0

# MOE 2024.06 (io_trps.svl 2023.06)
