@<TRIPOS>MOLECULE
NONAME
42 44 1 0 0 
SMALL
USER_CHARGES


@<TRIPOS>ATOM
  1 BR       0.4410    -0.1790    -1.4520 Br    1 <1>  -0.0580 
  2 C        2.1540     0.6160    -1.0960 C.2   1 <1>   0.1980 
  3 O        2.2150     1.9170    -0.9740 O.3   1 <1>  -0.2800 
  4 C        3.3490     0.0150    -0.9480 C.2   1 <1>  -0.1500 
  5 C        3.4900     2.2320    -0.7330 C.2   1 <1>   0.0550 
  6 C        4.2270     1.0750    -0.7090 C.2   1 <1>  -0.1500 
  7 C        3.8980     3.6070    -0.5450 C.2   1 <1>   0.7150 
  8 O        3.1000     4.5240    -0.5890 O.2   1 <1>  -0.5700 
  9 N        5.2230     3.8620    -0.3090 N.am  1 <1>  -0.5470 
 10 C        5.9900     5.0070    -0.0520 C.ar  1 <1>   0.1170 
 11 C        7.3480     4.7820     0.2170 C.ar  1 <1>   0.1000 
 12 C        5.4950     6.3040    -0.0490 C.ar  1 <1>  -0.1500 
 13 N        7.8520     3.4670     0.2110 N.pl3 1 <1>  -0.8380 
 14 C        8.1730     5.8650     0.4880 C.ar  1 <1>  -0.1500 
 15 C        6.3310     7.3740     0.2210 C.ar  1 <1>  -0.1500 
 16 C        8.8990     3.1800    -0.8160 C.3   1 <1>   0.2090 
 17 C        8.2390     2.9300     1.5530 C.3   1 <1>   0.2090 
 18 C        7.6700     7.1550     0.4900 C.ar  1 <1>  -0.1500 
 19 C        9.1700     1.6690    -0.9220 C.3   1 <1>   0.1400 
 20 C        8.4940     1.4160     1.4840 C.3   1 <1>   0.1400 
 21 N        9.4900     1.0730     0.4170 N.am  1 <1>  -0.6600 
 22 C       10.5910     0.3100     0.7040 C.2   1 <1>   0.5690 
 23 O       10.8090    -0.1040     1.8160 O.2   1 <1>  -0.5700 
 24 C       11.5870    -0.0470    -0.3740 C.3   1 <1>  -0.1790 
 25 H        3.5880    -1.0320    -0.9980 H     1 <1>   0.1500 
 26 H        5.2830     0.9650    -0.5410 H     1 <1>   0.1500 
 27 H        5.8360     3.0470    -0.2690 H     1 <1>   0.3700 
 28 H        4.4570     6.4910    -0.2560 H     1 <1>   0.1500 
 29 H        9.2120     5.7010     0.7010 H     1 <1>   0.1500 
 30 H        5.9360     8.3760     0.2200 H     1 <1>   0.1500 
 31 H        9.8120     3.6860    -0.5550 H     1 <1>   0.0800 
 32 H        8.5710     3.5550    -1.7710 H     1 <1>   0.0800 
 33 H        7.4510     3.1300     2.2590 H     1 <1>   0.0800 
 34 H        9.1300     3.4240     1.9000 H     1 <1>   0.0800 
 35 H        8.3200     7.9870     0.7010 H     1 <1>   0.1500 
 36 H        9.9730     1.5110    -1.6180 H     1 <1>   0.0800 
 37 H        8.2940     1.1860    -1.3170 H     1 <1>   0.0800 
 38 H        7.5680     0.9120     1.2740 H     1 <1>   0.0800 
 39 H        8.8370     1.0790     2.4470 H     1 <1>   0.0800 
 40 H       12.0670     0.8420    -0.7370 H     1 <1>   0.0800 
 41 H       11.0910    -0.5540    -1.1800 H     1 <1>   0.0800 
 42 H       12.3380    -0.7000     0.0310 H     1 <1>   0.0800 
@<TRIPOS>BOND
  1   1   2  1   
  2   2   3  1   
  3   2   4  2   
  4   3   5  1   
  5   4   6  1   
  6   4  25  1   
  7   5   6  2   
  8   5   7  1   
  9   6  26  1   
 10   7   8  2   
 11   7   9  am  
 12   9  10  1   
 13   9  27  1   
 14  10  11  ar  
 15  10  12  ar  
 16  11  13  1   
 17  11  14  ar  
 18  12  15  ar  
 19  12  28  1   
 20  13  16  1   
 21  13  17  1   
 22  14  18  ar  
 23  14  29  1   
 24  15  18  ar  
 25  15  30  1   
 26  16  19  1   
 27  16  31  1   
 28  16  32  1   
 29  17  20  1   
 30  17  33  1   
 31  17  34  1   
 32  18  35  1   
 33  19  21  1   
 34  19  36  1   
 35  19  37  1   
 36  20  21  1   
 37  20  38  1   
 38  20  39  1   
 39  21  22  am  
 40  22  23  2   
 41  22  24  1   
 42  24  40  1   
 43  24  41  1   
 44  24  42  1   
@<TRIPOS>SUBSTRUCTURE
  1 ****  13 GROUP 4 **** **** 0

# MOE 2024.06 (io_trps.svl 2023.06)
