@<TRIPOS>MOLECULE
NONAME
39 41 1 0 0 
SMALL
USER_CHARGES


@<TRIPOS>ATOM
  1 CL       0.8640    -0.3530     2.8280 Cl    1 <1>  -0.1770 
  2 C        2.2860    -0.4610     1.8360 C.ar  1 <1>   0.7970 
  3 N        2.8210     0.6720     1.4980 N.ar  1 <1>  -0.6200 
  4 N        2.6710    -1.6630     1.5350 N.ar  1 <1>  -0.6200 
  5 C        3.8900     0.5350     0.7490 C.ar  1 <1>   0.7200 
  6 C        3.7400    -1.6610     0.7910 C.ar  1 <1>   0.7200 
  7 N        4.3930    -0.6140     0.3710 N.ar  1 <1>  -0.6200 
  8 N        4.5280     1.6840     0.3360 N.pl3 1 <1>  -0.8380 
  9 N        4.1880    -2.8820     0.4430 N.pl3 1 <1>  -0.8690 
 10 C        4.2160     3.0370     0.8830 C.3   1 <1>   0.2090 
 11 C        5.5320     1.7030    -0.7680 C.3   1 <1>   0.2090 
 12 C        5.5590    -3.1750     0.0000 C.3   1 <1>   0.3530 
 13 C        3.6810     3.9290    -0.2420 C.3   1 <1>  -0.1600 
 14 C        5.0170     2.5880    -1.9080 C.3   1 <1>  -0.1600 
 15 C        5.9330    -4.5560     0.5060 C.ar  1 <1>  -0.1430 
 16 C        4.6600     4.0010    -1.4220 C.3   1 <1>  -0.1600 
 17 C        5.8490    -5.6610    -0.3290 C.ar  1 <1>  -0.1500 
 18 C        6.3590    -4.7250     1.8150 C.ar  1 <1>  -0.1500 
 19 C        6.1940    -6.9180     0.1380 C.ar  1 <1>  -0.1500 
 20 C        6.7030    -5.9810     2.2830 C.ar  1 <1>  -0.1500 
 21 C        6.6230    -7.0780     1.4440 C.ar  1 <1>  -0.1500 
 22 H        3.7260    -3.6610     0.9110 H     1 <1>   0.4000 
 23 H        5.1180     3.4650     1.2860 H     1 <1>   0.0800 
 24 H        3.4950     2.9900     1.6800 H     1 <1>   0.0800 
 25 H        5.7240     0.7160    -1.1500 H     1 <1>   0.0800 
 26 H        6.4600     2.0970    -0.3890 H     1 <1>   0.0800 
 27 H        6.2450    -2.4430     0.3930 H     1 <1>   0.0800 
 28 H        5.6010    -3.1410    -1.0750 H     1 <1>   0.0800 
 29 H        3.5030     4.9170     0.1430 H     1 <1>   0.0800 
 30 H        2.7380     3.5310    -0.5740 H     1 <1>   0.0800 
 31 H        4.1460     2.1220    -2.3350 H     1 <1>   0.0800 
 32 H        5.7670     2.6490    -2.6760 H     1 <1>   0.0800 
 33 H        5.5570     4.5090    -1.1120 H     1 <1>   0.0800 
 34 H        4.2190     4.5630    -2.2280 H     1 <1>   0.0800 
 35 H        5.5130    -5.5480    -1.3450 H     1 <1>   0.1500 
 36 H        6.4200    -3.8760     2.4750 H     1 <1>   0.1500 
 37 H        6.1300    -7.7720    -0.5150 H     1 <1>   0.1500 
 38 H        7.0330    -6.1040     3.3000 H     1 <1>   0.1500 
 39 H        6.8910    -8.0550     1.8070 H     1 <1>   0.1500 
@<TRIPOS>BOND
  1   1   2  1   
  2   2   3  ar  
  3   2   4  ar  
  4   3   5  ar  
  5   4   6  ar  
  6   5   7  ar  
  7   5   8  1   
  8   6   7  ar  
  9   6   9  1   
 10   8  10  1   
 11   8  11  1   
 12   9  12  1   
 13   9  22  1   
 14  10  13  1   
 15  10  23  1   
 16  10  24  1   
 17  11  14  1   
 18  11  25  1   
 19  11  26  1   
 20  12  15  1   
 21  12  27  1   
 22  12  28  1   
 23  13  16  1   
 24  13  29  1   
 25  13  30  1   
 26  14  16  1   
 27  14  31  1   
 28  14  32  1   
 29  15  17  ar  
 30  15  18  ar  
 31  16  33  1   
 32  16  34  1   
 33  17  19  ar  
 34  17  35  1   
 35  18  20  ar  
 36  18  36  1   
 37  19  21  ar  
 38  19  37  1   
 39  20  21  ar  
 40  20  38  1   
 41  21  39  1   
@<TRIPOS>SUBSTRUCTURE
  1 ****   7 GROUP 4 **** **** 0

# MOE 2024.06 (io_trps.svl 2023.06)
