@<TRIPOS>MOLECULE
NONAME
48 50 1 0 0 
SMALL
USER_CHARGES


@<TRIPOS>ATOM
  1 S        0.4840     0.1760     1.0040 S.3   1 <1>  -0.3320 
  2 C       -1.0200     1.1030     0.6970 C.ar  1 <1>   0.4120 
  3 C        1.5080     0.4550    -0.5230 C.3   1 <1>   0.1310 
  4 N       -2.0800     0.3400     0.5000 N.ar  1 <1>  -0.6200 
  5 C       -0.9980     2.4960     0.6870 C.ar  1 <1>   0.0730 
  6 C        2.8520    -0.2540    -0.4260 C.2   1 <1>   0.5690 
  7 C       -3.2090     0.9840     0.2720 C.ar  1 <1>   0.1660 
  8 C        0.2040     3.2340     0.9200 C.1   1 <1>   0.4840 
  9 C       -2.1970     3.1450     0.4430 C.ar  1 <1>  -0.1500 
 10 O        3.0080    -1.2320    -1.1190 O.2   1 <1>  -0.5700 
 11 N        3.8590     0.2190     0.3790 N.am  1 <1>  -0.6600 
 12 C       -3.3160     2.3660     0.2330 C.ar  1 <1>  -0.1500 
 13 C       -4.4290     0.1150     0.0470 C.3   1 <1>  -0.0960 
 14 N        1.1780     3.8090     1.0690 N.1   1 <1>  -0.5570 
 15 C        5.2140    -0.3990     0.3400 C.3   1 <1>   0.2840 
 16 C        3.7450     1.3420     1.3480 C.3   1 <1>   0.1400 
 17 C        6.3300     0.6460     0.3900 C.ar  1 <1>  -0.1430 
 18 C        4.6630     2.4810     0.9080 C.3   1 <1>  -0.0170 
 19 C        6.0820     1.9870     0.6620 C.ar  1 <1>  -0.1430 
 20 C        7.6330     0.2280     0.1610 C.ar  1 <1>  -0.1500 
 21 C        7.1330     2.8900     0.7030 C.ar  1 <1>  -0.1500 
 22 C        8.6930     1.1280     0.2010 C.ar  1 <1>   0.0820 
 23 C        8.4410     2.4740     0.4750 C.ar  1 <1>   0.0820 
 24 O        9.9850     0.7490    -0.0210 O.3   1 <1>  -0.3630 
 25 O        9.5010     3.3330     0.5080 O.3   1 <1>  -0.3630 
 26 C       10.3230    -0.5680    -0.3900 C.3   1 <1>   0.0400 
 27 C        9.3330     4.7130     0.7380 C.3   1 <1>   0.0400 
 28 H        1.6510     1.5090    -0.6510 H     1 <1>   0.0800 
 29 H        0.9440     0.0610    -1.3490 H     1 <1>   0.0800 
 30 H       -2.2580     4.2200     0.4190 H     1 <1>   0.1500 
 31 H       -4.2670     2.8310     0.0410 H     1 <1>   0.1500 
 32 H       -4.5940    -0.5020     0.9110 H     1 <1>   0.0800 
 33 H       -4.2630    -0.5220    -0.8030 H     1 <1>   0.0800 
 34 H       -5.3060     0.7090    -0.1290 H     1 <1>   0.0800 
 35 H        5.3270    -0.9820    -0.5580 H     1 <1>   0.0800 
 36 H        5.3130    -1.0620     1.1810 H     1 <1>   0.0800 
 37 H        4.0480     0.9940     2.3210 H     1 <1>   0.0800 
 38 H        2.7380     1.6990     1.4270 H     1 <1>   0.0800 
 39 H        4.6620     3.2400     1.6690 H     1 <1>   0.0800 
 40 H        4.2760     2.9190     0.0050 H     1 <1>   0.0800 
 41 H        7.8060    -0.8100    -0.0470 H     1 <1>   0.1500 
 42 H        6.9130     3.9190     0.9120 H     1 <1>   0.1500 
 43 H       11.3870    -0.6070    -0.5420 H     1 <1>   0.0800 
 44 H        9.8130    -0.8160    -1.3040 H     1 <1>   0.0800 
 45 H       10.0440    -1.2360     0.4060 H     1 <1>   0.0800 
 46 H       10.3020     5.1760     0.7000 H     1 <1>   0.0800 
 47 H        8.8990     4.8540     1.7110 H     1 <1>   0.0800 
 48 H        8.7030     5.1200    -0.0330 H     1 <1>   0.0800 
@<TRIPOS>BOND
  1   1   2  1   
  2   1   3  1   
  3   2   4  ar  
  4   2   5  ar  
  5   3   6  1   
  6   3  28  1   
  7   3  29  1   
  8   4   7  ar  
  9   5   8  1   
 10   5   9  ar  
 11   6  10  2   
 12   6  11  am  
 13   7  12  ar  
 14   7  13  1   
 15   8  14  3   
 16   9  12  ar  
 17   9  30  1   
 18  11  15  1   
 19  11  16  1   
 20  12  31  1   
 21  13  32  1   
 22  13  33  1   
 23  13  34  1   
 24  15  17  1   
 25  15  35  1   
 26  15  36  1   
 27  16  18  1   
 28  16  37  1   
 29  16  38  1   
 30  17  19  ar  
 31  17  20  ar  
 32  18  19  1   
 33  18  39  1   
 34  18  40  1   
 35  19  21  ar  
 36  20  22  ar  
 37  20  41  1   
 38  21  23  ar  
 39  21  42  1   
 40  22  23  ar  
 41  22  24  1   
 42  23  25  1   
 43  24  26  1   
 44  25  27  1   
 45  26  43  1   
 46  26  44  1   
 47  26  45  1   
 48  27  46  1   
 49  27  47  1   
 50  27  48  1   
@<TRIPOS>SUBSTRUCTURE
  1 ****  16 GROUP 4 **** **** 0

# MOE 2024.06 (io_trps.svl 2023.06)
