@<TRIPOS>MOLECULE
NONAME
36 37 1 0 0 
SMALL
USER_CHARGES


@<TRIPOS>ATOM
  1 F        0.4510    -0.3300    -0.3800 F     1 <1>  -0.1900 
  2 C        1.0240    -1.4670    -0.0880 C.ar  1 <1>   0.1900 
  3 C        2.3760    -1.6080    -0.3270 C.ar  1 <1>  -0.1500 
  4 C        0.2530    -2.4800     0.4470 C.ar  1 <1>  -0.1500 
  5 C        3.0000    -2.8110    -0.0220 C.ar  1 <1>   0.1170 
  6 C        0.8700    -3.6820     0.7500 C.ar  1 <1>  -0.1500 
  7 N        4.3740    -2.9380    -0.2820 N.am  1 <1>  -0.5470 
  8 C        2.2270    -3.8410     0.5150 C.ar  1 <1>  -0.1500 
  9 C        5.3130    -3.7830     0.2450 C.2   1 <1>   0.5690 
 10 O        5.0670    -4.5970     1.1010 O.2   1 <1>  -0.5700 
 11 C        6.7430    -3.6550    -0.2850 C.3   1 <1>  -0.0190 
 12 C        7.5440    -4.9690    -0.1710 C.3   1 <1>  -0.1600 
 13 C        7.4960    -2.5190     0.4340 C.3   1 <1>  -0.1600 
 14 C        8.9780    -4.8040    -0.6790 C.3   1 <1>   0.1400 
 15 C        8.9320    -2.3770    -0.0780 C.3   1 <1>   0.1400 
 16 N        9.6360    -3.6830     0.0480 N.am  1 <1>  -0.6600 
 17 C       10.7750    -3.7950     0.8060 C.2   1 <1>   0.5690 
 18 O       11.2810    -2.8450     1.3530 O.2   1 <1>  -0.5700 
 19 C       11.4520    -5.1340     0.9890 C.3   1 <1>  -0.1790 
 20 H        2.9260    -0.7850    -0.7420 H     1 <1>   0.1500 
 21 H       -0.7970    -2.3300     0.6190 H     1 <1>   0.1500 
 22 H        0.2980    -4.4920     1.1680 H     1 <1>   0.1500 
 23 H        4.7410    -2.2500    -0.9350 H     1 <1>   0.3700 
 24 H        2.6840    -4.7850     0.7540 H     1 <1>   0.1500 
 25 H        6.6800    -3.4070    -1.3300 H     1 <1>   0.0800 
 26 H        7.0520    -5.7420    -0.7330 H     1 <1>   0.0800 
 27 H        7.5790    -5.2870     0.8570 H     1 <1>   0.0800 
 28 H        7.5250    -2.7180     1.4920 H     1 <1>   0.0800 
 29 H        6.9800    -1.5860     0.2930 H     1 <1>   0.0800 
 30 H        8.9700    -4.5780    -1.7320 H     1 <1>   0.0800 
 31 H        9.5120    -5.7270    -0.5450 H     1 <1>   0.0800 
 32 H        9.4390    -1.6130     0.4870 H     1 <1>   0.0800 
 33 H        8.9320    -2.0780    -1.1120 H     1 <1>   0.0800 
 34 H       10.7700    -5.8280     1.4420 H     1 <1>   0.0800 
 35 H       12.3050    -5.0220     1.6330 H     1 <1>   0.0800 
 36 H       11.7840    -5.5070     0.0400 H     1 <1>   0.0800 
@<TRIPOS>BOND
  1   1   2  1   
  2   2   3  ar  
  3   2   4  ar  
  4   3   5  ar  
  5   3  20  1   
  6   4   6  ar  
  7   4  21  1   
  8   5   7  1   
  9   5   8  ar  
 10   6   8  ar  
 11   6  22  1   
 12   7   9  am  
 13   7  23  1   
 14   8  24  1   
 15   9  10  2   
 16   9  11  1   
 17  11  12  1   
 18  11  13  1   
 19  11  25  1   
 20  12  14  1   
 21  12  26  1   
 22  12  27  1   
 23  13  15  1   
 24  13  28  1   
 25  13  29  1   
 26  14  16  1   
 27  14  30  1   
 28  14  31  1   
 29  15  16  1   
 30  15  32  1   
 31  15  33  1   
 32  16  17  am  
 33  17  18  2   
 34  17  19  1   
 35  19  34  1   
 36  19  35  1   
 37  19  36  1   
@<TRIPOS>SUBSTRUCTURE
  1 ****   9 GROUP 4 **** **** 0

# MOE 2024.06 (io_trps.svl 2023.06)
