@<TRIPOS>MOLECULE
NONAME
33 34 1 0 0 
SMALL
USER_CHARGES


@<TRIPOS>ATOM
  1 S        0.5420     2.0590    -1.2050 S.3   1 <1>  -0.0800 
  2 C        0.3670     1.9520     0.5410 C.2   1 <1>  -0.1400 
  3 C       -0.9110     1.1090    -1.4570 C.2   1 <1>  -0.1100 
  4 C       -0.7310     1.2390     0.8560 C.2   1 <1>  -0.1500 
  5 C        1.4030     2.6370     1.4220 C.3   1 <1>   0.0810 
  6 C       -1.4580     0.7590    -0.2800 C.2   1 <1>  -0.1500 
  7 C        2.7240     1.8790     1.4960 C.2   1 <1>   0.5690 
  8 O        2.8220     1.0650     2.3870 O.2   1 <1>  -0.5700 
  9 N        3.7680     2.1140     0.6270 N.am  1 <1>  -0.6600 
 10 C        3.7460     3.0570    -0.5270 C.3   1 <1>   0.1400 
 11 C        5.0530     1.3700     0.7660 C.3   1 <1>   0.1400 
 12 C        4.8880     4.0670    -0.3900 C.3   1 <1>  -0.1600 
 13 C        6.2100     2.3620     0.9160 C.3   1 <1>  -0.1600 
 14 C        6.2530     3.3660    -0.2490 C.3   1 <1>  -0.0190 
 15 C        7.3900     4.3700    -0.0690 C.2   1 <1>   0.5690 
 16 O        7.3030     5.2570     0.7400 O.2   1 <1>  -0.5700 
 17 N        8.5020     4.2580    -0.8180 N.am  1 <1>  -0.8000 
 18 H       -1.2040     0.9110    -2.4730 H     1 <1>   0.1500 
 19 H       -1.0670     1.0210     1.8550 H     1 <1>   0.1500 
 20 H        1.0080     2.6870     2.4200 H     1 <1>   0.0800 
 21 H        1.5560     3.6500     1.1060 H     1 <1>   0.0800 
 22 H       -2.3520     0.1740    -0.1540 H     1 <1>   0.1500 
 23 H        2.8160     3.5870    -0.5900 H     1 <1>   0.0800 
 24 H        3.8630     2.4930    -1.4370 H     1 <1>   0.0800 
 25 H        5.1990     0.7590    -0.1080 H     1 <1>   0.0800 
 26 H        5.0300     0.7180     1.6230 H     1 <1>   0.0800 
 27 H        4.7040     4.6830     0.4740 H     1 <1>   0.0800 
 28 H        4.9000     4.7110    -1.2510 H     1 <1>   0.0800 
 29 H        7.1370     1.8190     0.9640 H     1 <1>   0.0800 
 30 H        6.0940     2.8900     1.8470 H     1 <1>   0.0800 
 31 H        6.4360     2.8170    -1.1560 H     1 <1>   0.0800 
 32 H        9.2560     4.9320    -0.6810 H     1 <1>   0.3700 
 33 H        8.6610     3.5320    -1.5140 H     1 <1>   0.3700 
@<TRIPOS>BOND
  1   1   2  1   
  2   1   3  1   
  3   2   4  2   
  4   2   5  1   
  5   3   6  2   
  6   3  18  1   
  7   4   6  1   
  8   4  19  1   
  9   5   7  1   
 10   5  20  1   
 11   5  21  1   
 12   6  22  1   
 13   7   8  2   
 14   7   9  am  
 15   9  10  1   
 16   9  11  1   
 17  10  12  1   
 18  10  23  1   
 19  10  24  1   
 20  11  13  1   
 21  11  25  1   
 22  11  26  1   
 23  12  14  1   
 24  12  27  1   
 25  12  28  1   
 26  13  14  1   
 27  13  29  1   
 28  13  30  1   
 29  14  15  1   
 30  14  31  1   
 31  15  16  2   
 32  15  17  am  
 33  17  32  1   
 34  17  33  1   
@<TRIPOS>SUBSTRUCTURE
  1 ****   9 GROUP 4 **** **** 0

# MOE 2024.06 (io_trps.svl 2023.06)
