@<TRIPOS>MOLECULE
NONAME
43 44 1 0 0 
SMALL
USER_CHARGES


@<TRIPOS>ATOM
  1 O        0.5560     0.8460     1.1480 O.2   1 <1>  -0.5700 
  2 C        0.8050     1.5950     0.2350 C.2   1 <1>   0.5690 
  3 N       -0.1390     2.3620    -0.3930 N.am  1 <1>  -0.5470 
  4 C        2.2500     1.7220    -0.2490 C.3   1 <1>  -0.0190 
  5 C       -1.5280     2.4540    -0.2030 C.ar  1 <1>   0.1170 
  6 C        2.9800     0.3630    -0.2830 C.3   1 <1>  -0.1600 
  7 C        3.0370     2.7190     0.6220 C.3   1 <1>  -0.1600 
  8 C       -2.2840     1.4470     0.3900 C.ar  1 <1>  -0.1500 
  9 C       -2.1860     3.5970    -0.6450 C.ar  1 <1>  -0.1500 
 10 C        4.4340     0.5130    -0.7360 C.3   1 <1>   0.1400 
 11 C        4.4930     2.8460     0.1650 C.3   1 <1>   0.1400 
 12 C       -3.6520     1.5830     0.5390 C.ar  1 <1>  -0.1500 
 13 C       -3.5550     3.7380    -0.5000 C.ar  1 <1>  -0.1500 
 14 N        5.1280     1.4990     0.1380 N.am  1 <1>  -0.6600 
 15 C       -4.2990     2.7250     0.0970 C.ar  1 <1>   0.0820 
 16 C        6.2430     1.2340     0.8940 C.2   1 <1>   0.5690 
 17 O       -5.6440     2.7770     0.2820 O.3   1 <1>  -0.3630 
 18 O        6.7870     2.0820     1.5590 O.2   1 <1>  -0.5700 
 19 C        6.8440    -0.1520     0.9240 C.3   1 <1>  -0.1790 
 20 C       -6.3890     3.9060    -0.1110 C.3   1 <1>   0.1200 
 21 C       -7.8510     3.6530     0.2440 C.3   1 <1>  -0.2400 
 22 H        0.2270     3.0060    -1.0890 H     1 <1>   0.3700 
 23 H        2.2310     2.1020    -1.2550 H     1 <1>   0.0800 
 24 H        2.4640    -0.3070    -0.9470 H     1 <1>   0.0800 
 25 H        2.9700    -0.0810     0.6990 H     1 <1>   0.0800 
 26 H        3.0250     2.3900     1.6480 H     1 <1>   0.0800 
 27 H        2.5700     3.6870     0.5870 H     1 <1>   0.0800 
 28 H       -1.8100     0.5480     0.7380 H     1 <1>   0.1500 
 29 H       -1.6250     4.3880    -1.1060 H     1 <1>   0.1500 
 30 H        4.4650     0.8680    -1.7530 H     1 <1>   0.0800 
 31 H        4.9160    -0.4470    -0.7080 H     1 <1>   0.0800 
 32 H        5.0210     3.5040     0.8350 H     1 <1>   0.0800 
 33 H        4.5390     3.2740    -0.8210 H     1 <1>   0.0800 
 34 H       -4.2280     0.8010     1.0010 H     1 <1>   0.1500 
 35 H       -4.0220     4.6370    -0.8540 H     1 <1>   0.1500 
 36 H        6.1150    -0.8570     1.2740 H     1 <1>   0.0800 
 37 H        7.6850    -0.1660     1.5930 H     1 <1>   0.0800 
 38 H        7.1810    -0.4250    -0.0570 H     1 <1>   0.0800 
 39 H       -6.2730     4.0380    -1.1730 H     1 <1>   0.0800 
 40 H       -6.0120     4.7640     0.4180 H     1 <1>   0.0800 
 41 H       -8.2120     2.7840    -0.2760 H     1 <1>   0.0800 
 42 H       -8.4470     4.5000    -0.0440 H     1 <1>   0.0800 
 43 H       -7.9520     3.5050     1.3040 H     1 <1>   0.0800 
@<TRIPOS>BOND
  1   1   2  2   
  2   2   3  am  
  3   2   4  1   
  4   3   5  1   
  5   3  22  1   
  6   4   6  1   
  7   4   7  1   
  8   4  23  1   
  9   5   8  ar  
 10   5   9  ar  
 11   6  10  1   
 12   6  24  1   
 13   6  25  1   
 14   7  11  1   
 15   7  26  1   
 16   7  27  1   
 17   8  12  ar  
 18   8  28  1   
 19   9  13  ar  
 20   9  29  1   
 21  10  14  1   
 22  10  30  1   
 23  10  31  1   
 24  11  14  1   
 25  11  32  1   
 26  11  33  1   
 27  12  15  ar  
 28  12  34  1   
 29  13  15  ar  
 30  13  35  1   
 31  14  16  am  
 32  15  17  1   
 33  16  18  2   
 34  16  19  1   
 35  17  20  1   
 36  19  36  1   
 37  19  37  1   
 38  19  38  1   
 39  20  21  1   
 40  20  39  1   
 41  20  40  1   
 42  21  41  1   
 43  21  42  1   
 44  21  43  1   
@<TRIPOS>SUBSTRUCTURE
  1 ****   2 GROUP 4 **** **** 0

# MOE 2024.06 (io_trps.svl 2023.06)
