@<TRIPOS>MOLECULE
NONAME
34 35 1 0 0 
SMALL
USER_CHARGES


@<TRIPOS>ATOM
  1 O       -0.3520    -0.0700    -2.1420 O.2   1 <1>  -0.5700 
  2 C        0.5920     0.1340    -1.4120 C.2   1 <1>   0.6900 
  3 N        1.3680    -0.8310    -0.8350 N.am  1 <1>  -0.4200 
  4 N        0.9930     1.3700    -1.0560 N.am  1 <1>  -0.7300 
  5 C        2.3000    -0.2390    -0.0340 C.2   1 <1>   0.5690 
  6 C        1.1110    -2.2880    -0.9120 C.3   1 <1>   0.1400 
  7 C        2.0860     1.2870    -0.0800 C.3   1 <1>   0.3610 
  8 O        3.1530    -0.8120     0.6040 O.2   1 <1>  -0.5700 
  9 C        0.7290    -2.8710     0.4560 C.3   1 <1>   0.1200 
 10 C        3.2930     2.0530    -0.6270 C.3   1 <1>  -0.2400 
 11 C        1.6000     1.8610     1.2520 C.3   1 <1>  -0.2400 
 12 O       -0.3870    -2.1830     0.9870 O.3   1 <1>  -0.3620 
 13 C       -1.6120    -2.6510     0.6680 C.ar  1 <1>   0.0820 
 14 C       -2.4530    -1.8680    -0.1060 C.ar  1 <1>  -0.1500 
 15 C       -2.0350    -3.8940     1.1170 C.ar  1 <1>  -0.1500 
 16 C       -3.7100    -2.3340    -0.4480 C.ar  1 <1>  -0.1500 
 17 C       -3.2940    -4.3590     0.7740 C.ar  1 <1>  -0.1500 
 18 C       -4.1300    -3.5790    -0.0100 C.ar  1 <1>  -0.1500 
 19 H        0.3980     2.1880    -1.1680 H     1 <1>   0.3700 
 20 H        2.0010    -2.7760    -1.2700 H     1 <1>   0.0800 
 21 H        0.3190    -2.4810    -1.6160 H     1 <1>   0.0800 
 22 H        1.5430    -2.7600     1.1510 H     1 <1>   0.0800 
 23 H        0.4980    -3.9170     0.3680 H     1 <1>   0.0800 
 24 H        3.5850     1.6550    -1.5820 H     1 <1>   0.0800 
 25 H        4.1230     1.9500     0.0490 H     1 <1>   0.0800 
 26 H        3.0630     3.0980    -0.7330 H     1 <1>   0.0800 
 27 H        0.7290     1.3290     1.5920 H     1 <1>   0.0800 
 28 H        1.3660     2.9060     1.1540 H     1 <1>   0.0800 
 29 H        2.3700     1.7500     1.9950 H     1 <1>   0.0800 
 30 H       -2.1210    -0.9020    -0.4400 H     1 <1>   0.1500 
 31 H       -1.3880    -4.4890     1.7350 H     1 <1>   0.1500 
 32 H       -4.3590    -1.7260    -1.0540 H     1 <1>   0.1500 
 33 H       -3.6250    -5.3230     1.1190 H     1 <1>   0.1500 
 34 H       -5.1080    -3.9400    -0.2770 H     1 <1>   0.1500 
@<TRIPOS>BOND
  1   1   2  2   
  2   2   3  am  
  3   2   4  am  
  4   3   5  am  
  5   3   6  1   
  6   4   7  1   
  7   4  19  1   
  8   5   7  1   
  9   5   8  2   
 10   6   9  1   
 11   6  20  1   
 12   6  21  1   
 13   7  10  1   
 14   7  11  1   
 15   9  12  1   
 16   9  22  1   
 17   9  23  1   
 18  10  24  1   
 19  10  25  1   
 20  10  26  1   
 21  11  27  1   
 22  11  28  1   
 23  11  29  1   
 24  12  13  1   
 25  13  14  ar  
 26  13  15  ar  
 27  14  16  ar  
 28  14  30  1   
 29  15  17  ar  
 30  15  31  1   
 31  16  18  ar  
 32  16  32  1   
 33  17  18  ar  
 34  17  33  1   
 35  18  34  1   
@<TRIPOS>SUBSTRUCTURE
  1 ****  12 GROUP 4 **** **** 0

# MOE 2024.06 (io_trps.svl 2023.06)
