@<TRIPOS>MOLECULE
NONAME
35 36 1 0 0 
SMALL
USER_CHARGES


@<TRIPOS>ATOM
  1 CL       0.8400     0.9050    -2.0580 Cl    1 <1>  -0.1770 
  2 C        1.9070    -0.1820    -1.2060 C.ar  1 <1>   0.1770 
  3 C        3.2120     0.2020    -0.9690 C.ar  1 <1>  -0.1500 
  4 C        1.4260    -1.4070    -0.7840 C.ar  1 <1>  -0.1500 
  5 C        4.0740    -0.6510    -0.2920 C.ar  1 <1>   0.1170 
  6 C        2.2770    -2.2640    -0.1080 C.ar  1 <1>  -0.1500 
  7 N        5.3890    -0.2310    -0.0510 N.am  1 <1>  -0.5470 
  8 C        3.5870    -1.8850     0.1350 C.ar  1 <1>  -0.1500 
  9 C        6.5390    -0.9400     0.1440 C.2   1 <1>   0.6900 
 10 O        6.5700    -2.1470    -0.0040 O.2   1 <1>  -0.5700 
 11 N        7.6790    -0.2520     0.4730 N.am  1 <1>  -0.6600 
 12 C        9.0220    -0.8200     0.1890 C.3   1 <1>   0.1400 
 13 C        7.6940     1.0370     1.2120 C.3   1 <1>   0.1400 
 14 C        9.8350     0.1940    -0.6220 C.3   1 <1>  -0.1600 
 15 C        8.4780     2.0710     0.4020 C.3   1 <1>  -0.1600 
 16 C        9.8990     1.5700     0.0710 C.3   1 <1>  -0.0190 
 17 C       10.6650     2.5760    -0.7860 C.2   1 <1>   0.5690 
 18 O       10.1500     3.0730    -1.7530 O.2   1 <1>  -0.5700 
 19 N       11.9270     2.9060    -0.4580 N.am  1 <1>  -0.8000 
 20 H        3.5500     1.1600    -1.3140 H     1 <1>   0.1500 
 21 H        0.4060    -1.6820    -0.9840 H     1 <1>   0.1500 
 22 H        1.9250    -3.2240     0.2290 H     1 <1>   0.1500 
 23 H        5.5740     0.7550    -0.1930 H     1 <1>   0.3700 
 24 H        4.2380    -2.5580     0.6650 H     1 <1>   0.1500 
 25 H        8.9340    -1.7380    -0.3690 H     1 <1>   0.0800 
 26 H        9.5160    -1.0400     1.1200 H     1 <1>   0.0800 
 27 H        8.1700     0.8830     2.1660 H     1 <1>   0.0800 
 28 H        6.6950     1.3900     1.3990 H     1 <1>   0.0800 
 29 H        9.3820     0.3010    -1.5930 H     1 <1>   0.0800 
 30 H       10.8300    -0.1860    -0.7690 H     1 <1>   0.0800 
 31 H        8.5410     2.9890     0.9590 H     1 <1>   0.0800 
 32 H        7.9440     2.2780    -0.5090 H     1 <1>   0.0800 
 33 H       10.4300     1.4510     0.9980 H     1 <1>   0.0800 
 34 H       12.4270     3.5750    -1.0450 H     1 <1>   0.3700 
 35 H       12.4400     2.5220     0.3340 H     1 <1>   0.3700 
@<TRIPOS>BOND
  1   1   2  1   
  2   2   3  ar  
  3   2   4  ar  
  4   3   5  ar  
  5   3  20  1   
  6   4   6  ar  
  7   4  21  1   
  8   5   7  1   
  9   5   8  ar  
 10   6   8  ar  
 11   6  22  1   
 12   7   9  am  
 13   7  23  1   
 14   8  24  1   
 15   9  10  2   
 16   9  11  am  
 17  11  12  1   
 18  11  13  1   
 19  12  14  1   
 20  12  25  1   
 21  12  26  1   
 22  13  15  1   
 23  13  27  1   
 24  13  28  1   
 25  14  16  1   
 26  14  29  1   
 27  14  30  1   
 28  15  16  1   
 29  15  31  1   
 30  15  32  1   
 31  16  17  1   
 32  16  33  1   
 33  17  18  2   
 34  17  19  am  
 35  19  34  1   
 36  19  35  1   
@<TRIPOS>SUBSTRUCTURE
  1 ****   7 GROUP 4 **** **** 0

# MOE 2024.06 (io_trps.svl 2023.06)
