@<TRIPOS>MOLECULE
NONAME
48 50 1 0 0 
SMALL
USER_CHARGES


@<TRIPOS>ATOM
  1 S       -0.2380     0.1450     0.5240 S.o2  1 <1>   1.4470 
  2 O        0.0410     0.2050     1.9440 O.2   1 <1>  -0.6500 
  3 O        0.3970     1.0910    -0.3670 O.2   1 <1>  -0.6500 
  4 N        0.1900    -1.4110     0.0020 N.am  1 <1>  -0.8490 
  5 C       -2.0270     0.1880     0.2350 C.ar  1 <1>  -0.0090 
  6 C        1.6350    -1.5160    -0.2230 C.3   1 <1>   0.1960 
  7 C       -0.2700    -2.4480     0.9330 C.3   1 <1>   0.1960 
  8 C       -2.5510    -0.1230    -1.0140 C.ar  1 <1>  -0.1500 
  9 C       -2.9160     0.5330     1.2470 C.ar  1 <1>  -0.1500 
 10 C        1.9830    -2.8770    -0.8360 C.3   1 <1>  -0.1600 
 11 C       -0.0030    -3.8390     0.3510 C.3   1 <1>  -0.1600 
 12 C       -3.9130    -0.0960    -1.2550 C.ar  1 <1>  -0.1500 
 13 C       -4.2800     0.5630     1.0190 C.ar  1 <1>  -0.1500 
 14 C        1.4850    -4.0330     0.0380 C.3   1 <1>  -0.1600 
 15 C       -4.7880     0.2510    -0.2310 C.ar  1 <1>   0.0820 
 16 O       -6.1320     0.3060    -0.3740 O.3   1 <1>  -0.3630 
 17 C       -6.7550     0.0520    -1.6270 C.3   1 <1>   0.1810 
 18 C       -8.2650     0.2150    -1.5280 C.2   1 <1>   0.5690 
 19 O       -8.9230     0.0040    -2.5180 O.2   1 <1>  -0.5700 
 20 N       -8.7920     0.5920    -0.3230 N.am  1 <1>  -0.5470 
 21 C      -10.1070     0.8340     0.1260 C.ar  1 <1>   0.1170 
 22 C      -10.3250     1.2090     1.4520 C.ar  1 <1>   0.1900 
 23 C      -11.2340     0.7240    -0.6840 C.ar  1 <1>  -0.1500 
 24 F       -9.2940     1.3260     2.2540 F     1 <1>  -0.1900 
 25 C      -11.5790     1.4640     1.9720 C.ar  1 <1>  -0.1500 
 26 C      -12.5020     0.9760    -0.1840 C.ar  1 <1>  -0.1500 
 27 C      -12.6800     1.3450     1.1410 C.ar  1 <1>  -0.1500 
 28 H        2.1610    -1.3820     0.7080 H     1 <1>   0.0800 
 29 H        1.9560    -0.7430    -0.9030 H     1 <1>   0.0800 
 30 H       -1.3280    -2.3400     1.1060 H     1 <1>   0.0800 
 31 H        0.2380    -2.3460     1.8790 H     1 <1>   0.0800 
 32 H       -1.8740    -0.3910    -1.8090 H     1 <1>   0.1500 
 33 H       -2.5360     0.7820     2.2240 H     1 <1>   0.1500 
 34 H        3.0480    -2.9500    -0.9610 H     1 <1>   0.0800 
 35 H        1.5330    -2.9390    -1.8120 H     1 <1>   0.0800 
 36 H       -0.5840    -3.9570    -0.5480 H     1 <1>   0.0800 
 37 H       -0.3260    -4.5880     1.0520 H     1 <1>   0.0800 
 38 H       -4.2650    -0.3450    -2.2380 H     1 <1>   0.1500 
 39 H       -4.9560     0.8320     1.8110 H     1 <1>   0.1500 
 40 H        2.0440    -4.0530     0.9580 H     1 <1>   0.0800 
 41 H        1.6370    -4.9710    -0.4680 H     1 <1>   0.0800 
 42 H       -6.5260    -0.9550    -1.9250 H     1 <1>   0.0800 
 43 H       -6.3700     0.7490    -2.3480 H     1 <1>   0.0800 
 44 H       -8.0770     0.7210     0.4000 H     1 <1>   0.3700 
 45 H      -11.1340     0.4390    -1.7160 H     1 <1>   0.1500 
 46 H      -11.6900     1.7490     3.0020 H     1 <1>   0.1500 
 47 H      -13.3570     0.8830    -0.8320 H     1 <1>   0.1500 
 48 H      -13.6690     1.5390     1.5200 H     1 <1>   0.1500 
@<TRIPOS>BOND
  1   1   2  2   
  2   1   3  2   
  3   1   4  am  
  4   1   5  1   
  5   4   6  1   
  6   4   7  1   
  7   5   8  ar  
  8   5   9  ar  
  9   6  10  1   
 10   6  28  1   
 11   6  29  1   
 12   7  11  1   
 13   7  30  1   
 14   7  31  1   
 15   8  12  ar  
 16   8  32  1   
 17   9  13  ar  
 18   9  33  1   
 19  10  14  1   
 20  10  34  1   
 21  10  35  1   
 22  11  14  1   
 23  11  36  1   
 24  11  37  1   
 25  12  15  ar  
 26  12  38  1   
 27  13  15  ar  
 28  13  39  1   
 29  14  40  1   
 30  14  41  1   
 31  15  16  1   
 32  16  17  1   
 33  17  18  1   
 34  17  42  1   
 35  17  43  1   
 36  18  19  2   
 37  18  20  am  
 38  20  21  1   
 39  20  44  1   
 40  21  22  ar  
 41  21  23  ar  
 42  22  24  1   
 43  22  25  ar  
 44  23  26  ar  
 45  23  45  1   
 46  25  27  ar  
 47  25  46  1   
 48  26  27  ar  
 49  26  47  1   
 50  27  48  1   
@<TRIPOS>SUBSTRUCTURE
  1 ****  15 GROUP 4 **** **** 0

# MOE 2024.06 (io_trps.svl 2023.06)
