@<TRIPOS>MOLECULE
NONAME
46 47 1 0 0 
SMALL
USER_CHARGES


@<TRIPOS>ATOM
  1 O       -0.2500     0.1230    -0.2670 O.2   1 <1>  -0.5700 
  2 C       -1.2820    -0.5250    -0.2620 C.2   1 <1>   0.7800 
  3 O       -1.2610    -1.8370    -0.4950 O.3   1 <1>  -0.4300 
  4 N       -2.5050     0.0440    -0.0380 N.am  1 <1>  -0.6600 
  5 C       -0.1700    -2.7120    -0.3540 C.3   1 <1>   0.2800 
  6 C       -3.7070    -0.8650     0.2030 C.3   1 <1>   0.2580 
  7 C       -2.6170     1.4920     0.3060 C.3   1 <1>   0.1400 
  8 C        0.4210    -2.5820     1.0550 C.3   1 <1>  -0.2400 
  9 C       -0.7650    -4.1100    -0.5220 C.3   1 <1>  -0.2400 
 10 C        0.8640    -2.4560    -1.4550 C.3   1 <1>  -0.2400 
 11 C       -5.0150    -0.0670     0.2850 C.ar  1 <1>  -0.1440 
 12 C       -3.5810    -1.8520     1.3960 C.2   1 <1>   0.9060 
 13 C       -3.7150     1.7620     1.3350 C.3   1 <1>  -0.0170 
 14 C       -5.0290     1.2060     0.8250 C.ar  1 <1>  -0.1440 
 15 C       -6.2000    -0.6290    -0.1590 C.ar  1 <1>  -0.1500 
 16 O       -3.0170    -1.5130     2.4520 O.co2 1 <1>  -0.9000 
 17 O       -4.0570    -2.9930     1.2680 O.co2 1 <1>  -0.9000 
 18 C       -6.2130     1.9220     0.8860 C.ar  1 <1>  -0.1500 
 19 C       -7.4030     0.0670    -0.0830 C.ar  1 <1>   0.0820 
 20 C       -7.4010     1.3780     0.4250 C.ar  1 <1>   0.0820 
 21 O       -8.5630    -0.5360    -0.4730 O.3   1 <1>  -0.3630 
 22 O       -8.4850     2.2030     0.5250 O.3   1 <1>  -0.3630 
 23 C       -8.7220    -1.9240    -0.2680 C.3   1 <1>   0.0400 
 24 C       -9.6030     2.0590    -0.3210 C.3   1 <1>   0.0400 
 25 H       -3.7860    -1.4960    -0.6620 H     1 <1>   0.0800 
 26 H       -2.8360     2.0350    -0.5960 H     1 <1>   0.0800 
 27 H       -1.6790     1.8490     0.6950 H     1 <1>   0.0800 
 28 H        0.9040    -1.6320     1.1860 H     1 <1>   0.0800 
 29 H       -0.3600    -2.6820     1.7900 H     1 <1>   0.0800 
 30 H        1.1500    -3.3520     1.2240 H     1 <1>   0.0800 
 31 H       -1.2110    -4.2120    -1.4950 H     1 <1>   0.0800 
 32 H       -1.5240    -4.2750     0.2250 H     1 <1>   0.0800 
 33 H       -0.0060    -4.8610    -0.4090 H     1 <1>   0.0800 
 34 H        0.3910    -2.4810    -2.4200 H     1 <1>   0.0800 
 35 H        1.6260    -3.2120    -1.4250 H     1 <1>   0.0800 
 36 H        1.3410    -1.5030    -1.3200 H     1 <1>   0.0800 
 37 H       -3.7930     2.8190     1.5090 H     1 <1>   0.0800 
 38 H       -3.4580     1.2820     2.2640 H     1 <1>   0.0800 
 39 H       -6.1630    -1.6270    -0.5550 H     1 <1>   0.1500 
 40 H       -6.2250     2.9130     1.2980 H     1 <1>   0.1500 
 41 H       -8.1640    -2.4560    -1.0170 H     1 <1>   0.0800 
 42 H       -9.7670    -2.1590    -0.3570 H     1 <1>   0.0800 
 43 H       -8.3710    -2.1760     0.7180 H     1 <1>   0.0800 
 44 H      -10.1730     2.9690    -0.2810 H     1 <1>   0.0800 
 45 H      -10.2010     1.2380     0.0330 H     1 <1>   0.0800 
 46 H       -9.2630     1.8790    -1.3250 H     1 <1>   0.0800 
@<TRIPOS>BOND
  1   1   2  2   
  2   2   3  1   
  3   2   4  am  
  4   3   5  1   
  5   4   6  1   
  6   4   7  1   
  7   5   8  1   
  8   5   9  1   
  9   5  10  1   
 10   6  11  1   
 11   6  12  1   
 12   6  25  1   
 13   7  13  1   
 14   7  26  1   
 15   7  27  1   
 16   8  28  1   
 17   8  29  1   
 18   8  30  1   
 19   9  31  1   
 20   9  32  1   
 21   9  33  1   
 22  10  34  1   
 23  10  35  1   
 24  10  36  1   
 25  11  14  ar  
 26  11  15  ar  
 27  12  16  ar  
 28  12  17  ar  
 29  13  14  1   
 30  13  37  1   
 31  13  38  1   
 32  14  18  ar  
 33  15  19  ar  
 34  15  39  1   
 35  18  20  ar  
 36  18  40  1   
 37  19  20  ar  
 38  19  21  1   
 39  20  22  1   
 40  21  23  1   
 41  22  24  1   
 42  23  41  1   
 43  23  42  1   
 44  23  43  1   
 45  24  44  1   
 46  24  45  1   
 47  24  46  1   
@<TRIPOS>SUBSTRUCTURE
  1 ****   6 GROUP 4 **** **** 0

# MOE 2024.06 (io_trps.svl 2023.06)
