@<TRIPOS>MOLECULE
NONAME
37 38 1 0 0 
SMALL
USER_CHARGES


@<TRIPOS>ATOM
  1 CL       0.4760     2.2290    -1.2980 Cl    1 <1>  -0.1770 
  2 C       -0.8960     2.6870    -0.3220 C.ar  1 <1>   0.1770 
  3 C       -0.6950     3.0480     0.9950 C.ar  1 <1>  -0.1500 
  4 C       -2.1580     2.6790    -0.8860 C.ar  1 <1>  -0.1500 
  5 C       -1.8000     3.4070     1.7420 C.ar  1 <1>   0.1770 
  6 C       -3.2690     3.0370    -0.1300 C.ar  1 <1>   0.1170 
  7 CL      -1.5800     3.8750     3.4080 Cl    1 <1>  -0.1770 
  8 C       -3.0710     3.4070     1.2000 C.ar  1 <1>  -0.1500 
  9 N       -4.5300     3.0240    -0.7430 N.am  1 <1>  -0.5470 
 10 C       -5.7850     2.9460    -0.2220 C.2   1 <1>   0.6900 
 11 O       -6.0090     2.8500     0.9680 O.2   1 <1>  -0.5700 
 12 N       -6.8380     3.0110    -1.0830 N.am  1 <1>  -0.6600 
 13 C       -7.9470     2.0350    -0.8700 C.3   1 <1>   0.1400 
 14 C       -7.3230     4.3730    -1.4370 C.3   1 <1>   0.1400 
 15 C       -8.9310     2.5530     0.2000 C.3   1 <1>   0.3430 
 16 C       -8.3040     4.8890    -0.3620 C.3   1 <1>   0.3430 
 17 N       -9.4490     3.9340    -0.1190 N.4   1 <1>  -0.9590 
 18 C      -10.3370     4.4040     0.9750 C.3   1 <1>   0.3430 
 19 C      -11.1490     5.6040     0.5010 C.3   1 <1>  -0.2400 
 20 H        0.2890     3.0510     1.4260 H     1 <1>   0.1500 
 21 H       -2.2660     2.3880    -1.9140 H     1 <1>   0.1500 
 22 H       -3.8950     3.6980     1.8230 H     1 <1>   0.1500 
 23 H       -4.5270     2.9370    -1.7560 H     1 <1>   0.3700 
 24 H       -7.5370     1.0940    -0.5420 H     1 <1>   0.0800 
 25 H       -8.4630     1.8630    -1.7980 H     1 <1>   0.0800 
 26 H       -7.8050     4.3480    -2.3990 H     1 <1>   0.0800 
 27 H       -6.4860     5.0490    -1.5040 H     1 <1>   0.0800 
 28 H       -8.4150     2.5720     1.1470 H     1 <1>   0.0800 
 29 H       -9.7540     1.8620     0.2880 H     1 <1>   0.0800 
 30 H       -8.6840     5.8500    -0.6670 H     1 <1>   0.0800 
 31 H       -7.7540     5.0280     0.5560 H     1 <1>   0.0800 
 32 H      -10.0080     3.8730    -0.9800 H     1 <1>   0.4500 
 33 H       -9.7520     4.6690     1.8430 H     1 <1>   0.0800 
 34 H      -11.0160     3.6150     1.2560 H     1 <1>   0.0800 
 35 H      -10.5220     6.4530     0.3000 H     1 <1>   0.0800 
 36 H      -11.8390     5.8870     1.2770 H     1 <1>   0.0800 
 37 H      -11.7230     5.3580    -0.3750 H     1 <1>   0.0800 
@<TRIPOS>BOND
  1   1   2  1   
  2   2   3  ar  
  3   2   4  ar  
  4   3   5  ar  
  5   3  20  1   
  6   4   6  ar  
  7   4  21  1   
  8   5   7  1   
  9   5   8  ar  
 10   6   8  ar  
 11   6   9  1   
 12   8  22  1   
 13   9  10  am  
 14   9  23  1   
 15  10  11  2   
 16  10  12  am  
 17  12  13  1   
 18  12  14  1   
 19  13  15  1   
 20  13  24  1   
 21  13  25  1   
 22  14  16  1   
 23  14  26  1   
 24  14  27  1   
 25  15  17  1   
 26  15  28  1   
 27  15  29  1   
 28  16  17  1   
 29  16  30  1   
 30  16  31  1   
 31  17  18  1   
 32  17  32  1   
 33  18  19  1   
 34  18  33  1   
 35  18  34  1   
 36  19  35  1   
 37  19  36  1   
 38  19  37  1   
@<TRIPOS>SUBSTRUCTURE
  1 ****  10 GROUP 4 **** **** 0

# MOE 2024.06 (io_trps.svl 2023.06)
