@<TRIPOS>MOLECULE
NONAME
47 47 1 0 0 
SMALL
USER_CHARGES


@<TRIPOS>ATOM
  1 O       -6.8150    -1.6470     1.2530 O.2   1 <1>  -0.5700 
  2 C       -6.9050    -0.8750     0.3140 C.2   1 <1>   0.7800 
  3 O       -5.8440    -0.6720    -0.4760 O.3   1 <1>  -0.2330 
  4 N       -8.0780    -0.2330     0.0010 N.am  1 <1>  -0.6600 
  5 C       -4.5870    -1.1260    -0.2200 C.ar  1 <1>   0.0820 
  6 C       -8.2170     0.7100    -1.1460 C.3   1 <1>   0.0600 
  7 C       -9.2680    -0.2820     0.8980 C.3   1 <1>   0.0600 
  8 C       -3.6370    -0.2350     0.2840 C.ar  1 <1>  -0.1440 
  9 C       -4.2440    -2.4470    -0.5300 C.ar  1 <1>  -0.1440 
 10 C       -2.3440    -0.6960     0.4710 C.ar  1 <1>  -0.1500 
 11 C       -3.9060     1.2380     0.6370 C.3   1 <1>   0.0630 
 12 C       -2.9250    -2.8720    -0.3730 C.ar  1 <1>  -0.1440 
 13 C       -5.3140    -3.3930    -1.0540 C.3   1 <1>   0.4860 
 14 C       -1.9930    -1.9900     0.1440 C.ar  1 <1>  -0.1500 
 15 C       -4.8400     1.3950     1.8410 C.3   1 <1>  -0.2400 
 16 C       -4.3940     2.0560    -0.5640 C.3   1 <1>  -0.2400 
 17 C       -2.4160    -4.2610    -0.7490 C.3   1 <1>  -0.0970 
 18 N       -6.0450    -4.0240     0.0860 N.4   1 <1>  -0.9590 
 19 C       -5.1800    -4.8670     0.9590 C.3   1 <1>   0.2630 
 20 C       -7.2690    -4.7460    -0.3590 C.3   1 <1>   0.2630 
 21 H       -7.4070     0.5970    -1.8460 H     1 <1>   0.0800 
 22 H       -8.2210     1.7230    -0.7830 H     1 <1>   0.0800 
 23 H       -9.1410     0.5210    -1.6640 H     1 <1>   0.0800 
 24 H       -9.0900    -0.9230     1.7440 H     1 <1>   0.0800 
 25 H      -10.1190    -0.6540     0.3560 H     1 <1>   0.0800 
 26 H       -9.4890     0.7070     1.2620 H     1 <1>   0.0800 
 27 H       -1.5840    -0.0460     0.8680 H     1 <1>   0.1500 
 28 H       -2.9680     1.6780     0.9310 H     1 <1>   0.0800 
 29 H       -4.8760    -4.1510    -1.6780 H     1 <1>   0.0800 
 30 H       -6.0050    -2.8280    -1.6580 H     1 <1>   0.0800 
 31 H       -0.9720    -2.3000     0.2910 H     1 <1>   0.1500 
 32 H       -5.8540     1.1570     1.5880 H     1 <1>   0.0800 
 33 H       -4.8160     2.4110     2.1920 H     1 <1>   0.0800 
 34 H       -4.5220     0.7510     2.6410 H     1 <1>   0.0800 
 35 H       -5.3870     1.7760    -0.8550 H     1 <1>   0.0800 
 36 H       -3.7330     1.9080    -1.4000 H     1 <1>   0.0800 
 37 H       -4.3980     3.1030    -0.3170 H     1 <1>   0.0800 
 38 H       -2.9570    -4.6820    -1.5760 H     1 <1>   0.0800 
 39 H       -2.4740    -4.9240     0.0940 H     1 <1>   0.0800 
 40 H       -1.3840    -4.2020    -1.0490 H     1 <1>   0.0800 
 41 H       -6.3440    -3.2200     0.6810 H     1 <1>   0.4500 
 42 H       -4.7810    -5.6990     0.4030 H     1 <1>   0.0800 
 43 H       -5.7480    -5.2430     1.7930 H     1 <1>   0.0800 
 44 H       -4.3620    -4.2790     1.3450 H     1 <1>   0.0800 
 45 H       -7.0060    -5.5810    -0.9870 H     1 <1>   0.0800 
 46 H       -7.9130    -4.0820    -0.9120 H     1 <1>   0.0800 
 47 H       -7.8130    -5.1130     0.4960 H     1 <1>   0.0800 
@<TRIPOS>BOND
  1   1   2  2   
  2   2   3  1   
  3   2   4  am  
  4   3   5  1   
  5   4   6  1   
  6   4   7  1   
  7   5   8  ar  
  8   5   9  ar  
  9   6  21  1   
 10   6  22  1   
 11   6  23  1   
 12   7  24  1   
 13   7  25  1   
 14   7  26  1   
 15   8  10  ar  
 16   8  11  1   
 17   9  12  ar  
 18   9  13  1   
 19  10  14  ar  
 20  10  27  1   
 21  11  15  1   
 22  11  16  1   
 23  11  28  1   
 24  12  14  ar  
 25  12  17  1   
 26  13  18  1   
 27  13  29  1   
 28  13  30  1   
 29  14  31  1   
 30  15  32  1   
 31  15  33  1   
 32  15  34  1   
 33  16  35  1   
 34  16  36  1   
 35  16  37  1   
 36  17  38  1   
 37  17  39  1   
 38  17  40  1   
 39  18  19  1   
 40  18  20  1   
 41  18  41  1   
 42  19  42  1   
 43  19  43  1   
 44  19  44  1   
 45  20  45  1   
 46  20  46  1   
 47  20  47  1   
@<TRIPOS>SUBSTRUCTURE
  1 ****   5 GROUP 4 **** **** 0

# MOE 2024.06 (io_trps.svl 2023.06)
