@<TRIPOS>MOLECULE
NONAME
33 34 1 0 0 
SMALL
USER_CHARGES


@<TRIPOS>ATOM
  1 CL      -0.0760    -0.2410    -1.2450 Cl    1 <1>  -0.1770 
  2 C        0.8620    -1.6550    -0.8480 C.ar  1 <1>   0.1770 
  3 C        1.9520    -1.9900    -1.6270 C.ar  1 <1>  -0.1500 
  4 C        0.5030    -2.4270     0.2400 C.ar  1 <1>  -0.1500 
  5 C        2.6960    -3.1120    -1.3080 C.ar  1 <1>  -0.1500 
  6 C        1.2550    -3.5470     0.5510 C.ar  1 <1>  -0.1500 
  7 C        2.3720    -3.9120    -0.2060 C.ar  1 <1>   0.0860 
  8 C        3.1570    -5.0800     0.1470 C.2   1 <1>   0.5440 
  9 O        2.6510    -6.0220     0.7180 O.2   1 <1>  -0.5700 
 10 N        4.5030    -5.0890    -0.0920 N.am  1 <1>  -0.4900 
 11 C        5.2670    -6.1300    -0.5130 C.2   1 <1>   0.6900 
 12 O        4.8020    -6.9470    -1.2830 O.2   1 <1>  -0.5700 
 13 N        6.5860    -6.1750    -0.1440 N.am  1 <1>  -0.6600 
 14 C        7.5450    -7.0790    -0.8360 C.3   1 <1>   0.1400 
 15 C        7.1150    -5.5800     1.1150 C.3   1 <1>   0.1400 
 16 C        8.8340    -6.3130    -1.1530 C.3   1 <1>  -0.1600 
 17 C        8.3900    -4.7870     0.8100 C.3   1 <1>  -0.1600 
 18 C        9.4350    -5.6600     0.1010 C.3   1 <1>  -0.1600 
 19 H        2.2070    -1.3780    -2.4750 H     1 <1>   0.1500 
 20 H       -0.3530    -2.1540     0.8300 H     1 <1>   0.1500 
 21 H        3.5330    -3.3770    -1.9310 H     1 <1>   0.1500 
 22 H        0.9760    -4.1570     1.3950 H     1 <1>   0.1500 
 23 H        4.9990    -4.2110    -0.0460 H     1 <1>   0.3700 
 24 H        7.1180    -7.4560    -1.7500 H     1 <1>   0.0800 
 25 H        7.7590    -7.9180    -0.1970 H     1 <1>   0.0800 
 26 H        7.3420    -6.3770     1.8030 H     1 <1>   0.0800 
 27 H        6.3860    -4.9420     1.5820 H     1 <1>   0.0800 
 28 H        8.6150    -5.5570    -1.8870 H     1 <1>   0.0800 
 29 H        9.5500    -6.9900    -1.5860 H     1 <1>   0.0800 
 30 H        8.8020    -4.4090     1.7290 H     1 <1>   0.0800 
 31 H        8.1400    -3.9440     0.1900 H     1 <1>   0.0800 
 32 H       10.2870    -5.0610    -0.1730 H     1 <1>   0.0800 
 33 H        9.7730    -6.4300     0.7740 H     1 <1>   0.0800 
@<TRIPOS>BOND
  1   1   2  1   
  2   2   3  ar  
  3   2   4  ar  
  4   3   5  ar  
  5   3  19  1   
  6   4   6  ar  
  7   4  20  1   
  8   5   7  ar  
  9   5  21  1   
 10   6   7  ar  
 11   6  22  1   
 12   7   8  1   
 13   8   9  2   
 14   8  10  am  
 15  10  11  am  
 16  10  23  1   
 17  11  12  2   
 18  11  13  am  
 19  13  14  1   
 20  13  15  1   
 21  14  16  1   
 22  14  24  1   
 23  14  25  1   
 24  15  17  1   
 25  15  26  1   
 26  15  27  1   
 27  16  18  1   
 28  16  28  1   
 29  16  29  1   
 30  17  18  1   
 31  17  30  1   
 32  17  31  1   
 33  18  32  1   
 34  18  33  1   
@<TRIPOS>SUBSTRUCTURE
  1 ****  10 GROUP 4 **** **** 0

# MOE 2024.06 (io_trps.svl 2023.06)
