@<TRIPOS>MOLECULE
NONAME
24 24 1 0 0 
SMALL
USER_CHARGES


@<TRIPOS>ATOM
  1 O       -0.0780     1.0940    -1.7210 O.2   1 <1>  -0.5700 
  2 C       -0.7810     1.7010    -0.9360 C.2   1 <1>   0.6160 
  3 N       -2.1290     1.5900    -1.0030 N.am  1 <1>  -0.7300 
  4 C       -0.3750     2.5730     0.1200 C.2   1 <1>   0.0290 
  5 C       -2.7760     2.4090     0.0410 C.3   1 <1>   0.2010 
  6 C       -1.5710     3.0240     0.7390 C.2   1 <1>   0.4950 
  7 C        0.9010     2.9200     0.4810 C.2   1 <1>  -0.0500 
  8 O       -1.6930     3.7790     1.6770 O.2   1 <1>  -0.5700 
  9 N        2.0300     2.4750    -0.1260 N.pl3 1 <1>  -0.8690 
 10 C        3.4060     2.8220     0.2320 C.3   1 <1>   0.2890 
 11 C        4.0480     3.4930    -0.9740 C.3   1 <1>  -0.2400 
 12 C        4.1290     1.5370     0.6110 C.3   1 <1>  -0.2400 
 13 H       -2.6090     1.0090    -1.6950 H     1 <1>   0.3700 
 14 H       -3.3970     3.1730    -0.3940 H     1 <1>   0.0800 
 15 H       -3.3390     1.7950     0.7220 H     1 <1>   0.0800 
 16 H        1.0290     3.5980     1.3120 H     1 <1>   0.1500 
 17 H        1.9540     1.8240    -0.9260 H     1 <1>   0.4000 
 18 H        3.4030     3.5010     1.0700 H     1 <1>   0.0800 
 19 H        4.0520     2.8290    -1.8190 H     1 <1>   0.0800 
 20 H        5.0610     3.7680    -0.7450 H     1 <1>   0.0800 
 21 H        3.5020     4.3850    -1.2270 H     1 <1>   0.0800 
 22 H        4.1350     0.8480    -0.2140 H     1 <1>   0.0800 
 23 H        3.6400     1.0790     1.4520 H     1 <1>   0.0800 
 24 H        5.1450     1.7550     0.8860 H     1 <1>   0.0800 
@<TRIPOS>BOND
  1   1   2  2   
  2   2   3  am  
  3   2   4  1   
  4   3   5  1   
  5   3  13  1   
  6   4   6  1   
  7   4   7  2   
  8   5   6  1   
  9   5  14  1   
 10   5  15  1   
 11   6   8  2   
 12   7   9  1   
 13   7  16  1   
 14   9  10  1   
 15   9  17  1   
 16  10  11  1   
 17  10  12  1   
 18  10  18  1   
 19  11  19  1   
 20  11  20  1   
 21  11  21  1   
 22  12  22  1   
 23  12  23  1   
 24  12  24  1   
@<TRIPOS>SUBSTRUCTURE
  1 ****   4 GROUP 4 **** **** 0

# MOE 2024.06 (io_trps.svl 2023.06)
