@<TRIPOS>MOLECULE
NONAME
49 50 1 0 0 
SMALL
USER_CHARGES


@<TRIPOS>ATOM
  1 O       -0.7080    -0.5290     1.0370 O.3   1 <1>  -0.3630 
  2 C       -1.8430    -0.8810     0.3910 C.ar  1 <1>   0.0830 
  3 C        0.4990    -0.8100     0.3620 C.3   1 <1>   0.0400 
  4 C       -2.3120    -0.2080    -0.7430 C.ar  1 <1>   0.0830 
  5 C       -2.5460    -1.9620     0.8920 C.ar  1 <1>  -0.1500 
  6 O       -1.7140     0.8890    -1.2770 O.3   1 <1>  -0.3630 
  7 C       -3.4510    -0.6630    -1.3820 C.ar  1 <1>  -0.1500 
  8 C       -3.7010    -2.4060     0.2570 C.ar  1 <1>   0.0830 
  9 C       -1.4750     1.9920    -0.4270 C.3   1 <1>   0.0400 
 10 C       -4.1520    -1.7540    -0.8890 C.ar  1 <1>  -0.1440 
 11 O       -4.4320    -3.4640     0.7140 O.3   1 <1>  -0.3630 
 12 C       -5.4060    -2.2210    -1.6000 C.3   1 <1>   0.4860 
 13 C       -3.8590    -4.3740     1.6370 C.3   1 <1>   0.0400 
 14 N       -6.5320    -2.1760    -0.6210 N.4   1 <1>  -0.9590 
 15 C       -7.6850    -3.0240    -1.0800 C.3   1 <1>   0.3430 
 16 C       -6.8280    -0.7720    -0.2090 C.3   1 <1>   0.3430 
 17 C       -8.9170    -3.0650    -0.1310 C.3   1 <1>   0.3430 
 18 C       -7.5320    -0.7720     1.1460 C.3   1 <1>  -0.1600 
 19 N       -9.6200    -1.7370     0.0360 N.4   1 <1>  -0.9590 
 20 C       -9.0610    -0.8500     1.1070 C.3   1 <1>   0.3430 
 21 C      -11.0750    -1.9710     0.3350 C.3   1 <1>   0.2630 
 22 H        1.3160    -0.4930     0.9860 H     1 <1>   0.0800 
 23 H        0.5200    -0.2740    -0.5710 H     1 <1>   0.0800 
 24 H        0.5600    -1.8690     0.1850 H     1 <1>   0.0800 
 25 H       -2.1610    -2.4340     1.7760 H     1 <1>   0.1500 
 26 H       -3.7700    -0.1410    -2.2680 H     1 <1>   0.1500 
 27 H       -1.2870     2.8540    -1.0420 H     1 <1>   0.0800 
 28 H       -0.6140     1.7940     0.1840 H     1 <1>   0.0800 
 29 H       -2.3410     2.1600     0.1880 H     1 <1>   0.0800 
 30 H       -5.2480    -3.2310    -1.9430 H     1 <1>   0.0800 
 31 H       -5.6120    -1.5930    -2.4510 H     1 <1>   0.0800 
 32 H       -3.7190    -3.8790     2.5830 H     1 <1>   0.0800 
 33 H       -2.9170    -4.7240     1.2500 H     1 <1>   0.0800 
 34 H       -4.5300    -5.2050     1.7600 H     1 <1>   0.0800 
 35 H       -6.0810    -2.6340     0.1970 H     1 <1>   0.4500 
 36 H       -7.3330    -4.0360    -1.2050 H     1 <1>   0.0800 
 37 H       -8.0140    -2.6860    -2.0490 H     1 <1>   0.0800 
 38 H       -7.4140    -0.2620    -0.9560 H     1 <1>   0.0800 
 39 H       -5.8970    -0.2350    -0.0970 H     1 <1>   0.0800 
 40 H       -8.6190    -3.4490     0.8310 H     1 <1>   0.0800 
 41 H       -9.6150    -3.7730    -0.5490 H     1 <1>   0.0800 
 42 H       -7.2870     0.1530     1.6380 H     1 <1>   0.0800 
 43 H       -7.1370    -1.5500     1.7760 H     1 <1>   0.0800 
 44 H       -9.5950    -1.2230    -0.8580 H     1 <1>   0.4500 
 45 H       -9.4540     0.1460     0.9680 H     1 <1>   0.0800 
 46 H       -9.4040    -1.1890     2.0730 H     1 <1>   0.0800 
 47 H      -11.1900    -2.5030     1.2670 H     1 <1>   0.0800 
 48 H      -11.5360    -2.5500    -0.4490 H     1 <1>   0.0800 
 49 H      -11.6000    -1.0310     0.4130 H     1 <1>   0.0800 
@<TRIPOS>BOND
  1   1   2  1   
  2   1   3  1   
  3   2   4  ar  
  4   2   5  ar  
  5   3  22  1   
  6   3  23  1   
  7   3  24  1   
  8   4   6  1   
  9   4   7  ar  
 10   5   8  ar  
 11   5  25  1   
 12   6   9  1   
 13   7  10  ar  
 14   7  26  1   
 15   8  10  ar  
 16   8  11  1   
 17   9  27  1   
 18   9  28  1   
 19   9  29  1   
 20  10  12  1   
 21  11  13  1   
 22  12  14  1   
 23  12  30  1   
 24  12  31  1   
 25  13  32  1   
 26  13  33  1   
 27  13  34  1   
 28  14  15  1   
 29  14  16  1   
 30  14  35  1   
 31  15  17  1   
 32  15  36  1   
 33  15  37  1   
 34  16  18  1   
 35  16  38  1   
 36  16  39  1   
 37  17  19  1   
 38  17  40  1   
 39  17  41  1   
 40  18  20  1   
 41  18  42  1   
 42  18  43  1   
 43  19  20  1   
 44  19  21  1   
 45  19  44  1   
 46  20  45  1   
 47  20  46  1   
 48  21  47  1   
 49  21  48  1   
 50  21  49  1   
@<TRIPOS>SUBSTRUCTURE
  1 ****  10 GROUP 4 **** **** 0

# MOE 2024.06 (io_trps.svl 2023.06)
