@<TRIPOS>MOLECULE
NONAME
45 46 1 0 0 
SMALL
USER_CHARGES


@<TRIPOS>ATOM
  1 BR       0.1520     0.3590     1.2470 Br    1 <1>  -0.1110 
  2 C       -1.0350     1.8210     0.8510 C.ar  1 <1>   0.1110 
  3 C       -2.1270     1.5900     0.0370 C.ar  1 <1>  -0.1500 
  4 C       -0.7650     3.0610     1.3940 C.ar  1 <1>  -0.1500 
  5 C       -3.0000     2.6280    -0.2710 C.ar  1 <1>  -0.0090 
  6 C       -1.6290     4.0990     1.1040 C.ar  1 <1>  -0.1500 
  7 S       -4.4350     2.3190    -1.3390 S.o2  1 <1>   1.4470 
  8 C       -2.7300     3.8820     0.2820 C.ar  1 <1>   0.0830 
  9 O       -4.8240     3.4830    -2.1070 O.2   1 <1>  -0.6500 
 10 O       -4.1840     1.0930    -2.0670 O.2   1 <1>  -0.6500 
 11 N       -5.7140     1.9730    -0.2780 N.am  1 <1>  -0.8490 
 12 O       -3.5610     4.9190     0.0570 O.3   1 <1>  -0.3630 
 13 C       -6.1690     3.1670     0.4640 C.3   1 <1>   0.1960 
 14 C       -6.8440     1.3760    -1.0150 C.3   1 <1>   0.1960 
 15 C       -3.1340     5.8900    -0.8700 C.3   1 <1>   0.1200 
 16 C       -7.3200     2.8480     1.4340 C.3   1 <1>   0.1400 
 17 C       -8.0120     0.9990    -0.0890 C.3   1 <1>   0.1400 
 18 C       -4.2770     6.8780    -1.0720 C.3   1 <1>  -0.2400 
 19 N       -8.4420     2.1740     0.7210 N.am  1 <1>  -0.6600 
 20 C       -9.7140     2.6760     0.7260 C.2   1 <1>   0.7800 
 21 O      -10.0220     3.6730     1.3490 O.2   1 <1>  -0.5700 
 22 O      -10.6360     2.0360     0.0050 O.3   1 <1>  -0.4300 
 23 C      -11.9640     2.5020    -0.0460 C.3   1 <1>   0.1200 
 24 C      -12.7590     1.5680    -0.9530 C.3   1 <1>  -0.2400 
 25 H       -2.2940     0.6020    -0.3590 H     1 <1>   0.1500 
 26 H        0.0930     3.2040     2.0260 H     1 <1>   0.1500 
 27 H       -1.4580     5.0770     1.5190 H     1 <1>   0.1500 
 28 H       -6.4910     3.9340    -0.2220 H     1 <1>   0.0800 
 29 H       -5.3570     3.5610     1.0460 H     1 <1>   0.0800 
 30 H       -6.5150     0.4830    -1.5200 H     1 <1>   0.0800 
 31 H       -7.1970     2.0660    -1.7650 H     1 <1>   0.0800 
 32 H       -2.8920     5.3960    -1.7970 H     1 <1>   0.0800 
 33 H       -2.2610     6.3820    -0.4780 H     1 <1>   0.0800 
 34 H       -7.6580     3.7600     1.8930 H     1 <1>   0.0800 
 35 H       -6.9580     2.2000     2.2120 H     1 <1>   0.0800 
 36 H       -7.6970     0.2110     0.5720 H     1 <1>   0.0800 
 37 H       -8.8260     0.6240    -0.6840 H     1 <1>   0.0800 
 38 H       -5.1380     6.3660    -1.4650 H     1 <1>   0.0800 
 39 H       -3.9820     7.6360    -1.7740 H     1 <1>   0.0800 
 40 H       -4.5310     7.3510    -0.1400 H     1 <1>   0.0800 
 41 H      -11.9580     3.5070    -0.4340 H     1 <1>   0.0800 
 42 H      -12.3640     2.5020     0.9550 H     1 <1>   0.0800 
 43 H      -12.3410     1.5700    -1.9440 H     1 <1>   0.0800 
 44 H      -13.7790     1.9020    -1.0110 H     1 <1>   0.0800 
 45 H      -12.7470     0.5690    -0.5580 H     1 <1>   0.0800 
@<TRIPOS>BOND
  1   1   2  1   
  2   2   3  ar  
  3   2   4  ar  
  4   3   5  ar  
  5   3  25  1   
  6   4   6  ar  
  7   4  26  1   
  8   5   7  1   
  9   5   8  ar  
 10   6   8  ar  
 11   6  27  1   
 12   7   9  2   
 13   7  10  2   
 14   7  11  am  
 15   8  12  1   
 16  11  13  1   
 17  11  14  1   
 18  12  15  1   
 19  13  16  1   
 20  13  28  1   
 21  13  29  1   
 22  14  17  1   
 23  14  30  1   
 24  14  31  1   
 25  15  18  1   
 26  15  32  1   
 27  15  33  1   
 28  16  19  1   
 29  16  34  1   
 30  16  35  1   
 31  17  19  1   
 32  17  36  1   
 33  17  37  1   
 34  18  38  1   
 35  18  39  1   
 36  18  40  1   
 37  19  20  am  
 38  20  21  2   
 39  20  22  1   
 40  22  23  1   
 41  23  24  1   
 42  23  41  1   
 43  23  42  1   
 44  24  43  1   
 45  24  44  1   
 46  24  45  1   
@<TRIPOS>SUBSTRUCTURE
  1 ****  13 GROUP 4 **** **** 0

# MOE 2024.06 (io_trps.svl 2023.06)
