@<TRIPOS>MOLECULE
NONAME
37 37 1 0 0 
SMALL
USER_CHARGES


@<TRIPOS>ATOM
  1 F        1.0970    -1.8300    -1.3560 F     1 <1>  -0.3400 
  2 C       -0.2320    -1.8850    -1.3050 C.3   1 <1>   1.0200 
  3 F       -0.6420    -0.6200    -1.2580 F     1 <1>  -0.3400 
  4 F       -0.5980    -2.3180    -2.5120 F     1 <1>  -0.3400 
  5 C       -0.8020    -2.8030    -0.1620 C.3   1 <1>   0.4920 
  6 N       -0.3010    -4.2080    -0.3100 N.2   1 <1>  -0.6960 
  7 N       -2.3000    -2.8170    -0.1950 N.2   1 <1>  -0.6960 
  8 C       -0.2840    -2.1650     1.1790 C.3   1 <1>   1.0200 
  9 C       -1.1000    -5.1770    -0.4350 C.2   1 <1>   0.7500 
 10 C       -2.9780    -3.8770    -0.3240 C.2   1 <1>   0.6500 
 11 F       -0.6980    -0.9190     1.3970 F     1 <1>  -0.3400 
 12 F       -0.6960    -2.8530     2.2440 F     1 <1>  -0.3400 
 13 F        1.0420    -2.1270     1.2940 F     1 <1>  -0.3400 
 14 O       -2.4160    -5.0730    -0.4510 O.3   1 <1>  -0.3000 
 15 O       -0.6950    -6.4470    -0.5700 O.3   1 <1>  -0.4300 
 16 N       -4.3600    -3.8740    -0.3360 N.pl3 1 <1>  -0.7880 
 17 C        0.6780    -6.7670    -0.5750 C.3   1 <1>   0.1200 
 18 C       -5.1180    -2.5930    -0.3040 C.3   1 <1>   0.2090 
 19 C       -5.1500    -5.1120    -0.5810 C.3   1 <1>   0.2090 
 20 C        0.8100    -8.2770    -0.7420 C.3   1 <1>  -0.2400 
 21 C       -5.4260    -2.2160     1.1410 C.3   1 <1>  -0.2400 
 22 C       -5.3450    -5.8670     0.7300 C.3   1 <1>  -0.2400 
 23 H        1.1100    -6.4450     0.3590 H     1 <1>   0.0800 
 24 H        1.1500    -6.2470    -1.3930 H     1 <1>   0.0800 
 25 H       -6.0330    -2.6880    -0.8630 H     1 <1>   0.0800 
 26 H       -4.5390    -1.8100    -0.7650 H     1 <1>   0.0800 
 27 H       -4.6360    -5.7400    -1.2900 H     1 <1>   0.0800 
 28 H       -6.1080    -4.8640    -1.0030 H     1 <1>   0.0800 
 29 H        0.3270    -8.7830     0.0740 H     1 <1>   0.0800 
 30 H        1.8490    -8.5520    -0.7490 H     1 <1>   0.0800 
 31 H        0.3670    -8.5870    -1.6710 H     1 <1>   0.0800 
 32 H       -6.0650    -2.9490     1.5960 H     1 <1>   0.0800 
 33 H       -5.9260    -1.2650     1.1670 H     1 <1>   0.0800 
 34 H       -4.5130    -2.1360     1.7040 H     1 <1>   0.0800 
 35 H       -4.3930    -6.1290     1.1570 H     1 <1>   0.0800 
 36 H       -5.8950    -6.7720     0.5470 H     1 <1>   0.0800 
 37 H       -5.8970    -5.2700     1.4310 H     1 <1>   0.0800 
@<TRIPOS>BOND
  1   1   2  1   
  2   2   3  1   
  3   2   4  1   
  4   2   5  1   
  5   5   6  1   
  6   5   7  1   
  7   5   8  1   
  8   6   9  2   
  9   7  10  2   
 10   8  11  1   
 11   8  12  1   
 12   8  13  1   
 13   9  14  1   
 14   9  15  1   
 15  10  14  1   
 16  10  16  1   
 17  15  17  1   
 18  16  18  1   
 19  16  19  1   
 20  17  20  1   
 21  17  23  1   
 22  17  24  1   
 23  18  21  1   
 24  18  25  1   
 25  18  26  1   
 26  19  22  1   
 27  19  27  1   
 28  19  28  1   
 29  20  29  1   
 30  20  30  1   
 31  20  31  1   
 32  21  32  1   
 33  21  33  1   
 34  21  34  1   
 35  22  35  1   
 36  22  36  1   
 37  22  37  1   
@<TRIPOS>SUBSTRUCTURE
  1 ****   7 GROUP 4 **** **** 0

# MOE 2024.06 (io_trps.svl 2023.06)
