@<TRIPOS>MOLECULE
NONAME
27 26 1 0 0 
SMALL
USER_CHARGES


@<TRIPOS>ATOM
  1 CL      -0.8170    -0.3520     0.6940 Cl    1 <1>  -0.2900 
  2 C       -0.1390    -0.8570    -0.8510 C.3   1 <1>   0.5000 
  3 CL      -1.5390    -1.3210    -1.8140 Cl    1 <1>  -0.2900 
  4 P        1.1190    -2.1280    -0.7030 P.3   1 <1>   0.9480 
  5 S        1.7180    -2.8680    -2.4000 S.2   1 <1>  -0.6770 
  6 O        2.3240    -1.3970     0.0540 O.3   1 <1>  -0.5510 
  7 C        0.5550    -3.3820     0.4550 C.3   1 <1>  -0.0800 
  8 C        3.3760    -0.8180    -0.6350 C.3   1 <1>   0.1200 
  9 C        1.5290    -4.5710     0.6530 C.3   1 <1>  -0.1600 
 10 C       -0.8150    -3.9940     0.0930 C.3   1 <1>  -0.2400 
 11 C        4.2710    -0.1290     0.3870 C.3   1 <1>  -0.2400 
 12 C        2.8770    -4.1870     1.2750 C.3   1 <1>  -0.2400 
 13 H        0.2450     0.0320    -1.3120 H     1 <1>   0.0800 
 14 H        0.4300    -2.9270     1.4210 H     1 <1>   0.0800 
 15 H        2.9880    -0.1090    -1.3460 H     1 <1>   0.0800 
 16 H        3.9180    -1.5930    -1.1530 H     1 <1>   0.0800 
 17 H        1.7040    -5.0590    -0.2920 H     1 <1>   0.0800 
 18 H        1.0730    -5.2950     1.3060 H     1 <1>   0.0800 
 19 H       -0.7870    -4.4310    -0.8910 H     1 <1>   0.0800 
 20 H       -1.5900    -3.2490     0.1190 H     1 <1>   0.0800 
 21 H       -1.0920    -4.7600     0.7970 H     1 <1>   0.0800 
 22 H        3.7220     0.6340     0.9100 H     1 <1>   0.0800 
 23 H        5.1060     0.3290    -0.1110 H     1 <1>   0.0800 
 24 H        4.6470    -0.8480     1.0930 H     1 <1>   0.0800 
 25 H        3.4780    -3.6300     0.5790 H     1 <1>   0.0800 
 26 H        3.4210    -5.0760     1.5370 H     1 <1>   0.0800 
 27 H        2.7350    -3.5990     2.1650 H     1 <1>   0.0800 
@<TRIPOS>BOND
  1   1   2  1   
  2   2   3  1   
  3   2   4  1   
  4   2  13  1   
  5   4   5  2   
  6   4   6  1   
  7   4   7  1   
  8   6   8  1   
  9   7   9  1   
 10   7  10  1   
 11   7  14  1   
 12   8  11  1   
 13   8  15  1   
 14   8  16  1   
 15   9  12  1   
 16   9  17  1   
 17   9  18  1   
 18  10  19  1   
 19  10  20  1   
 20  10  21  1   
 21  11  22  1   
 22  11  23  1   
 23  11  24  1   
 24  12  25  1   
 25  12  26  1   
 26  12  27  1   
@<TRIPOS>SUBSTRUCTURE
  1 ****   4 GROUP 4 **** **** 0

# MOE 2024.06 (io_trps.svl 2023.06)
