@<TRIPOS>MOLECULE
NONAME
39 39 1 0 0 
SMALL
USER_CHARGES


@<TRIPOS>ATOM
  1 BR       2.8470    -2.7260     4.5380 Br    1 <1>  -0.1110 
  2 C        3.6810    -2.6790     2.8010 C.ar  1 <1>   0.1110 
  3 C        3.5050    -1.5640     2.0060 C.ar  1 <1>  -0.1500 
  4 C        4.4370    -3.7620     2.3950 C.ar  1 <1>  -0.1500 
  5 C        4.1100    -1.5390     0.7620 C.ar  1 <1>  -0.1500 
  6 C        5.0360    -3.7190     1.1480 C.ar  1 <1>  -0.1500 
  7 C        4.8800    -2.6120     0.3140 C.ar  1 <1>   0.1990 
  8 N        5.4800    -2.5470    -0.9460 N.am  1 <1>  -0.6930 
  9 S        5.4290    -3.8330    -2.1000 S.o2  1 <1>   1.3330 
 10 C        6.4700    -1.4580    -1.2460 C.3   1 <1>   0.2570 
 11 O        5.8570    -3.2660    -3.3550 O.2   1 <1>  -0.6500 
 12 O        6.1350    -4.9530    -1.5290 O.2   1 <1>  -0.6500 
 13 C        3.6880    -4.1840    -2.2080 C.3   1 <1>  -0.1350 
 14 C        7.1030    -0.7980    -0.0130 C.2   1 <1>   0.5690 
 15 O        6.7640     0.3380     0.2340 O.2   1 <1>  -0.5700 
 16 N        8.0110    -1.4700     0.7750 N.am  1 <1>  -0.6600 
 17 C        8.5210    -2.8380     0.4850 C.3   1 <1>   0.1400 
 18 C        8.4870    -0.8740     2.0500 C.3   1 <1>   0.1400 
 19 C        9.8190    -2.7360    -0.3120 C.3   1 <1>  -0.2400 
 20 C        7.5590    -1.3050     3.1830 C.3   1 <1>  -0.2400 
 21 H        2.9160    -0.7350     2.3550 H     1 <1>   0.1500 
 22 H        4.5550    -4.6130     3.0420 H     1 <1>   0.1500 
 23 H        3.9930    -0.6760     0.1310 H     1 <1>   0.1500 
 24 H        5.6390    -4.5510     0.8330 H     1 <1>   0.1500 
 25 H        5.9770    -0.6980    -1.8240 H     1 <1>   0.0800 
 26 H        7.2680    -1.8510    -1.8490 H     1 <1>   0.0800 
 27 H        3.1520    -3.3060    -2.5100 H     1 <1>   0.0800 
 28 H        3.3130    -4.5100    -1.2580 H     1 <1>   0.0800 
 29 H        3.5140    -4.9580    -2.9290 H     1 <1>   0.0800 
 30 H        7.7990    -3.4070    -0.0710 H     1 <1>   0.0800 
 31 H        8.6990    -3.3630     1.4080 H     1 <1>   0.0800 
 32 H        8.4890     0.2010     1.9730 H     1 <1>   0.0800 
 33 H        9.4960    -1.1920     2.2500 H     1 <1>   0.0800 
 34 H        9.6490    -2.2280    -1.2430 H     1 <1>   0.0800 
 35 H       10.1870    -3.7230    -0.5260 H     1 <1>   0.0800 
 36 H       10.5660    -2.2080     0.2520 H     1 <1>   0.0800 
 37 H        6.5580    -0.9650     2.9850 H     1 <1>   0.0800 
 38 H        7.8890    -0.8690     4.1080 H     1 <1>   0.0800 
 39 H        7.5570    -2.3750     3.2880 H     1 <1>   0.0800 
@<TRIPOS>BOND
  1   1   2  1   
  2   2   3  ar  
  3   2   4  ar  
  4   3   5  ar  
  5   3  21  1   
  6   4   6  ar  
  7   4  22  1   
  8   5   7  ar  
  9   5  23  1   
 10   6   7  ar  
 11   6  24  1   
 12   7   8  1   
 13   8   9  am  
 14   8  10  1   
 15   9  11  2   
 16   9  12  2   
 17   9  13  1   
 18  10  14  1   
 19  10  25  1   
 20  10  26  1   
 21  13  27  1   
 22  13  28  1   
 23  13  29  1   
 24  14  15  2   
 25  14  16  am  
 26  16  17  1   
 27  16  18  1   
 28  17  19  1   
 29  17  30  1   
 30  17  31  1   
 31  18  20  1   
 32  18  32  1   
 33  18  33  1   
 34  19  34  1   
 35  19  35  1   
 36  19  36  1   
 37  20  37  1   
 38  20  38  1   
 39  20  39  1   
@<TRIPOS>SUBSTRUCTURE
  1 ****   7 GROUP 4 **** **** 0

# MOE 2024.06 (io_trps.svl 2023.06)
