@<TRIPOS>MOLECULE
NONAME
46 48 1 0 0 
SMALL
USER_CHARGES


@<TRIPOS>ATOM
  1 O       -0.0500    -0.0720    -0.9720 O.2   1 <1>  -0.5700 
  2 C        0.4650    -1.0410    -0.4510 C.2   1 <1>   0.5440 
  3 N       -0.3150    -2.0900    -0.0190 N.am  1 <1>  -0.5470 
  4 C        1.9070    -1.1240    -0.3110 C.ar  1 <1>   0.0860 
  5 C       -1.7020    -2.2240     0.0990 C.ar  1 <1>   0.1170 
  6 C        2.5060    -1.7810     0.7670 C.ar  1 <1>  -0.1500 
  7 C        2.7540    -0.5490    -1.2570 C.ar  1 <1>  -0.1500 
  8 C       -2.2570    -3.4980     0.1230 C.ar  1 <1>  -0.1500 
  9 C       -2.5660    -1.1390     0.2200 C.ar  1 <1>  -0.1500 
 10 C        3.8820    -1.8730     0.8800 C.ar  1 <1>  -0.1500 
 11 C        4.1290    -0.6370    -1.1470 C.ar  1 <1>  -0.1500 
 12 C       -3.6200    -3.6790     0.2530 C.ar  1 <1>  -0.1500 
 13 C       -3.9290    -1.3230     0.3500 C.ar  1 <1>  -0.1500 
 14 C        4.7030    -1.3050    -0.0790 C.ar  1 <1>  -0.1430 
 15 C       -4.4980    -2.5990     0.3640 C.ar  1 <1>   0.0860 
 16 C        6.2130    -1.4030     0.0440 C.3   1 <1>  -0.0970 
 17 C       -5.9280    -2.8100     0.4910 C.2   1 <1>   0.5440 
 18 O       -6.3630    -3.8530     0.9420 O.2   1 <1>  -0.5700 
 19 N       -6.8170    -1.8500     0.0950 N.am  1 <1>  -0.7300 
 20 C       -8.2840    -1.9460     0.1790 C.3   1 <1>   0.2200 
 21 C       -8.8640    -1.8570    -1.2270 C.3   1 <1>  -0.1600 
 22 C       -8.8200    -0.6920     0.8590 C.3   1 <1>  -0.1600 
 23 C       -8.9040    -0.3630    -1.5700 C.3   1 <1>  -0.1600 
 24 C       -8.8780     0.3850    -0.2310 C.3   1 <1>  -0.1600 
 25 H        0.2130    -2.9370     0.1830 H     1 <1>   0.3700 
 26 H        1.8930    -2.2170     1.5350 H     1 <1>   0.1500 
 27 H        2.3200    -0.0230    -2.0910 H     1 <1>   0.1500 
 28 H       -1.6180    -4.3580     0.0350 H     1 <1>   0.1500 
 29 H       -2.1680    -0.1400     0.2190 H     1 <1>   0.1500 
 30 H        4.3140    -2.3850     1.7220 H     1 <1>   0.1500 
 31 H        4.7520    -0.1820    -1.8980 H     1 <1>   0.1500 
 32 H       -4.0270    -4.6760     0.2690 H     1 <1>   0.1500 
 33 H       -4.5600    -0.4590     0.4510 H     1 <1>   0.1500 
 34 H        6.4920    -2.3030     0.5620 H     1 <1>   0.0800 
 35 H        6.5890    -0.5560     0.5900 H     1 <1>   0.0800 
 36 H        6.6690    -1.4180    -0.9300 H     1 <1>   0.0800 
 37 H       -6.4830    -1.0210    -0.3930 H     1 <1>   0.3700 
 38 H       -8.5830    -2.8470     0.6890 H     1 <1>   0.0800 
 39 H       -9.8710    -2.2360    -1.2020 H     1 <1>   0.0800 
 40 H       -8.2980    -2.4350    -1.9370 H     1 <1>   0.0800 
 41 H       -8.2190    -0.4010     1.7040 H     1 <1>   0.0800 
 42 H       -9.8190    -0.8950     1.2030 H     1 <1>   0.0800 
 43 H       -9.7880    -0.1240    -2.1370 H     1 <1>   0.0800 
 44 H       -8.0380    -0.0980    -2.1520 H     1 <1>   0.0800 
 45 H       -8.0000     1.0060    -0.1790 H     1 <1>   0.0800 
 46 H       -9.7490     1.0050    -0.1090 H     1 <1>   0.0800 
@<TRIPOS>BOND
  1   1   2  2   
  2   2   3  am  
  3   2   4  1   
  4   3   5  1   
  5   3  25  1   
  6   4   6  ar  
  7   4   7  ar  
  8   5   8  ar  
  9   5   9  ar  
 10   6  10  ar  
 11   6  26  1   
 12   7  11  ar  
 13   7  27  1   
 14   8  12  ar  
 15   8  28  1   
 16   9  13  ar  
 17   9  29  1   
 18  10  14  ar  
 19  10  30  1   
 20  11  14  ar  
 21  11  31  1   
 22  12  15  ar  
 23  12  32  1   
 24  13  15  ar  
 25  13  33  1   
 26  14  16  1   
 27  15  17  1   
 28  16  34  1   
 29  16  35  1   
 30  16  36  1   
 31  17  18  2   
 32  17  19  am  
 33  19  20  1   
 34  19  37  1   
 35  20  21  1   
 36  20  22  1   
 37  20  38  1   
 38  21  23  1   
 39  21  39  1   
 40  21  40  1   
 41  22  24  1   
 42  22  41  1   
 43  22  42  1   
 44  23  24  1   
 45  23  43  1   
 46  23  44  1   
 47  24  45  1   
 48  24  46  1   
@<TRIPOS>SUBSTRUCTURE
  1 ****   9 GROUP 4 **** **** 0

# MOE 2024.06 (io_trps.svl 2023.06)
