@<TRIPOS>MOLECULE
NONAME
35 35 1 0 0 
SMALL
USER_CHARGES


@<TRIPOS>ATOM
  1 O       -6.3150     3.2060     0.4130 O.3   1 <1>  -0.3630 
  2 C       -6.6710     4.4420    -0.0240 C.ar  1 <1>   0.0830 
  3 C       -4.9780     2.9090     0.7540 C.3   1 <1>   0.2580 
  4 C       -7.8510     4.5500    -0.7550 C.ar  1 <1>  -0.1440 
  5 C       -5.9150     5.5800     0.2410 C.ar  1 <1>  -0.1500 
  6 C       -4.9100     1.4220     1.0390 C.2   1 <1>  -0.2880 
  7 C       -8.2680     5.7930    -1.2080 C.ar  1 <1>  -0.1500 
  8 C       -8.6700     3.3150    -1.0670 C.3   1 <1>   0.4870 
  9 C       -6.3390     6.8140    -0.2170 C.ar  1 <1>  -0.1500 
 10 C       -4.2270     0.5280     0.3170 C.2   1 <1>  -0.3000 
 11 C       -7.5140     6.9210    -0.9390 C.ar  1 <1>  -0.1500 
 12 N       -9.0670     2.7110     0.2180 N.4   1 <1>  -0.9060 
 13 C       -9.7320     1.4000     0.0900 C.3   1 <1>   0.3430 
 14 C      -10.0030     0.8490     1.4880 C.3   1 <1>  -0.1600 
 15 C      -10.6890    -0.5210     1.4160 C.3   1 <1>  -0.2400 
 16 H       -4.7020     3.4730     1.6280 H     1 <1>   0.0800 
 17 H       -4.3450     3.1750    -0.0760 H     1 <1>   0.0800 
 18 H       -5.0010     5.5340     0.8050 H     1 <1>   0.1500 
 19 H       -5.4780     1.1460     1.9100 H     1 <1>   0.1500 
 20 H       -9.1760     5.9030    -1.7780 H     1 <1>   0.1500 
 21 H       -8.0650     2.6240    -1.6320 H     1 <1>   0.0800 
 22 H       -9.5390     3.5780    -1.6480 H     1 <1>   0.0800 
 23 H       -5.7550     7.6960    -0.0120 H     1 <1>   0.1500 
 24 H       -4.1890    -0.5250     0.5430 H     1 <1>   0.1500 
 25 H       -3.6440     0.7660    -0.5580 H     1 <1>   0.1500 
 26 H       -7.8370     7.8860    -1.2930 H     1 <1>   0.1500 
 27 H       -9.6340     3.3820     0.7450 H     1 <1>   0.4500 
 28 H       -8.1790     2.6130     0.7390 H     1 <1>   0.4500 
 29 H       -9.0970     0.7140    -0.4490 H     1 <1>   0.0800 
 30 H      -10.6620     1.5040    -0.4460 H     1 <1>   0.0800 
 31 H      -10.6410     1.5240     2.0320 H     1 <1>   0.0800 
 32 H       -9.0760     0.7400     2.0240 H     1 <1>   0.0800 
 33 H      -11.6350    -0.4510     0.9070 H     1 <1>   0.0800 
 34 H      -10.8700    -0.8930     2.4100 H     1 <1>   0.0800 
 35 H      -10.0690    -1.2340     0.9000 H     1 <1>   0.0800 
@<TRIPOS>BOND
  1   1   2  1   
  2   1   3  1   
  3   2   4  ar  
  4   2   5  ar  
  5   3   6  1   
  6   3  16  1   
  7   3  17  1   
  8   4   7  ar  
  9   4   8  1   
 10   5   9  ar  
 11   5  18  1   
 12   6  10  2   
 13   6  19  1   
 14   7  11  ar  
 15   7  20  1   
 16   8  12  1   
 17   8  21  1   
 18   8  22  1   
 19   9  11  ar  
 20   9  23  1   
 21  10  24  1   
 22  10  25  1   
 23  11  26  1   
 24  12  13  1   
 25  12  27  1   
 26  12  28  1   
 27  13  14  1   
 28  13  29  1   
 29  13  30  1   
 30  14  15  1   
 31  14  31  1   
 32  14  32  1   
 33  15  33  1   
 34  15  34  1   
 35  15  35  1   
@<TRIPOS>SUBSTRUCTURE
  1 ****   1 GROUP 4 **** **** 0

# MOE 2024.06 (io_trps.svl 2023.06)
