@<TRIPOS>MOLECULE
NONAME
29 29 1 0 0 
SMALL
USER_CHARGES


@<TRIPOS>ATOM
  1 CL      -0.2350    -0.4460     0.3610 Cl    1 <1>  -0.1770 
  2 C       -0.0270     1.2830     0.4120 C.ar  1 <1>   0.1770 
  3 C       -1.1250     2.0950     0.6230 C.ar  1 <1>  -0.1500 
  4 C        1.2330     1.8240     0.2430 C.ar  1 <1>  -0.1500 
  5 C       -0.9570     3.4680     0.6600 C.ar  1 <1>  -0.1500 
  6 C        1.3890     3.1990     0.2820 C.ar  1 <1>  -0.1500 
  7 C        0.3020     4.0540     0.4830 C.ar  1 <1>   0.0860 
  8 C        0.4860     5.4940     0.5070 C.2   1 <1>   0.5440 
  9 O        1.5290     5.9660     0.9130 O.2   1 <1>  -0.5700 
 10 N       -0.5090     6.3190     0.0490 N.am  1 <1>  -0.7300 
 11 C       -0.5450     7.7960    -0.0410 C.3   1 <1>   0.3000 
 12 C       -1.9450     8.1870    -0.5800 C.3   1 <1>   0.1200 
 13 C        0.5490     8.2580    -1.0100 C.3   1 <1>  -0.2400 
 14 C       -0.3320     8.3960     1.3570 C.3   1 <1>  -0.2400 
 15 O       -2.1090     9.5650    -0.7070 O.3   1 <1>  -0.6800 
 16 H       -2.0950     1.6490     0.7580 H     1 <1>   0.1500 
 17 H        2.0770     1.1760     0.0850 H     1 <1>   0.1500 
 18 H       -1.8130     4.0940     0.8400 H     1 <1>   0.1500 
 19 H        2.3690     3.6280     0.1550 H     1 <1>   0.1500 
 20 H       -1.2790     5.8700    -0.4440 H     1 <1>   0.3700 
 21 H       -2.7120     7.8310     0.0850 H     1 <1>   0.0800 
 22 H       -2.0970     7.7610    -1.5570 H     1 <1>   0.0800 
 23 H        0.4120     7.8050    -1.9750 H     1 <1>   0.0800 
 24 H        1.5240     8.0030    -0.6380 H     1 <1>   0.0800 
 25 H        0.5140     9.3250    -1.1310 H     1 <1>   0.0800 
 26 H       -1.0830     8.0380     2.0380 H     1 <1>   0.0800 
 27 H       -0.3820     9.4680     1.3200 H     1 <1>   0.0800 
 28 H        0.6370     8.1380     1.7420 H     1 <1>   0.0800 
 29 H       -1.9620    10.0090     0.1520 H     1 <1>   0.4000 
@<TRIPOS>BOND
  1   1   2  1   
  2   2   3  ar  
  3   2   4  ar  
  4   3   5  ar  
  5   3  16  1   
  6   4   6  ar  
  7   4  17  1   
  8   5   7  ar  
  9   5  18  1   
 10   6   7  ar  
 11   6  19  1   
 12   7   8  1   
 13   8   9  2   
 14   8  10  am  
 15  10  11  1   
 16  10  20  1   
 17  11  12  1   
 18  11  13  1   
 19  11  14  1   
 20  12  15  1   
 21  12  21  1   
 22  12  22  1   
 23  13  23  1   
 24  13  24  1   
 25  13  25  1   
 26  14  26  1   
 27  14  27  1   
 28  14  28  1   
 29  15  29  1   
@<TRIPOS>SUBSTRUCTURE
  1 ****   8 GROUP 4 **** **** 0

# MOE 2024.06 (io_trps.svl 2023.06)
