@<TRIPOS>MOLECULE
NONAME
48 49 1 0 0 
SMALL
USER_CHARGES


@<TRIPOS>ATOM
  1 O       -0.0630     0.5110    -1.2690 O.2   1 <1>  -0.5700 
  2 C       -0.1030     1.5310    -0.6090 C.2   1 <1>   0.6160 
  3 N        1.0420     1.9470     0.0140 N.am  1 <1>  -0.7300 
  4 C       -1.3170     2.2950    -0.4870 C.2   1 <1>   0.0790 
  5 C        2.3670     1.3030    -0.1030 C.3   1 <1>   0.2200 
  6 C       -2.5040     1.4960    -0.4860 C.1   1 <1>   0.4920 
  7 C       -1.3350     3.6530    -0.3640 C.2   1 <1>  -0.1780 
  8 C        3.4290     2.3460    -0.5130 C.3   1 <1>  -0.0800 
  9 C        2.7050     0.6550     1.2450 C.3   1 <1>  -0.1600 
 10 N       -3.4810     0.9060    -0.4690 N.1   1 <1>  -0.5570 
 11 C       -2.4430     4.5620    -0.2360 C.ar  1 <1>   0.0280 
 12 C        4.8290     1.7070    -0.5270 C.3   1 <1>  -0.1600 
 13 C        3.1310     2.9620    -1.8910 C.3   1 <1>  -0.2400 
 14 C        4.1050     0.0270     1.2250 C.3   1 <1>  -0.1600 
 15 C       -2.3190     5.6840     0.5830 C.ar  1 <1>  -0.1500 
 16 C       -3.6540     4.3970    -0.9110 C.ar  1 <1>  -0.1500 
 17 C        5.1670     1.0570     0.8220 C.3   1 <1>  -0.1600 
 18 C       -3.3510     6.5900     0.7400 C.ar  1 <1>  -0.1500 
 19 C       -4.6910     5.2960    -0.7580 C.ar  1 <1>  -0.1500 
 20 C       -4.5540     6.4000     0.0670 C.ar  1 <1>   0.0830 
 21 O       -5.6190     7.2310     0.1590 O.3   1 <1>  -0.3620 
 22 C       -5.6200     8.3770     1.0020 C.3   1 <1>   0.1810 
 23 C       -4.7360     9.4950     0.4540 C.2   1 <1>   0.5690 
 24 O       -4.1570    10.2200     1.2210 O.2   1 <1>  -0.5700 
 25 N       -4.5960     9.6680    -0.8760 N.am  1 <1>  -0.8000 
 26 H        1.0160     2.7410     0.6500 H     1 <1>   0.3700 
 27 H        2.3320     0.5320    -0.8560 H     1 <1>   0.0800 
 28 H       -0.3900     4.1670    -0.3540 H     1 <1>   0.1500 
 29 H        3.4350     3.1330     0.2210 H     1 <1>   0.0800 
 30 H        2.6660     1.3960     2.0230 H     1 <1>   0.0800 
 31 H        1.9790    -0.1090     1.4620 H     1 <1>   0.0800 
 32 H        4.8750     0.9580    -1.2990 H     1 <1>   0.0800 
 33 H        5.5690     2.4560    -0.7520 H     1 <1>   0.0800 
 34 H        3.0850     2.1940    -2.6430 H     1 <1>   0.0800 
 35 H        3.8990     3.6630    -2.1620 H     1 <1>   0.0800 
 36 H        2.1910     3.4830    -1.8810 H     1 <1>   0.0800 
 37 H        4.3370    -0.3710     2.1980 H     1 <1>   0.0800 
 38 H        4.1180    -0.7910     0.5240 H     1 <1>   0.0800 
 39 H       -1.3980     5.8500     1.1130 H     1 <1>   0.1500 
 40 H       -3.7970     3.5620    -1.5740 H     1 <1>   0.1500 
 41 H        6.1290     0.5760     0.7580 H     1 <1>   0.0800 
 42 H        5.2320     1.8190     1.5800 H     1 <1>   0.0800 
 43 H       -3.1970     7.4340     1.3870 H     1 <1>   0.1500 
 44 H       -5.6190     5.1470    -1.2810 H     1 <1>   0.1500 
 45 H       -6.6310     8.7320     1.0630 H     1 <1>   0.0800 
 46 H       -5.2980     8.0860     1.9850 H     1 <1>   0.0800 
 47 H       -3.9820    10.4000    -1.2350 H     1 <1>   0.3700 
 48 H       -4.9910     9.0140    -1.5540 H     1 <1>   0.3700 
@<TRIPOS>BOND
  1   1   2  2   
  2   2   3  am  
  3   2   4  1   
  4   3   5  1   
  5   3  26  1   
  6   4   6  1   
  7   4   7  2   
  8   5   8  1   
  9   5   9  1   
 10   5  27  1   
 11   6  10  3   
 12   7  11  1   
 13   7  28  1   
 14   8  12  1   
 15   8  13  1   
 16   8  29  1   
 17   9  14  1   
 18   9  30  1   
 19   9  31  1   
 20  11  15  ar  
 21  11  16  ar  
 22  12  17  1   
 23  12  32  1   
 24  12  33  1   
 25  13  34  1   
 26  13  35  1   
 27  13  36  1   
 28  14  17  1   
 29  14  37  1   
 30  14  38  1   
 31  15  18  ar  
 32  15  39  1   
 33  16  19  ar  
 34  16  40  1   
 35  17  41  1   
 36  17  42  1   
 37  18  20  ar  
 38  18  43  1   
 39  19  20  ar  
 40  19  44  1   
 41  20  21  1   
 42  21  22  1   
 43  22  23  1   
 44  22  45  1   
 45  22  46  1   
 46  23  24  2   
 47  23  25  am  
 48  25  47  1   
 49  25  48  1   
@<TRIPOS>SUBSTRUCTURE
  1 ****   7 GROUP 4 **** **** 0

# MOE 2024.06 (io_trps.svl 2023.06)
