@<TRIPOS>MOLECULE
NONAME
42 44 1 0 0 
SMALL
USER_CHARGES


@<TRIPOS>ATOM
  1 O       -1.1500    -0.1000     0.4820 O.3   1 <1>  -0.5600 
  2 C       -2.2990    -0.8960     0.4580 C.3   1 <1>   0.1200 
  3 C       -1.1370     0.9420    -0.4500 C.3   1 <1>   0.1200 
  4 C       -3.5480    -0.0390     0.7420 C.3   1 <1>   0.3430 
  5 C       -2.3280     1.8880    -0.2060 C.3   1 <1>   0.3430 
  6 N       -3.6370     1.1420    -0.1920 N.4   1 <1>  -0.9590 
  7 C       -4.7640     2.0560     0.1450 C.3   1 <1>   0.3430 
  8 C       -6.1020     1.3860    -0.1590 C.3   1 <1>  -0.1600 
  9 C       -7.2610     2.3500     0.0910 C.3   1 <1>   0.1200 
 10 O       -8.4460     1.6550    -0.2030 O.3   1 <1>  -0.3630 
 11 C       -9.6650     2.2350    -0.0800 C.ar  1 <1>   0.0820 
 12 C      -10.7610     1.4780    -0.3970 C.ar  1 <1>  -0.1500 
 13 C       -9.8450     3.5640     0.3530 C.ar  1 <1>  -0.1500 
 14 C      -12.0690     1.9900    -0.3020 C.ar  1 <1>   0.0000 
 15 C      -11.1050     4.0840     0.4540 C.ar  1 <1>  -0.1500 
 16 C      -12.2460     3.3210     0.1330 C.ar  1 <1>   0.0000 
 17 C      -13.2090     1.2250    -0.6240 C.ar  1 <1>  -0.1500 
 18 C      -13.5550     3.8340     0.2280 C.ar  1 <1>  -0.1500 
 19 C      -14.4680     1.7500    -0.5220 C.ar  1 <1>  -0.1500 
 20 C      -14.6430     3.0690    -0.0910 C.ar  1 <1>  -0.1500 
 21 H       -2.1880    -1.6520     1.2170 H     1 <1>   0.0800 
 22 H       -2.3670    -1.3820    -0.5000 H     1 <1>   0.0800 
 23 H       -1.1630     0.5230    -1.4410 H     1 <1>   0.0800 
 24 H       -0.2090     1.4750    -0.3280 H     1 <1>   0.0800 
 25 H       -3.4950     0.3060     1.7620 H     1 <1>   0.0800 
 26 H       -4.4260    -0.6560     0.6460 H     1 <1>   0.0800 
 27 H       -2.3420     2.6450    -0.9730 H     1 <1>   0.0800 
 28 H       -2.1780     2.3790     0.7410 H     1 <1>   0.0800 
 29 H       -3.7910     0.7750    -1.1410 H     1 <1>   0.4500 
 30 H       -4.6860     2.9560    -0.4440 H     1 <1>   0.0800 
 31 H       -4.7180     2.3310     1.1870 H     1 <1>   0.0800 
 32 H       -6.2430     0.5270     0.4730 H     1 <1>   0.0800 
 33 H       -6.1310     1.0830    -1.1910 H     1 <1>   0.0800 
 34 H       -7.2050     3.2080    -0.5580 H     1 <1>   0.0800 
 35 H       -7.3000     2.6570     1.1220 H     1 <1>   0.0800 
 36 H      -10.6290     0.4650    -0.7280 H     1 <1>   0.1500 
 37 H       -9.0050     4.1800     0.6080 H     1 <1>   0.1500 
 38 H      -11.2500     5.0970     0.7840 H     1 <1>   0.1500 
 39 H      -13.0690     0.2120    -0.9540 H     1 <1>   0.1500 
 40 H      -13.6840     4.8480     0.5600 H     1 <1>   0.1500 
 41 H      -15.3340     1.1610    -0.7690 H     1 <1>   0.1500 
 42 H      -15.6410     3.4670    -0.0150 H     1 <1>   0.1500 
@<TRIPOS>BOND
  1   1   2  1   
  2   1   3  1   
  3   2   4  1   
  4   2  21  1   
  5   2  22  1   
  6   3   5  1   
  7   3  23  1   
  8   3  24  1   
  9   4   6  1   
 10   4  25  1   
 11   4  26  1   
 12   5   6  1   
 13   5  27  1   
 14   5  28  1   
 15   6   7  1   
 16   6  29  1   
 17   7   8  1   
 18   7  30  1   
 19   7  31  1   
 20   8   9  1   
 21   8  32  1   
 22   8  33  1   
 23   9  10  1   
 24   9  34  1   
 25   9  35  1   
 26  10  11  1   
 27  11  12  ar  
 28  11  13  ar  
 29  12  14  ar  
 30  12  36  1   
 31  13  15  ar  
 32  13  37  1   
 33  14  16  ar  
 34  14  17  ar  
 35  15  16  ar  
 36  15  38  1   
 37  16  18  ar  
 38  17  19  ar  
 39  17  39  1   
 40  18  20  ar  
 41  18  40  1   
 42  19  20  ar  
 43  19  41  1   
 44  20  42  1   
@<TRIPOS>SUBSTRUCTURE
  1 ****  10 GROUP 4 **** **** 0

# MOE 2024.06 (io_trps.svl 2023.06)
