@<TRIPOS>MOLECULE
NONAME
56 58 1 0 0 
SMALL
USER_CHARGES


@<TRIPOS>ATOM
  1 O        0.6220    -3.1700    -1.1380 O.2   1 <1>  -0.5700 
  2 C       -0.1050    -2.5010    -0.4420 C.2   1 <1>   0.5690 
  3 N        0.3250    -1.3950     0.2150 N.am  1 <1>  -0.7300 
  4 C       -1.5750    -2.9000    -0.2820 C.3   1 <1>   0.1710 
  5 C        1.6740    -0.8130     0.1750 C.3   1 <1>   0.2200 
  6 N       -2.4860    -1.7650     0.0520 N.3   1 <1>  -0.8100 
  7 C        2.1980    -0.7760     1.6180 C.3   1 <1>  -0.1600 
  8 C        1.5600     0.5870    -0.4440 C.3   1 <1>  -0.1600 
  9 C       -3.8100    -2.2620     0.4940 C.3   1 <1>   0.1100 
 10 C       -2.6630    -0.8660    -1.1170 C.3   1 <1>   0.1100 
 11 C        3.6940    -0.4570     1.7590 C.3   1 <1>  -0.1600 
 12 C        2.8400     1.0930    -1.1300 C.3   1 <1>  -0.1600 
 13 C       -4.7870    -1.1140     0.8160 C.3   1 <1>   0.2090 
 14 C       -3.6250     0.3000    -0.8190 C.3   1 <1>   0.2090 
 15 C        4.1420     0.8550     1.0960 C.3   1 <1>  -0.1600 
 16 C        4.1700     0.7580    -0.4360 C.3   1 <1>  -0.1600 
 17 N       -4.9480    -0.2110    -0.3600 N.pl3 1 <1>  -0.8380 
 18 C       -5.9640     0.7490    -0.2530 C.ar  1 <1>   0.1000 
 19 C       -5.9620     1.8140     0.6680 C.ar  1 <1>   0.0820 
 20 C       -7.0370     0.6240    -1.1230 C.ar  1 <1>  -0.1500 
 21 O       -4.9010     1.9350     1.5270 O.3   1 <1>  -0.3620 
 22 C       -7.0280     2.7100     0.6840 C.ar  1 <1>  -0.1500 
 23 C       -8.0910     1.5180    -1.1000 C.ar  1 <1>  -0.1500 
 24 C       -4.8580     2.9440     2.5100 C.3   1 <1>   0.0400 
 25 C       -8.0870     2.5630    -0.1960 C.ar  1 <1>  -0.1500 
 26 H       -0.3930    -0.8750     0.7290 H     1 <1>   0.3700 
 27 H       -1.6160    -3.6290     0.5070 H     1 <1>   0.0800 
 28 H       -1.9040    -3.3780    -1.1890 H     1 <1>   0.0800 
 29 H        2.3050    -1.4400    -0.4340 H     1 <1>   0.0800 
 30 H        2.0340    -1.7430     2.0610 H     1 <1>   0.0800 
 31 H        1.6320    -0.0590     2.1860 H     1 <1>   0.0800 
 32 H        1.2670     1.2880     0.3160 H     1 <1>   0.0800 
 33 H        0.7850     0.5810    -1.1910 H     1 <1>   0.0800 
 34 H       -3.6870    -2.8650     1.3760 H     1 <1>   0.0800 
 35 H       -4.2460    -2.8750    -0.2760 H     1 <1>   0.0800 
 36 H       -3.0550    -1.4230    -1.9510 H     1 <1>   0.0800 
 37 H       -1.7110    -0.4580    -1.4090 H     1 <1>   0.0800 
 38 H        4.2690    -1.2740     1.3570 H     1 <1>   0.0800 
 39 H        3.9230    -0.4010     2.8090 H     1 <1>   0.0800 
 40 H        2.7610     2.1620    -1.2300 H     1 <1>   0.0800 
 41 H        2.8790     0.6880    -2.1270 H     1 <1>   0.0800 
 42 H       -4.4110    -0.5560     1.6550 H     1 <1>   0.0800 
 43 H       -5.7460    -1.5200     1.0830 H     1 <1>   0.0800 
 44 H       -3.7630     0.8910    -1.7070 H     1 <1>   0.0800 
 45 H       -3.1930     0.9290    -0.0600 H     1 <1>   0.0800 
 46 H        5.1450     1.0580     1.4300 H     1 <1>   0.0800 
 47 H        3.5270     1.6780     1.4180 H     1 <1>   0.0800 
 48 H        4.9140     1.4410    -0.8100 H     1 <1>   0.0800 
 49 H        4.4870    -0.2290    -0.7270 H     1 <1>   0.0800 
 50 H       -7.0330    -0.1900    -1.8230 H     1 <1>   0.1500 
 51 H       -7.0580     3.5330     1.3710 H     1 <1>   0.1500 
 52 H       -8.9120     1.3990    -1.7860 H     1 <1>   0.1500 
 53 H       -3.9480     2.8240     3.0700 H     1 <1>   0.0800 
 54 H       -5.7060     2.8330     3.1630 H     1 <1>   0.0800 
 55 H       -4.8650     3.9040     2.0260 H     1 <1>   0.0800 
 56 H       -8.9060     3.2600    -0.1760 H     1 <1>   0.1500 
@<TRIPOS>BOND
  1   1   2  2   
  2   2   3  am  
  3   2   4  1   
  4   3   5  1   
  5   3  26  1   
  6   4   6  1   
  7   4  27  1   
  8   4  28  1   
  9   5   7  1   
 10   5   8  1   
 11   5  29  1   
 12   6   9  1   
 13   6  10  1   
 14   7  11  1   
 15   7  30  1   
 16   7  31  1   
 17   8  12  1   
 18   8  32  1   
 19   8  33  1   
 20   9  13  1   
 21   9  34  1   
 22   9  35  1   
 23  10  14  1   
 24  10  36  1   
 25  10  37  1   
 26  11  15  1   
 27  11  38  1   
 28  11  39  1   
 29  12  16  1   
 30  12  40  1   
 31  12  41  1   
 32  13  17  1   
 33  13  42  1   
 34  13  43  1   
 35  14  17  1   
 36  14  44  1   
 37  14  45  1   
 38  15  16  1   
 39  15  46  1   
 40  15  47  1   
 41  16  48  1   
 42  16  49  1   
 43  17  18  1   
 44  18  19  ar  
 45  18  20  ar  
 46  19  21  1   
 47  19  22  ar  
 48  20  23  ar  
 49  20  50  1   
 50  21  24  1   
 51  22  25  ar  
 52  22  51  1   
 53  23  25  ar  
 54  23  52  1   
 55  24  53  1   
 56  24  54  1   
 57  24  55  1   
 58  25  56  1   
@<TRIPOS>SUBSTRUCTURE
  1 ****  10 GROUP 4 **** **** 0

# MOE 2024.06 (io_trps.svl 2023.06)
