@<TRIPOS>MOLECULE
NONAME
40 42 1 0 0 
SMALL
USER_CHARGES


@<TRIPOS>ATOM
  1 S        0.4370     0.0690     1.4640 S.3   1 <1>  -0.0800 
  2 C        0.1640    -1.4430     0.6100 C.2   1 <1>   0.1040 
  3 C        2.0670     0.2110     0.8330 C.2   1 <1>  -0.1400 
  4 N       -1.0560    -2.1130     0.7550 N.am  1 <1>  -0.4940 
  5 C        1.2790    -1.7880    -0.0860 C.2   1 <1>   0.0190 
  6 C        2.3580    -0.8380     0.0380 C.2   1 <1>  -0.1810 
  7 C        2.8380     1.4390     1.2810 C.3   1 <1>  -0.0600 
  8 C       -2.3460    -1.7210     0.9690 C.2   1 <1>   0.5690 
  9 C        1.3790    -2.9800    -0.8720 C.1   1 <1>   0.5380 
 10 C        3.6880    -1.0410    -0.6810 C.3   1 <1>   0.0210 
 11 O       -3.1650    -2.5850     1.1600 O.2   1 <1>  -0.5700 
 12 C       -2.7790    -0.2470     0.9350 C.3   1 <1>  -0.0190 
 13 N        1.4510    -3.9360    -1.4890 N.1   1 <1>  -0.5570 
 14 C        4.5670    -2.0440     0.0700 C.3   1 <1>  -0.2400 
 15 C       -4.3060    -0.0230     1.0650 C.3   1 <1>  -0.0800 
 16 C       -2.4690     0.4340    -0.4230 C.3   1 <1>  -0.1600 
 17 C       -4.7690    -0.1040    -0.3810 C.3   1 <1>  -0.1600 
 18 C       -4.5550     1.4640     1.3730 C.3   1 <1>  -0.1600 
 19 C       -3.8310     0.9840    -0.8730 C.3   1 <1>  -0.0800 
 20 C       -4.2090     2.1580     0.0440 C.3   1 <1>  -0.1600 
 21 H       -1.0190    -3.1300     0.6590 H     1 <1>   0.3700 
 22 H        2.3410     2.3280     0.9370 H     1 <1>   0.0800 
 23 H        3.8400     1.4320     0.8950 H     1 <1>   0.0800 
 24 H        2.8880     1.4650     2.3550 H     1 <1>   0.0800 
 25 H        4.2120    -0.1060    -0.7520 H     1 <1>   0.0800 
 26 H        3.5180    -1.3820    -1.6890 H     1 <1>   0.0800 
 27 H       -2.2890     0.2610     1.7430 H     1 <1>   0.0800 
 28 H        4.7430    -1.7020     1.0740 H     1 <1>   0.0800 
 29 H        5.5140    -2.1500    -0.4300 H     1 <1>   0.0800 
 30 H        4.0960    -3.0100     0.1120 H     1 <1>   0.0800 
 31 H       -4.8030    -0.6930     1.7470 H     1 <1>   0.0800 
 32 H       -2.1180    -0.2850    -1.1430 H     1 <1>   0.0800 
 33 H       -1.7360     1.2150    -0.3240 H     1 <1>   0.0800 
 34 H       -5.8080     0.1540    -0.5000 H     1 <1>   0.0800 
 35 H       -4.5730    -1.0640    -0.8290 H     1 <1>   0.0800 
 36 H       -3.9470     1.8190     2.1870 H     1 <1>   0.0800 
 37 H       -5.5920     1.6230     1.6150 H     1 <1>   0.0800 
 38 H       -3.8930     1.2060    -1.9250 H     1 <1>   0.0800 
 39 H       -3.4000     2.8590     0.1530 H     1 <1>   0.0800 
 40 H       -5.0720     2.6710    -0.3420 H     1 <1>   0.0800 
@<TRIPOS>BOND
  1   1   2  1   
  2   1   3  1   
  3   2   4  1   
  4   2   5  2   
  5   3   6  2   
  6   3   7  1   
  7   4   8  am  
  8   4  21  1   
  9   5   6  1   
 10   5   9  1   
 11   6  10  1   
 12   7  22  1   
 13   7  23  1   
 14   7  24  1   
 15   8  11  2   
 16   8  12  1   
 17   9  13  3   
 18  10  14  1   
 19  10  25  1   
 20  10  26  1   
 21  12  15  1   
 22  12  16  1   
 23  12  27  1   
 24  14  28  1   
 25  14  29  1   
 26  14  30  1   
 27  15  17  1   
 28  15  18  1   
 29  15  31  1   
 30  16  19  1   
 31  16  32  1   
 32  16  33  1   
 33  17  19  1   
 34  17  34  1   
 35  17  35  1   
 36  18  20  1   
 37  18  36  1   
 38  18  37  1   
 39  19  20  1   
 40  19  38  1   
 41  20  39  1   
 42  20  40  1   
@<TRIPOS>SUBSTRUCTURE
  1 ****   2 GROUP 4 **** **** 0

# MOE 2024.06 (io_trps.svl 2023.06)
