@<TRIPOS>MOLECULE
NONAME
41 42 1 0 0 
SMALL
USER_CHARGES


@<TRIPOS>ATOM
  1 O       -1.2870     0.9990    -1.6800 O.2   1 <1>  -0.5700 
  2 C       -2.1300     1.2030    -0.8450 C.2   1 <1>   0.5690 
  3 N       -3.2250     0.4100    -0.7960 N.am  1 <1>  -0.7300 
  4 C       -1.9280     2.3510     0.1290 C.3   1 <1>  -0.0990 
  5 C       -4.3920     0.4670     0.0980 C.3   1 <1>   0.2200 
  6 C       -2.7630     3.5870    -0.2490 C.3   1 <1>  -0.1600 
  7 C       -4.5030    -0.8610     0.8530 C.3   1 <1>  -0.1600 
  8 C       -5.6450     0.7340    -0.7410 C.3   1 <1>  -0.1600 
  9 C       -2.5380     4.7450     0.7280 C.3   1 <1>  -0.0170 
 10 C       -5.7640    -0.8940     1.7300 C.3   1 <1>  -0.1600 
 11 C       -6.9100     0.7070     0.1300 C.3   1 <1>  -0.1600 
 12 C       -3.4250     5.9230     0.3610 C.ar  1 <1>  -0.1440 
 13 C       -7.0250    -0.6160     0.8990 C.3   1 <1>  -0.1600 
 14 C       -3.0040     6.8480    -0.5810 C.ar  1 <1>  -0.1500 
 15 C       -4.6660     6.0810     0.9600 C.ar  1 <1>  -0.1500 
 16 C       -3.8110     7.9200    -0.9200 C.ar  1 <1>  -0.1500 
 17 C       -5.4740     7.1530     0.6230 C.ar  1 <1>  -0.1500 
 18 C       -5.0480     8.0730    -0.3170 C.ar  1 <1>  -0.1500 
 19 H       -3.2570    -0.3230    -1.5050 H     1 <1>   0.3700 
 20 H       -0.8850     2.6130     0.1220 H     1 <1>   0.0800 
 21 H       -2.1710     2.0190     1.1210 H     1 <1>   0.0800 
 22 H       -4.2770     1.2630     0.8120 H     1 <1>   0.0800 
 23 H       -3.8080     3.3330    -0.2590 H     1 <1>   0.0800 
 24 H       -2.4950     3.9030    -1.2430 H     1 <1>   0.0800 
 25 H       -3.6340    -0.9930     1.4730 H     1 <1>   0.0800 
 26 H       -4.5460    -1.6730     0.1490 H     1 <1>   0.0800 
 27 H       -5.7330    -0.0170    -1.5070 H     1 <1>   0.0800 
 28 H       -5.5610     1.6950    -1.2170 H     1 <1>   0.0800 
 29 H       -1.5060     5.0510     0.7020 H     1 <1>   0.0800 
 30 H       -2.7610     4.4280     1.7320 H     1 <1>   0.0800 
 31 H       -5.6790    -0.1530     2.5070 H     1 <1>   0.0800 
 32 H       -5.8490    -1.8580     2.2020 H     1 <1>   0.0800 
 33 H       -7.7790     0.8390    -0.4920 H     1 <1>   0.0800 
 34 H       -6.8790     1.5250     0.8300 H     1 <1>   0.0800 
 35 H       -7.8840    -0.5830     1.5470 H     1 <1>   0.0800 
 36 H       -7.1740    -1.4220     0.2000 H     1 <1>   0.0800 
 37 H       -2.0450     6.7360    -1.0570 H     1 <1>   0.1500 
 38 H       -5.0080     5.3710     1.6920 H     1 <1>   0.1500 
 39 H       -3.4780     8.6340    -1.6520 H     1 <1>   0.1500 
 40 H       -6.4350     7.2700     1.0920 H     1 <1>   0.1500 
 41 H       -5.6750     8.9070    -0.5800 H     1 <1>   0.1500 
@<TRIPOS>BOND
  1   1   2  2   
  2   2   3  am  
  3   2   4  1   
  4   3   5  1   
  5   3  19  1   
  6   4   6  1   
  7   4  20  1   
  8   4  21  1   
  9   5   7  1   
 10   5   8  1   
 11   5  22  1   
 12   6   9  1   
 13   6  23  1   
 14   6  24  1   
 15   7  10  1   
 16   7  25  1   
 17   7  26  1   
 18   8  11  1   
 19   8  27  1   
 20   8  28  1   
 21   9  12  1   
 22   9  29  1   
 23   9  30  1   
 24  10  13  1   
 25  10  31  1   
 26  10  32  1   
 27  11  13  1   
 28  11  33  1   
 29  11  34  1   
 30  12  14  ar  
 31  12  15  ar  
 32  13  35  1   
 33  13  36  1   
 34  14  16  ar  
 35  14  37  1   
 36  15  17  ar  
 37  15  38  1   
 38  16  18  ar  
 39  16  39  1   
 40  17  18  ar  
 41  17  40  1   
 42  18  41  1   
@<TRIPOS>SUBSTRUCTURE
  1 ****   6 GROUP 4 **** **** 0

# MOE 2024.06 (io_trps.svl 2023.06)
