@<TRIPOS>MOLECULE
NONAME
36 38 1 0 0 
SMALL
USER_CHARGES


@<TRIPOS>ATOM
  1 CL      -2.1650    -3.0910    -1.4500 Cl    1 <1>  -0.2900 
  2 C       -1.6670    -1.8380    -0.3080 C.3   1 <1>   0.1910 
  3 C       -2.8570    -1.3000     0.4740 C.2   1 <1>   0.5690 
  4 O       -2.6470    -0.7200     1.5110 O.2   1 <1>  -0.5700 
  5 N       -4.1140    -1.4720    -0.0020 N.am  1 <1>  -0.7300 
  6 C       -5.3420    -1.0290     0.6550 C.3   1 <1>   0.4000 
  7 C       -6.3420    -2.1590     0.5490 C.2   1 <1>  -0.3320 
  8 C       -5.8790     0.2180    -0.0710 C.3   1 <1>  -0.1600 
  9 N       -6.0940    -3.4630     0.8700 N.pl3 1 <1>   0.0330 
 10 C       -7.6220    -2.0310     0.1360 C.2   1 <1>  -0.1810 
 11 C       -7.3800     0.4600     0.2000 C.3   1 <1>  -0.1600 
 12 C       -7.2410    -4.1810     0.6380 C.ar  1 <1>  -0.1520 
 13 C       -8.2210    -3.3090     0.1740 C.ar  1 <1>   0.0000 
 14 C       -8.2510    -0.7170    -0.2820 C.3   1 <1>   0.0210 
 15 C       -7.5130    -5.5420     0.7950 C.ar  1 <1>  -0.1500 
 16 C       -9.4930    -3.8000    -0.1390 C.ar  1 <1>  -0.1500 
 17 C       -8.7690    -6.0090     0.4830 C.ar  1 <1>  -0.1500 
 18 C       -9.7650    -5.1420     0.0140 C.ar  1 <1>  -0.1430 
 19 C      -11.1350    -5.7050    -0.3170 C.3   1 <1>  -0.0970 
 20 H       -1.2060    -1.0480    -0.8700 H     1 <1>   0.0800 
 21 H       -0.9520    -2.2750     0.3620 H     1 <1>   0.0800 
 22 H       -4.2760    -2.0030    -0.8610 H     1 <1>   0.3700 
 23 H       -5.1580    -0.8060     1.6940 H     1 <1>   0.0800 
 24 H       -5.7460     0.0960    -1.1310 H     1 <1>   0.0800 
 25 H       -5.3110     1.0740     0.2470 H     1 <1>   0.0800 
 26 H       -5.2080    -3.8440     1.2140 H     1 <1>   0.2700 
 27 H       -7.7000     1.3640    -0.2870 H     1 <1>   0.0800 
 28 H       -7.5250     0.5860     1.2600 H     1 <1>   0.0800 
 29 H       -9.2380    -0.6360     0.1360 H     1 <1>   0.0800 
 30 H       -8.3320    -0.7010    -1.3540 H     1 <1>   0.0800 
 31 H       -6.7480    -6.2050     1.1540 H     1 <1>   0.1500 
 32 H      -10.2350    -3.1120    -0.4950 H     1 <1>   0.1500 
 33 H       -8.9950    -7.0550     0.5970 H     1 <1>   0.1500 
 34 H      -11.7950    -4.9300    -0.6620 H     1 <1>   0.0800 
 35 H      -11.5650    -6.1570     0.5580 H     1 <1>   0.0800 
 36 H      -11.0460    -6.4490    -1.0880 H     1 <1>   0.0800 
@<TRIPOS>BOND
  1   1   2  1   
  2   2   3  1   
  3   2  20  1   
  4   2  21  1   
  5   3   4  2   
  6   3   5  am  
  7   5   6  1   
  8   5  22  1   
  9   6   7  1   
 10   6   8  1   
 11   6  23  1   
 12   7   9  1   
 13   7  10  2   
 14   8  11  1   
 15   8  24  1   
 16   8  25  1   
 17   9  12  1   
 18   9  26  1   
 19  10  13  1   
 20  10  14  1   
 21  11  14  1   
 22  11  27  1   
 23  11  28  1   
 24  12  13  ar  
 25  12  15  ar  
 26  13  16  ar  
 27  14  29  1   
 28  14  30  1   
 29  15  17  ar  
 30  15  31  1   
 31  16  18  ar  
 32  16  32  1   
 33  17  18  ar  
 34  17  33  1   
 35  18  19  1   
 36  19  34  1   
 37  19  35  1   
 38  19  36  1   
@<TRIPOS>SUBSTRUCTURE
  1 ****   7 GROUP 4 **** **** 0

# MOE 2024.06 (io_trps.svl 2023.06)
