@<TRIPOS>MOLECULE
NONAME
54 56 1 0 0 
SMALL
USER_CHARGES


@<TRIPOS>ATOM
  1 S        0.3540     0.1510     1.0440 S.o2  1 <1>   1.4470 
  2 O        0.0260     0.3410     2.4410 O.2   1 <1>  -0.6500 
  3 O        0.3870     1.2950     0.1600 O.2   1 <1>  -0.6500 
  4 N        1.8940    -0.5580     1.0050 N.am  1 <1>  -0.8490 
  5 C       -0.7010    -1.1350     0.3180 C.ar  1 <1>  -0.0090 
  6 C        2.0170    -1.6500     1.9750 C.3   1 <1>   0.1960 
  7 C        2.9460     0.4410     1.2070 C.3   1 <1>   0.1960 
  8 C       -0.4350    -1.6400    -0.9500 C.ar  1 <1>  -0.1500 
  9 C       -1.7910    -1.6560     1.0080 C.ar  1 <1>  -0.1500 
 10 C        3.3410    -2.3830     1.7600 C.3   1 <1>  -0.1600 
 11 C        4.3170    -0.1950     0.9700 C.3   1 <1>  -0.1600 
 12 C       -1.2220    -2.6320    -1.5070 C.ar  1 <1>  -0.1500 
 13 C       -2.5850    -2.6490     0.4600 C.ar  1 <1>  -0.1500 
 14 C        4.5360    -1.4200     1.8770 C.3   1 <1>  -0.0190 
 15 C       -2.3000    -3.1460    -0.8080 C.ar  1 <1>   0.0830 
 16 C        5.8560    -2.1190     1.5750 C.2   1 <1>   0.5690 
 17 O       -3.0180    -4.1190    -1.4190 O.3   1 <1>  -0.3630 
 18 O        6.7050    -2.1620     2.4320 O.2   1 <1>  -0.5700 
 19 N        6.0340    -2.6750     0.3510 N.am  1 <1>  -0.7300 
 20 C       -4.1520    -4.6910    -0.8110 C.3   1 <1>   0.1200 
 21 C        7.2310    -3.3980    -0.1010 C.3   1 <1>   0.2200 
 22 C       -4.7270    -5.7320    -1.7670 C.3   1 <1>  -0.2400 
 23 C        7.7190    -2.7680    -1.3980 C.3   1 <1>  -0.1600 
 24 C        6.8160    -4.8010    -0.5270 C.3   1 <1>  -0.1600 
 25 C        6.8300    -3.3490    -2.5050 C.3   1 <1>  -0.1600 
 26 C        6.2510    -4.6560    -1.9450 C.3   1 <1>  -0.1600 
 27 H        1.2080    -2.3490     1.8460 H     1 <1>   0.0800 
 28 H        1.9690    -1.2610     2.9800 H     1 <1>   0.0800 
 29 H        2.8840     0.8440     2.2050 H     1 <1>   0.0800 
 30 H        2.8210     1.2530     0.5090 H     1 <1>   0.0800 
 31 H        0.4010    -1.2480    -1.5060 H     1 <1>   0.1500 
 32 H       -2.0210    -1.2780     1.9900 H     1 <1>   0.1500 
 33 H        3.3200    -2.8440     0.7880 H     1 <1>   0.0800 
 34 H        3.4390    -3.1650     2.4920 H     1 <1>   0.0800 
 35 H        5.0850     0.5330     1.1610 H     1 <1>   0.0800 
 36 H        4.3840    -0.4790    -0.0650 H     1 <1>   0.0800 
 37 H       -1.0060    -3.0140    -2.4890 H     1 <1>   0.1500 
 38 H       -3.4150    -3.0200     1.0310 H     1 <1>   0.1500 
 39 H        4.5820    -1.0730     2.8950 H     1 <1>   0.0800 
 40 H        5.2920    -2.6180    -0.3450 H     1 <1>   0.3700 
 41 H       -4.8690    -3.9100    -0.6240 H     1 <1>   0.0800 
 42 H       -3.8480    -5.1510     0.1130 H     1 <1>   0.0800 
 43 H        7.9890    -3.4060     0.6670 H     1 <1>   0.0800 
 44 H       -5.0120    -5.2650    -2.6930 H     1 <1>   0.0800 
 45 H       -5.5970    -6.1870    -1.3300 H     1 <1>   0.0800 
 46 H       -3.9980    -6.4980    -1.9610 H     1 <1>   0.0800 
 47 H        8.7340    -3.0810    -1.5660 H     1 <1>   0.0800 
 48 H        7.6940    -1.6930    -1.3630 H     1 <1>   0.0800 
 49 H        6.1160    -5.2440     0.1590 H     1 <1>   0.0800 
 50 H        7.6970    -5.4170    -0.5640 H     1 <1>   0.0800 
 51 H        7.3990    -3.5230    -3.4010 H     1 <1>   0.0800 
 52 H        6.0300    -2.6650    -2.7300 H     1 <1>   0.0800 
 53 H        5.1770    -4.5910    -1.9070 H     1 <1>   0.0800 
 54 H        6.5260    -5.5000    -2.5540 H     1 <1>   0.0800 
@<TRIPOS>BOND
  1   1   2  2   
  2   1   3  2   
  3   1   4  am  
  4   1   5  1   
  5   4   6  1   
  6   4   7  1   
  7   5   8  ar  
  8   5   9  ar  
  9   6  10  1   
 10   6  27  1   
 11   6  28  1   
 12   7  11  1   
 13   7  29  1   
 14   7  30  1   
 15   8  12  ar  
 16   8  31  1   
 17   9  13  ar  
 18   9  32  1   
 19  10  14  1   
 20  10  33  1   
 21  10  34  1   
 22  11  14  1   
 23  11  35  1   
 24  11  36  1   
 25  12  15  ar  
 26  12  37  1   
 27  13  15  ar  
 28  13  38  1   
 29  14  16  1   
 30  14  39  1   
 31  15  17  1   
 32  16  18  2   
 33  16  19  am  
 34  17  20  1   
 35  19  21  1   
 36  19  40  1   
 37  20  22  1   
 38  20  41  1   
 39  20  42  1   
 40  21  23  1   
 41  21  24  1   
 42  21  43  1   
 43  22  44  1   
 44  22  45  1   
 45  22  46  1   
 46  23  25  1   
 47  23  47  1   
 48  23  48  1   
 49  24  26  1   
 50  24  49  1   
 51  24  50  1   
 52  25  26  1   
 53  25  51  1   
 54  25  52  1   
 55  26  53  1   
 56  26  54  1   
@<TRIPOS>SUBSTRUCTURE
  1 ****   4 GROUP 4 **** **** 0

# MOE 2024.06 (io_trps.svl 2023.06)
