@<TRIPOS>MOLECULE
NONAME
33 34 1 0 0 
SMALL
USER_CHARGES


@<TRIPOS>ATOM
  1 CL       0.5890    -0.2980     0.0780 Cl    1 <1>  -0.1770 
  2 C        1.9970     0.7260     0.1720 C.ar  1 <1>   0.1770 
  3 C        2.9840     0.4390     1.0950 C.ar  1 <1>  -0.1500 
  4 C        2.1050     1.8110    -0.6770 C.ar  1 <1>  -0.1500 
  5 C        4.1030     1.2530     1.1680 C.ar  1 <1>  -0.1500 
  6 C        3.2240     2.6230    -0.6020 C.ar  1 <1>  -0.1500 
  7 C        4.2280     2.3460     0.3190 C.ar  1 <1>  -0.1430 
  8 C        5.4540     3.2310     0.3920 C.3   1 <1>   0.4870 
  9 N        6.4870     2.6040    -0.4550 N.4   1 <1>  -0.9060 
 10 C        7.7780     3.3640    -0.5430 C.3   1 <1>   0.3430 
 11 C        8.9590     2.4410    -0.9090 C.3   1 <1>   0.3810 
 12 O        8.7490     1.2000    -0.2930 O.3   1 <1>  -0.6800 
 13 C       10.2800     3.0420    -0.4400 C.2   1 <1>   0.3350 
 14 N       10.5310     4.3350    -0.5840 N.2   1 <1>  -0.2270 
 15 N       11.2230     2.3730     0.1170 N.2   1 <1>  -0.7070 
 16 N       11.6930     4.5150    -0.0960 N.2   1 <1>  -0.4180 
 17 N       12.1090     3.3290     0.3190 N.pl3 1 <1>   0.5800 
 18 C       13.4150     3.0960     0.9420 C.3   1 <1>   0.0160 
 19 H        2.8700    -0.4110     1.7460 H     1 <1>   0.1500 
 20 H        1.3170     2.0110    -1.3820 H     1 <1>   0.1500 
 21 H        4.8630     1.0210     1.8960 H     1 <1>   0.1500 
 22 H        3.2930     3.4690    -1.2670 H     1 <1>   0.1500 
 23 H        5.7960     3.3050     1.4130 H     1 <1>   0.0800 
 24 H        5.2160     4.2180     0.0300 H     1 <1>   0.0800 
 25 H        6.0910     2.4010    -1.3800 H     1 <1>   0.4500 
 26 H        6.7300     1.6770    -0.0620 H     1 <1>   0.4500 
 27 H        8.0000     3.8020     0.4170 H     1 <1>   0.0800 
 28 H        7.7080     4.1680    -1.2570 H     1 <1>   0.0800 
 29 H        9.0030     2.2810    -1.9720 H     1 <1>   0.0800 
 30 H        9.6410     0.8430    -0.0590 H     1 <1>   0.4000 
 31 H       13.9630     2.3870     0.3490 H     1 <1>   0.0800 
 32 H       13.2670     2.7050     1.9310 H     1 <1>   0.0800 
 33 H       13.9570     4.0220     0.9930 H     1 <1>   0.0800 
@<TRIPOS>BOND
  1   1   2  1   
  2   2   3  ar  
  3   2   4  ar  
  4   3   5  ar  
  5   3  19  1   
  6   4   6  ar  
  7   4  20  1   
  8   5   7  ar  
  9   5  21  1   
 10   6   7  ar  
 11   6  22  1   
 12   7   8  1   
 13   8   9  1   
 14   8  23  1   
 15   8  24  1   
 16   9  10  1   
 17   9  25  1   
 18   9  26  1   
 19  10  11  1   
 20  10  27  1   
 21  10  28  1   
 22  11  12  1   
 23  11  13  1   
 24  11  29  1   
 25  12  30  1   
 26  13  14  1   
 27  13  15  2   
 28  14  16  2   
 29  15  17  1   
 30  16  17  1   
 31  17  18  1   
 32  18  31  1   
 33  18  32  1   
 34  18  33  1   
@<TRIPOS>SUBSTRUCTURE
  1 ****   9 GROUP 4 **** **** 0

# MOE 2024.06 (io_trps.svl 2023.06)
