@<TRIPOS>MOLECULE
NONAME
37 38 1 0 0 
SMALL
USER_CHARGES


@<TRIPOS>ATOM
  1 O        1.1560    -1.4690    -1.5070 O.3   1 <1>  -0.5600 
  2 C        1.7470    -0.2060    -1.3400 C.3   1 <1>   0.1200 
  3 C        0.6060    -2.0060    -0.3350 C.3   1 <1>   0.1200 
  4 C        2.8080    -0.2190    -0.2150 C.3   1 <1>   0.3430 
  5 C        1.6950    -2.2100     0.7450 C.3   1 <1>   0.3430 
  6 N        3.0050    -1.6070     0.3300 N.4   1 <1>  -0.9590 
  7 C        4.0610    -1.6980     1.3730 C.3   1 <1>   0.4860 
  8 C        5.3610    -1.1760     0.7940 C.ar  1 <1>  -0.1430 
  9 C        5.7910     0.1010     1.1190 C.ar  1 <1>  -0.1500 
 10 C        6.1200    -1.9540    -0.0690 C.ar  1 <1>  -0.1500 
 11 C        6.9570     0.6140     0.5780 C.ar  1 <1>   0.0830 
 12 C        7.2970    -1.4470    -0.6140 C.ar  1 <1>   0.0830 
 13 O        7.2870     1.8760     0.9430 O.3   1 <1>  -0.3630 
 14 C        7.7090    -0.1650    -0.2920 C.ar  1 <1>  -0.1500 
 15 O        8.0910    -2.1400    -1.4660 O.3   1 <1>  -0.3630 
 16 C        8.4940     2.4670     0.5120 C.3   1 <1>   0.0400 
 17 C        7.8640    -3.5000    -1.7650 C.3   1 <1>   0.0400 
 18 H        0.9740     0.5120    -1.1250 H     1 <1>   0.0800 
 19 H        2.2050     0.0650    -2.2750 H     1 <1>   0.0800 
 20 H        0.1490    -2.9480    -0.5860 H     1 <1>   0.0800 
 21 H       -0.1640    -1.3420     0.0190 H     1 <1>   0.0800 
 22 H        2.4950     0.4460     0.5720 H     1 <1>   0.0800 
 23 H        3.7370     0.1630    -0.6100 H     1 <1>   0.0800 
 24 H        1.8170    -3.2670     0.9190 H     1 <1>   0.0800 
 25 H        1.3560    -1.7670     1.6660 H     1 <1>   0.0800 
 26 H        3.3180    -2.1500    -0.4870 H     1 <1>   0.4500 
 27 H        4.1930    -2.7230     1.6820 H     1 <1>   0.0800 
 28 H        3.7860    -1.1130     2.2350 H     1 <1>   0.0800 
 29 H        5.2370     0.7270     1.7970 H     1 <1>   0.1500 
 30 H        5.7980    -2.9480    -0.3170 H     1 <1>   0.1500 
 31 H        8.6180     0.1960    -0.7330 H     1 <1>   0.1500 
 32 H        8.5600     3.4490     0.9450 H     1 <1>   0.0800 
 33 H        8.4840     2.5420    -0.5610 H     1 <1>   0.0800 
 34 H        9.3190     1.8640     0.8480 H     1 <1>   0.0800 
 35 H        8.6560    -3.8350    -2.4110 H     1 <1>   0.0800 
 36 H        6.9200    -3.5960    -2.2700 H     1 <1>   0.0800 
 37 H        7.8770    -4.0660    -0.8510 H     1 <1>   0.0800 
@<TRIPOS>BOND
  1   1   2  1   
  2   1   3  1   
  3   2   4  1   
  4   2  18  1   
  5   2  19  1   
  6   3   5  1   
  7   3  20  1   
  8   3  21  1   
  9   4   6  1   
 10   4  22  1   
 11   4  23  1   
 12   5   6  1   
 13   5  24  1   
 14   5  25  1   
 15   6   7  1   
 16   6  26  1   
 17   7   8  1   
 18   7  27  1   
 19   7  28  1   
 20   8   9  ar  
 21   8  10  ar  
 22   9  11  ar  
 23   9  29  1   
 24  10  12  ar  
 25  10  30  1   
 26  11  13  1   
 27  11  14  ar  
 28  12  14  ar  
 29  12  15  1   
 30  13  16  1   
 31  14  31  1   
 32  15  17  1   
 33  16  32  1   
 34  16  33  1   
 35  16  34  1   
 36  17  35  1   
 37  17  36  1   
 38  17  37  1   
@<TRIPOS>SUBSTRUCTURE
  1 ****   8 GROUP 4 **** **** 0

# MOE 2024.06 (io_trps.svl 2023.06)
