@<TRIPOS>MOLECULE
NONAME
44 46 1 0 0 
SMALL
USER_CHARGES


@<TRIPOS>ATOM
  1 O       -1.3970     1.0660     0.8200 O.3   1 <1>  -0.2800 
  2 C       -1.8460     0.9250    -0.4140 C.2   1 <1>  -0.0400 
  3 C       -0.3030     1.7980     0.7660 C.2   1 <1>  -0.0100 
  4 C       -1.0390     1.5720    -1.2840 C.2   1 <1>  -0.1500 
  5 C       -3.1120     0.1170    -0.6600 C.3   1 <1>   0.2900 
  6 C       -0.0250     2.1460    -0.5080 C.2   1 <1>  -0.1500 
  7 N       -4.2770     0.6800     0.0610 N.3   1 <1>  -0.8100 
  8 C       -5.4810    -0.1550    -0.0890 C.3   1 <1>   0.1100 
  9 C       -4.5390     2.0930    -0.2780 C.3   1 <1>   0.1100 
 10 C       -6.6370     0.3870     0.7750 C.3   1 <1>   0.3430 
 11 C       -5.6810     2.6620     0.5850 C.3   1 <1>   0.3430 
 12 N       -6.9310     1.8340     0.4780 N.4   1 <1>  -0.9590 
 13 C       -8.0080     2.3750     1.3310 C.3   1 <1>   0.4810 
 14 C       -9.3020     1.7670     0.8500 C.2   1 <1>  -0.2880 
 15 C      -10.2150     2.4050     0.0960 C.2   1 <1>  -0.1780 
 16 C      -11.4680     1.8820    -0.4030 C.ar  1 <1>   0.0280 
 17 C      -12.1130     2.5160    -1.4620 C.ar  1 <1>  -0.1500 
 18 C      -12.0740     0.7500     0.1380 C.ar  1 <1>  -0.1500 
 19 C      -13.3080     2.0370    -1.9680 C.ar  1 <1>  -0.1500 
 20 C      -13.2680     0.2650    -0.3640 C.ar  1 <1>  -0.1500 
 21 C      -13.8870     0.9080    -1.4200 C.ar  1 <1>  -0.1500 
 22 H        0.2170     2.0220     1.6810 H     1 <1>   0.1500 
 23 H       -1.1200     1.6520    -2.3540 H     1 <1>   0.1500 
 24 H       -2.9360    -0.8890    -0.3200 H     1 <1>   0.0800 
 25 H       -3.3140     0.0860    -1.7170 H     1 <1>   0.0800 
 26 H        0.7940     2.7350    -0.8820 H     1 <1>   0.1500 
 27 H       -5.7820    -0.1900    -1.1230 H     1 <1>   0.0800 
 28 H       -5.2560    -1.1600     0.2270 H     1 <1>   0.0800 
 29 H       -3.6570     2.6820    -0.0890 H     1 <1>   0.0800 
 30 H       -4.7820     2.1870    -1.3230 H     1 <1>   0.0800 
 31 H       -6.3600     0.2790     1.8110 H     1 <1>   0.0800 
 32 H       -7.5160    -0.2120     0.6000 H     1 <1>   0.0800 
 33 H       -5.8810     3.6760     0.2810 H     1 <1>   0.0800 
 34 H       -5.3440     2.6820     1.6090 H     1 <1>   0.0800 
 35 H       -7.2700     1.8850    -0.4900 H     1 <1>   0.4500 
 36 H       -7.8360     2.1460     2.3710 H     1 <1>   0.0800 
 37 H       -8.0590     3.4470     1.2170 H     1 <1>   0.0800 
 38 H       -9.4320     0.7500     1.1730 H     1 <1>   0.1500 
 39 H      -10.0420     3.4250    -0.2060 H     1 <1>   0.1500 
 40 H      -11.6800     3.3960    -1.9020 H     1 <1>   0.1500 
 41 H      -11.6210     0.2380     0.9650 H     1 <1>   0.1500 
 42 H      -13.7890     2.5420    -2.7880 H     1 <1>   0.1500 
 43 H      -13.7210    -0.6110     0.0670 H     1 <1>   0.1500 
 44 H      -14.8170     0.5320    -1.8130 H     1 <1>   0.1500 
@<TRIPOS>BOND
  1   1   2  1   
  2   1   3  1   
  3   2   4  2   
  4   2   5  1   
  5   3   6  2   
  6   3  22  1   
  7   4   6  1   
  8   4  23  1   
  9   5   7  1   
 10   5  24  1   
 11   5  25  1   
 12   6  26  1   
 13   7   8  1   
 14   7   9  1   
 15   8  10  1   
 16   8  27  1   
 17   8  28  1   
 18   9  11  1   
 19   9  29  1   
 20   9  30  1   
 21  10  12  1   
 22  10  31  1   
 23  10  32  1   
 24  11  12  1   
 25  11  33  1   
 26  11  34  1   
 27  12  13  1   
 28  12  35  1   
 29  13  14  1   
 30  13  36  1   
 31  13  37  1   
 32  14  15  2   
 33  14  38  1   
 34  15  16  1   
 35  15  39  1   
 36  16  17  ar  
 37  16  18  ar  
 38  17  19  ar  
 39  17  40  1   
 40  18  20  ar  
 41  18  41  1   
 42  19  21  ar  
 43  19  42  1   
 44  20  21  ar  
 45  20  43  1   
 46  21  44  1   
@<TRIPOS>SUBSTRUCTURE
  1 ****  12 GROUP 4 **** **** 0

# MOE 2024.06 (io_trps.svl 2023.06)
