@<TRIPOS>MOLECULE
NONAME
30 31 1 0 0 
SMALL
USER_CHARGES


@<TRIPOS>ATOM
  1 CL       0.0000    -0.8840     1.2310 Cl    1 <1>  -0.1400 
  2 C       -1.6470    -1.2330     0.7100 C.2   1 <1>   0.1540 
  3 C       -2.6900    -0.4450     1.2980 C.2   1 <1>   0.5650 
  4 C       -1.8890    -2.2130    -0.2100 C.2   1 <1>  -0.0380 
  5 O       -2.4640     0.4250     2.1320 O.2   1 <1>  -0.5700 
  6 N       -4.0010    -0.7380     0.8580 N.pl3 1 <1>   0.5610 
  7 N       -3.1900    -2.4600    -0.5930 N.pl3 1 <1>  -0.5840 
  8 C       -0.8380    -3.0880    -0.8750 C.3   1 <1>  -0.1020 
  9 N       -5.2100    -0.2230     1.1790 N.2   1 <1>  -0.7070 
 10 C       -4.2280    -1.7180    -0.0540 C.2   1 <1>   0.2700 
 11 C       -6.0150    -0.9070     0.4430 C.2   1 <1>   0.5790 
 12 N       -5.4710    -1.8560    -0.3300 N.2   1 <1>  -0.5650 
 13 N       -7.3860    -0.7720     0.4050 N.am  1 <1>  -0.4930 
 14 C       -8.1850     0.2650     0.7680 C.2   1 <1>   0.5690 
 15 O       -7.7840     1.3320     1.1600 O.2   1 <1>  -0.5700 
 16 C       -9.6840     0.0630     0.6460 C.3   1 <1>  -0.0990 
 17 C      -10.1650     0.1400    -0.8130 C.3   1 <1>  -0.1600 
 18 C      -11.6810    -0.0600    -0.9090 C.3   1 <1>  -0.2400 
 19 H       -3.4400    -3.1810    -1.2820 H     1 <1>   0.4000 
 20 H       -1.0280    -4.1230    -0.6530 H     1 <1>   0.0800 
 21 H        0.1540    -2.8520    -0.5380 H     1 <1>   0.0800 
 22 H       -0.8700    -2.9530    -1.9410 H     1 <1>   0.0800 
 23 H       -7.8320    -1.5660    -0.0390 H     1 <1>   0.3700 
 24 H      -10.1750     0.8260     1.2240 H     1 <1>   0.0800 
 25 H       -9.9450    -0.8880     1.0730 H     1 <1>   0.0800 
 26 H       -9.6710    -0.6110    -1.4050 H     1 <1>   0.0800 
 27 H       -9.9070     1.1040    -1.2190 H     1 <1>   0.0800 
 28 H      -11.9620    -1.0250    -0.5270 H     1 <1>   0.0800 
 29 H      -11.9960     0.0050    -1.9360 H     1 <1>   0.0800 
 30 H      -12.1970     0.7000    -0.3480 H     1 <1>   0.0800 
@<TRIPOS>BOND
  1   1   2  1   
  2   2   3  1   
  3   2   4  2   
  4   3   5  2   
  5   3   6  1   
  6   4   7  1   
  7   4   8  1   
  8   6   9  1   
  9   6  10  1   
 10   7  10  1   
 11   7  19  1   
 12   8  20  1   
 13   8  21  1   
 14   8  22  1   
 15   9  11  2   
 16  10  12  2   
 17  11  12  1   
 18  11  13  1   
 19  13  14  am  
 20  13  23  1   
 21  14  15  2   
 22  14  16  1   
 23  16  17  1   
 24  16  24  1   
 25  16  25  1   
 26  17  18  1   
 27  17  26  1   
 28  17  27  1   
 29  18  28  1   
 30  18  29  1   
 31  18  30  1   
@<TRIPOS>SUBSTRUCTURE
  1 ****  11 GROUP 4 **** **** 0

# MOE 2024.06 (io_trps.svl 2023.06)
