@<TRIPOS>MOLECULE
NONAME
41 42 1 0 0 
SMALL
USER_CHARGES


@<TRIPOS>ATOM
  1 O       -0.0990     0.8160     1.4070 O.2   1 <1>  -0.5700 
  2 C       -0.9650     1.2930     0.7070 C.2   1 <1>   0.5690 
  3 N       -0.6760     1.8810    -0.4910 N.am  1 <1>  -0.4940 
  4 C       -2.4240     1.2420     1.1780 C.3   1 <1>   0.2610 
  5 C        0.5640     2.0540    -1.0980 C.2   1 <1>   0.2500 
  6 O       -3.2860     1.5100     0.0780 O.3   1 <1>  -0.3630 
  7 C       -2.7070     2.2810     2.2730 C.3   1 <1>  -0.2400 
  8 N        0.7420     2.6320    -2.2400 N.2   1 <1>  -0.3380 
  9 N        1.7210     1.6460    -0.5780 N.pl3 1 <1>   0.0330 
 10 C       -4.5740     1.0860     0.0260 C.ar  1 <1>   0.0820 
 11 N        2.0590     2.6080    -2.4880 N.2   1 <1>  -0.3380 
 12 C        2.6200     2.0190    -1.4910 C.2   1 <1>   0.0370 
 13 C       -5.2060     0.3610     1.0300 C.ar  1 <1>  -0.1500 
 14 C       -5.2860     1.4080    -1.1150 C.ar  1 <1>  -0.1500 
 15 C       -6.5250    -0.0290     0.8760 C.ar  1 <1>  -0.1500 
 16 C       -6.6040     1.0150    -1.2620 C.ar  1 <1>  -0.1500 
 17 C       -7.2520     0.2870    -0.2670 C.ar  1 <1>  -0.1430 
 18 C       -8.7200    -0.1770    -0.3850 C.3   1 <1>   0.1430 
 19 C       -9.5430     0.4260     0.7640 C.3   1 <1>  -0.2400 
 20 C       -9.3870     0.2490    -1.7050 C.3   1 <1>  -0.2400 
 21 C       -8.7820    -1.7100    -0.3080 C.3   1 <1>  -0.2400 
 22 H       -1.4750     2.2200    -1.0310 H     1 <1>   0.3700 
 23 H       -2.6130     0.2450     1.5290 H     1 <1>   0.0800 
 24 H       -2.5040     3.2710     1.9070 H     1 <1>   0.0800 
 25 H       -2.0700     2.0950     3.1200 H     1 <1>   0.0800 
 26 H       -3.7290     2.2260     2.6000 H     1 <1>   0.0800 
 27 H        1.8240     1.1620     0.3180 H     1 <1>   0.2700 
 28 H        3.6760     1.8410    -1.3870 H     1 <1>   0.1500 
 29 H       -4.7010     0.0890     1.9350 H     1 <1>   0.1500 
 30 H       -4.8030     1.9700    -1.8940 H     1 <1>   0.1500 
 31 H       -6.9850    -0.5890     1.6700 H     1 <1>   0.1500 
 32 H       -7.1040     1.2940    -2.1700 H     1 <1>   0.1500 
 33 H       -9.1840     0.0880     1.7180 H     1 <1>   0.0800 
 34 H      -10.5770     0.1450     0.6790 H     1 <1>   0.0800 
 35 H       -9.4770     1.4990     0.7390 H     1 <1>   0.0800 
 36 H       -9.3940     1.3200    -1.7960 H     1 <1>   0.0800 
 37 H      -10.4050    -0.0950    -1.7420 H     1 <1>   0.0800 
 38 H       -8.8630    -0.1720    -2.5450 H     1 <1>   0.0800 
 39 H       -8.1800    -2.1400    -1.0880 H     1 <1>   0.0800 
 40 H       -9.7930    -2.0560    -0.4260 H     1 <1>   0.0800 
 41 H       -8.4160    -2.0670     0.6360 H     1 <1>   0.0800 
@<TRIPOS>BOND
  1   1   2  2   
  2   2   3  am  
  3   2   4  1   
  4   3   5  1   
  5   3  22  1   
  6   4   6  1   
  7   4   7  1   
  8   4  23  1   
  9   5   8  2   
 10   5   9  1   
 11   6  10  1   
 12   7  24  1   
 13   7  25  1   
 14   7  26  1   
 15   8  11  1   
 16   9  12  1   
 17   9  27  1   
 18  10  13  ar  
 19  10  14  ar  
 20  11  12  2   
 21  12  28  1   
 22  13  15  ar  
 23  13  29  1   
 24  14  16  ar  
 25  14  30  1   
 26  15  17  ar  
 27  15  31  1   
 28  16  17  ar  
 29  16  32  1   
 30  17  18  1   
 31  18  19  1   
 32  18  20  1   
 33  18  21  1   
 34  19  33  1   
 35  19  34  1   
 36  19  35  1   
 37  20  36  1   
 38  20  37  1   
 39  20  38  1   
 40  21  39  1   
 41  21  40  1   
 42  21  41  1   
@<TRIPOS>SUBSTRUCTURE
  1 ****   6 GROUP 4 **** **** 0

# MOE 2024.06 (io_trps.svl 2023.06)
