@<TRIPOS>MOLECULE
NONAME
47 49 1 0 0 
SMALL
USER_CHARGES


@<TRIPOS>ATOM
  1 O        0.1340     0.6570     0.1890 O.3   1 <1>  -0.3630 
  2 C        1.3940     1.1480     0.0200 C.ar  1 <1>   0.0820 
  3 C       -0.8430     0.7550    -0.8240 C.3   1 <1>   0.0400 
  4 C        1.7580     2.2340    -0.7910 C.ar  1 <1>   0.0820 
  5 C        2.3670     0.4800     0.7410 C.ar  1 <1>  -0.1500 
  6 O        0.8020     2.9240    -1.4780 O.3   1 <1>  -0.3630 
  7 C        3.1020     2.5960    -0.8600 C.ar  1 <1>  -0.1500 
  8 C        3.7010     0.8490     0.6770 C.ar  1 <1>  -0.1430 
  9 C        1.0950     4.0570    -2.2670 C.3   1 <1>   0.0400 
 10 C        4.0680     1.9150    -0.1360 C.ar  1 <1>  -0.1430 
 11 C        4.7170     0.0630     1.4990 C.3   1 <1>   0.7100 
 12 C        5.5200     2.3630    -0.2390 C.3   1 <1>  -0.0170 
 13 N        5.9430     0.8960     1.7170 N.4   1 <1>  -0.9590 
 14 C        5.0720    -1.2830     0.8620 C.ar  1 <1>  -0.1430 
 15 C        6.4950     1.3810     0.4190 C.3   1 <1>   0.3430 
 16 C        6.9880     0.1820     2.5120 C.3   1 <1>   0.2630 
 17 C        5.2010    -1.4330    -0.5130 C.ar  1 <1>  -0.1500 
 18 C        5.2670    -2.3950     1.6730 C.ar  1 <1>  -0.1500 
 19 C        5.5500    -2.6500    -1.0720 C.ar  1 <1>   0.0820 
 20 C        5.6080    -3.6180     1.1220 C.ar  1 <1>  -0.1500 
 21 O        5.6700    -2.6820    -2.4210 O.3   1 <1>  -0.3620 
 22 C        5.7550    -3.7490    -0.2470 C.ar  1 <1>  -0.1500 
 23 C        5.8880    -3.8940    -3.1090 C.3   1 <1>   0.0400 
 24 H       -1.6150     0.0360    -0.6160 H     1 <1>   0.0800 
 25 H       -0.3880     0.5420    -1.7750 H     1 <1>   0.0800 
 26 H       -1.2580     1.7460    -0.8110 H     1 <1>   0.0800 
 27 H        2.0510    -0.3480     1.3530 H     1 <1>   0.1500 
 28 H        3.4130     3.4180    -1.4770 H     1 <1>   0.1500 
 29 H        0.1720     4.4220    -2.6800 H     1 <1>   0.0800 
 30 H        1.7600     3.7680    -3.0610 H     1 <1>   0.0800 
 31 H        1.5380     4.8130    -1.6430 H     1 <1>   0.0800 
 32 H        4.2680    -0.1400     2.4570 H     1 <1>   0.0800 
 33 H        5.6230     3.3270     0.2290 H     1 <1>   0.0800 
 34 H        5.7920     2.4770    -1.2740 H     1 <1>   0.0800 
 35 H        5.6110     1.7190     2.2340 H     1 <1>   0.4500 
 36 H        7.4400     1.8750     0.5750 H     1 <1>   0.0800 
 37 H        6.6630     0.5440    -0.2400 H     1 <1>   0.0800 
 38 H        7.3460    -0.6800     1.9710 H     1 <1>   0.0800 
 39 H        6.5840    -0.1470     3.4560 H     1 <1>   0.0800 
 40 H        7.8230     0.8360     2.7060 H     1 <1>   0.0800 
 41 H        5.0260    -0.6130    -1.1880 H     1 <1>   0.1500 
 42 H        5.1520    -2.3300     2.7420 H     1 <1>   0.1500 
 43 H        5.7580    -4.4760     1.7580 H     1 <1>   0.1500 
 44 H        6.0250    -4.7080    -0.6500 H     1 <1>   0.1500 
 45 H        5.8950    -3.6840    -4.1630 H     1 <1>   0.0800 
 46 H        5.0870    -4.5750    -2.8790 H     1 <1>   0.0800 
 47 H        6.8380    -4.3010    -2.8120 H     1 <1>   0.0800 
@<TRIPOS>BOND
  1   1   2  1   
  2   1   3  1   
  3   2   4  ar  
  4   2   5  ar  
  5   3  24  1   
  6   3  25  1   
  7   3  26  1   
  8   4   6  1   
  9   4   7  ar  
 10   5   8  ar  
 11   5  27  1   
 12   6   9  1   
 13   7  10  ar  
 14   7  28  1   
 15   8  10  ar  
 16   8  11  1   
 17   9  29  1   
 18   9  30  1   
 19   9  31  1   
 20  10  12  1   
 21  11  13  1   
 22  11  14  1   
 23  11  32  1   
 24  12  15  1   
 25  12  33  1   
 26  12  34  1   
 27  13  15  1   
 28  13  16  1   
 29  13  35  1   
 30  14  17  ar  
 31  14  18  ar  
 32  15  36  1   
 33  15  37  1   
 34  16  38  1   
 35  16  39  1   
 36  16  40  1   
 37  17  19  ar  
 38  17  41  1   
 39  18  20  ar  
 40  18  42  1   
 41  19  21  1   
 42  19  22  ar  
 43  20  22  ar  
 44  20  43  1   
 45  21  23  1   
 46  22  44  1   
 47  23  45  1   
 48  23  46  1   
 49  23  47  1   
@<TRIPOS>SUBSTRUCTURE
  1 ****   8 GROUP 4 **** **** 0

# MOE 2024.06 (io_trps.svl 2023.06)
