@<TRIPOS>MOLECULE
NONAME
40 42 1 0 0 
SMALL
USER_CHARGES


@<TRIPOS>ATOM
  1 S        0.7100     0.7390    -0.3050 S.3   1 <1>  -0.3710 
  2 C       -0.8470     1.3280     0.3100 C.2   1 <1>   0.6410 
  3 C        1.7390     2.2570    -0.6130 C.3   1 <1>   0.1310 
  4 N       -1.2110     2.5800    -0.0710 N.pl3 1 <1>  -0.5500 
  5 N       -1.5210     0.5550     1.0720 N.2   1 <1>  -0.6610 
  6 C        3.1830     1.8950    -0.9390 C.2   1 <1>   0.5690 
  7 C       -2.3850     3.1400     0.3650 C.2   1 <1>   0.0720 
  8 C       -2.6980     1.0590     1.5420 C.2   1 <1>   0.7670 
  9 O        3.5850     2.2190    -2.0310 O.2   1 <1>  -0.5700 
 10 N        3.9970     1.2650    -0.0290 N.am  1 <1>  -0.6600 
 11 C       -2.7300     4.4730    -0.0650 C.ar  1 <1>   0.0280 
 12 C       -3.1320     2.3590     1.1870 C.2   1 <1>  -0.1360 
 13 O       -3.3710     0.3660     2.2890 O.2   1 <1>  -0.5700 
 14 C        5.3920     0.8620    -0.3850 C.3   1 <1>   0.1400 
 15 C        3.5960     0.8190     1.3420 C.3   1 <1>   0.1400 
 16 C       -2.7170     4.8220    -1.4140 C.ar  1 <1>  -0.1500 
 17 C       -3.0860     5.4530     0.8590 C.ar  1 <1>  -0.1500 
 18 C        6.3700     1.2150     0.7460 C.3   1 <1>   0.1200 
 19 C        4.6820     1.1660     2.3740 C.3   1 <1>   0.1200 
 20 C       -3.0380     6.1030    -1.8250 C.ar  1 <1>  -0.1500 
 21 C       -3.4090     6.7350     0.4540 C.ar  1 <1>  -0.1500 
 22 O        5.9300     0.6860     1.9650 O.3   1 <1>  -0.5600 
 23 C       -3.3840     7.0630    -0.8900 C.ar  1 <1>  -0.1500 
 24 H        1.6970     2.8680     0.2690 H     1 <1>   0.0800 
 25 H        1.3010     2.7760    -1.4450 H     1 <1>   0.0800 
 26 H       -0.6270     3.0880    -0.7330 H     1 <1>   0.4000 
 27 H       -4.0700     2.6830     1.5920 H     1 <1>   0.1500 
 28 H        5.7090     1.3510    -1.2900 H     1 <1>   0.0800 
 29 H        5.4200    -0.1990    -0.5570 H     1 <1>   0.0800 
 30 H        3.4460    -0.2470     1.3350 H     1 <1>   0.0800 
 31 H        2.6750     1.2800     1.6450 H     1 <1>   0.0800 
 32 H       -2.4630     4.0830    -2.1530 H     1 <1>   0.1500 
 33 H       -3.1050     5.2110     1.9070 H     1 <1>   0.1500 
 34 H        6.4650     2.2830     0.8450 H     1 <1>   0.0800 
 35 H        7.3410     0.8000     0.5400 H     1 <1>   0.0800 
 36 H        4.4520     0.7120     3.3220 H     1 <1>   0.0800 
 37 H        4.7510     2.2320     2.5090 H     1 <1>   0.0800 
 38 H       -3.0240     6.3570    -2.8710 H     1 <1>   0.1500 
 39 H       -3.6810     7.4800     1.1820 H     1 <1>   0.1500 
 40 H       -3.6360     8.0610    -1.2070 H     1 <1>   0.1500 
@<TRIPOS>BOND
  1   1   2  1   
  2   1   3  1   
  3   2   4  1   
  4   2   5  2   
  5   3   6  1   
  6   3  24  1   
  7   3  25  1   
  8   4   7  1   
  9   4  26  1   
 10   5   8  1   
 11   6   9  2   
 12   6  10  am  
 13   7  11  1   
 14   7  12  2   
 15   8  12  1   
 16   8  13  2   
 17  10  14  1   
 18  10  15  1   
 19  11  16  ar  
 20  11  17  ar  
 21  12  27  1   
 22  14  18  1   
 23  14  28  1   
 24  14  29  1   
 25  15  19  1   
 26  15  30  1   
 27  15  31  1   
 28  16  20  ar  
 29  16  32  1   
 30  17  21  ar  
 31  17  33  1   
 32  18  22  1   
 33  18  34  1   
 34  18  35  1   
 35  19  22  1   
 36  19  36  1   
 37  19  37  1   
 38  20  23  ar  
 39  20  38  1   
 40  21  23  ar  
 41  21  39  1   
 42  23  40  1   
@<TRIPOS>SUBSTRUCTURE
  1 ****   4 GROUP 4 **** **** 0

# MOE 2024.06 (io_trps.svl 2023.06)
