@<TRIPOS>MOLECULE
NONAME
38 39 1 0 0 
SMALL
USER_CHARGES


@<TRIPOS>ATOM
  1 BR      -0.5820    -1.0930    -0.9010 Br    1 <1>  -0.0570 
  2 C       -2.3640    -0.6360    -0.2820 C.2   1 <1>   0.0570 
  3 C       -3.2200    -1.5020     0.3750 C.2   1 <1>   0.1080 
  4 C       -2.9930     0.5480    -0.4080 C.2   1 <1>  -0.3320 
  5 N       -4.3400    -0.9080     0.6520 N.2   1 <1>  -0.7070 
  6 C       -2.9340    -2.9430     0.7330 C.3   1 <1>  -0.0590 
  7 N       -4.2070     0.3610     0.1840 N.pl3 1 <1>   0.3140 
  8 C       -2.4730     1.8150    -1.0700 C.3   1 <1>  -0.0600 
  9 C       -5.3720     1.2810     0.3110 C.3   1 <1>   0.1760 
 10 C       -6.1140     1.3530    -1.0300 C.3   1 <1>  -0.0990 
 11 C       -4.9940     2.6630     0.8730 C.3   1 <1>  -0.2400 
 12 C       -7.5000     1.9200    -0.8420 C.2   1 <1>   0.5690 
 13 O       -7.6610     3.0980    -1.0350 O.2   1 <1>  -0.5700 
 14 N       -8.4840     1.0580    -0.4430 N.am  1 <1>  -0.5470 
 15 C       -9.8460     1.2680    -0.1740 C.ar  1 <1>   0.1170 
 16 C      -10.5270     0.3160     0.5770 C.ar  1 <1>  -0.1500 
 17 C      -10.5560     2.3740    -0.6340 C.ar  1 <1>  -0.1500 
 18 C      -11.8720     0.4630     0.8670 C.ar  1 <1>  -0.1500 
 19 C      -11.9010     2.5260    -0.3460 C.ar  1 <1>  -0.1500 
 20 C      -12.5610     1.5700     0.4060 C.ar  1 <1>  -0.1500 
 21 H       -1.9220    -3.0440     1.0760 H     1 <1>   0.0800 
 22 H       -3.0820    -3.5650    -0.1300 H     1 <1>   0.0800 
 23 H       -3.6000    -3.2620     1.5130 H     1 <1>   0.0800 
 24 H       -1.5430     1.6180    -1.5730 H     1 <1>   0.0800 
 25 H       -2.2960     2.5760    -0.3320 H     1 <1>   0.0800 
 26 H       -3.1740     2.1800    -1.7980 H     1 <1>   0.0800 
 27 H       -6.0290     0.8200     1.0280 H     1 <1>   0.0800 
 28 H       -6.2000     0.3680    -1.4540 H     1 <1>   0.0800 
 29 H       -5.5750     1.9720    -1.7230 H     1 <1>   0.0800 
 30 H       -4.4900     3.2610     0.1390 H     1 <1>   0.0800 
 31 H       -4.3700     2.5520     1.7420 H     1 <1>   0.0800 
 32 H       -5.8840     3.1910     1.1660 H     1 <1>   0.0800 
 33 H       -8.1760     0.1010    -0.2820 H     1 <1>   0.3700 
 34 H      -10.0040    -0.5480     0.9440 H     1 <1>   0.1500 
 35 H      -10.0640     3.1250    -1.2230 H     1 <1>   0.1500 
 36 H      -12.3840    -0.2820     1.4510 H     1 <1>   0.1500 
 37 H      -12.4320     3.3890    -0.7070 H     1 <1>   0.1500 
 38 H      -13.6070     1.6890     0.6300 H     1 <1>   0.1500 
@<TRIPOS>BOND
  1   1   2  1   
  2   2   3  1   
  3   2   4  2   
  4   3   5  2   
  5   3   6  1   
  6   4   7  1   
  7   4   8  1   
  8   5   7  1   
  9   6  21  1   
 10   6  22  1   
 11   6  23  1   
 12   7   9  1   
 13   8  24  1   
 14   8  25  1   
 15   8  26  1   
 16   9  10  1   
 17   9  11  1   
 18   9  27  1   
 19  10  12  1   
 20  10  28  1   
 21  10  29  1   
 22  11  30  1   
 23  11  31  1   
 24  11  32  1   
 25  12  13  2   
 26  12  14  am  
 27  14  15  1   
 28  14  33  1   
 29  15  16  ar  
 30  15  17  ar  
 31  16  18  ar  
 32  16  34  1   
 33  17  19  ar  
 34  17  35  1   
 35  18  20  ar  
 36  18  36  1   
 37  19  20  ar  
 38  19  37  1   
 39  20  38  1   
@<TRIPOS>SUBSTRUCTURE
  1 ****  10 GROUP 4 **** **** 0

# MOE 2024.06 (io_trps.svl 2023.06)
