@<TRIPOS>MOLECULE
NONAME
39 41 1 0 0 
SMALL
USER_CHARGES


@<TRIPOS>ATOM
  1 N       -1.1390     0.6230     0.2350 N.1   1 <1>  -0.5570 
  2 C       -1.2550     1.7320     0.4520 C.1   1 <1>   0.3570 
  3 C       -1.3850     3.1910     0.6970 C.3   1 <1>   0.0400 
  4 C       -1.1620     3.9570    -0.6090 C.3   1 <1>   0.0960 
  5 N       -1.2450     5.4120    -0.3630 N.pl3 1 <1>   0.0480 
  6 C       -2.4160     6.1200    -0.2010 C.ar  1 <1>  -0.1520 
  7 C       -0.2100     6.2970    -0.2090 C.2   1 <1>  -0.3320 
  8 C       -2.1040     7.4510     0.0620 C.ar  1 <1>   0.0000 
  9 C       -3.7510     5.7090    -0.2630 C.ar  1 <1>  -0.1500 
 10 C       -0.6980     7.5320     0.0410 C.2   1 <1>  -0.1810 
 11 C        1.2770     6.0030    -0.3030 C.3   1 <1>   0.0200 
 12 C       -3.1280     8.3800     0.2770 C.ar  1 <1>  -0.1500 
 13 C       -4.7470     6.6340    -0.0520 C.ar  1 <1>  -0.1500 
 14 C        0.1390     8.7720     0.2480 C.3   1 <1>   0.5240 
 15 C        2.0880     7.2350     0.1530 C.3   1 <1>   0.3430 
 16 C       -4.4420     7.9730     0.2210 C.ar  1 <1>  -0.1440 
 17 N        1.4870     8.5190    -0.3570 N.4   1 <1>  -0.9590 
 18 C       -5.5800     8.9520     0.4470 C.3   1 <1>  -0.0970 
 19 C        2.3990     9.6860    -0.1770 C.3   1 <1>   0.2630 
 20 H       -0.6540     3.4820     1.4280 H     1 <1>   0.0800 
 21 H       -2.3680     3.3880     1.0830 H     1 <1>   0.0800 
 22 H       -1.9100     3.6860    -1.3330 H     1 <1>   0.0800 
 23 H       -0.1960     3.7230    -1.0190 H     1 <1>   0.0800 
 24 H       -4.0000     4.6860    -0.4770 H     1 <1>   0.1500 
 25 H        1.5330     5.7570    -1.3190 H     1 <1>   0.0800 
 26 H        1.5350     5.1640     0.3190 H     1 <1>   0.0800 
 27 H       -2.8810     9.4040     0.4840 H     1 <1>   0.1500 
 28 H       -5.7790     6.3310    -0.0970 H     1 <1>   0.1500 
 29 H        0.2250     8.9770     1.3020 H     1 <1>   0.0800 
 30 H       -0.3350     9.6110    -0.2350 H     1 <1>   0.0800 
 31 H        3.1040     7.1360    -0.1950 H     1 <1>   0.0800 
 32 H        2.1050     7.2590     1.2300 H     1 <1>   0.0800 
 33 H        1.2940     8.3730    -1.3570 H     1 <1>   0.4500 
 34 H       -5.2070     9.9390     0.6490 H     1 <1>   0.0800 
 35 H       -6.1750     8.6340     1.2850 H     1 <1>   0.0800 
 36 H       -6.2060     8.9940    -0.4260 H     1 <1>   0.0800 
 37 H        2.5920     9.8540     0.8700 H     1 <1>   0.0800 
 38 H        1.9570    10.5760    -0.5950 H     1 <1>   0.0800 
 39 H        3.3390     9.5060    -0.6750 H     1 <1>   0.0800 
@<TRIPOS>BOND
  1   1   2  3   
  2   2   3  1   
  3   3   4  1   
  4   3  20  1   
  5   3  21  1   
  6   4   5  1   
  7   4  22  1   
  8   4  23  1   
  9   5   6  1   
 10   5   7  1   
 11   6   8  ar  
 12   6   9  ar  
 13   7  10  2   
 14   7  11  1   
 15   8  10  1   
 16   8  12  ar  
 17   9  13  ar  
 18   9  24  1   
 19  10  14  1   
 20  11  15  1   
 21  11  25  1   
 22  11  26  1   
 23  12  16  ar  
 24  12  27  1   
 25  13  16  ar  
 26  13  28  1   
 27  14  17  1   
 28  14  29  1   
 29  14  30  1   
 30  15  17  1   
 31  15  31  1   
 32  15  32  1   
 33  16  18  1   
 34  17  19  1   
 35  17  33  1   
 36  18  34  1   
 37  18  35  1   
 38  18  36  1   
 39  19  37  1   
 40  19  38  1   
 41  19  39  1   
@<TRIPOS>SUBSTRUCTURE
  1 ****   5 GROUP 4 **** **** 0

# MOE 2024.06 (io_trps.svl 2023.06)
