@<TRIPOS>MOLECULE
NONAME
39 41 1 0 0 
SMALL
USER_CHARGES


@<TRIPOS>ATOM
  1 CL      -0.6000    -1.4060     1.8840 Cl    1 <1>  -0.1770 
  2 C       -0.9860    -2.0870     0.3130 C.ar  1 <1>   0.1770 
  3 C       -2.3220    -2.1420    -0.0590 C.ar  1 <1>   0.1770 
  4 C        0.0110    -2.5640    -0.5400 C.ar  1 <1>  -0.1440 
  5 CL      -3.5680    -1.5460     1.0120 Cl    1 <1>  -0.1770 
  6 C       -2.6960    -2.6680    -1.2790 C.ar  1 <1>  -0.1500 
  7 C       -0.3840    -3.0910    -1.7670 C.ar  1 <1>  -0.1500 
  8 C        1.5120    -2.5560    -0.2540 C.3   1 <1>   0.5660 
  9 C       -1.7190    -3.1440    -2.1340 C.ar  1 <1>  -0.1500 
 10 N        1.7990    -2.9040     1.1560 N.4   1 <1>  -0.9060 
 11 C        2.2150    -1.2500    -0.6700 C.3   1 <1>  -0.0800 
 12 C        3.2520    -3.0720     1.4210 C.3   1 <1>   0.3430 
 13 C        3.7260    -1.4060    -0.4200 C.3   1 <1>   0.2800 
 14 C        1.6600     0.0440    -0.0260 C.3   1 <1>  -0.1600 
 15 C        4.0100    -1.8030     1.0360 C.3   1 <1>  -0.1600 
 16 O        4.1540    -2.4580    -1.2000 O.3   1 <1>  -0.6800 
 17 C        4.5050    -0.1570    -0.8620 C.3   1 <1>  -0.1600 
 18 C        2.4450     1.2760    -0.4980 C.3   1 <1>  -0.1600 
 19 C        3.9490     1.1310    -0.2340 C.3   1 <1>  -0.1600 
 20 H       -3.7370    -2.7020    -1.5530 H     1 <1>   0.1500 
 21 H        0.3480    -3.4690    -2.4640 H     1 <1>   0.1500 
 22 H        1.9430    -3.3340    -0.8640 H     1 <1>   0.0800 
 23 H       -2.0010    -3.5560    -3.0900 H     1 <1>   0.1500 
 24 H        1.2890    -3.7630     1.3850 H     1 <1>   0.4500 
 25 H        1.4050    -2.1590     1.7440 H     1 <1>   0.4500 
 26 H        2.0760    -1.1420    -1.7320 H     1 <1>   0.0800 
 27 H        3.6320    -3.8960     0.8370 H     1 <1>   0.0800 
 28 H        3.4170    -3.2940     2.4640 H     1 <1>   0.0800 
 29 H        1.7130    -0.0030     1.0460 H     1 <1>   0.0800 
 30 H        0.6280     0.1820    -0.3010 H     1 <1>   0.0800 
 31 H        5.0660    -1.9680     1.1660 H     1 <1>   0.0800 
 32 H        3.7350    -1.0110     1.7080 H     1 <1>   0.0800 
 33 H        5.0830    -2.3110    -1.4740 H     1 <1>   0.4000 
 34 H        4.4360    -0.0580    -1.9330 H     1 <1>   0.0800 
 35 H        5.5450    -0.2520    -0.6010 H     1 <1>   0.0800 
 36 H        2.0760     2.1540     0.0050 H     1 <1>   0.0800 
 37 H        2.2840     1.4190    -1.5540 H     1 <1>   0.0800 
 38 H        4.4640     1.9810    -0.6490 H     1 <1>   0.0800 
 39 H        4.1310     1.1360     0.8270 H     1 <1>   0.0800 
@<TRIPOS>BOND
  1   1   2  1   
  2   2   3  ar  
  3   2   4  ar  
  4   3   5  1   
  5   3   6  ar  
  6   4   7  ar  
  7   4   8  1   
  8   6   9  ar  
  9   6  20  1   
 10   7   9  ar  
 11   7  21  1   
 12   8  10  1   
 13   8  11  1   
 14   8  22  1   
 15   9  23  1   
 16  10  12  1   
 17  10  24  1   
 18  10  25  1   
 19  11  13  1   
 20  11  14  1   
 21  11  26  1   
 22  12  15  1   
 23  12  27  1   
 24  12  28  1   
 25  13  15  1   
 26  13  16  1   
 27  13  17  1   
 28  14  18  1   
 29  14  29  1   
 30  14  30  1   
 31  15  31  1   
 32  15  32  1   
 33  16  33  1   
 34  17  19  1   
 35  17  34  1   
 36  17  35  1   
 37  18  19  1   
 38  18  36  1   
 39  18  37  1   
 40  19  38  1   
 41  19  39  1   
@<TRIPOS>SUBSTRUCTURE
  1 ****   8 GROUP 4 **** **** 0

# MOE 2024.06 (io_trps.svl 2023.06)
