@<TRIPOS>MOLECULE
NONAME
53 54 1 0 0 
SMALL
USER_CHARGES


@<TRIPOS>ATOM
  1 O       -1.7490    -1.3440     1.7730 O.2   1 <1>  -0.5700 
  2 C       -1.0620    -1.2630     0.7740 C.2   1 <1>   0.5440 
  3 N       -1.4230    -0.3460    -0.1700 N.am  1 <1>  -0.7300 
  4 C        0.0850    -2.1310     0.5830 C.ar  1 <1>   0.0860 
  5 C       -2.6680     0.4860    -0.0990 C.3   1 <1>   0.2010 
  6 C        0.8180    -2.5980     1.6710 C.ar  1 <1>  -0.1500 
  7 C        0.5000    -2.5460    -0.6810 C.ar  1 <1>  -0.1500 
  8 C       -3.9290    -0.2960    -0.4680 C.2   1 <1>   0.5690 
  9 C        1.9150    -3.4250     1.5090 C.ar  1 <1>  -0.1500 
 10 C        1.5970    -3.3720    -0.8450 C.ar  1 <1>  -0.1500 
 11 O       -4.5450     0.0500    -1.4480 O.2   1 <1>  -0.5700 
 12 N       -4.2750    -1.3540     0.3260 N.am  1 <1>  -0.5470 
 13 C        2.3300    -3.8300     0.2440 C.ar  1 <1>  -0.1430 
 14 C       -5.3110    -2.3070     0.2680 C.ar  1 <1>   0.1170 
 15 C        3.5490    -4.7500     0.0100 C.3   1 <1>   0.1440 
 16 C       -5.2790    -3.3880     1.1540 C.ar  1 <1>   0.0830 
 17 C       -6.3730    -2.2310    -0.6270 C.ar  1 <1>  -0.1500 
 18 C        3.0940    -6.0350    -0.6980 C.3   1 <1>  -0.2400 
 19 C        4.2550    -5.1630     1.3120 C.3   1 <1>  -0.2400 
 20 C        4.5810    -4.0230    -0.8650 C.3   1 <1>  -0.2400 
 21 O       -4.2690    -3.5030     2.0530 O.3   1 <1>  -0.3630 
 22 C       -6.2750    -4.3480     1.1520 C.ar  1 <1>  -0.1500 
 23 C       -7.3710    -3.1930    -0.6440 C.ar  1 <1>   0.0830 
 24 C       -3.1540    -4.2510     1.6220 C.3   1 <1>   0.0400 
 25 C       -7.3220    -4.2570     0.2530 C.ar  1 <1>  -0.1500 
 26 O       -8.3620    -3.0280    -1.5600 O.3   1 <1>  -0.3620 
 27 C       -9.4270    -3.9460    -1.6570 C.3   1 <1>   0.0400 
 28 H       -0.8930    -0.2770    -1.0400 H     1 <1>   0.3700 
 29 H       -2.5720     1.3250    -0.7640 H     1 <1>   0.0800 
 30 H       -2.7850     0.8670     0.9000 H     1 <1>   0.0800 
 31 H        0.5200    -2.3040     2.6620 H     1 <1>   0.1500 
 32 H       -0.0440    -2.2290    -1.5520 H     1 <1>   0.1500 
 33 H        2.4310    -3.7410     2.3960 H     1 <1>   0.1500 
 34 H        1.8750    -3.6620    -1.8420 H     1 <1>   0.1500 
 35 H       -3.6080    -1.5350     1.0930 H     1 <1>   0.3700 
 36 H       -6.4430    -1.4200    -1.3250 H     1 <1>   0.1500 
 37 H        2.6740    -5.8200    -1.6630 H     1 <1>   0.0800 
 38 H        2.3480    -6.5350    -0.1080 H     1 <1>   0.0800 
 39 H        3.9240    -6.7050    -0.8390 H     1 <1>   0.0800 
 40 H        3.5810    -5.7040     1.9530 H     1 <1>   0.0800 
 41 H        4.6180    -4.2970     1.8370 H     1 <1>   0.0800 
 42 H        5.0960    -5.8000     1.1020 H     1 <1>   0.0800 
 43 H        4.1770    -3.7900    -1.8330 H     1 <1>   0.0800 
 44 H        5.4540    -4.6340    -1.0090 H     1 <1>   0.0800 
 45 H        4.8820    -3.1050    -0.3940 H     1 <1>   0.0800 
 46 H       -6.2270    -5.1590     1.8560 H     1 <1>   0.1500 
 47 H       -2.3950    -4.1880     2.3810 H     1 <1>   0.0800 
 48 H       -2.7860    -3.8350     0.7010 H     1 <1>   0.0800 
 49 H       -3.4550    -5.2740     1.4790 H     1 <1>   0.0800 
 50 H       -8.0830    -5.0140     0.2680 H     1 <1>   0.1500 
 51 H      -10.0820    -3.6130    -2.4420 H     1 <1>   0.0800 
 52 H       -9.9580    -3.9640    -0.7220 H     1 <1>   0.0800 
 53 H       -9.0310    -4.9160    -1.8980 H     1 <1>   0.0800 
@<TRIPOS>BOND
  1   1   2  2   
  2   2   3  am  
  3   2   4  1   
  4   3   5  1   
  5   3  28  1   
  6   4   6  ar  
  7   4   7  ar  
  8   5   8  1   
  9   5  29  1   
 10   5  30  1   
 11   6   9  ar  
 12   6  31  1   
 13   7  10  ar  
 14   7  32  1   
 15   8  11  2   
 16   8  12  am  
 17   9  13  ar  
 18   9  33  1   
 19  10  13  ar  
 20  10  34  1   
 21  12  14  1   
 22  12  35  1   
 23  13  15  1   
 24  14  16  ar  
 25  14  17  ar  
 26  15  18  1   
 27  15  19  1   
 28  15  20  1   
 29  16  21  1   
 30  16  22  ar  
 31  17  23  ar  
 32  17  36  1   
 33  18  37  1   
 34  18  38  1   
 35  18  39  1   
 36  19  40  1   
 37  19  41  1   
 38  19  42  1   
 39  20  43  1   
 40  20  44  1   
 41  20  45  1   
 42  21  24  1   
 43  22  25  ar  
 44  22  46  1   
 45  23  25  ar  
 46  23  26  1   
 47  24  47  1   
 48  24  48  1   
 49  24  49  1   
 50  25  50  1   
 51  26  27  1   
 52  27  51  1   
 53  27  52  1   
 54  27  53  1   
@<TRIPOS>SUBSTRUCTURE
  1 ****   2 GROUP 4 **** **** 0

# MOE 2024.06 (io_trps.svl 2023.06)
