@<TRIPOS>MOLECULE
NONAME
51 53 1 0 0 
SMALL
USER_CHARGES


@<TRIPOS>ATOM
  1 S        0.1800    -0.0170    -0.9620 S.o2  1 <1>   1.4470 
  2 O        0.3860    -0.1940    -2.3860 O.2   1 <1>  -0.6500 
  3 O       -0.3230     1.2610    -0.5030 O.2   1 <1>  -0.6500 
  4 N        1.7050    -0.2500    -0.2570 N.am  1 <1>  -0.8490 
  5 C       -0.8600    -1.3600    -0.3360 C.ar  1 <1>  -0.0090 
  6 C        2.3050    -1.5430    -0.6120 C.3   1 <1>   0.1960 
  7 C        2.6040     0.8720    -0.5040 C.3   1 <1>   0.1960 
  8 C       -1.0220    -1.5820     1.0280 C.ar  1 <1>   0.0820 
  9 C       -1.5340    -2.2050    -1.2120 C.ar  1 <1>  -0.1500 
 10 C        3.7850    -1.6390    -0.2030 C.3   1 <1>  -0.1600 
 11 C        3.8050     0.8000     0.4510 C.3   1 <1>  -0.1600 
 12 O       -0.3880    -0.8080     1.9280 O.3   1 <1>  -0.3620 
 13 C       -1.8150    -2.6190     1.4960 C.ar  1 <1>  -0.1500 
 14 C       -2.3350    -3.2400    -0.7570 C.ar  1 <1>  -0.1440 
 15 C        4.1420    -0.6360     0.9090 C.3   1 <1>  -0.0190 
 16 C       -1.1500     0.2110     2.5350 C.3   1 <1>   0.0400 
 17 C       -2.4720    -3.4450     0.6050 C.ar  1 <1>  -0.1500 
 18 C       -3.0550    -4.1430    -1.7430 C.3   1 <1>  -0.0970 
 19 C        5.5840    -0.7700     1.3920 C.2   1 <1>   0.5690 
 20 O        5.7800    -0.9680     2.5650 O.2   1 <1>  -0.5700 
 21 N        6.5830    -0.6500     0.4620 N.am  1 <1>  -0.5470 
 22 C        7.9800    -0.7320     0.5730 C.ar  1 <1>   0.1170 
 23 C        8.7560    -0.2260    -0.4640 C.ar  1 <1>  -0.1500 
 24 C        8.6300    -1.3090     1.6610 C.ar  1 <1>  -0.1500 
 25 C       10.1380    -0.2870    -0.4180 C.ar  1 <1>  -0.1500 
 26 C       10.0110    -1.3720     1.7110 C.ar  1 <1>  -0.1500 
 27 C       10.7680    -0.8610     0.6710 C.ar  1 <1>  -0.1500 
 28 H        2.2250    -1.7180    -1.6720 H     1 <1>   0.0800 
 29 H        1.7530    -2.3190    -0.1060 H     1 <1>   0.0800 
 30 H        2.0910     1.8070    -0.3460 H     1 <1>   0.0800 
 31 H        2.9330     0.8430    -1.5300 H     1 <1>   0.0800 
 32 H       -1.4270    -2.0470    -2.2730 H     1 <1>   0.1500 
 33 H        4.3890    -1.4540    -1.0720 H     1 <1>   0.0800 
 34 H        3.9940    -2.6420     0.1260 H     1 <1>   0.0800 
 35 H        3.5900     1.3930     1.3230 H     1 <1>   0.0800 
 36 H        4.6470     1.2570    -0.0370 H     1 <1>   0.0800 
 37 H       -1.9110    -2.7760     2.5550 H     1 <1>   0.1500 
 38 H        3.5060    -0.8630     1.7500 H     1 <1>   0.0800 
 39 H       -0.5020     0.7740     3.1820 H     1 <1>   0.0800 
 40 H       -1.9450    -0.2370     3.1040 H     1 <1>   0.0800 
 41 H       -1.5510     0.8530     1.7700 H     1 <1>   0.0800 
 42 H       -3.0860    -4.2480     0.9740 H     1 <1>   0.1500 
 43 H       -2.4420    -4.9970    -1.9690 H     1 <1>   0.0800 
 44 H       -3.2640    -3.6150    -2.6560 H     1 <1>   0.0800 
 45 H       -3.9870    -4.4840    -1.3290 H     1 <1>   0.0800 
 46 H        6.2540    -0.4310    -0.4740 H     1 <1>   0.3700 
 47 H        8.2820     0.2250    -1.3150 H     1 <1>   0.1500 
 48 H        8.0630    -1.7160     2.4770 H     1 <1>   0.1500 
 49 H       10.7250     0.1110    -1.2280 H     1 <1>   0.1500 
 50 H       10.4970    -1.8190     2.5610 H     1 <1>   0.1500 
 51 H       11.8420    -0.9100     0.7110 H     1 <1>   0.1500 
@<TRIPOS>BOND
  1   1   2  2   
  2   1   3  2   
  3   1   4  am  
  4   1   5  1   
  5   4   6  1   
  6   4   7  1   
  7   5   8  ar  
  8   5   9  ar  
  9   6  10  1   
 10   6  28  1   
 11   6  29  1   
 12   7  11  1   
 13   7  30  1   
 14   7  31  1   
 15   8  12  1   
 16   8  13  ar  
 17   9  14  ar  
 18   9  32  1   
 19  10  15  1   
 20  10  33  1   
 21  10  34  1   
 22  11  15  1   
 23  11  35  1   
 24  11  36  1   
 25  12  16  1   
 26  13  17  ar  
 27  13  37  1   
 28  14  17  ar  
 29  14  18  1   
 30  15  19  1   
 31  15  38  1   
 32  16  39  1   
 33  16  40  1   
 34  16  41  1   
 35  17  42  1   
 36  18  43  1   
 37  18  44  1   
 38  18  45  1   
 39  19  20  2   
 40  19  21  am  
 41  21  22  1   
 42  21  46  1   
 43  22  23  ar  
 44  22  24  ar  
 45  23  25  ar  
 46  23  47  1   
 47  24  26  ar  
 48  24  48  1   
 49  25  27  ar  
 50  25  49  1   
 51  26  27  ar  
 52  26  50  1   
 53  27  51  1   
@<TRIPOS>SUBSTRUCTURE
  1 ****  10 GROUP 4 **** **** 0

# MOE 2024.06 (io_trps.svl 2023.06)
