@<TRIPOS>MOLECULE
NONAME
40 41 1 0 0 
SMALL
USER_CHARGES


@<TRIPOS>ATOM
  1 O      -12.1980     2.7190    -0.9960 O.2   1 <1>  -0.5700 
  2 C      -11.0570     2.7250    -0.5570 C.2   1 <1>   0.6900 
  3 N      -10.2080     3.7990    -0.5860 N.am  1 <1>  -0.4770 
  4 N      -10.4360     1.6630     0.0420 N.am  1 <1>  -0.4770 
  5 C       -9.0210     3.4010     0.0170 C.ar  1 <1>   0.1170 
  6 C      -10.5410     5.1450    -1.1020 C.3   1 <1>   0.0600 
  7 C       -9.1630     2.0800     0.4060 C.ar  1 <1>   0.1170 
  8 C      -11.0350     0.3320     0.2870 C.3   1 <1>   0.0600 
  9 C       -7.8380     4.0870     0.2520 C.ar  1 <1>  -0.1500 
 10 C       -8.1260     1.4170     1.0440 C.ar  1 <1>  -0.1500 
 11 C       -6.7920     3.4270     0.8830 C.ar  1 <1>  -0.1440 
 12 C       -6.9430     2.0960     1.2800 C.ar  1 <1>  -0.1500 
 13 C       -5.4850     4.1450     1.1330 C.3   1 <1>   0.4860 
 14 N       -4.6260     3.8740    -0.0410 N.4   1 <1>  -0.9060 
 15 C       -3.3020     4.4910    -0.0670 C.3   1 <1>   0.5030 
 16 C       -2.4810     4.0020     1.1260 C.3   1 <1>  -0.2400 
 17 C       -3.4430     6.0120    -0.0530 C.3   1 <1>  -0.2400 
 18 C       -2.6470     4.0420    -1.3680 C.3   1 <1>  -0.2400 
 19 H      -11.5510     5.1530    -1.4760 H     1 <1>   0.0800 
 20 H       -9.8710     5.4030    -1.9010 H     1 <1>   0.0800 
 21 H      -10.4580     5.8670    -0.3090 H     1 <1>   0.0800 
 22 H      -12.0380     0.3050    -0.1040 H     1 <1>   0.0800 
 23 H      -11.0650     0.1390     1.3440 H     1 <1>   0.0800 
 24 H      -10.4480    -0.4240    -0.2020 H     1 <1>   0.0800 
 25 H       -7.7660     5.1140    -0.0590 H     1 <1>   0.1500 
 26 H       -8.2540     0.3920     1.3470 H     1 <1>   0.1500 
 27 H       -6.1430     1.5760     1.7820 H     1 <1>   0.1500 
 28 H       -5.0270     3.7750     2.0360 H     1 <1>   0.0800 
 29 H       -5.6620     5.2030     1.2390 H     1 <1>   0.0800 
 30 H       -5.1380     4.1640    -0.8780 H     1 <1>   0.4500 
 31 H       -4.5160     2.8600    -0.1230 H     1 <1>   0.4500 
 32 H       -2.8850     4.3510     2.0590 H     1 <1>   0.0800 
 33 H       -1.4780     4.3840     1.0530 H     1 <1>   0.0800 
 34 H       -2.4200     2.9280     1.1420 H     1 <1>   0.0800 
 35 H       -2.4740     6.4650    -0.1710 H     1 <1>   0.0800 
 36 H       -4.0620     6.3530    -0.8640 H     1 <1>   0.0800 
 37 H       -3.8460     6.3670     0.8790 H     1 <1>   0.0800 
 38 H       -3.2120     4.3690    -2.2230 H     1 <1>   0.0800 
 39 H       -2.5400     2.9720    -1.4030 H     1 <1>   0.0800 
 40 H       -1.6620     4.4690    -1.4480 H     1 <1>   0.0800 
@<TRIPOS>BOND
  1   1   2  2   
  2   2   3  am  
  3   2   4  am  
  4   3   5  1   
  5   3   6  1   
  6   4   7  1   
  7   4   8  1   
  8   5   7  ar  
  9   5   9  ar  
 10   6  19  1   
 11   6  20  1   
 12   6  21  1   
 13   7  10  ar  
 14   8  22  1   
 15   8  23  1   
 16   8  24  1   
 17   9  11  ar  
 18   9  25  1   
 19  10  12  ar  
 20  10  26  1   
 21  11  12  ar  
 22  11  13  1   
 23  12  27  1   
 24  13  14  1   
 25  13  28  1   
 26  13  29  1   
 27  14  15  1   
 28  14  30  1   
 29  14  31  1   
 30  15  16  1   
 31  15  17  1   
 32  15  18  1   
 33  16  32  1   
 34  16  33  1   
 35  16  34  1   
 36  17  35  1   
 37  17  36  1   
 38  17  37  1   
 39  18  38  1   
 40  18  39  1   
 41  18  40  1   
@<TRIPOS>SUBSTRUCTURE
  1 ****   9 GROUP 4 **** **** 0

# MOE 2024.06 (io_trps.svl 2023.06)
