@<TRIPOS>MOLECULE
NONAME
42 45 1 0 0 
SMALL
USER_CHARGES


@<TRIPOS>ATOM
  1 O        0.1100    -0.7670     1.5030 O.2   1 <1>  -0.5700 
  2 C       -0.1520    -1.6540     0.7260 C.2   1 <1>   0.4950 
  3 C       -1.4710    -2.0780     0.3940 C.2   1 <1>  -0.1240 
  4 C        1.0120    -2.3740     0.0650 C.3   1 <1>  -0.0990 
  5 C       -1.7390    -3.1670    -0.3730 C.2   1 <1>  -0.0380 
  6 C       -2.6180    -1.2210     0.9370 C.3   1 <1>   0.3400 
  7 C        0.6900    -3.8540    -0.2000 C.3   1 <1>  -0.1600 
  8 N       -3.0270    -3.5650    -0.6470 N.pl3 1 <1>  -0.6000 
  9 C       -0.6290    -4.0200    -0.9720 C.3   1 <1>  -0.0220 
 10 C       -3.9890    -1.8790     0.7490 C.2   1 <1>  -0.1240 
 11 C       -2.6140     0.1280     0.2110 C.ar  1 <1>  -0.1430 
 12 C       -4.1130    -2.9790    -0.0390 C.2   1 <1>  -0.0380 
 13 C       -5.0850    -1.2640     1.4200 C.2   1 <1>   0.4950 
 14 C       -2.8020     0.1930    -1.1620 C.ar  1 <1>  -0.1500 
 15 C       -2.4210     1.3060     0.9160 C.ar  1 <1>  -0.1500 
 16 C       -5.4620    -3.6380    -0.2920 C.3   1 <1>  -0.0220 
 17 O       -4.9830    -0.3630     2.2190 O.2   1 <1>  -0.5700 
 18 C       -6.4810    -1.7810     1.1180 C.3   1 <1>  -0.0990 
 19 C       -2.7970     1.4130    -1.8150 C.ar  1 <1>  -0.1500 
 20 C       -2.4170     2.5250     0.2620 C.ar  1 <1>  -0.1500 
 21 C       -6.4770    -3.2870     0.8070 C.3   1 <1>  -0.1600 
 22 C       -2.6050     2.5970    -1.1130 C.ar  1 <1>   0.0730 
 23 C       -2.6000     3.8630    -1.7900 C.1   1 <1>   0.4840 
 24 N       -2.5960     4.8680    -2.3310 N.1   1 <1>  -0.5570 
 25 H        1.8770    -2.3020     0.7000 H     1 <1>   0.0800 
 26 H        1.2340    -1.8740    -0.8600 H     1 <1>   0.0800 
 27 H       -2.4580    -1.0740     1.9920 H     1 <1>   0.0800 
 28 H        0.6000    -4.3600     0.7460 H     1 <1>   0.0800 
 29 H        1.4950    -4.3150    -0.7460 H     1 <1>   0.0800 
 30 H       -3.1760    -4.3870    -1.2450 H     1 <1>   0.4000 
 31 H       -0.4900    -3.7340    -1.9990 H     1 <1>   0.0800 
 32 H       -0.9130    -5.0580    -0.9490 H     1 <1>   0.0800 
 33 H       -2.9520    -0.7130    -1.7250 H     1 <1>   0.1500 
 34 H       -2.2740     1.2760     1.9830 H     1 <1>   0.1500 
 35 H       -5.3460    -4.7070    -0.3260 H     1 <1>   0.0800 
 36 H       -5.8320    -3.3110    -1.2480 H     1 <1>   0.0800 
 37 H       -6.8690    -1.2320     0.2790 H     1 <1>   0.0800 
 38 H       -7.1170    -1.5900     1.9640 H     1 <1>   0.0800 
 39 H       -2.9440     1.4430    -2.8810 H     1 <1>   0.1500 
 40 H       -2.2660     3.4260     0.8300 H     1 <1>   0.1500 
 41 H       -6.2110    -3.8210     1.7040 H     1 <1>   0.0800 
 42 H       -7.4620    -3.6060     0.5130 H     1 <1>   0.0800 
@<TRIPOS>BOND
  1   1   2  2   
  2   2   3  1   
  3   2   4  1   
  4   3   5  2   
  5   3   6  1   
  6   4   7  1   
  7   4  25  1   
  8   4  26  1   
  9   5   8  1   
 10   5   9  1   
 11   6  10  1   
 12   6  11  1   
 13   6  27  1   
 14   7   9  1   
 15   7  28  1   
 16   7  29  1   
 17   8  12  1   
 18   8  30  1   
 19   9  31  1   
 20   9  32  1   
 21  10  12  2   
 22  10  13  1   
 23  11  14  ar  
 24  11  15  ar  
 25  12  16  1   
 26  13  17  2   
 27  13  18  1   
 28  14  19  ar  
 29  14  33  1   
 30  15  20  ar  
 31  15  34  1   
 32  16  21  1   
 33  16  35  1   
 34  16  36  1   
 35  18  21  1   
 36  18  37  1   
 37  18  38  1   
 38  19  22  ar  
 39  19  39  1   
 40  20  22  ar  
 41  20  40  1   
 42  21  41  1   
 43  21  42  1   
 44  22  23  1   
 45  23  24  3   
@<TRIPOS>SUBSTRUCTURE
  1 ****   6 GROUP 4 **** **** 0

# MOE 2024.06 (io_trps.svl 2023.06)
