@<TRIPOS>MOLECULE
NONAME
35 35 1 0 0 
SMALL
USER_CHARGES


@<TRIPOS>ATOM
  1 O        0.3380     0.3330     1.6600 O.2   1 <1>  -0.5700 
  2 C        0.3660     1.3420     0.9990 C.2   1 <1>   0.5690 
  3 N        1.3890     1.6290     0.1630 N.am  1 <1>  -0.7300 
  4 C       -0.7800     2.3290     1.1020 C.3   1 <1>  -0.0990 
  5 C        2.6060     0.8260     0.0300 C.3   1 <1>   0.3640 
  6 C       -1.7110     2.2630    -0.1190 C.3   1 <1>  -0.1600 
  7 C        3.7430     1.7570    -0.3780 C.ar  1 <1>  -0.1440 
  8 C        2.3680    -0.2750    -1.0000 C.3   1 <1>  -0.2400 
  9 C       -2.8630     3.2650     0.0020 C.3   1 <1>  -0.2400 
 10 C        4.8170     1.9430     0.4800 C.ar  1 <1>  -0.1500 
 11 C        3.7280     2.4360    -1.5900 C.ar  1 <1>  -0.1500 
 12 C        5.8640     2.7860     0.1430 C.ar  1 <1>   0.0820 
 13 C        4.7690     3.2800    -1.9360 C.ar  1 <1>  -0.1500 
 14 O        6.8690     2.9010     1.0460 O.3   1 <1>  -0.3630 
 15 C        5.8370     3.4580    -1.0760 C.ar  1 <1>  -0.1500 
 16 C        7.9820     3.7320     0.8030 C.3   1 <1>   0.0400 
 17 H        1.4260     2.5210    -0.3260 H     1 <1>   0.3700 
 18 H       -0.3750     3.3190     1.2050 H     1 <1>   0.0800 
 19 H       -1.3390     2.1070     1.9930 H     1 <1>   0.0800 
 20 H        2.8320     0.3710     0.9810 H     1 <1>   0.0800 
 21 H       -2.1120     1.2660    -0.2030 H     1 <1>   0.0800 
 22 H       -1.1510     2.4700    -1.0150 H     1 <1>   0.0800 
 23 H        2.0620     0.1350    -1.9440 H     1 <1>   0.0800 
 24 H        1.6080    -0.9460    -0.6410 H     1 <1>   0.0800 
 25 H        3.2740    -0.8340    -1.1430 H     1 <1>   0.0800 
 26 H       -3.4510     3.0570     0.8790 H     1 <1>   0.0800 
 27 H       -3.5030     3.1960    -0.8600 H     1 <1>   0.0800 
 28 H       -2.4850     4.2700     0.0680 H     1 <1>   0.0800 
 29 H        4.8560     1.4360     1.4270 H     1 <1>   0.1500 
 30 H        2.9070     2.3100    -2.2740 H     1 <1>   0.1500 
 31 H        4.7470     3.7990    -2.8790 H     1 <1>   0.1500 
 32 H        6.6310     4.1170    -1.3680 H     1 <1>   0.1500 
 33 H        8.6410     3.6640     1.6500 H     1 <1>   0.0800 
 34 H        7.6410     4.7460     0.6860 H     1 <1>   0.0800 
 35 H        8.4870     3.3890    -0.0820 H     1 <1>   0.0800 
@<TRIPOS>BOND
  1   1   2  2   
  2   2   3  am  
  3   2   4  1   
  4   3   5  1   
  5   3  17  1   
  6   4   6  1   
  7   4  18  1   
  8   4  19  1   
  9   5   7  1   
 10   5   8  1   
 11   5  20  1   
 12   6   9  1   
 13   6  21  1   
 14   6  22  1   
 15   7  10  ar  
 16   7  11  ar  
 17   8  23  1   
 18   8  24  1   
 19   8  25  1   
 20   9  26  1   
 21   9  27  1   
 22   9  28  1   
 23  10  12  ar  
 24  10  29  1   
 25  11  13  ar  
 26  11  30  1   
 27  12  14  1   
 28  12  15  ar  
 29  13  15  ar  
 30  13  31  1   
 31  14  16  1   
 32  15  32  1   
 33  16  33  1   
 34  16  34  1   
 35  16  35  1   
@<TRIPOS>SUBSTRUCTURE
  1 ****   7 GROUP 4 **** **** 0

# MOE 2024.06 (io_trps.svl 2023.06)
