@<TRIPOS>MOLECULE
NONAME
36 37 1 0 0 
SMALL
USER_CHARGES


@<TRIPOS>ATOM
  1 S       -0.1300     0.1640     0.4840 S.o2  1 <1>   1.4470 
  2 O        0.5240     1.2660    -0.1800 O.2   1 <1>  -0.6500 
  3 O        0.1090    -0.1020     1.8840 O.2   1 <1>  -0.6500 
  4 N        0.4150    -1.1620    -0.3900 N.am  1 <1>  -0.9140 
  5 C       -1.9110     0.1900     0.1670 C.ar  1 <1>  -0.0090 
  6 C        1.5080    -1.9070     0.2040 C.3   1 <1>   0.2760 
  7 C       -2.6540     1.3130     0.5060 C.ar  1 <1>   0.1900 
  8 C       -2.6030    -0.8870    -0.3900 C.ar  1 <1>  -0.1500 
  9 C        2.8020    -1.0780     0.1230 C.3   1 <1>  -0.1600 
 10 C        1.5740    -3.2470    -0.5430 C.3   1 <1>  -0.1600 
 11 F       -2.0520     2.3370     1.0470 F     1 <1>  -0.1900 
 12 C       -4.0180     1.4140     0.3050 C.ar  1 <1>  -0.1500 
 13 C       -3.9720    -0.8230    -0.6070 C.ar  1 <1>  -0.1500 
 14 C        4.0780    -1.7970     0.5940 C.3   1 <1>  -0.1600 
 15 C        2.4460    -4.2880     0.1770 C.3   1 <1>  -0.1600 
 16 C       -4.6540     0.3280    -0.2560 C.ar  1 <1>   0.1900 
 17 C        4.5580    -2.8640    -0.3990 C.3   1 <1>  -0.1600 
 18 C        3.9340    -4.2530    -0.2020 C.3   1 <1>  -0.1600 
 19 F       -5.9400     0.3860    -0.4620 F     1 <1>  -0.1900 
 20 H        0.7870    -0.7410    -1.2390 H     1 <1>   0.4200 
 21 H        1.2800    -2.1170     1.2380 H     1 <1>   0.0800 
 22 H       -2.0730    -1.7870    -0.6570 H     1 <1>   0.1500 
 23 H        2.6880    -0.2100     0.7480 H     1 <1>   0.0800 
 24 H        2.9500    -0.7330    -0.8850 H     1 <1>   0.0800 
 25 H        1.9130    -3.1060    -1.5540 H     1 <1>   0.0800 
 26 H        0.5760    -3.6470    -0.5840 H     1 <1>   0.0800 
 27 H       -4.5600     2.3010     0.5770 H     1 <1>   0.1500 
 28 H       -4.5060    -1.6520    -1.0390 H     1 <1>   0.1500 
 29 H        3.9400    -2.2200     1.5750 H     1 <1>   0.0800 
 30 H        4.8530    -1.0540     0.6770 H     1 <1>   0.0800 
 31 H        2.0730    -5.2710    -0.0560 H     1 <1>   0.0800 
 32 H        2.3440    -4.1670     1.2430 H     1 <1>   0.0800 
 33 H        5.6250    -2.9690    -0.3010 H     1 <1>   0.0800 
 34 H        4.3750    -2.5270    -1.4050 H     1 <1>   0.0800 
 35 H        4.0730    -4.8100    -1.1130 H     1 <1>   0.0800 
 36 H        4.4820    -4.7720     0.5670 H     1 <1>   0.0800 
@<TRIPOS>BOND
  1   1   2  2   
  2   1   3  2   
  3   1   4  am  
  4   1   5  1   
  5   4   6  1   
  6   4  20  1   
  7   5   7  ar  
  8   5   8  ar  
  9   6   9  1   
 10   6  10  1   
 11   6  21  1   
 12   7  11  1   
 13   7  12  ar  
 14   8  13  ar  
 15   8  22  1   
 16   9  14  1   
 17   9  23  1   
 18   9  24  1   
 19  10  15  1   
 20  10  25  1   
 21  10  26  1   
 22  12  16  ar  
 23  12  27  1   
 24  13  16  ar  
 25  13  28  1   
 26  14  17  1   
 27  14  29  1   
 28  14  30  1   
 29  15  18  1   
 30  15  31  1   
 31  15  32  1   
 32  16  19  1   
 33  17  18  1   
 34  17  33  1   
 35  17  34  1   
 36  18  35  1   
 37  18  36  1   
@<TRIPOS>SUBSTRUCTURE
  1 ****   4 GROUP 4 **** **** 0

# MOE 2024.06 (io_trps.svl 2023.06)
