@<TRIPOS>MOLECULE
NONAME
54 56 1 0 0 
SMALL
USER_CHARGES


@<TRIPOS>ATOM
  1 O        2.1650     0.3290    -1.6370 O.3   1 <1>  -0.6800 
  2 C        1.9870    -0.6350    -0.6800 C.3   1 <1>   0.2800 
  3 C        3.3770    -1.1570    -0.2670 C.3   1 <1>  -0.1600 
  4 C        1.2200     0.0150     0.4710 C.3   1 <1>  -0.2400 
  5 C        1.1580    -1.7440    -1.3220 C.3   1 <1>  -0.2400 
  6 C        4.3490    -0.0820     0.2600 C.3   1 <1>  -0.1600 
  7 C        5.7490    -0.6700     0.5030 C.3   1 <1>  -0.1600 
  8 C        6.7810     0.4050     0.8600 C.3   1 <1>   0.4230 
  9 N        8.1090    -0.2270     0.8270 N.4   1 <1>  -0.9060 
 10 C        6.5540     0.9950     2.2520 C.3   1 <1>  -0.2400 
 11 C        9.2660     0.7000     0.7860 C.3   1 <1>   0.4230 
 12 C        9.3310     1.4530    -0.5650 C.3   1 <1>  -0.0800 
 13 C       10.5660    -0.1100     0.9820 C.3   1 <1>  -0.0800 
 14 C        9.5480     0.4680    -1.7370 C.3   1 <1>  -0.1600 
 15 C       10.5230     2.4320    -0.5190 C.3   1 <1>  -0.1600 
 16 C       10.7860    -1.0980    -0.1890 C.3   1 <1>  -0.1600 
 17 C       11.7530     0.8730     1.0230 C.3   1 <1>  -0.1600 
 18 C       10.8520    -0.3250    -1.5210 C.3   1 <1>  -0.0800 
 19 C       11.8350     1.6570    -0.3000 C.3   1 <1>  -0.0800 
 20 C       12.0310     0.6640    -1.4620 C.3   1 <1>  -0.1600 
 21 H        1.2940     0.6330    -1.9510 H     1 <1>   0.4000 
 22 H        3.8150    -1.6380    -1.1240 H     1 <1>   0.0800 
 23 H        3.2470    -1.9130     0.4880 H     1 <1>   0.0800 
 24 H        1.1130    -0.6840     1.2800 H     1 <1>   0.0800 
 25 H        0.2360     0.3090     0.1530 H     1 <1>   0.0800 
 26 H        1.7360     0.8830     0.8360 H     1 <1>   0.0800 
 27 H        0.9960    -2.5370    -0.6150 H     1 <1>   0.0800 
 28 H        1.6720    -2.1530    -2.1740 H     1 <1>   0.0800 
 29 H        0.1980    -1.3750    -1.6360 H     1 <1>   0.0800 
 30 H        3.9570     0.3290     1.1730 H     1 <1>   0.0800 
 31 H        4.4180     0.7140    -0.4630 H     1 <1>   0.0800 
 32 H        6.0570    -1.1580    -0.4060 H     1 <1>   0.0800 
 33 H        5.6910    -1.4080     1.2840 H     1 <1>   0.0800 
 34 H        6.7300     1.1890     0.1210 H     1 <1>   0.0800 
 35 H        8.1790    -0.8130    -0.0110 H     1 <1>   0.4500 
 36 H        8.2030    -0.8460     1.6350 H     1 <1>   0.4500 
 37 H        7.2930     1.7390     2.4860 H     1 <1>   0.0800 
 38 H        6.5670     0.2280     3.0060 H     1 <1>   0.0800 
 39 H        5.5970     1.4820     2.2920 H     1 <1>   0.0800 
 40 H        9.1850     1.4170     1.5860 H     1 <1>   0.0800 
 41 H        8.4360     2.0280    -0.7240 H     1 <1>   0.0800 
 42 H       10.5320    -0.6430     1.9170 H     1 <1>   0.0800 
 43 H        8.7170    -0.2060    -1.8400 H     1 <1>   0.0800 
 44 H        9.6190     1.0190    -2.6600 H     1 <1>   0.0800 
 45 H       10.3870     3.1490     0.2730 H     1 <1>   0.0800 
 46 H       10.5800     2.9830    -1.4430 H     1 <1>   0.0800 
 47 H       10.0070    -1.8370    -0.2300 H     1 <1>   0.0800 
 48 H       11.7120    -1.6290    -0.0420 H     1 <1>   0.0800 
 49 H       12.6720     0.3330     1.1790 H     1 <1>   0.0800 
 50 H       11.6420     1.5590     1.8460 H     1 <1>   0.0800 
 51 H       11.0030    -1.0130    -2.3370 H     1 <1>   0.0800 
 52 H       12.6650     2.3440    -0.2680 H     1 <1>   0.0800 
 53 H       12.1060     1.2010    -2.3920 H     1 <1>   0.0800 
 54 H       12.9540     0.1260    -1.3290 H     1 <1>   0.0800 
@<TRIPOS>BOND
  1   1   2  1   
  2   1  21  1   
  3   2   3  1   
  4   2   4  1   
  5   2   5  1   
  6   3   6  1   
  7   3  22  1   
  8   3  23  1   
  9   4  24  1   
 10   4  25  1   
 11   4  26  1   
 12   5  27  1   
 13   5  28  1   
 14   5  29  1   
 15   6   7  1   
 16   6  30  1   
 17   6  31  1   
 18   7   8  1   
 19   7  32  1   
 20   7  33  1   
 21   8   9  1   
 22   8  10  1   
 23   8  34  1   
 24   9  11  1   
 25   9  35  1   
 26   9  36  1   
 27  10  37  1   
 28  10  38  1   
 29  10  39  1   
 30  11  12  1   
 31  11  13  1   
 32  11  40  1   
 33  12  14  1   
 34  12  15  1   
 35  12  41  1   
 36  13  16  1   
 37  13  17  1   
 38  13  42  1   
 39  14  18  1   
 40  14  43  1   
 41  14  44  1   
 42  15  19  1   
 43  15  45  1   
 44  15  46  1   
 45  16  18  1   
 46  16  47  1   
 47  16  48  1   
 48  17  19  1   
 49  17  49  1   
 50  17  50  1   
 51  18  20  1   
 52  18  51  1   
 53  19  20  1   
 54  19  52  1   
 55  20  53  1   
 56  20  54  1   
@<TRIPOS>SUBSTRUCTURE
  1 ****   8 GROUP 4 **** **** 0

# MOE 2024.06 (io_trps.svl 2023.06)
