@<TRIPOS>MOLECULE
NONAME
41 42 1 0 0 
SMALL
USER_CHARGES


@<TRIPOS>ATOM
  1 CL       0.2850    -1.9840    -2.0600 Cl    1 <1>  -0.1770 
  2 C        1.7730    -1.9740    -1.1470 C.ar  1 <1>   0.1770 
  3 C        1.8540    -2.5350     0.1180 C.ar  1 <1>  -0.0090 
  4 C        2.8690    -1.3810    -1.7460 C.ar  1 <1>  -0.1500 
  5 S        0.4220    -3.3160     0.8960 S.o2  1 <1>   1.4470 
  6 C        3.0850    -2.4840     0.7630 C.ar  1 <1>  -0.1500 
  7 C        4.0800    -1.3470    -1.0820 C.ar  1 <1>  -0.1500 
  8 O       -0.6920    -2.3940     0.8930 O.2   1 <1>  -0.6500 
  9 O        0.8210    -3.9080     2.1560 O.2   1 <1>  -0.6500 
 10 N        0.0680    -4.6030    -0.1490 N.am  1 <1>  -0.8490 
 11 C        4.2200    -1.9050     0.1890 C.ar  1 <1>   0.0860 
 12 C       -1.3390    -5.0040    -0.0670 C.3   1 <1>   0.1960 
 13 C        0.9610    -5.7490     0.0490 C.3   1 <1>   0.1960 
 14 C        5.4870    -1.8930     0.8990 C.2   1 <1>   0.5440 
 15 C       -1.6610    -6.0410    -1.1490 C.3   1 <1>  -0.1600 
 16 C        0.7270    -6.7970    -1.0430 C.3   1 <1>  -0.1600 
 17 O        5.5190    -1.9270     2.1120 O.2   1 <1>  -0.5700 
 18 N        6.6710    -1.8650     0.2220 N.am  1 <1>  -0.7300 
 19 C       -0.7350    -7.2600    -1.0610 C.3   1 <1>  -0.1600 
 20 C        7.9940    -1.8470     0.8550 C.3   1 <1>   0.2780 
 21 C        8.9470    -1.2080    -0.1300 C.2   1 <1>  -0.2880 
 22 C        9.9640    -1.8270    -0.7390 C.2   1 <1>  -0.3000 
 23 H        2.7660    -0.9500    -2.7270 H     1 <1>   0.1500 
 24 H        3.1760    -2.9080     1.7510 H     1 <1>   0.1500 
 25 H        4.9230    -0.8720    -1.5540 H     1 <1>   0.1500 
 26 H       -1.9740    -4.1470    -0.2210 H     1 <1>   0.0800 
 27 H       -1.5480    -5.4070     0.9110 H     1 <1>   0.0800 
 28 H        0.7860    -6.1890     1.0180 H     1 <1>   0.0800 
 29 H        1.9870    -5.4230     0.0080 H     1 <1>   0.0800 
 30 H       -1.5540    -5.5730    -2.1130 H     1 <1>   0.0800 
 31 H       -2.6840    -6.3550    -1.0490 H     1 <1>   0.0800 
 32 H        1.3710    -7.6410    -0.8740 H     1 <1>   0.0800 
 33 H        0.9850    -6.3690    -1.9970 H     1 <1>   0.0800 
 34 H        6.6970    -1.9650    -0.7920 H     1 <1>   0.3700 
 35 H       -0.9050    -7.9140    -1.8990 H     1 <1>   0.0800 
 36 H       -0.9480    -7.8070    -0.1580 H     1 <1>   0.0800 
 37 H        8.2960    -2.8570     1.0770 H     1 <1>   0.0800 
 38 H        7.9630    -1.2840     1.7730 H     1 <1>   0.0800 
 39 H        8.7200    -0.1680    -0.2950 H     1 <1>   0.1500 
 40 H       10.6290    -1.3450    -1.4360 H     1 <1>   0.1500 
 41 H       10.2190    -2.8630    -0.5960 H     1 <1>   0.1500 
@<TRIPOS>BOND
  1   1   2  1   
  2   2   3  ar  
  3   2   4  ar  
  4   3   5  1   
  5   3   6  ar  
  6   4   7  ar  
  7   4  23  1   
  8   5   8  2   
  9   5   9  2   
 10   5  10  am  
 11   6  11  ar  
 12   6  24  1   
 13   7  11  ar  
 14   7  25  1   
 15  10  12  1   
 16  10  13  1   
 17  11  14  1   
 18  12  15  1   
 19  12  26  1   
 20  12  27  1   
 21  13  16  1   
 22  13  28  1   
 23  13  29  1   
 24  14  17  2   
 25  14  18  am  
 26  15  19  1   
 27  15  30  1   
 28  15  31  1   
 29  16  19  1   
 30  16  32  1   
 31  16  33  1   
 32  18  20  1   
 33  18  34  1   
 34  19  35  1   
 35  19  36  1   
 36  20  21  1   
 37  20  37  1   
 38  20  38  1   
 39  21  22  2   
 40  21  39  1   
 41  22  40  1   
 42  22  41  1   
@<TRIPOS>SUBSTRUCTURE
  1 ****   6 GROUP 4 **** **** 0

# MOE 2024.06 (io_trps.svl 2023.06)
