@<TRIPOS>MOLECULE
NONAME
47 48 1 0 0 
SMALL
USER_CHARGES


@<TRIPOS>ATOM
  1 O        2.5470    -2.2170     1.7090 O.2   1 <1>  -0.5700 
  2 C        1.8410    -2.2670     0.7150 C.2   1 <1>   0.5440 
  3 N        2.2400    -1.4860    -0.3410 N.am  1 <1>  -0.6600 
  4 C        0.7330    -3.1950     0.6240 C.ar  1 <1>   0.0860 
  5 C        3.2280    -2.0120    -1.3270 C.3   1 <1>   0.1400 
  6 C        2.0960    -0.0090    -0.2810 C.3   1 <1>   0.1400 
  7 C       -0.5130    -2.8610     0.0750 C.ar  1 <1>   0.0830 
  8 C        0.9010    -4.4940     1.0990 C.ar  1 <1>  -0.1500 
  9 C        4.6470    -2.1240    -0.7260 C.3   1 <1>   0.3430 
 10 C        3.2320     0.6500     0.5160 C.3   1 <1>  -0.1600 
 11 O       -0.6970    -1.5850    -0.3580 O.3   1 <1>  -0.3630 
 12 C       -1.5260    -3.8140    -0.0020 C.ar  1 <1>  -0.1500 
 13 C       -0.0920    -5.4490     1.0170 C.ar  1 <1>   0.0830 
 14 N        4.8510    -1.2050     0.4400 N.4   1 <1>  -0.9590 
 15 C        4.6470     0.2300     0.1130 C.3   1 <1>   0.3430 
 16 C       -1.9370    -1.1080    -0.8350 C.3   1 <1>   0.0400 
 17 C       -1.3380    -5.1100     0.4670 C.ar  1 <1>   0.0830 
 18 O        0.2510    -6.6750     1.5070 O.3   1 <1>  -0.3620 
 19 C        6.1250    -1.4680     1.1650 C.3   1 <1>   0.2630 
 20 O       -2.3340    -6.0370     0.4220 O.3   1 <1>  -0.3620 
 21 C       -0.2380    -7.8550     0.9070 C.3   1 <1>   0.0400 
 22 C       -3.6650    -5.7160     0.0800 C.3   1 <1>   0.0400 
 23 H        3.2520    -1.3670    -2.1880 H     1 <1>   0.0800 
 24 H        2.9100    -2.9830    -1.6680 H     1 <1>   0.0800 
 25 H        1.1540     0.2300     0.1860 H     1 <1>   0.0800 
 26 H        2.0660     0.3850    -1.2830 H     1 <1>   0.0800 
 27 H        1.8380    -4.7720     1.5450 H     1 <1>   0.1500 
 28 H        5.3810    -1.9310    -1.4910 H     1 <1>   0.0800 
 29 H        4.7830    -3.1390    -0.3920 H     1 <1>   0.0800 
 30 H        3.0860     0.4600     1.5650 H     1 <1>   0.0800 
 31 H        3.1470     1.7140     0.3850 H     1 <1>   0.0800 
 32 H       -2.4690    -3.5460    -0.4300 H     1 <1>   0.1500 
 33 H        4.0550    -1.4510     1.0780 H     1 <1>   0.4500 
 34 H        5.3530     0.8300     0.6640 H     1 <1>   0.0800 
 35 H        4.8060     0.4030    -0.9390 H     1 <1>   0.0800 
 36 H       -1.8260    -0.0650    -1.0730 H     1 <1>   0.0800 
 37 H       -2.6790    -1.2290    -0.0660 H     1 <1>   0.0800 
 38 H       -2.2050    -1.6560    -1.7220 H     1 <1>   0.0800 
 39 H        6.9700    -1.2420     0.5350 H     1 <1>   0.0800 
 40 H        6.1760    -2.5040     1.4610 H     1 <1>   0.0800 
 41 H        6.1790    -0.8590     2.0530 H     1 <1>   0.0800 
 42 H        0.4220    -8.6620     1.1690 H     1 <1>   0.0800 
 43 H       -0.2590    -7.7270    -0.1610 H     1 <1>   0.0800 
 44 H       -1.2230    -8.0560     1.2870 H     1 <1>   0.0800 
 45 H       -4.2630    -6.6000     0.2070 H     1 <1>   0.0800 
 46 H       -3.6970    -5.4010    -0.9480 H     1 <1>   0.0800 
 47 H       -4.0180    -4.9410     0.7360 H     1 <1>   0.0800 
@<TRIPOS>BOND
  1   1   2  2   
  2   2   3  am  
  3   2   4  1   
  4   3   5  1   
  5   3   6  1   
  6   4   7  ar  
  7   4   8  ar  
  8   5   9  1   
  9   5  23  1   
 10   5  24  1   
 11   6  10  1   
 12   6  25  1   
 13   6  26  1   
 14   7  11  1   
 15   7  12  ar  
 16   8  13  ar  
 17   8  27  1   
 18   9  14  1   
 19   9  28  1   
 20   9  29  1   
 21  10  15  1   
 22  10  30  1   
 23  10  31  1   
 24  11  16  1   
 25  12  17  ar  
 26  12  32  1   
 27  13  17  ar  
 28  13  18  1   
 29  14  15  1   
 30  14  19  1   
 31  14  33  1   
 32  15  34  1   
 33  15  35  1   
 34  16  36  1   
 35  16  37  1   
 36  16  38  1   
 37  17  20  1   
 38  18  21  1   
 39  19  39  1   
 40  19  40  1   
 41  19  41  1   
 42  20  22  1   
 43  21  42  1   
 44  21  43  1   
 45  21  44  1   
 46  22  45  1   
 47  22  46  1   
 48  22  47  1   
@<TRIPOS>SUBSTRUCTURE
  1 ****   4 GROUP 4 **** **** 0

# MOE 2024.06 (io_trps.svl 2023.06)
