@<TRIPOS>MOLECULE
NONAME
42 42 1 0 0 
SMALL
USER_CHARGES


@<TRIPOS>ATOM
  1 S       -0.3140    -1.7810    -0.4420 S.3   1 <1>  -0.0800 
  2 C       -1.2490    -0.4240     0.1580 C.2   1 <1>   0.0600 
  3 C        1.1770    -1.2070     0.3130 C.2   1 <1>  -0.0450 
  4 C       -2.6340    -0.3580    -0.1760 C.1   1 <1>  -0.0200 
  5 C       -0.4470     0.3870     0.8790 C.2   1 <1>  -0.1500 
  6 C        2.3900    -1.9690     0.1580 C.2   1 <1>   0.7150 
  7 C        0.9040    -0.0470     0.9650 C.2   1 <1>  -0.1500 
  8 C       -3.7900    -0.2880    -0.4590 C.1   1 <1>  -0.2000 
  9 O        2.4830    -2.8510    -0.6760 O.2   1 <1>  -0.5700 
 10 N        3.4340    -1.7130     0.9980 N.am  1 <1>  -0.7300 
 11 C       -5.2390    -0.1900    -0.8170 C.3   1 <1>   0.4800 
 12 C        4.7580    -1.1120     0.5980 C.3   1 <1>   0.1140 
 13 O       -5.0900     1.1620    -0.9560 O.3   1 <1>  -0.6800 
 14 C       -5.4390    -1.7290    -0.7870 C.3   1 <1>  -0.2400 
 15 C       -6.0910     0.0390     0.4810 C.3   1 <1>  -0.2400 
 16 C        4.6490     0.4310     0.7010 C.2   1 <1>   0.9060 
 17 C        5.3110    -1.6900    -0.7290 C.3   1 <1>  -0.1600 
 18 O        4.0880     0.8700     1.7190 O.co2 1 <1>  -0.9000 
 19 O        5.0430     1.1880    -0.1930 O.co2 1 <1>  -0.9000 
 20 C        6.8470    -1.8470    -0.7670 C.3   1 <1>  -0.0800 
 21 C        7.5930    -0.5150    -0.6310 C.3   1 <1>  -0.2400 
 22 C        7.2610    -2.5270    -2.0780 C.3   1 <1>  -0.2400 
 23 H       -0.7630     1.2960     1.3590 H     1 <1>   0.1500 
 24 H        1.6340     0.5380     1.5030 H     1 <1>   0.1500 
 25 H        3.1410    -1.1430     1.8010 H     1 <1>   0.3700 
 26 H        5.4500    -1.3920     1.3690 H     1 <1>   0.0800 
 27 H       -4.1420     1.3440    -0.8220 H     1 <1>   0.4000 
 28 H       -4.9440    -2.1710    -1.6350 H     1 <1>   0.0800 
 29 H       -6.4810    -1.9770    -0.8930 H     1 <1>   0.0800 
 30 H       -5.0620    -2.2370     0.0890 H     1 <1>   0.0800 
 31 H       -5.7510     0.8590     1.0980 H     1 <1>   0.0800 
 32 H       -6.1370    -0.7820     1.1750 H     1 <1>   0.0800 
 33 H       -7.1050     0.2480     0.1880 H     1 <1>   0.0800 
 34 H        4.9790    -1.0760    -1.5480 H     1 <1>   0.0800 
 35 H        4.9080    -2.6760    -0.8680 H     1 <1>   0.0800 
 36 H        7.1430    -2.4860     0.0480 H     1 <1>   0.0800 
 37 H        7.2640     0.1770    -1.3880 H     1 <1>   0.0800 
 38 H        8.6530    -0.6600    -0.7310 H     1 <1>   0.0800 
 39 H        7.4060    -0.0700     0.3300 H     1 <1>   0.0800 
 40 H        6.9820    -1.9160    -2.9190 H     1 <1>   0.0800 
 41 H        6.7770    -3.4830    -2.1720 H     1 <1>   0.0800 
 42 H        8.3250    -2.6820    -2.1010 H     1 <1>   0.0800 
@<TRIPOS>BOND
  1   1   2  1   
  2   1   3  1   
  3   2   4  1   
  4   2   5  2   
  5   3   6  1   
  6   3   7  2   
  7   4   8  3   
  8   5   7  1   
  9   5  23  1   
 10   6   9  2   
 11   6  10  am  
 12   7  24  1   
 13   8  11  1   
 14  10  12  1   
 15  10  25  1   
 16  11  13  1   
 17  11  14  1   
 18  11  15  1   
 19  12  16  1   
 20  12  17  1   
 21  12  26  1   
 22  13  27  1   
 23  14  28  1   
 24  14  29  1   
 25  14  30  1   
 26  15  31  1   
 27  15  32  1   
 28  15  33  1   
 29  16  18  ar  
 30  16  19  ar  
 31  17  20  1   
 32  17  34  1   
 33  17  35  1   
 34  20  21  1   
 35  20  22  1   
 36  20  36  1   
 37  21  37  1   
 38  21  38  1   
 39  21  39  1   
 40  22  40  1   
 41  22  41  1   
 42  22  42  1   
@<TRIPOS>SUBSTRUCTURE
  1 ****   3 GROUP 4 **** **** 0

# MOE 2024.06 (io_trps.svl 2023.06)
