@<TRIPOS>MOLECULE
NONAME
43 45 1 0 0 
SMALL
USER_CHARGES


@<TRIPOS>ATOM
  1 S        1.1630    -0.6770    -1.4090 S.3   1 <1>  -0.0800 
  2 C        1.7700     0.4060    -0.1510 C.2   1 <1>  -0.0450 
  3 C       -0.3520     0.1900    -1.5290 C.2   1 <1>  -0.1100 
  4 C        3.0890     0.1700     0.3880 C.2   1 <1>   0.7150 
  5 C        0.8160     1.3380     0.1120 C.2   1 <1>  -0.1500 
  6 C       -0.3740     1.2200    -0.6640 C.2   1 <1>  -0.1500 
  7 O        3.5260    -0.9640     0.4660 O.2   1 <1>  -0.5700 
  8 N        3.8780     1.2100     0.8350 N.am  1 <1>  -0.6600 
  9 C        3.8380     2.5840     0.2390 C.3   1 <1>   0.1400 
 10 C        5.0920     0.9650     1.6790 C.3   1 <1>   0.1400 
 11 C        5.1470     2.9160    -0.4990 C.3   1 <1>   0.2090 
 12 C        6.3820     1.2970     0.9120 C.3   1 <1>   0.2090 
 13 N        6.3330     2.6920     0.3790 N.pl3 1 <1>  -0.8380 
 14 C        7.5360     3.2570    -0.0310 C.ar  1 <1>   0.1000 
 15 C        8.2740     2.8490    -1.1450 C.ar  1 <1>   0.1900 
 16 C        8.0610     4.3140     0.7000 C.ar  1 <1>  -0.1500 
 17 F        7.8280     1.8640    -1.8900 F     1 <1>  -0.1900 
 18 C        9.4630     3.4360    -1.5070 C.ar  1 <1>  -0.1500 
 19 C        9.2550     4.9290     0.3550 C.ar  1 <1>  -0.1430 
 20 C        9.9990     4.4830    -0.7540 C.ar  1 <1>   0.0860 
 21 C        9.7040     6.1150     1.2010 C.3   1 <1>  -0.0970 
 22 C       11.2680     5.0310    -1.1660 C.2   1 <1>   0.4230 
 23 O       11.5070     5.3420    -2.3040 O.2   1 <1>  -0.5700 
 24 C       12.4000     5.1780    -0.1700 C.3   1 <1>  -0.1790 
 25 H       -1.0750    -0.1670    -2.2420 H     1 <1>   0.1500 
 26 H        0.9140     2.1160     0.8480 H     1 <1>   0.1500 
 27 H       -1.1930     1.9070    -0.5380 H     1 <1>   0.1500 
 28 H        3.6880     3.3030     1.0250 H     1 <1>   0.0800 
 29 H        3.0250     2.6750    -0.4580 H     1 <1>   0.0800 
 30 H        5.1280    -0.0590     2.0070 H     1 <1>   0.0800 
 31 H        5.0400     1.5860     2.5560 H     1 <1>   0.0800 
 32 H        5.1290     3.9430    -0.8190 H     1 <1>   0.0800 
 33 H        5.2280     2.2950    -1.3750 H     1 <1>   0.0800 
 34 H        6.4990     0.6000     0.0990 H     1 <1>   0.0800 
 35 H        7.2280     1.1930     1.5680 H     1 <1>   0.0800 
 36 H        7.4980     4.6500     1.5520 H     1 <1>   0.1500 
 37 H        9.9870     3.0850    -2.3780 H     1 <1>   0.1500 
 38 H        8.8790     6.5210     1.7580 H     1 <1>   0.0800 
 39 H       10.0910     6.9000     0.5750 H     1 <1>   0.0800 
 40 H       10.4620     5.8110     1.9000 H     1 <1>   0.0800 
 41 H       12.5030     6.2090     0.1140 H     1 <1>   0.0800 
 42 H       13.3180     4.8550    -0.6260 H     1 <1>   0.0800 
 43 H       12.2210     4.5770     0.7020 H     1 <1>   0.0800 
@<TRIPOS>BOND
  1   1   2  1   
  2   1   3  1   
  3   2   4  1   
  4   2   5  2   
  5   3   6  2   
  6   3  25  1   
  7   4   7  2   
  8   4   8  am  
  9   5   6  1   
 10   5  26  1   
 11   6  27  1   
 12   8   9  1   
 13   8  10  1   
 14   9  11  1   
 15   9  28  1   
 16   9  29  1   
 17  10  12  1   
 18  10  30  1   
 19  10  31  1   
 20  11  13  1   
 21  11  32  1   
 22  11  33  1   
 23  12  13  1   
 24  12  34  1   
 25  12  35  1   
 26  13  14  1   
 27  14  15  ar  
 28  14  16  ar  
 29  15  17  1   
 30  15  18  ar  
 31  16  19  ar  
 32  16  36  1   
 33  18  20  ar  
 34  18  37  1   
 35  19  20  ar  
 36  19  21  1   
 37  20  22  1   
 38  21  38  1   
 39  21  39  1   
 40  21  40  1   
 41  22  23  2   
 42  22  24  1   
 43  24  41  1   
 44  24  42  1   
 45  24  43  1   
@<TRIPOS>SUBSTRUCTURE
  1 ****  13 GROUP 4 **** **** 0

# MOE 2024.06 (io_trps.svl 2023.06)
