@<TRIPOS>MOLECULE
NONAME
44 47 1 0 0 
SMALL
USER_CHARGES


@<TRIPOS>ATOM
  1 O        2.0140     0.9900    -1.0100 O.co2 1 <1>  -0.9000 
  2 C        1.3000     1.9850    -1.1800 C.2   1 <1>   0.9060 
  3 O        0.9340     2.3560    -2.2980 O.co2 1 <1>  -0.9000 
  4 C        0.9070     2.7830     0.0540 C.3   1 <1>  -0.1860 
  5 C       -0.7430     2.6840     0.5180 C.3   1 <1>  -0.0190 
  6 C        1.2760     4.3930    -0.0630 C.3   1 <1>   0.0580 
  7 C       -1.6500     1.7480    -0.3090 C.2   1 <1>   0.5690 
  8 C       -1.2720     4.2580     0.6610 C.3   1 <1>   0.0580 
  9 C        0.6440     5.8370     0.2940 C.2   1 <1>  -0.2880 
 10 C        0.0020     4.2070     0.2800 C.3   1 <1>  -0.1600 
 11 O       -2.6360     2.2120    -0.8390 O.2   1 <1>  -0.5700 
 12 N       -1.4290     0.3930    -0.3450 N.am  1 <1>  -0.6600 
 13 C       -0.6900     5.7670     0.6760 C.2   1 <1>  -0.2880 
 14 C       -0.3490    -0.3690     0.3510 C.3   1 <1>   0.1400 
 15 C       -2.2770    -0.5240    -1.1540 C.3   1 <1>   0.1400 
 16 C       -0.9540    -1.4360     1.2840 C.3   1 <1>   0.2090 
 17 C       -2.9590    -1.5570    -0.2430 C.3   1 <1>   0.2090 
 18 N       -1.9780    -2.3090     0.6060 N.pl3 1 <1>  -0.8380 
 19 C       -1.6150    -3.5770     0.1910 C.ar  1 <1>   0.4100 
 20 N       -0.3570    -3.7620    -0.1890 N.ar  1 <1>  -0.6200 
 21 C       -2.5670    -4.5940     0.1780 C.ar  1 <1>  -0.1500 
 22 C       -0.0450    -4.9780    -0.6020 C.ar  1 <1>   0.1600 
 23 C       -2.2310    -5.8570    -0.2500 C.ar  1 <1>  -0.1500 
 24 C       -0.9240    -6.0450    -0.6530 C.ar  1 <1>  -0.1500 
 25 H        1.5040     2.3650     0.8500 H     1 <1>   0.0800 
 26 H       -0.7730     2.2580     1.5090 H     1 <1>   0.0800 
 27 H        1.5560     4.5160    -1.1020 H     1 <1>   0.0800 
 28 H       -2.0600     4.3560    -0.0710 H     1 <1>   0.0800 
 29 H        1.2770     6.7030     0.2060 H     1 <1>   0.1500 
 30 H       -0.3210     4.2880    -0.8390 H     1 <1>   0.0800 
 31 H        0.3340     4.1740     1.4510 H     1 <1>   0.0800 
 32 H       -1.3520     6.5670     0.9590 H     1 <1>   0.1500 
 33 H        0.2850     0.2820     0.9210 H     1 <1>   0.0800 
 34 H        0.2710    -0.8540    -0.3850 H     1 <1>   0.0800 
 35 H       -1.6550    -1.0330    -1.8700 H     1 <1>   0.0800 
 36 H       -3.0220     0.0260    -1.7000 H     1 <1>   0.0800 
 37 H       -1.4250    -0.9390     2.1130 H     1 <1>   0.0800 
 38 H       -0.1600    -2.0430     1.6820 H     1 <1>   0.0800 
 39 H       -3.5140    -2.2440    -0.8560 H     1 <1>   0.0800 
 40 H       -3.6570    -1.0470     0.3970 H     1 <1>   0.0800 
 41 H       -3.5600    -4.3720     0.5140 H     1 <1>   0.1500 
 42 H        0.9730    -5.1300    -0.9180 H     1 <1>   0.1500 
 43 H       -2.9480    -6.6590    -0.2690 H     1 <1>   0.1500 
 44 H       -0.5910    -7.0050    -1.0010 H     1 <1>   0.1500 
@<TRIPOS>BOND
  1   1   2  ar  
  2   2   3  ar  
  3   2   4  1   
  4   4   5  1   
  5   4   6  1   
  6   4  25  1   
  7   5   7  1   
  8   5   8  1   
  9   5  26  1   
 10   6   9  1   
 11   6  10  1   
 12   6  27  1   
 13   7  11  2   
 14   7  12  am  
 15   8  10  1   
 16   8  13  1   
 17   8  28  1   
 18   9  13  2   
 19   9  29  1   
 20  10  30  1   
 21  10  31  1   
 22  12  14  1   
 23  12  15  1   
 24  13  32  1   
 25  14  16  1   
 26  14  33  1   
 27  14  34  1   
 28  15  17  1   
 29  15  35  1   
 30  15  36  1   
 31  16  18  1   
 32  16  37  1   
 33  16  38  1   
 34  17  18  1   
 35  17  39  1   
 36  17  40  1   
 37  18  19  1   
 38  19  20  ar  
 39  19  21  ar  
 40  20  22  ar  
 41  21  23  ar  
 42  21  41  1   
 43  22  24  ar  
 44  22  42  1   
 45  23  24  ar  
 46  23  43  1   
 47  24  44  1   
@<TRIPOS>SUBSTRUCTURE
  1 ****  12 GROUP 4 **** **** 0

# MOE 2024.06 (io_trps.svl 2023.06)
