@<TRIPOS>MOLECULE
NONAME
50 51 1 0 0 
SMALL
USER_CHARGES


@<TRIPOS>ATOM
  1 CL       0.2370    -0.0380    -0.9990 Cl    1 <1>  -0.1770 
  2 C        1.9660     0.0750    -0.7830 C.ar  1 <1>   0.1770 
  3 C        2.6340    -0.9390    -0.1240 C.ar  1 <1>  -0.1500 
  4 C        2.6380     1.1760    -1.2760 C.ar  1 <1>  -0.1500 
  5 C        4.0070    -0.8570     0.0500 C.ar  1 <1>  -0.1440 
  6 C        4.0090     1.2650    -1.1050 C.ar  1 <1>  -0.1500 
  7 C        4.7000     0.2490    -0.4420 C.ar  1 <1>   0.0830 
  8 C        4.7360    -1.9790     0.7770 C.3   1 <1>  -0.0960 
  9 O        6.0450     0.2830    -0.2450 O.3   1 <1>  -0.3630 
 10 C        6.8450     1.3320    -0.7460 C.3   1 <1>   0.1200 
 11 C        8.3030     1.0470    -0.3640 C.3   1 <1>   0.2000 
 12 O        8.3690     0.7760     1.0050 O.3   1 <1>  -0.6800 
 13 C        9.2470     2.2260    -0.6870 C.3   1 <1>   0.3430 
 14 N       10.4540     2.1810     0.1960 N.4   1 <1>  -0.9590 
 15 C       11.0780     3.5370     0.4030 C.3   1 <1>   0.3430 
 16 C       11.4520     1.1370    -0.2370 C.3   1 <1>   0.3430 
 17 C       12.2950     3.4720     1.3440 C.3   1 <1>   0.1400 
 18 C       12.6710     1.0760     0.7020 C.3   1 <1>   0.1400 
 19 N       13.2570     2.4380     0.8670 N.am  1 <1>  -0.6600 
 20 C       14.5050     2.7780     0.4170 C.2   1 <1>   0.7800 
 21 O       14.8910     3.9290     0.3960 O.2   1 <1>  -0.5700 
 22 O       15.2860     1.8010    -0.0400 O.3   1 <1>  -0.4300 
 23 C       16.5860     2.0760    -0.5100 C.3   1 <1>   0.1200 
 24 C       17.2150     0.7610    -0.9600 C.3   1 <1>  -0.2400 
 25 H        2.0740    -1.7790     0.2440 H     1 <1>   0.1500 
 26 H        2.0910     1.9490    -1.7840 H     1 <1>   0.1500 
 27 H        4.5090     2.1300    -1.4950 H     1 <1>   0.1500 
 28 H        4.0580    -2.7650     1.0560 H     1 <1>   0.0800 
 29 H        5.2000    -1.5960     1.6690 H     1 <1>   0.0800 
 30 H        5.4960    -2.3950     0.1400 H     1 <1>   0.0800 
 31 H        6.5090     2.2550    -0.3060 H     1 <1>   0.0800 
 32 H        6.7300     1.3680    -1.8160 H     1 <1>   0.0800 
 33 H        8.6320     0.1660    -0.8880 H     1 <1>   0.0800 
 34 H        7.5930     0.2150     1.2450 H     1 <1>   0.4000 
 35 H        8.7100     3.1410    -0.5040 H     1 <1>   0.0800 
 36 H        9.5290     2.2100    -1.7270 H     1 <1>   0.0800 
 37 H       10.0670     1.8510     1.1020 H     1 <1>   0.4500 
 38 H       10.3510     4.2160     0.8160 H     1 <1>   0.0800 
 39 H       11.4040     3.9350    -0.5430 H     1 <1>   0.0800 
 40 H       11.8020     1.3610    -1.2310 H     1 <1>   0.0800 
 41 H       10.9800     0.1690    -0.2590 H     1 <1>   0.0800 
 42 H       11.9750     3.2280     2.3420 H     1 <1>   0.0800 
 43 H       12.7640     4.4410     1.3830 H     1 <1>   0.0800 
 44 H       13.3960     0.3900     0.2970 H     1 <1>   0.0800 
 45 H       12.3720     0.6990     1.6650 H     1 <1>   0.0800 
 46 H       17.1530     2.5190     0.2920 H     1 <1>   0.0800 
 47 H       16.5160     2.7710    -1.3300 H     1 <1>   0.0800 
 48 H       17.2720     0.0740    -0.1340 H     1 <1>   0.0800 
 49 H       18.2110     0.9410    -1.3230 H     1 <1>   0.0800 
 50 H       16.6370     0.3240    -1.7550 H     1 <1>   0.0800 
@<TRIPOS>BOND
  1   1   2  1   
  2   2   3  ar  
  3   2   4  ar  
  4   3   5  ar  
  5   3  25  1   
  6   4   6  ar  
  7   4  26  1   
  8   5   7  ar  
  9   5   8  1   
 10   6   7  ar  
 11   6  27  1   
 12   7   9  1   
 13   8  28  1   
 14   8  29  1   
 15   8  30  1   
 16   9  10  1   
 17  10  11  1   
 18  10  31  1   
 19  10  32  1   
 20  11  12  1   
 21  11  13  1   
 22  11  33  1   
 23  12  34  1   
 24  13  14  1   
 25  13  35  1   
 26  13  36  1   
 27  14  15  1   
 28  14  16  1   
 29  14  37  1   
 30  15  17  1   
 31  15  38  1   
 32  15  39  1   
 33  16  18  1   
 34  16  40  1   
 35  16  41  1   
 36  17  19  1   
 37  17  42  1   
 38  17  43  1   
 39  18  19  1   
 40  18  44  1   
 41  18  45  1   
 42  19  20  am  
 43  20  21  2   
 44  20  22  1   
 45  22  23  1   
 46  23  24  1   
 47  23  46  1   
 48  23  47  1   
 49  24  48  1   
 50  24  49  1   
 51  24  50  1   
@<TRIPOS>SUBSTRUCTURE
  1 ****  11 GROUP 4 **** **** 0

# MOE 2024.06 (io_trps.svl 2023.06)
