@<TRIPOS>MOLECULE
NONAME
55 58 1 0 0 
SMALL
USER_CHARGES


@<TRIPOS>ATOM
  1 S        0.3350    -0.2430     0.2990 S.3   1 <1>  -0.3320 
  2 C       -1.3220    -0.9340     0.2640 C.ar  1 <1>   0.4120 
  3 C        1.4180    -1.6740     0.7800 C.3   1 <1>   0.1310 
  4 N       -1.3620    -2.2380     0.4550 N.ar  1 <1>  -0.6200 
  5 C       -2.4080    -0.0910     0.0460 C.ar  1 <1>   0.0730 
  6 C        2.8810    -1.2620     0.7670 C.2   1 <1>   0.4230 
  7 C       -2.5720    -2.7740     0.4460 C.ar  1 <1>   0.4100 
  8 C       -2.2260     1.3150    -0.1510 C.1   1 <1>   0.4840 
  9 C       -3.6700    -0.6770     0.0330 C.ar  1 <1>  -0.1430 
 10 O        3.4200    -1.1540     1.8400 O.2   1 <1>  -0.5700 
 11 C        3.5750    -1.0530    -0.4910 C.ar  1 <1>   0.0860 
 12 N       -2.6280    -4.1320     0.6520 N.pl3 1 <1>  -0.8380 
 13 C       -3.7410    -2.0380     0.2450 C.ar  1 <1>  -0.1430 
 14 N       -2.1410     2.4390    -0.3240 N.1   1 <1>  -0.5570 
 15 C       -4.9560     0.1170    -0.1820 C.3   1 <1>  -0.0170 
 16 C        4.9330    -0.7250    -0.4910 C.ar  1 <1>  -0.1500 
 17 C        2.9590    -1.1690    -1.7430 C.ar  1 <1>  -0.1500 
 18 C       -2.3620    -4.5920     2.0460 C.3   1 <1>   0.2090 
 19 C       -1.9270    -4.9950    -0.3450 C.3   1 <1>   0.2090 
 20 C       -5.0810    -2.7670     0.2500 C.3   1 <1>   0.2630 
 21 C       -6.1400    -0.7840    -0.5800 C.3   1 <1>   0.2800 
 22 C        5.6400    -0.5280    -1.6630 C.ar  1 <1>  -0.1500 
 23 C        3.6590    -0.9730    -2.9200 C.ar  1 <1>  -0.1500 
 24 C       -2.6320    -6.1010     2.1910 C.3   1 <1>   0.1200 
 25 C       -2.2210    -6.4830    -0.0870 C.3   1 <1>   0.1200 
 26 O       -6.1700    -1.8830     0.2750 O.3   1 <1>  -0.5600 
 27 C       -7.4650    -0.0540    -0.3590 C.3   1 <1>  -0.2400 
 28 C       -6.0620    -1.2560    -2.0400 C.3   1 <1>  -0.2400 
 29 C        5.0030    -0.6530    -2.8830 C.ar  1 <1>  -0.1500 
 30 O       -1.9140    -6.8320     1.2350 O.3   1 <1>  -0.5600 
 31 H        1.2340    -2.4780     0.0920 H     1 <1>   0.0800 
 32 H        1.1190    -1.9720     1.7690 H     1 <1>   0.0800 
 33 H       -4.8200     0.8640    -0.9440 H     1 <1>   0.0800 
 34 H       -5.1940     0.6290     0.7330 H     1 <1>   0.0800 
 35 H        5.4450    -0.6220     0.4510 H     1 <1>   0.1500 
 36 H        1.9150    -1.4120    -1.8180 H     1 <1>   0.1500 
 37 H       -2.9900    -4.0470     2.7300 H     1 <1>   0.0800 
 38 H       -1.3360    -4.3890     2.3020 H     1 <1>   0.0800 
 39 H       -0.8650    -4.8300    -0.2800 H     1 <1>   0.0800 
 40 H       -2.2470    -4.7300    -1.3370 H     1 <1>   0.0800 
 41 H       -5.1600    -3.3900     1.1230 H     1 <1>   0.0800 
 42 H       -5.1700    -3.3940    -0.6190 H     1 <1>   0.0800 
 43 H        6.6860    -0.2760    -1.6250 H     1 <1>   0.1500 
 44 H        3.1590    -1.0680    -3.8680 H     1 <1>   0.1500 
 45 H       -3.6800    -6.3080     2.0660 H     1 <1>   0.0800 
 46 H       -2.3240    -6.4410     3.1630 H     1 <1>   0.0800 
 47 H       -1.6230    -7.0980    -0.7360 H     1 <1>   0.0800 
 48 H       -3.2600    -6.6970    -0.2670 H     1 <1>   0.0800 
 49 H       -7.5670     0.2340     0.6720 H     1 <1>   0.0800 
 50 H       -8.2890    -0.6930    -0.6220 H     1 <1>   0.0800 
 51 H       -7.5130     0.8320    -0.9670 H     1 <1>   0.0800 
 52 H       -5.1110    -1.7020    -2.2630 H     1 <1>   0.0800 
 53 H       -6.1890    -0.4180    -2.7020 H     1 <1>   0.0800 
 54 H       -6.8450    -1.9650    -2.2430 H     1 <1>   0.0800 
 55 H        5.5500    -0.5000    -3.7970 H     1 <1>   0.1500 
@<TRIPOS>BOND
  1   1   2  1   
  2   1   3  1   
  3   2   4  ar  
  4   2   5  ar  
  5   3   6  1   
  6   3  31  1   
  7   3  32  1   
  8   4   7  ar  
  9   5   8  1   
 10   5   9  ar  
 11   6  10  2   
 12   6  11  1   
 13   7  12  1   
 14   7  13  ar  
 15   8  14  3   
 16   9  13  ar  
 17   9  15  1   
 18  11  16  ar  
 19  11  17  ar  
 20  12  18  1   
 21  12  19  1   
 22  13  20  1   
 23  15  21  1   
 24  15  33  1   
 25  15  34  1   
 26  16  22  ar  
 27  16  35  1   
 28  17  23  ar  
 29  17  36  1   
 30  18  24  1   
 31  18  37  1   
 32  18  38  1   
 33  19  25  1   
 34  19  39  1   
 35  19  40  1   
 36  20  26  1   
 37  20  41  1   
 38  20  42  1   
 39  21  26  1   
 40  21  27  1   
 41  21  28  1   
 42  22  29  ar  
 43  22  43  1   
 44  23  29  ar  
 45  23  44  1   
 46  24  30  1   
 47  24  45  1   
 48  24  46  1   
 49  25  30  1   
 50  25  47  1   
 51  25  48  1   
 52  27  49  1   
 53  27  50  1   
 54  27  51  1   
 55  28  52  1   
 56  28  53  1   
 57  28  54  1   
 58  29  55  1   
@<TRIPOS>SUBSTRUCTURE
  1 ****   4 GROUP 4 **** **** 0

# MOE 2024.06 (io_trps.svl 2023.06)
