@<TRIPOS>MOLECULE
NONAME
26 26 1 0 0 
SMALL
USER_CHARGES


@<TRIPOS>ATOM
  1 BR       1.5340     0.1100    -2.8590 Br    1 <1>  -0.1110 
  2 C        2.5350    -0.8530    -1.5300 C.ar  1 <1>   0.1110 
  3 C        3.4100    -0.1590    -0.7190 C.ar  1 <1>  -0.1500 
  4 C        2.3560    -2.2170    -1.4160 C.ar  1 <1>  -0.1500 
  5 C        4.1280    -0.8620     0.2340 C.ar  1 <1>  -0.1500 
  6 C        3.0830    -2.9020    -0.4570 C.ar  1 <1>  -0.1500 
  7 C        3.9810    -2.2410     0.3790 C.ar  1 <1>  -0.0090 
  8 S        4.9540    -3.1600     1.5990 S.o2  1 <1>   1.2040 
  9 O        4.1370    -4.2170     2.1510 O.2   1 <1>  -0.6500 
 10 O        5.6220    -2.2280     2.4810 O.2   1 <1>  -0.6500 
 11 C        6.2130    -3.9300     0.5830 C.3   1 <1>  -0.0550 
 12 C        7.1900    -2.9280    -0.0650 C.3   1 <1>  -0.0990 
 13 C        8.2320    -3.6210    -0.9240 C.2   1 <1>   0.4480 
 14 O        8.1310    -4.7680    -1.2330 O.2   1 <1>  -0.5700 
 15 C        9.4050    -2.7860    -1.3840 C.3   1 <1>  -0.1790 
 16 H        3.5220     0.9060    -0.8300 H     1 <1>   0.1500 
 17 H        1.6620    -2.7280    -2.0610 H     1 <1>   0.1500 
 18 H        4.8100    -0.3300     0.8780 H     1 <1>   0.1500 
 19 H        2.9460    -3.9660    -0.3520 H     1 <1>   0.1500 
 20 H        5.7430    -4.5130    -0.1870 H     1 <1>   0.0800 
 21 H        6.7800    -4.6090     1.1910 H     1 <1>   0.0800 
 22 H        7.6900    -2.3740     0.7090 H     1 <1>   0.0800 
 23 H        6.6490    -2.2350    -0.6830 H     1 <1>   0.0800 
 24 H        9.0580    -1.9470    -1.9580 H     1 <1>   0.0800 
 25 H       10.0540    -3.3830    -1.9990 H     1 <1>   0.0800 
 26 H        9.9610    -2.4340    -0.5350 H     1 <1>   0.0800 
@<TRIPOS>BOND
  1   1   2  1   
  2   2   3  ar  
  3   2   4  ar  
  4   3   5  ar  
  5   3  16  1   
  6   4   6  ar  
  7   4  17  1   
  8   5   7  ar  
  9   5  18  1   
 10   6   7  ar  
 11   6  19  1   
 12   7   8  1   
 13   8   9  2   
 14   8  10  2   
 15   8  11  1   
 16  11  12  1   
 17  11  20  1   
 18  11  21  1   
 19  12  13  1   
 20  12  22  1   
 21  12  23  1   
 22  13  14  2   
 23  13  15  1   
 24  15  24  1   
 25  15  25  1   
 26  15  26  1   
@<TRIPOS>SUBSTRUCTURE
  1 ****   7 GROUP 4 **** **** 0

# MOE 2024.06 (io_trps.svl 2023.06)
