@<TRIPOS>MOLECULE
NONAME
34 35 1 0 0 
SMALL
USER_CHARGES


@<TRIPOS>ATOM
  1 CL      -1.2430     5.6220    -2.5280 Cl    1 <1>  -0.1770 
  2 C       -0.3550     4.8950    -1.2100 C.ar  1 <1>   0.1770 
  3 C        0.9090     4.4060    -1.4350 C.ar  1 <1>  -0.1500 
  4 C       -0.9650     4.8330     0.0470 C.ar  1 <1>  -0.1500 
  5 C        1.5920     3.8340    -0.3650 C.ar  1 <1>   0.2270 
  6 C       -0.2930     4.2690     1.1100 C.ar  1 <1>  -0.1500 
  7 N        2.8410     3.2900    -0.3350 N.2   1 <1>  -0.5650 
  8 C        0.9940     3.7700     0.8870 C.ar  1 <1>  -0.1520 
  9 C        2.9690     2.9320     0.8930 C.2   1 <1>   0.2420 
 10 N        1.9090     3.1720     1.6930 N.pl3 1 <1>   0.0330 
 11 S        4.4400     2.1680     1.5600 S.3   1 <1>  -0.2860 
 12 C        5.6940     2.3950     0.2080 C.3   1 <1>   0.1310 
 13 C        6.3360     3.7680     0.2990 C.2   1 <1>   0.6590 
 14 O        7.5320     3.8820     0.3870 O.2   1 <1>  -0.5700 
 15 O        5.5040     4.8030     0.2660 O.3   1 <1>  -0.4300 
 16 C        5.8040     6.1760     0.3280 C.3   1 <1>   0.2800 
 17 C        6.4810     6.5010     1.6630 C.3   1 <1>  -0.2400 
 18 C        4.4510     6.8820     0.2510 C.3   1 <1>  -0.2400 
 19 C        6.6640     6.5750    -0.8750 C.3   1 <1>  -0.2400 
 20 H        1.3750     4.4540    -2.4000 H     1 <1>   0.1500 
 21 H       -1.9570     5.2320     0.1650 H     1 <1>   0.1500 
 22 H       -0.7410     4.2100     2.0870 H     1 <1>   0.1500 
 23 H        1.8410     2.9580     2.6890 H     1 <1>   0.2700 
 24 H        5.1940     2.2700    -0.7330 H     1 <1>   0.0800 
 25 H        6.4360     1.6300     0.3350 H     1 <1>   0.0800 
 26 H        5.8830     6.1460     2.4820 H     1 <1>   0.0800 
 27 H        6.6020     7.5640     1.7630 H     1 <1>   0.0800 
 28 H        7.4580     6.0550     1.7180 H     1 <1>   0.0800 
 29 H        4.5810     7.9480     0.2870 H     1 <1>   0.0800 
 30 H        3.8280     6.5860     1.0760 H     1 <1>   0.0800 
 31 H        3.9510     6.6300    -0.6680 H     1 <1>   0.0800 
 32 H        6.7940     7.6420    -0.8940 H     1 <1>   0.0800 
 33 H        6.1890     6.2740    -1.7910 H     1 <1>   0.0800 
 34 H        7.6390     6.1280    -0.8180 H     1 <1>   0.0800 
@<TRIPOS>BOND
  1   1   2  1   
  2   2   3  ar  
  3   2   4  ar  
  4   3   5  ar  
  5   3  20  1   
  6   4   6  ar  
  7   4  21  1   
  8   5   7  1   
  9   5   8  ar  
 10   6   8  ar  
 11   6  22  1   
 12   7   9  2   
 13   8  10  1   
 14   9  10  1   
 15   9  11  1   
 16  10  23  1   
 17  11  12  1   
 18  12  13  1   
 19  12  24  1   
 20  12  25  1   
 21  13  14  2   
 22  13  15  1   
 23  15  16  1   
 24  16  17  1   
 25  16  18  1   
 26  16  19  1   
 27  17  26  1   
 28  17  27  1   
 29  17  28  1   
 30  18  29  1   
 31  18  30  1   
 32  18  31  1   
 33  19  32  1   
 34  19  33  1   
 35  19  34  1   
@<TRIPOS>SUBSTRUCTURE
  1 ****   7 GROUP 4 **** **** 0

# MOE 2024.06 (io_trps.svl 2023.06)
