@<TRIPOS>MOLECULE
NONAME
46 48 1 0 0 
SMALL
USER_CHARGES


@<TRIPOS>ATOM
  1 O       -0.2370     1.1120    -1.9230 O.2   1 <1>  -0.5700 
  2 C        0.6090     1.6100    -1.2210 C.2   1 <1>   0.5690 
  3 N        0.4190     2.4230    -0.1470 N.am  1 <1>  -0.6600 
  4 C        2.0690     1.3670    -1.4730 C.3   1 <1>  -0.0990 
  5 C       -0.8790     3.0160     0.2900 C.3   1 <1>   0.3000 
  6 C        1.7220     2.8340     0.4310 C.3   1 <1>   0.1400 
  7 C        2.7280     1.8440    -0.1710 C.3   1 <1>  -0.0190 
  8 C       -1.4490     3.8620    -0.8520 C.3   1 <1>  -0.2400 
  9 C       -0.6980     3.9170     1.5200 C.3   1 <1>  -0.2400 
 10 C       -1.8460     1.8880     0.6610 C.3   1 <1>  -0.2400 
 11 C        4.1110     2.4610    -0.3780 C.2   1 <1>   0.5690 
 12 O        4.1340     3.5220    -0.9540 O.2   1 <1>  -0.5700 
 13 N        5.2640     1.8410     0.0750 N.am  1 <1>  -0.4770 
 14 C        6.5780     2.3370    -0.0060 C.ar  1 <1>   0.1170 
 15 C        5.3050     0.5810     0.8770 C.3   1 <1>   0.2200 
 16 C        7.4330     1.6470     0.8260 C.ar  1 <1>  -0.1440 
 17 C        7.0880     3.3690    -0.7860 C.ar  1 <1>  -0.1500 
 18 C        6.6830     0.5750     1.5660 C.3   1 <1>  -0.0170 
 19 C        5.1550    -0.6250    -0.0580 C.3   1 <1>  -0.2400 
 20 C        8.7780     1.9540     0.9120 C.ar  1 <1>  -0.1500 
 21 C        8.4340     3.6910    -0.7110 C.ar  1 <1>  -0.1500 
 22 C        9.2780     2.9870     0.1350 C.ar  1 <1>  -0.1500 
 23 H        2.3740     1.9660    -2.3120 H     1 <1>   0.0800 
 24 H        2.2580     0.3300    -1.6730 H     1 <1>   0.0800 
 25 H        1.7200     2.7620     1.5040 H     1 <1>   0.0800 
 26 H        1.9340     3.8460     0.1300 H     1 <1>   0.0800 
 27 H        2.7650     1.0110     0.5010 H     1 <1>   0.0800 
 28 H       -1.6680     3.2510    -1.7080 H     1 <1>   0.0800 
 29 H       -0.7480     4.6250    -1.1370 H     1 <1>   0.0800 
 30 H       -2.3630     4.3360    -0.5450 H     1 <1>   0.0800 
 31 H       -0.0400     4.7380     1.3010 H     1 <1>   0.0800 
 32 H       -0.3170     3.3550     2.3520 H     1 <1>   0.0800 
 33 H       -1.6460     4.3300     1.8130 H     1 <1>   0.0800 
 34 H       -1.4160     1.2640     1.4230 H     1 <1>   0.0800 
 35 H       -2.0780     1.2830    -0.1950 H     1 <1>   0.0800 
 36 H       -2.7690     2.2950     1.0320 H     1 <1>   0.0800 
 37 H        4.5360     0.5820     1.6290 H     1 <1>   0.0800 
 38 H        6.4480     3.9190    -1.4500 H     1 <1>   0.1500 
 39 H        7.1760    -0.3770     1.4940 H     1 <1>   0.0800 
 40 H        6.5830     0.8480     2.6010 H     1 <1>   0.0800 
 41 H        5.9330    -0.6170    -0.8020 H     1 <1>   0.0800 
 42 H        5.2300    -1.5380     0.5050 H     1 <1>   0.0800 
 43 H        4.2020    -0.6170    -0.5520 H     1 <1>   0.0800 
 44 H        9.4270     1.4040     1.5690 H     1 <1>   0.1500 
 45 H        8.8250     4.4920    -1.3140 H     1 <1>   0.1500 
 46 H       10.3220     3.2430     0.1870 H     1 <1>   0.1500 
@<TRIPOS>BOND
  1   1   2  2   
  2   2   3  am  
  3   2   4  1   
  4   3   5  1   
  5   3   6  1   
  6   4   7  1   
  7   4  23  1   
  8   4  24  1   
  9   5   8  1   
 10   5   9  1   
 11   5  10  1   
 12   6   7  1   
 13   6  25  1   
 14   6  26  1   
 15   7  11  1   
 16   7  27  1   
 17   8  28  1   
 18   8  29  1   
 19   8  30  1   
 20   9  31  1   
 21   9  32  1   
 22   9  33  1   
 23  10  34  1   
 24  10  35  1   
 25  10  36  1   
 26  11  12  2   
 27  11  13  am  
 28  13  14  1   
 29  13  15  1   
 30  14  16  ar  
 31  14  17  ar  
 32  15  18  1   
 33  15  19  1   
 34  15  37  1   
 35  16  18  1   
 36  16  20  ar  
 37  17  21  ar  
 38  17  38  1   
 39  18  39  1   
 40  18  40  1   
 41  19  41  1   
 42  19  42  1   
 43  19  43  1   
 44  20  22  ar  
 45  20  44  1   
 46  21  22  ar  
 47  21  45  1   
 48  22  46  1   
@<TRIPOS>SUBSTRUCTURE
  1 ****  11 GROUP 4 **** **** 0

# MOE 2024.06 (io_trps.svl 2023.06)
