@<TRIPOS>MOLECULE
NONAME
57 59 1 0 0 
SMALL
USER_CHARGES


@<TRIPOS>ATOM
  1 S       -0.1570     0.1430    -0.0280 S.o2  1 <1>   1.4470 
  2 O       -0.2270     0.6660    -1.3770 O.2   1 <1>  -0.6500 
  3 O       -1.0010     0.7290     0.9900 O.2   1 <1>  -0.6500 
  4 N        1.4460     0.3690     0.4750 N.am  1 <1>  -0.8490 
  5 C       -0.3890    -1.6570    -0.0450 C.ar  1 <1>  -0.0090 
  6 C        2.4180    -0.0280    -0.5480 C.3   1 <1>   0.1960 
  7 C        1.6680     1.7450     0.9380 C.3   1 <1>   0.1960 
  8 C       -1.1910    -2.2620    -1.0060 C.ar  1 <1>  -0.1500 
  9 C        0.2090    -2.4750     0.9050 C.ar  1 <1>  -0.1500 
 10 C        3.8490    -0.1110     0.0360 C.3   1 <1>  -0.0190 
 11 C        3.1620     2.0860     1.0970 C.3   1 <1>  -0.1600 
 12 C       -1.3930    -3.6320    -1.0320 C.ar  1 <1>  -0.1440 
 13 C        0.0200    -3.8450     0.8960 C.ar  1 <1>  -0.1500 
 14 C        4.2650    -1.5440     0.3920 C.2   1 <1>   0.5690 
 15 C        4.0310     0.8310     1.2510 C.3   1 <1>  -0.1600 
 16 C       -0.7840    -4.4360    -0.0740 C.ar  1 <1>   0.0820 
 17 C       -2.2790    -4.2460    -2.1070 C.3   1 <1>  -0.0960 
 18 O        3.4120    -2.3920     0.4900 O.2   1 <1>  -0.5700 
 19 N        5.5860    -1.8840     0.5930 N.am  1 <1>  -0.6600 
 20 O       -1.0080    -5.7740    -0.1330 O.3   1 <1>  -0.3630 
 21 C        5.9450    -3.2550     1.0810 C.3   1 <1>   0.1400 
 22 C        6.7810    -1.0360     0.2890 C.3   1 <1>   0.1400 
 23 C       -0.4490    -6.6610     0.8100 C.3   1 <1>   0.0400 
 24 C        6.8560    -3.9660     0.0670 C.3   1 <1>   0.3430 
 25 C        7.7180    -1.7570    -0.7050 C.3   1 <1>   0.3430 
 26 N        8.0830    -3.1480    -0.2520 N.4   1 <1>  -0.9590 
 27 C        8.9290    -3.8390    -1.2720 C.3   1 <1>   0.2630 
 28 H        2.3980     0.7020    -1.3410 H     1 <1>   0.0800 
 29 H        2.1360    -0.9720    -0.9860 H     1 <1>   0.0800 
 30 H        1.1750     1.8620     1.8900 H     1 <1>   0.0800 
 31 H        1.2180     2.4440     0.2500 H     1 <1>   0.0800 
 32 H       -1.6640    -1.6390    -1.7460 H     1 <1>   0.1500 
 33 H        0.8380    -2.0330     1.6590 H     1 <1>   0.1500 
 34 H        4.4870     0.2210    -0.7590 H     1 <1>   0.0800 
 35 H        3.2840     2.7290     1.9510 H     1 <1>   0.0800 
 36 H        3.4830     2.6410     0.2330 H     1 <1>   0.0800 
 37 H        0.5110    -4.4300     1.6500 H     1 <1>   0.1500 
 38 H        5.0620     1.1060     1.3730 H     1 <1>   0.0800 
 39 H        3.7170     0.3150     2.1440 H     1 <1>   0.0800 
 40 H       -2.6670    -3.4950    -2.7700 H     1 <1>   0.0800 
 41 H       -3.1040    -4.7600    -1.6470 H     1 <1>   0.0800 
 42 H       -1.7110    -4.9540    -2.6840 H     1 <1>   0.0800 
 43 H        5.0650    -3.8560     1.2360 H     1 <1>   0.0800 
 44 H        6.4450    -3.1750     2.0310 H     1 <1>   0.0800 
 45 H        7.3110    -0.8330     1.2030 H     1 <1>   0.0800 
 46 H        6.4940    -0.0910    -0.1320 H     1 <1>   0.0800 
 47 H       -0.7720    -7.6560     0.5640 H     1 <1>   0.0800 
 48 H       -0.8010    -6.3930     1.7910 H     1 <1>   0.0800 
 49 H        0.6230    -6.5990     0.7540 H     1 <1>   0.0800 
 50 H        6.2890    -4.1400    -0.8330 H     1 <1>   0.0800 
 51 H        7.1460    -4.9250     0.4650 H     1 <1>   0.0800 
 52 H        8.6130    -1.1690    -0.8340 H     1 <1>   0.0800 
 53 H        7.2210    -1.8110    -1.6590 H     1 <1>   0.0800 
 54 H        8.6270    -3.0600     0.6190 H     1 <1>   0.4500 
 55 H        8.3860    -3.9510    -2.1960 H     1 <1>   0.0800 
 56 H        9.2160    -4.8180    -0.9210 H     1 <1>   0.0800 
 57 H        9.8250    -3.2700    -1.4660 H     1 <1>   0.0800 
@<TRIPOS>BOND
  1   1   2  2   
  2   1   3  2   
  3   1   4  am  
  4   1   5  1   
  5   4   6  1   
  6   4   7  1   
  7   5   8  ar  
  8   5   9  ar  
  9   6  10  1   
 10   6  28  1   
 11   6  29  1   
 12   7  11  1   
 13   7  30  1   
 14   7  31  1   
 15   8  12  ar  
 16   8  32  1   
 17   9  13  ar  
 18   9  33  1   
 19  10  14  1   
 20  10  15  1   
 21  10  34  1   
 22  11  15  1   
 23  11  35  1   
 24  11  36  1   
 25  12  16  ar  
 26  12  17  1   
 27  13  16  ar  
 28  13  37  1   
 29  14  18  2   
 30  14  19  am  
 31  15  38  1   
 32  15  39  1   
 33  16  20  1   
 34  17  40  1   
 35  17  41  1   
 36  17  42  1   
 37  19  21  1   
 38  19  22  1   
 39  20  23  1   
 40  21  24  1   
 41  21  43  1   
 42  21  44  1   
 43  22  25  1   
 44  22  45  1   
 45  22  46  1   
 46  23  47  1   
 47  23  48  1   
 48  23  49  1   
 49  24  26  1   
 50  24  50  1   
 51  24  51  1   
 52  25  26  1   
 53  25  52  1   
 54  25  53  1   
 55  26  27  1   
 56  26  54  1   
 57  27  55  1   
 58  27  56  1   
 59  27  57  1   
@<TRIPOS>SUBSTRUCTURE
  1 ****  18 GROUP 4 **** **** 0

# MOE 2024.06 (io_trps.svl 2023.06)
