@<TRIPOS>MOLECULE
NONAME
30 30 1 0 0 
SMALL
USER_CHARGES


@<TRIPOS>ATOM
  1 S        0.0670     0.1880    -1.0790 S.o2  1 <1>   1.4470 
  2 O        1.0340    -0.8400    -1.3790 O.2   1 <1>  -0.6500 
  3 O       -0.9010     0.5550    -2.0840 O.2   1 <1>  -0.6500 
  4 N       -0.8790    -0.4580     0.1210 N.am  1 <1>  -0.9780 
  5 C        0.8530     1.6320    -0.3260 C.ar  1 <1>  -0.0090 
  6 C        0.0890     2.6330     0.2670 C.ar  1 <1>   0.0830 
  7 C        2.2360     1.7700    -0.3360 C.ar  1 <1>  -0.1500 
  8 O       -1.2620     2.4810     0.2720 O.3   1 <1>  -0.3620 
  9 C        0.7140     3.7430     0.8320 C.ar  1 <1>  -0.1500 
 10 C        2.8680     2.8710     0.2230 C.ar  1 <1>  -0.1430 
 11 C       -2.1280     3.5280     0.6530 C.3   1 <1>   0.0400 
 12 C        2.0910     3.8570     0.8070 C.ar  1 <1>  -0.1500 
 13 C        4.3890     3.0070     0.2040 C.3   1 <1>   0.0630 
 14 C        4.9140     3.0650    -1.2350 C.3   1 <1>  -0.2400 
 15 C        5.0490     1.8610     0.9770 C.3   1 <1>  -0.2400 
 16 H       -1.2870    -1.2780    -0.3150 H     1 <1>   0.4200 
 17 H       -1.6350     0.2170     0.2080 H     1 <1>   0.4200 
 18 H        2.8280     0.9940    -0.7920 H     1 <1>   0.1500 
 19 H        0.1480     4.5270     1.2980 H     1 <1>   0.1500 
 20 H       -3.1390     3.2040     0.4860 H     1 <1>   0.0800 
 21 H       -1.9180     4.3930     0.0490 H     1 <1>   0.0800 
 22 H       -1.9820     3.7410     1.6980 H     1 <1>   0.0800 
 23 H        2.5550     4.7220     1.2490 H     1 <1>   0.1500 
 24 H        4.6610     3.9290     0.6890 H     1 <1>   0.0800 
 25 H        4.7160     2.1450    -1.7540 H     1 <1>   0.0800 
 26 H        5.9750     3.2390    -1.2370 H     1 <1>   0.0800 
 27 H        4.4350     3.8680    -1.7660 H     1 <1>   0.0800 
 28 H        4.8540     0.9150     0.5050 H     1 <1>   0.0800 
 29 H        4.6650     1.8280     1.9810 H     1 <1>   0.0800 
 30 H        6.1140     2.0070     1.0230 H     1 <1>   0.0800 
@<TRIPOS>BOND
  1   1   2  2   
  2   1   3  2   
  3   1   4  am  
  4   1   5  1   
  5   4  16  1   
  6   4  17  1   
  7   5   6  ar  
  8   5   7  ar  
  9   6   8  1   
 10   6   9  ar  
 11   7  10  ar  
 12   7  18  1   
 13   8  11  1   
 14   9  12  ar  
 15   9  19  1   
 16  10  12  ar  
 17  10  13  1   
 18  11  20  1   
 19  11  21  1   
 20  11  22  1   
 21  12  23  1   
 22  13  14  1   
 23  13  15  1   
 24  13  24  1   
 25  14  25  1   
 26  14  26  1   
 27  14  27  1   
 28  15  28  1   
 29  15  29  1   
 30  15  30  1   
@<TRIPOS>SUBSTRUCTURE
  1 ****   5 GROUP 4 **** **** 0

# MOE 2024.06 (io_trps.svl 2023.06)
