@<TRIPOS>MOLECULE
NONAME
48 49 1 0 0 
SMALL
USER_CHARGES


@<TRIPOS>ATOM
  1 O        1.0200    -5.6250    -0.5370 O.3   1 <1>  -0.3630 
  2 C       -0.3150    -5.5590    -0.3070 C.ar  1 <1>   0.0820 
  3 C        1.8330    -6.5420     0.1490 C.3   1 <1>   0.1200 
  4 C       -0.9870    -6.3560     0.6130 C.ar  1 <1>  -0.1500 
  5 C       -1.0310    -4.6330    -1.0450 C.ar  1 <1>  -0.1500 
  6 C        3.2590    -6.3440    -0.3670 C.3   1 <1>   0.3430 
  7 C       -2.3540    -6.2180     0.7780 C.ar  1 <1>  -0.1500 
  8 C       -2.3980    -4.5000    -0.8750 C.ar  1 <1>  -0.1500 
  9 N        4.2260    -7.2670     0.2970 N.4   1 <1>  -0.9060 
 10 C       -3.0850    -5.2950     0.0380 C.ar  1 <1>  -0.1440 
 11 C        5.5980    -7.1060    -0.2060 C.3   1 <1>   0.4810 
 12 C       -4.6080    -5.1870     0.2760 C.3   1 <1>   0.2870 
 13 C        6.4070    -8.1790     0.4760 C.2   1 <1>  -0.2880 
 14 C       -5.2390    -6.5970     0.3140 C.ar  1 <1>  -0.1440 
 15 C       -4.7940    -4.4090     1.5900 C.3   1 <1>  -0.2400 
 16 C       -5.3370    -4.4070    -0.8310 C.3   1 <1>  -0.2400 
 17 C        6.8840    -9.2790    -0.1160 C.2   1 <1>  -0.3000 
 18 C       -6.1260    -7.0130     1.3040 C.ar  1 <1>  -0.1500 
 19 C       -4.9210    -7.5000    -0.6960 C.ar  1 <1>  -0.1500 
 20 C       -6.6660    -8.2880     1.2870 C.ar  1 <1>  -0.1500 
 21 C       -5.4600    -8.7750    -0.7160 C.ar  1 <1>  -0.1500 
 22 C       -6.3340    -9.1710     0.2770 C.ar  1 <1>  -0.1500 
 23 H        1.4730    -7.5330    -0.0690 H     1 <1>   0.0800 
 24 H        1.7640    -6.3260     1.2010 H     1 <1>   0.0800 
 25 H       -0.4800    -7.0880     1.2100 H     1 <1>   0.1500 
 26 H       -0.5160    -4.0120    -1.7550 H     1 <1>   0.1500 
 27 H        3.5500    -5.3210    -0.1850 H     1 <1>   0.0800 
 28 H        3.2640    -6.5170    -1.4320 H     1 <1>   0.0800 
 29 H       -2.8580    -6.8450     1.4940 H     1 <1>   0.1500 
 30 H       -2.9060    -3.7640    -1.4690 H     1 <1>   0.1500 
 31 H        3.9690    -8.2500     0.1390 H     1 <1>   0.4500 
 32 H        4.2380    -7.1240     1.3130 H     1 <1>   0.4500 
 33 H        5.9890    -6.1270     0.0250 H     1 <1>   0.0800 
 34 H        5.6240    -7.2530    -1.2750 H     1 <1>   0.0800 
 35 H        6.5840    -7.9750     1.5200 H     1 <1>   0.1500 
 36 H       -4.3970    -4.9700     2.4160 H     1 <1>   0.0800 
 37 H       -5.8320    -4.2020     1.7720 H     1 <1>   0.0800 
 38 H       -4.2690    -3.4720     1.5380 H     1 <1>   0.0800 
 39 H       -5.1350    -4.8440    -1.7920 H     1 <1>   0.0800 
 40 H       -5.0350    -3.3760    -0.8430 H     1 <1>   0.0800 
 41 H       -6.3990    -4.4430    -0.6640 H     1 <1>   0.0800 
 42 H        7.4660   -10.0300     0.3960 H     1 <1>   0.1500 
 43 H        6.7500    -9.5370    -1.1550 H     1 <1>   0.1500 
 44 H       -6.4150    -6.3600     2.1060 H     1 <1>   0.1500 
 45 H       -4.2410    -7.2120    -1.4790 H     1 <1>   0.1500 
 46 H       -7.3480    -8.5920     2.0620 H     1 <1>   0.1500 
 47 H       -5.1970    -9.4560    -1.5060 H     1 <1>   0.1500 
 48 H       -6.7540   -10.1610     0.2640 H     1 <1>   0.1500 
@<TRIPOS>BOND
  1   1   2  1   
  2   1   3  1   
  3   2   4  ar  
  4   2   5  ar  
  5   3   6  1   
  6   3  23  1   
  7   3  24  1   
  8   4   7  ar  
  9   4  25  1   
 10   5   8  ar  
 11   5  26  1   
 12   6   9  1   
 13   6  27  1   
 14   6  28  1   
 15   7  10  ar  
 16   7  29  1   
 17   8  10  ar  
 18   8  30  1   
 19   9  11  1   
 20   9  31  1   
 21   9  32  1   
 22  10  12  1   
 23  11  13  1   
 24  11  33  1   
 25  11  34  1   
 26  12  14  1   
 27  12  15  1   
 28  12  16  1   
 29  13  17  2   
 30  13  35  1   
 31  14  18  ar  
 32  14  19  ar  
 33  15  36  1   
 34  15  37  1   
 35  15  38  1   
 36  16  39  1   
 37  16  40  1   
 38  16  41  1   
 39  17  42  1   
 40  17  43  1   
 41  18  20  ar  
 42  18  44  1   
 43  19  21  ar  
 44  19  45  1   
 45  20  22  ar  
 46  20  46  1   
 47  21  22  ar  
 48  21  47  1   
 49  22  48  1   
@<TRIPOS>SUBSTRUCTURE
  1 ****   4 GROUP 4 **** **** 0

# MOE 2024.06 (io_trps.svl 2023.06)
