@<TRIPOS>MOLECULE
NONAME
44 46 1 0 0 
SMALL
USER_CHARGES


@<TRIPOS>ATOM
  1 S        0.1120     0.3170     0.8800 S.3   1 <1>  -0.0800 
  2 C        0.1950    -1.4420     0.8180 C.2   1 <1>   0.4420 
  3 C        1.7820     0.3970     0.3660 C.ar  1 <1>   0.0400 
  4 N        1.3270    -1.9160     0.4580 N.2   1 <1>  -0.5650 
  5 N       -0.9410    -2.1350     1.1540 N.am  1 <1>  -0.4940 
  6 C        2.2380    -0.8980     0.1980 C.ar  1 <1>   0.2270 
  7 C        2.5590     1.5160     0.1480 C.ar  1 <1>  -0.1500 
  8 C       -1.1350    -3.4800     1.1920 C.2   1 <1>   0.5690 
  9 C        3.5520    -1.0780    -0.2110 C.ar  1 <1>  -0.1500 
 10 C        3.8690     1.3240    -0.2600 C.ar  1 <1>   0.0830 
 11 O       -2.2070    -3.9200     1.5250 O.2   1 <1>  -0.5700 
 12 C       -0.0140    -4.4740     0.8180 C.3   1 <1>   0.4040 
 13 C        4.3610     0.0240    -0.4380 C.ar  1 <1>  -0.1500 
 14 O        4.6080     2.4410    -0.4650 O.3   1 <1>  -0.3630 
 15 N       -0.4740    -5.9090     0.6850 N.4   1 <1>  -0.9590 
 16 C        5.9530     2.3690    -0.8820 C.3   1 <1>   0.0400 
 17 C        0.6650    -6.8670     0.7170 C.3   1 <1>   0.3430 
 18 C       -1.3440    -6.0940    -0.5130 C.3   1 <1>   0.3430 
 19 C        0.1320    -8.3000     0.7250 C.3   1 <1>  -0.1600 
 20 C       -1.9070    -7.5140    -0.5240 C.3   1 <1>  -0.1600 
 21 C       -0.7920    -8.5690    -0.4720 C.3   1 <1>  -0.0800 
 22 C       -1.3860    -9.9790    -0.3890 C.3   1 <1>  -0.2400 
 23 H       -1.7520    -1.5790     1.4280 H     1 <1>   0.3700 
 24 H        2.1680     2.5060     0.2890 H     1 <1>   0.1500 
 25 H        3.9300    -2.0740    -0.3480 H     1 <1>   0.1500 
 26 H        0.7400    -4.4090     1.5840 H     1 <1>   0.0800 
 27 H        0.4350    -4.1530    -0.1060 H     1 <1>   0.0800 
 28 H        5.3740    -0.1410    -0.7540 H     1 <1>   0.1500 
 29 H       -1.0820    -6.0900     1.5000 H     1 <1>   0.4500 
 30 H        6.3270     3.3730    -0.9780 H     1 <1>   0.0800 
 31 H        5.9980     1.8720    -1.8350 H     1 <1>   0.0800 
 32 H        6.5210     1.8370    -0.1400 H     1 <1>   0.0800 
 33 H        1.2640    -6.7040     1.5990 H     1 <1>   0.0800 
 34 H        1.2890    -6.7220    -0.1510 H     1 <1>   0.0800 
 35 H       -0.7720    -5.9260    -1.4120 H     1 <1>   0.0800 
 36 H       -2.1610    -5.3890    -0.4900 H     1 <1>   0.0800 
 37 H       -0.3930    -8.4770     1.6480 H     1 <1>   0.0800 
 38 H        0.9650    -8.9810     0.6940 H     1 <1>   0.0800 
 39 H       -2.4870    -7.6500    -1.4200 H     1 <1>   0.0800 
 40 H       -2.5750    -7.6350     0.3110 H     1 <1>   0.0800 
 41 H       -0.2110    -8.5030    -1.3790 H     1 <1>   0.0800 
 42 H       -1.9780   -10.0970     0.5020 H     1 <1>   0.0800 
 43 H       -0.6030   -10.7160    -0.3780 H     1 <1>   0.0800 
 44 H       -2.0130   -10.1720    -1.2420 H     1 <1>   0.0800 
@<TRIPOS>BOND
  1   1   2  1   
  2   1   3  1   
  3   2   4  2   
  4   2   5  1   
  5   3   6  ar  
  6   3   7  ar  
  7   4   6  1   
  8   5   8  am  
  9   5  23  1   
 10   6   9  ar  
 11   7  10  ar  
 12   7  24  1   
 13   8  11  2   
 14   8  12  1   
 15   9  13  ar  
 16   9  25  1   
 17  10  13  ar  
 18  10  14  1   
 19  12  15  1   
 20  12  26  1   
 21  12  27  1   
 22  13  28  1   
 23  14  16  1   
 24  15  17  1   
 25  15  18  1   
 26  15  29  1   
 27  16  30  1   
 28  16  31  1   
 29  16  32  1   
 30  17  19  1   
 31  17  33  1   
 32  17  34  1   
 33  18  20  1   
 34  18  35  1   
 35  18  36  1   
 36  19  21  1   
 37  19  37  1   
 38  19  38  1   
 39  20  21  1   
 40  20  39  1   
 41  20  40  1   
 42  21  22  1   
 43  21  41  1   
 44  22  42  1   
 45  22  43  1   
 46  22  44  1   
@<TRIPOS>SUBSTRUCTURE
  1 ****   4 GROUP 4 **** **** 0

# MOE 2024.06 (io_trps.svl 2023.06)
