@<TRIPOS>MOLECULE
NONAME
49 50 1 0 0 
SMALL
USER_CHARGES


@<TRIPOS>ATOM
  1 O       -1.0210     0.9320    -0.4150 O.2   1 <1>  -0.5700 
  2 C       -0.7290     2.1160    -0.3420 C.2   1 <1>   0.5440 
  3 N       -1.7310     3.0430    -0.2720 N.am  1 <1>  -0.4300 
  4 C        0.6570     2.5420    -0.3660 C.ar  1 <1>   0.0860 
  5 N       -3.1240     2.7570     0.0780 N.am  1 <1>  -0.4300 
  6 C        1.1000     3.6500     0.3550 C.ar  1 <1>  -0.1500 
  7 C        1.6090     1.8570    -1.1160 C.ar  1 <1>  -0.1500 
  8 C       -3.6970     2.9610     1.2910 C.2   1 <1>   0.5690 
  9 C        2.4190     4.0630     0.3110 C.ar  1 <1>  -0.1500 
 10 C        2.9280     2.2680    -1.1600 C.ar  1 <1>  -0.1500 
 11 O       -3.1500     3.5990     2.1680 O.2   1 <1>  -0.5700 
 12 C       -5.0720     2.3740     1.5590 C.3   1 <1>   0.0440 
 13 C        3.3640     3.3820    -0.4510 C.ar  1 <1>  -0.1430 
 14 C       -6.0710     2.6720     0.4380 C.ar  1 <1>  -0.1430 
 15 C        4.8480     3.8030    -0.5320 C.3   1 <1>   0.1440 
 16 C       -6.0800     1.9250    -0.7390 C.ar  1 <1>   0.0830 
 17 C       -6.9810     3.7060     0.5970 C.ar  1 <1>  -0.1500 
 18 C        5.1700     5.0550     0.3010 C.3   1 <1>  -0.2400 
 19 C        5.2170     4.1110    -1.9910 C.3   1 <1>  -0.2400 
 20 C        5.7340     2.6600    -0.0130 C.3   1 <1>  -0.2400 
 21 O       -5.1560     0.9370    -0.8640 O.3   1 <1>  -0.3620 
 22 C       -7.0080     2.2170    -1.7360 C.ar  1 <1>  -0.1500 
 23 C       -7.8980     3.9940    -0.3980 C.ar  1 <1>  -0.1500 
 24 C       -5.0610     0.1360    -2.0220 C.3   1 <1>   0.0400 
 25 C       -7.9130     3.2490    -1.5630 C.ar  1 <1>  -0.1500 
 26 H       -1.4910     4.0360    -0.3490 H     1 <1>   0.3700 
 27 H       -3.6640     2.2020    -0.6050 H     1 <1>   0.3700 
 28 H        0.4040     4.1940     0.9710 H     1 <1>   0.1500 
 29 H        1.3030     0.9870    -1.6720 H     1 <1>   0.1500 
 30 H        2.6880     4.9260     0.8910 H     1 <1>   0.1500 
 31 H        3.6180     1.7010    -1.7580 H     1 <1>   0.1500 
 32 H       -5.4390     2.7710     2.4880 H     1 <1>   0.0800 
 33 H       -4.9690     1.3130     1.6870 H     1 <1>   0.0800 
 34 H       -6.9810     4.2960     1.4970 H     1 <1>   0.1500 
 35 H        4.9590     4.8800     1.3410 H     1 <1>   0.0800 
 36 H        4.5900     5.8940    -0.0390 H     1 <1>   0.0800 
 37 H        6.2100     5.3120     0.2130 H     1 <1>   0.0800 
 38 H        4.5780     4.8870    -2.3750 H     1 <1>   0.0800 
 39 H        5.1020     3.2430    -2.6130 H     1 <1>   0.0800 
 40 H        6.2380     4.4400    -2.0640 H     1 <1>   0.0800 
 41 H        6.7710     2.9460    -0.0260 H     1 <1>   0.0800 
 42 H        5.4590     2.4130     0.9970 H     1 <1>   0.0800 
 43 H        5.6240     1.7790    -0.6160 H     1 <1>   0.0800 
 44 H       -7.0430     1.6560    -2.6500 H     1 <1>   0.1500 
 45 H       -8.6010     4.7980    -0.2650 H     1 <1>   0.1500 
 46 H       -4.2470    -0.5530    -1.8840 H     1 <1>   0.0800 
 47 H       -4.8640     0.7670    -2.8710 H     1 <1>   0.0800 
 48 H       -5.9810    -0.4060    -2.1480 H     1 <1>   0.0800 
 49 H       -8.6290     3.4730    -2.3340 H     1 <1>   0.1500 
@<TRIPOS>BOND
  1   1   2  2   
  2   2   3  am  
  3   2   4  1   
  4   3   5  1   
  5   3  26  1   
  6   4   6  ar  
  7   4   7  ar  
  8   5   8  am  
  9   5  27  1   
 10   6   9  ar  
 11   6  28  1   
 12   7  10  ar  
 13   7  29  1   
 14   8  11  2   
 15   8  12  1   
 16   9  13  ar  
 17   9  30  1   
 18  10  13  ar  
 19  10  31  1   
 20  12  14  1   
 21  12  32  1   
 22  12  33  1   
 23  13  15  1   
 24  14  16  ar  
 25  14  17  ar  
 26  15  18  1   
 27  15  19  1   
 28  15  20  1   
 29  16  21  1   
 30  16  22  ar  
 31  17  23  ar  
 32  17  34  1   
 33  18  35  1   
 34  18  36  1   
 35  18  37  1   
 36  19  38  1   
 37  19  39  1   
 38  19  40  1   
 39  20  41  1   
 40  20  42  1   
 41  20  43  1   
 42  21  24  1   
 43  22  25  ar  
 44  22  44  1   
 45  23  25  ar  
 46  23  45  1   
 47  24  46  1   
 48  24  47  1   
 49  24  48  1   
 50  25  49  1   
@<TRIPOS>SUBSTRUCTURE
  1 ****   3 GROUP 4 **** **** 0

# MOE 2024.06 (io_trps.svl 2023.06)
