@<TRIPOS>MOLECULE
NONAME
30 32 1 0 0 
SMALL
USER_CHARGES


@<TRIPOS>ATOM
  1 S       -1.2380    -1.2700     0.5280 S.3   1 <1>  -0.2850 
  2 C       -3.0120    -1.3770     0.2280 C.2   1 <1>   0.2820 
  3 C       -0.5760    -2.7980    -0.2600 C.3   1 <1>   0.2140 
  4 N       -3.8160    -0.3940     0.6720 N.2   1 <1>  -0.5650 
  5 C       -3.6830    -2.3600    -0.4140 C.2   1 <1>  -0.3020 
  6 C        0.9350    -2.8170    -0.1010 C.ar  1 <1>  -0.1430 
  7 C       -4.9750    -0.8090     0.2820 C.2   1 <1>   0.0060 
  8 N       -4.9700    -1.9740    -0.3710 N.pl3 1 <1>   0.0480 
  9 C        1.5330    -3.6310     0.8510 C.ar  1 <1>  -0.1500 
 10 C        1.7310    -2.0230    -0.9120 C.ar  1 <1>  -0.1500 
 11 C       -6.3620    -0.2430     0.4130 C.3   1 <1>   0.0200 
 12 C       -6.2970    -2.4160    -0.7940 C.3   1 <1>   0.0960 
 13 C        2.9100    -3.6550     0.9840 C.ar  1 <1>  -0.1500 
 14 C        3.1090    -2.0460    -0.7790 C.ar  1 <1>  -0.1500 
 15 C       -7.2440    -1.3870    -0.1360 C.3   1 <1>  -0.1600 
 16 C        3.7000    -2.8640     0.1680 C.ar  1 <1>  -0.1500 
 17 H       -0.8600    -2.7700    -1.2960 H     1 <1>   0.0800 
 18 H       -1.0400    -3.6340     0.2310 H     1 <1>   0.0800 
 19 H       -3.3470    -3.2660    -0.8780 H     1 <1>   0.1500 
 20 H        0.9280    -4.2460     1.4940 H     1 <1>   0.1500 
 21 H        1.2790    -1.3790    -1.6460 H     1 <1>   0.1500 
 22 H       -6.4460     0.6430    -0.1900 H     1 <1>   0.0800 
 23 H       -6.5860    -0.0140     1.4400 H     1 <1>   0.0800 
 24 H       -6.4830    -3.4160    -0.4440 H     1 <1>   0.0800 
 25 H       -6.3560    -2.3730    -1.8670 H     1 <1>   0.0800 
 26 H        3.3670    -4.2880     1.7240 H     1 <1>   0.1500 
 27 H        3.7200    -1.4260    -1.4110 H     1 <1>   0.1500 
 28 H       -7.9700    -1.0210    -0.8410 H     1 <1>   0.0800 
 29 H       -7.7670    -1.8590     0.6770 H     1 <1>   0.0800 
 30 H        4.7700    -2.8820     0.2720 H     1 <1>   0.1500 
@<TRIPOS>BOND
  1   1   2  1   
  2   1   3  1   
  3   2   4  1   
  4   2   5  2   
  5   3   6  1   
  6   3  17  1   
  7   3  18  1   
  8   4   7  2   
  9   5   8  1   
 10   5  19  1   
 11   6   9  ar  
 12   6  10  ar  
 13   7   8  1   
 14   7  11  1   
 15   8  12  1   
 16   9  13  ar  
 17   9  20  1   
 18  10  14  ar  
 19  10  21  1   
 20  11  15  1   
 21  11  22  1   
 22  11  23  1   
 23  12  15  1   
 24  12  24  1   
 25  12  25  1   
 26  13  16  ar  
 27  13  26  1   
 28  14  16  ar  
 29  14  27  1   
 30  15  28  1   
 31  15  29  1   
 32  16  30  1   
@<TRIPOS>SUBSTRUCTURE
  1 ****   1 GROUP 4 **** **** 0

# MOE 2024.06 (io_trps.svl 2023.06)
