@<TRIPOS>MOLECULE
NONAME
33 34 1 0 0 
SMALL
USER_CHARGES


@<TRIPOS>ATOM
  1 S       -0.2700     0.2830    -0.0840 S.3   1 <1>  -0.0800 
  2 C       -1.3650    -1.0590    -0.0740 C.2   1 <1>   0.4420 
  3 C        1.0270    -0.8500     0.1350 C.2   1 <1>   0.1980 
  4 N       -0.7550    -2.1760     0.0800 N.2   1 <1>  -0.3380 
  5 N       -2.7000    -0.7610    -0.2260 N.am  1 <1>  -0.4940 
  6 N        0.6010    -2.0490     0.1970 N.2   1 <1>  -0.3380 
  7 C        2.4730    -0.3220     0.2270 C.3   1 <1>   0.1800 
  8 C       -3.7920    -1.5850    -0.2590 C.2   1 <1>   0.7150 
  9 C        3.4400    -1.5230     0.4220 C.3   1 <1>  -0.1600 
 10 C        2.8250     0.4330    -1.0680 C.3   1 <1>  -0.2400 
 11 C        2.5890     0.6460     1.4200 C.3   1 <1>  -0.2400 
 12 O       -3.6670    -2.7860    -0.1440 O.2   1 <1>  -0.5700 
 13 C       -5.1000    -1.0090    -0.4320 C.2   1 <1>  -0.0450 
 14 C        4.9430    -1.2060     0.5370 C.3   1 <1>  -0.2400 
 15 S       -5.2730     0.7440    -0.5990 S.3   1 <1>  -0.0800 
 16 C       -6.3340    -1.5710    -0.5010 C.2   1 <1>  -0.1500 
 17 C       -7.0120     0.6320    -0.7540 C.2   1 <1>  -0.1100 
 18 C       -7.4080    -0.6510    -0.6810 C.2   1 <1>  -0.1500 
 19 H       -2.9200     0.2240    -0.3310 H     1 <1>   0.3700 
 20 H        3.3080    -2.2030    -0.4030 H     1 <1>   0.0800 
 21 H        3.1460    -2.0570     1.3100 H     1 <1>   0.0800 
 22 H        2.1440     1.2480    -1.2350 H     1 <1>   0.0800 
 23 H        3.8160     0.8440    -1.0200 H     1 <1>   0.0800 
 24 H        2.7690    -0.2330    -1.9110 H     1 <1>   0.0800 
 25 H        2.3660     0.1290     2.3380 H     1 <1>   0.0800 
 26 H        1.9020     1.4660     1.3180 H     1 <1>   0.0800 
 27 H        3.5780     1.0580     1.4900 H     1 <1>   0.0800 
 28 H        5.3120    -0.7270    -0.3520 H     1 <1>   0.0800 
 29 H        5.4900    -2.1230     0.6670 H     1 <1>   0.0800 
 30 H        5.1470    -0.5790     1.3860 H     1 <1>   0.0800 
 31 H       -6.5170    -2.6310    -0.4270 H     1 <1>   0.1500 
 32 H       -7.5650     1.5470    -0.8850 H     1 <1>   0.1500 
 33 H       -8.4270    -0.9940    -0.7490 H     1 <1>   0.1500 
@<TRIPOS>BOND
  1   1   2  1   
  2   1   3  1   
  3   2   4  2   
  4   2   5  1   
  5   3   6  2   
  6   3   7  1   
  7   4   6  1   
  8   5   8  am  
  9   5  19  1   
 10   7   9  1   
 11   7  10  1   
 12   7  11  1   
 13   8  12  2   
 14   8  13  1   
 15   9  14  1   
 16   9  20  1   
 17   9  21  1   
 18  10  22  1   
 19  10  23  1   
 20  10  24  1   
 21  11  25  1   
 22  11  26  1   
 23  11  27  1   
 24  13  15  1   
 25  13  16  2   
 26  14  28  1   
 27  14  29  1   
 28  14  30  1   
 29  15  17  1   
 30  16  18  1   
 31  16  31  1   
 32  17  18  2   
 33  17  32  1   
 34  18  33  1   
@<TRIPOS>SUBSTRUCTURE
  1 ****   2 GROUP 4 **** **** 0

# MOE 2024.06 (io_trps.svl 2023.06)
