@<TRIPOS>MOLECULE
NONAME
48 51 1 0 0 
SMALL
USER_CHARGES


@<TRIPOS>ATOM
  1 BR       0.9330     1.9610    -1.3690 Br    1 <1>  -0.1110 
  2 C        2.6470     1.1810    -0.9730 C.ar  1 <1>   0.1110 
  3 C        2.8220     0.5350     0.2350 C.ar  1 <1>  -0.1500 
  4 C        3.6580     1.2860    -1.9080 C.ar  1 <1>  -0.1500 
  5 C        4.0580    -0.0240     0.5150 C.ar  1 <1>  -0.1500 
  6 C        4.8890     0.7230    -1.6150 C.ar  1 <1>  -0.1500 
  7 C        5.0950     0.0690    -0.4060 C.ar  1 <1>  -0.1430 
  8 C        6.4550    -0.5400    -0.0970 C.3   1 <1>   0.2540 
  9 N        7.4910     0.5110    -0.0240 N.3   1 <1>  -0.8100 
 10 C        7.2180     1.4950     1.0550 C.3   1 <1>   0.1100 
 11 C        8.8450    -0.0670     0.1340 C.3   1 <1>   0.1100 
 12 C        8.2860     2.6140     1.1130 C.3   1 <1>   0.3430 
 13 C        9.9430     1.0240     0.2290 C.3   1 <1>   0.3430 
 14 N        9.3590     2.3990     0.0850 N.4   1 <1>  -0.9590 
 15 C       10.4050     3.4600     0.0060 C.3   1 <1>   0.3430 
 16 C        9.8360     4.8130    -0.4640 C.3   1 <1>  -0.0800 
 17 C       11.0580     5.7630    -1.0500 C.3   1 <1>   0.0580 
 18 C        9.0700     5.7260     0.7650 C.3   1 <1>  -0.1600 
 19 C       11.7850     7.1750    -0.7610 C.2   1 <1>  -0.2880 
 20 C       10.3450     6.3890    -0.1150 C.3   1 <1>  -0.1600 
 21 C        9.8520     7.1820     0.8350 C.3   1 <1>   0.0580 
 22 C       11.1540     7.9170     0.2270 C.2   1 <1>  -0.2880 
 23 H        2.0090     0.4710     0.9360 H     1 <1>   0.1500 
 24 H        3.4840     1.7930    -2.8400 H     1 <1>   0.1500 
 25 H        4.2030    -0.5320     1.4530 H     1 <1>   0.1500 
 26 H        5.6910     0.7940    -2.3290 H     1 <1>   0.1500 
 27 H        6.7030    -1.2350    -0.8820 H     1 <1>   0.0800 
 28 H        6.4160    -1.0860     0.8310 H     1 <1>   0.0800 
 29 H        7.1760     0.9940     2.0080 H     1 <1>   0.0800 
 30 H        6.2580     1.9570     0.8940 H     1 <1>   0.0800 
 31 H        9.0610    -0.7020    -0.7090 H     1 <1>   0.0800 
 32 H        8.8830    -0.6810     1.0190 H     1 <1>   0.0800 
 33 H        8.7170     2.6450     2.1000 H     1 <1>   0.0800 
 34 H        7.7950     3.5550     0.9380 H     1 <1>   0.0800 
 35 H       10.6710     0.8510    -0.5470 H     1 <1>   0.0800 
 36 H       10.4470     0.9360     1.1760 H     1 <1>   0.0800 
 37 H        8.8330     2.3470    -0.8030 H     1 <1>   0.4500 
 38 H       11.1560     3.1520    -0.7030 H     1 <1>   0.0800 
 39 H       10.8870     3.5830     0.9620 H     1 <1>   0.0800 
 40 H        9.1380     4.6190    -1.2680 H     1 <1>   0.0800 
 41 H       10.7990     5.8590    -2.0960 H     1 <1>   0.0800 
 42 H        9.1410     5.2400     1.7270 H     1 <1>   0.0800 
 43 H        8.0210     5.8670     0.5440 H     1 <1>   0.0800 
 44 H       12.6660     7.4290    -1.3290 H     1 <1>   0.1500 
 45 H        9.6720     6.8970    -0.9240 H     1 <1>   0.0800 
 46 H       11.1090     5.9300     0.7170 H     1 <1>   0.0800 
 47 H        9.0630     7.8870     0.6100 H     1 <1>   0.0800 
 48 H       11.4230     8.8870     0.6140 H     1 <1>   0.1500 
@<TRIPOS>BOND
  1   1   2  1   
  2   2   3  ar  
  3   2   4  ar  
  4   3   5  ar  
  5   3  23  1   
  6   4   6  ar  
  7   4  24  1   
  8   5   7  ar  
  9   5  25  1   
 10   6   7  ar  
 11   6  26  1   
 12   7   8  1   
 13   8   9  1   
 14   8  27  1   
 15   8  28  1   
 16   9  10  1   
 17   9  11  1   
 18  10  12  1   
 19  10  29  1   
 20  10  30  1   
 21  11  13  1   
 22  11  31  1   
 23  11  32  1   
 24  12  14  1   
 25  12  33  1   
 26  12  34  1   
 27  13  14  1   
 28  13  35  1   
 29  13  36  1   
 30  14  15  1   
 31  14  37  1   
 32  15  16  1   
 33  15  38  1   
 34  15  39  1   
 35  16  17  1   
 36  16  18  1   
 37  16  40  1   
 38  17  19  1   
 39  17  20  1   
 40  17  41  1   
 41  18  21  1   
 42  18  42  1   
 43  18  43  1   
 44  19  22  2   
 45  19  44  1   
 46  20  21  1   
 47  20  45  1   
 48  20  46  1   
 49  21  22  1   
 50  21  47  1   
 51  22  48  1   
@<TRIPOS>SUBSTRUCTURE
  1 ****  12 GROUP 4 **** **** 0

# MOE 2024.06 (io_trps.svl 2023.06)
