@<TRIPOS>MOLECULE
NONAME
46 48 1 0 0 
SMALL
USER_CHARGES


@<TRIPOS>ATOM
  1 O        0.0670    -0.5520    -0.0030 O.3   1 <1>  -0.3630 
  2 C       -1.1400    -1.1420     0.1640 C.ar  1 <1>   0.0830 
  3 C        0.8730    -0.8150    -1.1330 C.3   1 <1>   0.2640 
  4 C       -1.7860    -0.8980     1.3640 C.ar  1 <1>  -0.1500 
  5 C       -1.7470    -1.9600    -0.7840 C.ar  1 <1>  -0.1500 
  6 C        2.1640    -0.0210    -1.0170 C.ar  1 <1>  -0.1440 
  7 C       -3.0250    -1.4540     1.6230 C.ar  1 <1>  -0.1500 
  8 C       -2.9880    -2.5160    -0.5260 C.ar  1 <1>  -0.1500 
  9 C        2.1280     1.3650    -0.9920 C.ar  1 <1>  -0.1500 
 10 C        3.3890    -0.6690    -0.9420 C.ar  1 <1>  -0.1500 
 11 C       -3.6390    -2.2600     0.6740 C.ar  1 <1>  -0.1430 
 12 C        3.3010     2.0960    -0.9000 C.ar  1 <1>  -0.1500 
 13 C        4.5620     0.0600    -0.8490 C.ar  1 <1>  -0.1500 
 14 C       -5.0100    -2.8480     0.9470 C.3   1 <1>   0.4860 
 15 C        4.5190     1.4430    -0.8290 C.ar  1 <1>  -0.1500 
 16 N       -6.0190    -2.0800     0.1650 N.4   1 <1>  -0.9590 
 17 C       -6.0820    -0.6510     0.6060 C.3   1 <1>   0.3430 
 18 C       -7.3520    -2.7520     0.1930 C.3   1 <1>   0.3430 
 19 C       -7.0440     0.1280    -0.2870 C.3   1 <1>  -0.1600 
 20 C       -8.3300    -2.0030    -0.7080 C.3   1 <1>  -0.1600 
 21 C       -8.4160    -0.5390    -0.2880 C.3   1 <1>   0.2000 
 22 O       -9.2270     0.1260    -1.1730 O.3   1 <1>  -0.6800 
 23 H        0.3350    -0.5130    -2.0130 H     1 <1>   0.0800 
 24 H        1.0730    -1.8710    -1.1650 H     1 <1>   0.0800 
 25 H       -1.3030    -0.2700     2.0930 H     1 <1>   0.1500 
 26 H       -1.2680    -2.1740    -1.7210 H     1 <1>   0.1500 
 27 H       -3.4950    -1.2490     2.5700 H     1 <1>   0.1500 
 28 H       -3.4330    -3.1510    -1.2730 H     1 <1>   0.1500 
 29 H        1.1840     1.8790    -1.0410 H     1 <1>   0.1500 
 30 H        3.4370    -1.7440    -0.9530 H     1 <1>   0.1500 
 31 H        3.2630     3.1710    -0.8800 H     1 <1>   0.1500 
 32 H        5.5080    -0.4480    -0.7910 H     1 <1>   0.1500 
 33 H       -5.2310    -2.7940     2.0010 H     1 <1>   0.0800 
 34 H       -5.0160    -3.8840     0.6490 H     1 <1>   0.0800 
 35 H        5.4300     2.0100    -0.7560 H     1 <1>   0.1500 
 36 H       -5.6770    -2.0720    -0.8050 H     1 <1>   0.4500 
 37 H       -5.1030    -0.2000     0.5490 H     1 <1>   0.0800 
 38 H       -6.4190    -0.5990     1.6290 H     1 <1>   0.0800 
 39 H       -7.7330    -2.7630     1.2020 H     1 <1>   0.0800 
 40 H       -7.2620    -3.7720    -0.1470 H     1 <1>   0.0800 
 41 H       -6.6420     0.1770    -1.2830 H     1 <1>   0.0800 
 42 H       -7.1360     1.1310     0.0920 H     1 <1>   0.0800 
 43 H       -9.3030    -2.4540    -0.6180 H     1 <1>   0.0800 
 44 H       -8.0100    -2.0880    -1.7310 H     1 <1>   0.0800 
 45 H       -8.8720    -0.4550     0.6860 H     1 <1>   0.0800 
 46 H       -8.8690     0.1140    -2.0820 H     1 <1>   0.4000 
@<TRIPOS>BOND
  1   1   2  1   
  2   1   3  1   
  3   2   4  ar  
  4   2   5  ar  
  5   3   6  1   
  6   3  23  1   
  7   3  24  1   
  8   4   7  ar  
  9   4  25  1   
 10   5   8  ar  
 11   5  26  1   
 12   6   9  ar  
 13   6  10  ar  
 14   7  11  ar  
 15   7  27  1   
 16   8  11  ar  
 17   8  28  1   
 18   9  12  ar  
 19   9  29  1   
 20  10  13  ar  
 21  10  30  1   
 22  11  14  1   
 23  12  15  ar  
 24  12  31  1   
 25  13  15  ar  
 26  13  32  1   
 27  14  16  1   
 28  14  33  1   
 29  14  34  1   
 30  15  35  1   
 31  16  17  1   
 32  16  18  1   
 33  16  36  1   
 34  17  19  1   
 35  17  37  1   
 36  17  38  1   
 37  18  20  1   
 38  18  39  1   
 39  18  40  1   
 40  19  21  1   
 41  19  41  1   
 42  19  42  1   
 43  20  21  1   
 44  20  43  1   
 45  20  44  1   
 46  21  22  1   
 47  21  45  1   
 48  22  46  1   
@<TRIPOS>SUBSTRUCTURE
  1 ****   2 GROUP 4 **** **** 0

# MOE 2024.06 (io_trps.svl 2023.06)
