@<TRIPOS>MOLECULE
NONAME
50 52 1 0 0 
SMALL
USER_CHARGES


@<TRIPOS>ATOM
  1 CL       2.0420     0.8940    -3.6380 Cl    1 <1>  -0.1770 
  2 C        2.4920     1.1070    -1.9660 C.ar  1 <1>   0.1770 
  3 C        3.7020     0.6100    -1.5260 C.ar  1 <1>  -0.1500 
  4 C        1.6290     1.7700    -1.1120 C.ar  1 <1>  -0.1500 
  5 C        4.0700     0.7750    -0.1960 C.ar  1 <1>   0.1000 
  6 C        1.9910     1.9360     0.2140 C.ar  1 <1>  -0.1500 
  7 N        5.2780     0.2880     0.2880 N.pl3 1 <1>  -0.8380 
  8 C        3.2030     1.4410     0.6640 C.ar  1 <1>  -0.1500 
  9 C        6.5160     0.9350    -0.2420 C.3   1 <1>   0.2090 
 10 C        5.3750    -1.1910     0.4510 C.3   1 <1>   0.2090 
 11 C        7.7450     0.5410     0.6050 C.3   1 <1>   0.3430 
 12 C        6.6100    -1.5690     1.2970 C.3   1 <1>   0.3430 
 13 N        7.8830    -0.9560     0.7700 N.4   1 <1>  -0.9590 
 14 C        9.0600    -1.3070     1.6070 C.3   1 <1>   0.4860 
 15 C       10.3100    -0.8470     0.8820 C.ar  1 <1>  -0.1430 
 16 C       10.8500    -1.5620    -0.1840 C.ar  1 <1>  -0.1430 
 17 C       10.9160     0.3310     1.2970 C.ar  1 <1>  -0.1500 
 18 C       11.9720    -1.0690    -0.8300 C.ar  1 <1>  -0.1500 
 19 C       10.2600    -2.8820    -0.6680 C.3   1 <1>  -0.0970 
 20 C       12.0370     0.8210     0.6520 C.ar  1 <1>  -0.1430 
 21 C       12.5690     0.1210    -0.4230 C.ar  1 <1>   0.0830 
 22 C       12.6830     2.1170     1.1250 C.3   1 <1>  -0.0970 
 23 O       13.6680     0.6420    -1.0310 O.3   1 <1>  -0.3620 
 24 C       14.3530    -0.0420    -2.0560 C.3   1 <1>   0.0400 
 25 H        4.3460     0.1010    -2.2150 H     1 <1>   0.1500 
 26 H        0.6920     2.1470    -1.4820 H     1 <1>   0.1500 
 27 H        1.3310     2.4500     0.8930 H     1 <1>   0.1500 
 28 H        3.4880     1.5690     1.6920 H     1 <1>   0.1500 
 29 H        6.3940     2.0050    -0.2180 H     1 <1>   0.0800 
 30 H        6.6700     0.6430    -1.2660 H     1 <1>   0.0800 
 31 H        5.4340    -1.6590    -0.5160 H     1 <1>   0.0800 
 32 H        4.4840    -1.5510     0.9380 H     1 <1>   0.0800 
 33 H        7.6430     1.0030     1.5720 H     1 <1>   0.0800 
 34 H        8.6300     0.9430     0.1380 H     1 <1>   0.0800 
 35 H        6.7010    -2.6430     1.3230 H     1 <1>   0.0800 
 36 H        6.4370    -1.2270     2.3040 H     1 <1>   0.0800 
 37 H        8.0770    -1.3330    -0.1640 H     1 <1>   0.4500 
 38 H        9.1080    -2.3730     1.7610 H     1 <1>   0.0800 
 39 H        8.9940    -0.8260     2.5700 H     1 <1>   0.0800 
 40 H       10.5200     0.8810     2.1330 H     1 <1>   0.1500 
 41 H       12.3820    -1.6200    -1.6540 H     1 <1>   0.1500 
 42 H        9.3550    -2.7120    -1.2220 H     1 <1>   0.0800 
 43 H       10.0590    -3.5390     0.1590 H     1 <1>   0.0800 
 44 H       10.9530    -3.3900    -1.3170 H     1 <1>   0.0800 
 45 H       12.1610     2.5380     1.9640 H     1 <1>   0.0800 
 46 H       12.6860     2.8360     0.3250 H     1 <1>   0.0800 
 47 H       13.7010     1.9280     1.4150 H     1 <1>   0.0800 
 48 H       15.2050     0.5490    -2.3400 H     1 <1>   0.0800 
 49 H       13.6950    -0.1610    -2.8980 H     1 <1>   0.0800 
 50 H       14.6810    -0.9960    -1.6820 H     1 <1>   0.0800 
@<TRIPOS>BOND
  1   1   2  1   
  2   2   3  ar  
  3   2   4  ar  
  4   3   5  ar  
  5   3  25  1   
  6   4   6  ar  
  7   4  26  1   
  8   5   7  1   
  9   5   8  ar  
 10   6   8  ar  
 11   6  27  1   
 12   7   9  1   
 13   7  10  1   
 14   8  28  1   
 15   9  11  1   
 16   9  29  1   
 17   9  30  1   
 18  10  12  1   
 19  10  31  1   
 20  10  32  1   
 21  11  13  1   
 22  11  33  1   
 23  11  34  1   
 24  12  13  1   
 25  12  35  1   
 26  12  36  1   
 27  13  14  1   
 28  13  37  1   
 29  14  15  1   
 30  14  38  1   
 31  14  39  1   
 32  15  16  ar  
 33  15  17  ar  
 34  16  18  ar  
 35  16  19  1   
 36  17  20  ar  
 37  17  40  1   
 38  18  21  ar  
 39  18  41  1   
 40  19  42  1   
 41  19  43  1   
 42  19  44  1   
 43  20  21  ar  
 44  20  22  1   
 45  21  23  1   
 46  22  45  1   
 47  22  46  1   
 48  22  47  1   
 49  23  24  1   
 50  24  48  1   
 51  24  49  1   
 52  24  50  1   
@<TRIPOS>SUBSTRUCTURE
  1 ****  11 GROUP 4 **** **** 0

# MOE 2024.06 (io_trps.svl 2023.06)
