@<TRIPOS>MOLECULE
NONAME
38 39 1 0 0 
SMALL
USER_CHARGES


@<TRIPOS>ATOM
  1 O        0.4940    -1.2590     0.2530 O.3   1 <1>  -0.3630 
  2 C       -0.8560    -1.3780     0.1310 C.ar  1 <1>   0.0830 
  3 C        1.1930    -0.1370    -0.2260 C.3   1 <1>   0.1200 
  4 C       -1.4540    -2.5520     0.5900 C.ar  1 <1>  -0.1440 
  5 C       -1.6400    -0.3760    -0.4370 C.ar  1 <1>  -0.1500 
  6 C        2.6800    -0.3610     0.0450 C.3   1 <1>  -0.1600 
  7 C       -2.8300    -2.7180     0.4540 C.ar  1 <1>  -0.1440 
  8 C       -0.5910    -3.6450     1.2250 C.3   1 <1>  -0.0960 
  9 C       -3.0070    -0.5370    -0.5580 C.ar  1 <1>  -0.1430 
 10 C        3.5130     0.8210    -0.4610 C.3   1 <1>   0.0960 
 11 C       -3.5920    -1.7090    -0.1150 C.ar  1 <1>  -0.1500 
 12 C       -3.5430    -3.9850     0.9080 C.3   1 <1>  -0.0970 
 13 C       -3.8640     0.5530    -1.1770 C.3   1 <1>  -0.0970 
 14 N        4.9450     0.5930    -0.1940 N.pl3 1 <1>   0.0480 
 15 C        5.8650     0.0420    -1.0180 C.2   1 <1>   0.0360 
 16 C        5.6270     0.8930     0.9260 C.2   1 <1>  -0.3020 
 17 N        7.0530    -0.0250    -0.5110 N.2   1 <1>  -0.5650 
 18 C        6.9050     0.5110     0.7150 C.2   1 <1>   0.0770 
 19 H        0.8330     0.7330     0.2960 H     1 <1>   0.0800 
 20 H        1.0040    -0.0490    -1.2830 H     1 <1>   0.0800 
 21 H       -1.2030     0.5360    -0.7910 H     1 <1>   0.1500 
 22 H        2.9940    -1.2610    -0.4540 H     1 <1>   0.0800 
 23 H        2.8270    -0.4750     1.1050 H     1 <1>   0.0800 
 24 H        0.2750    -3.2260     1.7030 H     1 <1>   0.0800 
 25 H       -0.2640    -4.3310     0.4650 H     1 <1>   0.0800 
 26 H       -1.1320    -4.1860     1.9770 H     1 <1>   0.0800 
 27 H        3.2130     1.7280     0.0340 H     1 <1>   0.0800 
 28 H        3.3760     0.9460    -1.5200 H     1 <1>   0.0800 
 29 H       -4.6550    -1.8340    -0.2160 H     1 <1>   0.1500 
 30 H       -3.0460    -4.8520     0.5110 H     1 <1>   0.0800 
 31 H       -4.5610    -4.0000     0.5660 H     1 <1>   0.0800 
 32 H       -3.5450    -4.0390     1.9820 H     1 <1>   0.0800 
 33 H       -3.3840     1.5110    -1.0890 H     1 <1>   0.0800 
 34 H       -4.8160     0.6050    -0.6790 H     1 <1>   0.0800 
 35 H       -4.0280     0.3390    -2.2170 H     1 <1>   0.0800 
 36 H        5.6130    -0.3050    -2.0040 H     1 <1>   0.1500 
 37 H        5.1820     1.3490     1.7900 H     1 <1>   0.1500 
 38 H        7.7400     0.5940     1.3910 H     1 <1>   0.1500 
@<TRIPOS>BOND
  1   1   2  1   
  2   1   3  1   
  3   2   4  ar  
  4   2   5  ar  
  5   3   6  1   
  6   3  19  1   
  7   3  20  1   
  8   4   7  ar  
  9   4   8  1   
 10   5   9  ar  
 11   5  21  1   
 12   6  10  1   
 13   6  22  1   
 14   6  23  1   
 15   7  11  ar  
 16   7  12  1   
 17   8  24  1   
 18   8  25  1   
 19   8  26  1   
 20   9  11  ar  
 21   9  13  1   
 22  10  14  1   
 23  10  27  1   
 24  10  28  1   
 25  11  29  1   
 26  12  30  1   
 27  12  31  1   
 28  12  32  1   
 29  13  33  1   
 30  13  34  1   
 31  13  35  1   
 32  14  15  1   
 33  14  16  1   
 34  15  17  2   
 35  15  36  1   
 36  16  18  2   
 37  16  37  1   
 38  17  18  1   
 39  18  38  1   
@<TRIPOS>SUBSTRUCTURE
  1 ****   1 GROUP 4 **** **** 0

# MOE 2024.06 (io_trps.svl 2023.06)
