@<TRIPOS>MOLECULE
NONAME
37 41 1 0 0 
SMALL
USER_CHARGES


@<TRIPOS>ATOM
  1 O       -0.2180     1.2070     1.3370 O.2   1 <1>  -0.5700 
  2 C        0.2750     2.1970     0.8510 C.2   1 <1>   0.5690 
  3 N       -0.3740     3.1100     0.0590 N.am  1 <1>  -0.1840 
  4 C        1.7240     2.5670     1.0750 C.3   1 <1>  -0.0190 
  5 C       -1.7180     2.9730    -0.3580 C.2   1 <1>   0.2500 
  6 C        0.4930     4.1220    -0.2880 C.2   1 <1>   0.5690 
  7 C        1.8730     3.8940     0.2910 C.3   1 <1>  -0.0190 
  8 C        2.7310     1.6280     0.3770 C.3   1 <1>   0.0580 
  9 N       -2.5360     2.0300     0.1080 N.pl3 1 <1>   0.0330 
 10 N       -2.3350     3.7030    -1.2310 N.2   1 <1>  -0.3380 
 11 O        0.2610     5.1000    -0.9480 O.2   1 <1>  -0.5700 
 12 C        2.9510     3.5630    -0.7630 C.3   1 <1>   0.0580 
 13 C        4.0980     2.2000     0.6980 C.2   1 <1>  -0.2880 
 14 C        2.6370     2.0990    -1.0750 C.3   1 <1>  -0.1600 
 15 C       -3.6980     2.2190    -0.5290 C.2   1 <1>   0.1330 
 16 N       -3.5780     3.2310    -1.3370 N.2   1 <1>  -0.3380 
 17 C        4.2280     3.3420     0.0260 C.2   1 <1>  -0.2880 
 18 C       -4.8790     1.4090    -0.3240 C.ar  1 <1>   0.0530 
 19 C       -4.8440     0.2010     0.3770 C.ar  1 <1>  -0.1500 
 20 C       -6.1140     1.8170    -0.8290 C.ar  1 <1>  -0.1500 
 21 C       -5.9860    -0.5560     0.5680 C.ar  1 <1>  -0.1500 
 22 C       -7.2590     1.0650    -0.6420 C.ar  1 <1>  -0.1500 
 23 C       -7.1970    -0.1250     0.0590 C.ar  1 <1>  -0.1500 
 24 H        1.9330     2.6790     2.1240 H     1 <1>   0.0800 
 25 H        2.1620     4.7180     0.9190 H     1 <1>   0.0800 
 26 H        2.6140     0.5680     0.5350 H     1 <1>   0.0800 
 27 H       -2.2900     1.3160     0.7980 H     1 <1>   0.2700 
 28 H        3.0280     4.2190    -1.6140 H     1 <1>   0.0800 
 29 H        4.7650     1.6970     1.3800 H     1 <1>   0.1500 
 30 H        3.3980     1.6500    -1.6920 H     1 <1>   0.0800 
 31 H        1.6750     1.9450    -1.5300 H     1 <1>   0.0800 
 32 H        5.0330     4.0580    -0.0100 H     1 <1>   0.1500 
 33 H       -3.9180    -0.1670     0.7790 H     1 <1>   0.1500 
 34 H       -6.1750     2.7420    -1.3780 H     1 <1>   0.1500 
 35 H       -5.9360    -1.4840     1.1120 H     1 <1>   0.1500 
 36 H       -8.1980     1.4060    -1.0430 H     1 <1>   0.1500 
 37 H       -8.0870    -0.7120     0.2070 H     1 <1>   0.1500 
@<TRIPOS>BOND
  1   1   2  2   
  2   2   3  am  
  3   2   4  1   
  4   3   5  1   
  5   3   6  am  
  6   4   7  1   
  7   4   8  1   
  8   4  24  1   
  9   5   9  1   
 10   5  10  2   
 11   6   7  1   
 12   6  11  2   
 13   7  12  1   
 14   7  25  1   
 15   8  13  1   
 16   8  14  1   
 17   8  26  1   
 18   9  15  1   
 19   9  27  1   
 20  10  16  1   
 21  12  14  1   
 22  12  17  1   
 23  12  28  1   
 24  13  17  2   
 25  13  29  1   
 26  14  30  1   
 27  14  31  1   
 28  15  16  2   
 29  15  18  1   
 30  17  32  1   
 31  18  19  ar  
 32  18  20  ar  
 33  19  21  ar  
 34  19  33  1   
 35  20  22  ar  
 36  20  34  1   
 37  21  23  ar  
 38  21  35  1   
 39  22  23  ar  
 40  22  36  1   
 41  23  37  1   
@<TRIPOS>SUBSTRUCTURE
  1 ****   5 GROUP 4 **** **** 0

# MOE 2024.06 (io_trps.svl 2023.06)
