@<TRIPOS>MOLECULE
NONAME
30 30 1 0 0 
SMALL
USER_CHARGES


@<TRIPOS>ATOM
  1 O       -0.1900    -0.1250     0.7440 O.2   1 <1>  -0.5700 
  2 C       -0.0570    -1.3120     0.5860 C.2   1 <1>   0.5690 
  3 N       -1.1180    -2.1130     0.3380 N.am  1 <1>  -0.7300 
  4 C        1.3250    -1.9210     0.6580 C.3   1 <1>  -0.0990 
  5 C       -2.5100    -1.6080     0.1940 C.3   1 <1>   0.3400 
  6 C        2.0940    -1.7020    -0.6490 C.3   1 <1>  -0.0160 
  7 C       -3.2860    -2.4180    -0.7940 C.1   1 <1>   0.3570 
  8 C        3.4640    -2.3560    -0.5730 C.ar  1 <1>  -0.1440 
  9 N       -3.8660    -3.0580    -1.5360 N.1   1 <1>  -0.5570 
 10 C        4.5300    -1.6760    -0.0040 C.ar  1 <1>  -0.1500 
 11 C        3.6610    -3.6360    -1.0680 C.ar  1 <1>  -0.1500 
 12 C        5.7800    -2.2650     0.0720 C.ar  1 <1>  -0.1500 
 13 C        4.9100    -4.2270    -0.9930 C.ar  1 <1>  -0.1500 
 14 C        5.9770    -3.5500    -0.4250 C.ar  1 <1>   0.0820 
 15 O        7.1670    -4.2010    -0.3910 O.3   1 <1>  -0.3630 
 16 C        8.3190    -3.5940     0.1490 C.3   1 <1>   0.0400 
 17 H       -0.9900    -3.1180     0.2000 H     1 <1>   0.3700 
 18 H        1.2510    -2.9720     0.8660 H     1 <1>   0.0800 
 19 H        1.8600    -1.4600     1.4690 H     1 <1>   0.0800 
 20 H       -2.4960    -0.5820    -0.1310 H     1 <1>   0.0800 
 21 H       -3.0020    -1.6540     1.1480 H     1 <1>   0.0800 
 22 H        2.2050    -0.6470    -0.8300 H     1 <1>   0.0800 
 23 H        1.5390    -2.1160    -1.4730 H     1 <1>   0.0800 
 24 H        4.3890    -0.6820     0.3830 H     1 <1>   0.1500 
 25 H        2.8480    -4.1790    -1.5150 H     1 <1>   0.1500 
 26 H        6.5830    -1.7110     0.5190 H     1 <1>   0.1500 
 27 H        5.0680    -5.2190    -1.3760 H     1 <1>   0.1500 
 28 H        9.1340    -4.2890     0.0620 H     1 <1>   0.0800 
 29 H        8.1410    -3.3670     1.1850 H     1 <1>   0.0800 
 30 H        8.5380    -2.7020    -0.4110 H     1 <1>   0.0800 
@<TRIPOS>BOND
  1   1   2  2   
  2   2   3  am  
  3   2   4  1   
  4   3   5  1   
  5   3  17  1   
  6   4   6  1   
  7   4  18  1   
  8   4  19  1   
  9   5   7  1   
 10   5  20  1   
 11   5  21  1   
 12   6   8  1   
 13   6  22  1   
 14   6  23  1   
 15   7   9  3   
 16   8  10  ar  
 17   8  11  ar  
 18  10  12  ar  
 19  10  24  1   
 20  11  13  ar  
 21  11  25  1   
 22  12  14  ar  
 23  12  26  1   
 24  13  14  ar  
 25  13  27  1   
 26  14  15  1   
 27  15  16  1   
 28  16  28  1   
 29  16  29  1   
 30  16  30  1   
@<TRIPOS>SUBSTRUCTURE
  1 ****   6 GROUP 4 **** **** 0

# MOE 2024.06 (io_trps.svl 2023.06)
