@<TRIPOS>MOLECULE
NONAME
44 45 1 0 0 
SMALL
USER_CHARGES


@<TRIPOS>ATOM
  1 O        2.2660    -2.2320     0.2570 O.3   1 <1>  -0.3630 
  2 C        1.3500    -3.0000    -0.3860 C.ar  1 <1>   0.0830 
  3 C        3.0920    -1.3360    -0.4500 C.3   1 <1>   0.1200 
  4 C        1.1490    -2.9780    -1.7640 C.ar  1 <1>  -0.1500 
  5 C        0.5870    -3.8460     0.4010 C.ar  1 <1>  -0.1500 
  6 C        3.9970    -0.6290     0.5580 C.3   1 <1>  -0.1600 
  7 C        0.1910    -3.7950    -2.3410 C.ar  1 <1>  -0.1440 
  8 C       -0.3710    -4.6690    -0.1680 C.ar  1 <1>  -0.1430 
  9 C        4.9270     0.3710    -0.1430 C.3   1 <1>  -0.1600 
 10 C       -0.5640    -4.6370    -1.5400 C.ar  1 <1>  -0.1500 
 11 C       -0.0340    -3.7780    -3.8430 C.3   1 <1>  -0.0970 
 12 C       -1.2070    -5.5950     0.6950 C.3   1 <1>  -0.0970 
 13 C        5.8410     1.0890     0.8550 C.3   1 <1>   0.0210 
 14 C        6.7370     2.0750     0.1270 C.2   1 <1>  -0.1810 
 15 C        6.4540     3.4130    -0.1470 C.2   1 <1>   0.1080 
 16 C        7.9660     1.8700    -0.3970 C.2   1 <1>  -0.3320 
 17 N        7.4160     3.9990    -0.7840 N.2   1 <1>  -0.7070 
 18 C        5.1890     4.1470     0.2360 C.3   1 <1>  -0.0590 
 19 N        8.3510     3.0460    -0.9380 N.pl3 1 <1>   0.3000 
 20 C        8.8280     0.6200    -0.4330 C.3   1 <1>  -0.0600 
 21 H        2.4630    -0.6280    -0.9610 H     1 <1>   0.0800 
 22 H        3.6750    -1.9000    -1.1580 H     1 <1>   0.0800 
 23 H        1.7280    -2.3340    -2.3960 H     1 <1>   0.1500 
 24 H        0.7530    -3.8510     1.4620 H     1 <1>   0.1500 
 25 H        4.5860    -1.3660     1.0750 H     1 <1>   0.0800 
 26 H        3.3840    -0.1100     1.2740 H     1 <1>   0.0800 
 27 H        4.3400     1.1030    -0.6710 H     1 <1>   0.0800 
 28 H        5.5370    -0.1440    -0.8650 H     1 <1>   0.0800 
 29 H       -1.3070    -5.2740    -1.9860 H     1 <1>   0.1500 
 30 H        0.2900    -2.8440    -4.2650 H     1 <1>   0.0800 
 31 H       -1.0790    -3.9050    -4.0640 H     1 <1>   0.0800 
 32 H        0.5180    -4.5770    -4.3020 H     1 <1>   0.0800 
 33 H       -0.7760    -5.6960     1.6750 H     1 <1>   0.0800 
 34 H       -1.2610    -6.5700     0.2450 H     1 <1>   0.0800 
 35 H       -2.2020    -5.2000     0.7930 H     1 <1>   0.0800 
 36 H        6.4490     0.3700     1.3750 H     1 <1>   0.0800 
 37 H        5.2530     1.6110     1.5890 H     1 <1>   0.0800 
 38 H        5.1340     5.0780    -0.2980 H     1 <1>   0.0800 
 39 H        5.1970     4.3510     1.2900 H     1 <1>   0.0800 
 40 H        4.3280     3.5560    -0.0090 H     1 <1>   0.0800 
 41 H        9.2400     3.2290    -1.4170 H     1 <1>   0.2700 
 42 H        8.3110    -0.2100     0.0140 H     1 <1>   0.0800 
 43 H        9.7420     0.7850     0.1090 H     1 <1>   0.0800 
 44 H        9.0640     0.3630    -1.4500 H     1 <1>   0.0800 
@<TRIPOS>BOND
  1   1   2  1   
  2   1   3  1   
  3   2   4  ar  
  4   2   5  ar  
  5   3   6  1   
  6   3  21  1   
  7   3  22  1   
  8   4   7  ar  
  9   4  23  1   
 10   5   8  ar  
 11   5  24  1   
 12   6   9  1   
 13   6  25  1   
 14   6  26  1   
 15   7  10  ar  
 16   7  11  1   
 17   8  10  ar  
 18   8  12  1   
 19   9  13  1   
 20   9  27  1   
 21   9  28  1   
 22  10  29  1   
 23  11  30  1   
 24  11  31  1   
 25  11  32  1   
 26  12  33  1   
 27  12  34  1   
 28  12  35  1   
 29  13  14  1   
 30  13  36  1   
 31  13  37  1   
 32  14  15  1   
 33  14  16  2   
 34  15  17  2   
 35  15  18  1   
 36  16  19  1   
 37  16  20  1   
 38  17  19  1   
 39  18  38  1   
 40  18  39  1   
 41  18  40  1   
 42  19  41  1   
 43  20  42  1   
 44  20  43  1   
 45  20  44  1   
@<TRIPOS>SUBSTRUCTURE
  1 ****   3 GROUP 4 **** **** 0

# MOE 2024.06 (io_trps.svl 2023.06)
