@<TRIPOS>MOLECULE
NONAME
51 52 1 0 0 
SMALL
USER_CHARGES


@<TRIPOS>ATOM
  1 O       -8.5290    -1.3410     0.2120 O.3   1 <1>  -0.3630 
  2 C       -9.8780    -1.2720     0.0900 C.ar  1 <1>   0.0830 
  3 C       -7.8650    -2.5830     0.3140 C.3   1 <1>   0.1200 
  4 C      -10.7100    -2.3830     0.0130 C.ar  1 <1>  -0.1500 
  5 C      -10.4390    -0.0090     0.0410 C.ar  1 <1>  -0.1500 
  6 C       -6.3610    -2.3160     0.4440 C.3   1 <1>   0.2000 
  7 C      -12.0780    -2.2150    -0.1110 C.ar  1 <1>  -0.1500 
  8 C      -11.8080     0.1510    -0.0820 C.ar  1 <1>  -0.1500 
  9 O       -5.9600    -1.4670    -0.5890 O.3   1 <1>  -0.6800 
 10 C       -5.5180    -3.6080     0.3870 C.3   1 <1>   0.3430 
 11 C      -12.6570    -0.9500    -0.1610 C.ar  1 <1>  -0.1440 
 12 N       -4.1160    -3.3000    -0.0330 N.4   1 <1>  -0.9590 
 13 C      -14.1900    -0.8220    -0.3000 C.3   1 <1>   0.1440 
 14 C       -3.4570    -4.4400    -0.7270 C.3   1 <1>   0.3430 
 15 C       -3.2920    -2.7380     1.0740 C.3   1 <1>   0.3430 
 16 C      -14.6750     0.6370    -0.3420 C.3   1 <1>  -0.2400 
 17 C      -14.8730    -1.5010     0.8970 C.3   1 <1>  -0.2400 
 18 C      -14.6480    -1.4990    -1.6000 C.3   1 <1>  -0.2400 
 19 C       -2.1160    -3.9850    -1.3050 C.3   1 <1>  -0.1600 
 20 C       -1.9490    -2.2570     0.5220 C.3   1 <1>  -0.1600 
 21 C       -1.2090    -3.3720    -0.2290 C.3   1 <1>  -0.1600 
 22 H       -8.0760    -3.1540    -0.5740 H     1 <1>   0.0800 
 23 H       -8.2400    -3.0970     1.1820 H     1 <1>   0.0800 
 24 H      -10.3230    -3.3820     0.0450 H     1 <1>   0.1500 
 25 H       -9.8010     0.8540     0.1010 H     1 <1>   0.1500 
 26 H       -6.1780    -1.8060     1.3750 H     1 <1>   0.0800 
 27 H      -12.6950    -3.0920    -0.1680 H     1 <1>   0.1500 
 28 H      -12.1860     1.1550    -0.1150 H     1 <1>   0.1500 
 29 H       -6.6490    -0.7690    -0.7010 H     1 <1>   0.4000 
 30 H       -5.9680    -4.2630    -0.3410 H     1 <1>   0.0800 
 31 H       -5.5330    -4.1110     1.3390 H     1 <1>   0.0800 
 32 H       -4.2410    -2.5290    -0.7190 H     1 <1>   0.4500 
 33 H       -4.0860    -4.8010    -1.5260 H     1 <1>   0.0800 
 34 H       -3.2930    -5.2460    -0.0300 H     1 <1>   0.0800 
 35 H       -3.1230    -3.4930     1.8240 H     1 <1>   0.0800 
 36 H       -3.8050    -1.9070     1.5320 H     1 <1>   0.0800 
 37 H      -14.4040     1.1520     0.5620 H     1 <1>   0.0800 
 38 H      -15.7460     0.6780    -0.4400 H     1 <1>   0.0800 
 39 H      -14.2450     1.1530    -1.1820 H     1 <1>   0.0800 
 40 H      -14.5310    -1.0570     1.8150 H     1 <1>   0.0800 
 41 H      -14.6490    -2.5510     0.9280 H     1 <1>   0.0800 
 42 H      -15.9410    -1.3900     0.8390 H     1 <1>   0.0800 
 43 H      -14.1470    -1.0530    -2.4410 H     1 <1>   0.0800 
 44 H      -15.7090    -1.3880    -1.7340 H     1 <1>   0.0800 
 45 H      -14.4210    -2.5490    -1.5920 H     1 <1>   0.0800 
 46 H       -2.2920    -3.2670    -2.0880 H     1 <1>   0.0800 
 47 H       -1.6190    -4.8300    -1.7500 H     1 <1>   0.0800 
 48 H       -1.3370    -1.9090     1.3360 H     1 <1>   0.0800 
 49 H       -2.1150    -1.4210    -0.1350 H     1 <1>   0.0800 
 50 H       -0.3170    -2.9760    -0.6860 H     1 <1>   0.0800 
 51 H       -0.9080    -4.1370     0.4670 H     1 <1>   0.0800 
@<TRIPOS>BOND
  1   1   2  1   
  2   1   3  1   
  3   2   4  ar  
  4   2   5  ar  
  5   3   6  1   
  6   3  22  1   
  7   3  23  1   
  8   4   7  ar  
  9   4  24  1   
 10   5   8  ar  
 11   5  25  1   
 12   6   9  1   
 13   6  10  1   
 14   6  26  1   
 15   7  11  ar  
 16   7  27  1   
 17   8  11  ar  
 18   8  28  1   
 19   9  29  1   
 20  10  12  1   
 21  10  30  1   
 22  10  31  1   
 23  11  13  1   
 24  12  14  1   
 25  12  15  1   
 26  12  32  1   
 27  13  16  1   
 28  13  17  1   
 29  13  18  1   
 30  14  19  1   
 31  14  33  1   
 32  14  34  1   
 33  15  20  1   
 34  15  35  1   
 35  15  36  1   
 36  16  37  1   
 37  16  38  1   
 38  16  39  1   
 39  17  40  1   
 40  17  41  1   
 41  17  42  1   
 42  18  43  1   
 43  18  44  1   
 44  18  45  1   
 45  19  21  1   
 46  19  46  1   
 47  19  47  1   
 48  20  21  1   
 49  20  48  1   
 50  20  49  1   
 51  21  50  1   
 52  21  51  1   
@<TRIPOS>SUBSTRUCTURE
  1 ****   1 GROUP 4 **** **** 0

# MOE 2024.06 (io_trps.svl 2023.06)
