@<TRIPOS>MOLECULE
NONAME
57 61 1 0 0 
SMALL
USER_CHARGES


@<TRIPOS>ATOM
  1 O        0.2320    -0.4150    -1.4230 O.2   1 <1>  -0.5700 
  2 C        0.2750    -1.5370    -0.9740 C.2   1 <1>   0.5690 
  3 N        1.2590    -2.0540    -0.1760 N.am  1 <1>  -0.2370 
  4 C       -0.8010    -2.5880    -1.2960 C.3   1 <1>   0.2510 
  5 C        2.3330    -1.3200     0.3790 C.ar  1 <1>   0.1170 
  6 C        1.0370    -3.3920     0.0070 C.2   1 <1>   0.5690 
  7 N       -2.1570    -2.3770    -0.6810 N.3   1 <1>  -0.8100 
  8 C       -0.1830    -3.8750    -0.7360 C.3   1 <1>  -0.0990 
  9 C        3.0890    -0.4520    -0.4030 C.ar  1 <1>  -0.1500 
 10 C        2.6600    -1.4480     1.7270 C.ar  1 <1>  -0.1500 
 11 O        1.7010    -4.1470     0.6660 O.2   1 <1>  -0.5700 
 12 C       -3.1760    -3.2570    -1.3010 C.3   1 <1>   0.1100 
 13 C       -2.5950    -0.9570    -0.7150 C.3   1 <1>   0.1100 
 14 C        4.1350     0.2700     0.1430 C.ar  1 <1>  -0.1500 
 15 C        3.7050    -0.7280     2.2760 C.ar  1 <1>  -0.1500 
 16 C       -4.5640    -3.0820    -0.6500 C.3   1 <1>   0.3430 
 17 C       -3.9840    -0.7550    -0.0770 C.3   1 <1>   0.3430 
 18 C        4.4440     0.1330     1.4850 C.ar  1 <1>  -0.1500 
 19 N       -5.0230    -1.6510    -0.7000 N.4   1 <1>  -0.9590 
 20 C       -6.4000    -1.4920    -0.1290 C.3   1 <1>   0.4230 
 21 C       -7.0210    -0.1540    -0.5520 C.3   1 <1>  -0.0170 
 22 C       -6.4220    -1.6220     1.3990 C.3   1 <1>  -0.1600 
 23 C       -8.3820     0.0540     0.0920 C.ar  1 <1>  -0.1430 
 24 C       -7.8740    -1.6960     1.8860 C.3   1 <1>  -0.0170 
 25 C       -8.7680    -0.6530     1.2280 C.ar  1 <1>  -0.1430 
 26 C       -9.2470     0.9830    -0.4660 C.ar  1 <1>  -0.1500 
 27 C      -10.0160    -0.4190     1.7830 C.ar  1 <1>  -0.1500 
 28 C      -10.4900     1.2100     0.0950 C.ar  1 <1>  -0.1500 
 29 C      -10.8750     0.5080     1.2210 C.ar  1 <1>  -0.1500 
 30 H       -0.8900    -2.6490    -2.3670 H     1 <1>   0.0800 
 31 H        0.1300    -4.5310    -1.5270 H     1 <1>   0.0800 
 32 H       -0.8310    -4.3950    -0.0560 H     1 <1>   0.0800 
 33 H        2.8590    -0.3330    -1.4470 H     1 <1>   0.1500 
 34 H        2.0970    -2.1190     2.3520 H     1 <1>   0.1500 
 35 H       -2.8800    -4.2870    -1.1880 H     1 <1>   0.0800 
 36 H       -3.2480    -3.0510    -2.3560 H     1 <1>   0.0800 
 37 H       -2.6010    -0.5930    -1.7290 H     1 <1>   0.0800 
 38 H       -1.9020    -0.3520    -0.1550 H     1 <1>   0.0800 
 39 H        4.7080     0.9400    -0.4740 H     1 <1>   0.1500 
 40 H        3.9460    -0.8400     3.3200 H     1 <1>   0.1500 
 41 H       -4.5000    -3.4100     0.3740 H     1 <1>   0.0800 
 42 H       -5.2750    -3.7130    -1.1580 H     1 <1>   0.0800 
 43 H       -4.2700     0.2780    -0.1840 H     1 <1>   0.0800 
 44 H       -3.9020    -0.9680     0.9750 H     1 <1>   0.0800 
 45 H        5.2580     0.6940     1.9120 H     1 <1>   0.1500 
 46 H       -5.0760    -1.3960    -1.6930 H     1 <1>   0.4500 
 47 H       -7.0280    -2.2710    -0.5310 H     1 <1>   0.0800 
 48 H       -7.1350    -0.1360    -1.6210 H     1 <1>   0.0800 
 49 H       -6.3940     0.6670    -0.2540 H     1 <1>   0.0800 
 50 H       -5.9620    -0.7620     1.8530 H     1 <1>   0.0800 
 51 H       -5.9080    -2.5070     1.7270 H     1 <1>   0.0800 
 52 H       -7.8970    -1.5670     2.9550 H     1 <1>   0.0800 
 53 H       -8.2780    -2.6700     1.6670 H     1 <1>   0.0800 
 54 H       -8.9620     1.5420    -1.3400 H     1 <1>   0.1500 
 55 H      -10.3310    -0.9580     2.6600 H     1 <1>   0.1500 
 56 H      -11.1580     1.9320    -0.3420 H     1 <1>   0.1500 
 57 H      -11.8420     0.6830     1.6600 H     1 <1>   0.1500 
@<TRIPOS>BOND
  1   1   2  2   
  2   2   3  am  
  3   2   4  1   
  4   3   5  1   
  5   3   6  am  
  6   4   7  1   
  7   4   8  1   
  8   4  30  1   
  9   5   9  ar  
 10   5  10  ar  
 11   6   8  1   
 12   6  11  2   
 13   7  12  1   
 14   7  13  1   
 15   8  31  1   
 16   8  32  1   
 17   9  14  ar  
 18   9  33  1   
 19  10  15  ar  
 20  10  34  1   
 21  12  16  1   
 22  12  35  1   
 23  12  36  1   
 24  13  17  1   
 25  13  37  1   
 26  13  38  1   
 27  14  18  ar  
 28  14  39  1   
 29  15  18  ar  
 30  15  40  1   
 31  16  19  1   
 32  16  41  1   
 33  16  42  1   
 34  17  19  1   
 35  17  43  1   
 36  17  44  1   
 37  18  45  1   
 38  19  20  1   
 39  19  46  1   
 40  20  21  1   
 41  20  22  1   
 42  20  47  1   
 43  21  23  1   
 44  21  48  1   
 45  21  49  1   
 46  22  24  1   
 47  22  50  1   
 48  22  51  1   
 49  23  25  ar  
 50  23  26  ar  
 51  24  25  1   
 52  24  52  1   
 53  24  53  1   
 54  25  27  ar  
 55  26  28  ar  
 56  26  54  1   
 57  27  29  ar  
 58  27  55  1   
 59  28  29  ar  
 60  28  56  1   
 61  29  57  1   
@<TRIPOS>SUBSTRUCTURE
  1 ****  13 GROUP 4 **** **** 0

# MOE 2024.06 (io_trps.svl 2023.06)
