@<TRIPOS>MOLECULE
NONAME
47 50 1 0 0 
SMALL
USER_CHARGES


@<TRIPOS>ATOM
  1 O        0.4990     1.2310     1.6890 O.2   1 <1>  -0.5700 
  2 C        0.6690     2.0780     0.8510 C.2   1 <1>   0.5690 
  3 N        1.6840     2.1700    -0.0910 N.am  1 <1>  -0.2370 
  4 C       -0.2040     3.2840     0.6720 C.3   1 <1>  -0.0190 
  5 C        2.8730     1.4120    -0.0970 C.ar  1 <1>   0.1170 
  6 C        1.3300     3.1350    -1.0260 C.2   1 <1>   0.5690 
  7 C       -1.6040     3.8200     1.0020 C.3   1 <1>   0.1960 
  8 C       -0.1360     3.4070    -0.8520 C.3   1 <1>  -0.0190 
  9 C        2.8520     0.0410     0.1330 C.ar  1 <1>  -0.1500 
 10 C        4.1060     2.0100    -0.3330 C.ar  1 <1>  -0.1500 
 11 O        2.0230     3.6600    -1.8580 O.2   1 <1>  -0.5700 
 12 C       -1.3790     5.1280     0.2480 C.2   1 <1>  -0.2760 
 13 C       -2.6990     3.2920     0.0860 C.2   1 <1>  -0.2880 
 14 C       -1.1650     4.5260    -1.1330 C.3   1 <1>   0.1960 
 15 C        4.0170    -0.7020     0.1280 C.ar  1 <1>  -0.1500 
 16 C        5.2700     1.2650    -0.3370 C.ar  1 <1>  -0.1500 
 17 C       -1.3640     6.4040     0.6640 C.2   1 <1>  -0.2760 
 18 C       -2.4750     3.7520    -1.1480 C.2   1 <1>  -0.2880 
 19 C        5.2630    -0.1130    -0.1070 C.ar  1 <1>   0.0860 
 20 C       -1.1140     7.5950    -0.2490 C.3   1 <1>  -0.1020 
 21 C       -1.5980     6.8420     2.1030 C.3   1 <1>  -0.1020 
 22 C        6.4940    -0.8800    -0.1140 C.2   1 <1>   0.6340 
 23 O        7.5880    -0.3830    -0.2950 O.2   1 <1>  -0.5700 
 24 O        6.4140    -2.1980     0.0910 O.3   1 <1>  -0.4300 
 25 C        7.5630    -3.0160     0.1000 C.3   1 <1>   0.1200 
 26 C        7.1200    -4.4520     0.3570 C.3   1 <1>  -0.2400 
 27 H        0.4370     4.0340     1.1160 H     1 <1>   0.0800 
 28 H       -1.8540     3.9190     2.0420 H     1 <1>   0.0800 
 29 H       -0.5530     2.5200    -1.3040 H     1 <1>   0.0800 
 30 H        1.9140    -0.4530     0.3210 H     1 <1>   0.1500 
 31 H        4.1590     3.0700    -0.5170 H     1 <1>   0.1500 
 32 H       -3.4850     2.6710     0.4800 H     1 <1>   0.1500 
 33 H       -0.9890     5.1770    -1.9690 H     1 <1>   0.0800 
 34 H        3.9600    -1.7610     0.3120 H     1 <1>   0.1500 
 35 H        6.2100     1.7570    -0.5240 H     1 <1>   0.1500 
 36 H       -3.0270     3.6240    -2.0640 H     1 <1>   0.1500 
 37 H       -1.9630     8.2550    -0.2330 H     1 <1>   0.0800 
 38 H       -0.9470     7.2950    -1.2660 H     1 <1>   0.0800 
 39 H       -0.2480     8.1400     0.0830 H     1 <1>   0.0800 
 40 H       -0.7410     7.3780     2.4690 H     1 <1>   0.0800 
 41 H       -1.7740     6.0090     2.7550 H     1 <1>   0.0800 
 42 H       -2.4560     7.4900     2.1540 H     1 <1>   0.0800 
 43 H        8.0530    -2.9260    -0.8550 H     1 <1>   0.0800 
 44 H        8.2220    -2.6680     0.8790 H     1 <1>   0.0800 
 45 H        6.4540    -4.7790    -0.4220 H     1 <1>   0.0800 
 46 H        6.6240    -4.5230     1.3080 H     1 <1>   0.0800 
 47 H        7.9780    -5.0990     0.3690 H     1 <1>   0.0800 
@<TRIPOS>BOND
  1   1   2  2   
  2   2   3  am  
  3   2   4  1   
  4   3   5  1   
  5   3   6  am  
  6   4   7  1   
  7   4   8  1   
  8   4  27  1   
  9   5   9  ar  
 10   5  10  ar  
 11   6   8  1   
 12   6  11  2   
 13   7  12  1   
 14   7  13  1   
 15   7  28  1   
 16   8  14  1   
 17   8  29  1   
 18   9  15  ar  
 19   9  30  1   
 20  10  16  ar  
 21  10  31  1   
 22  12  14  1   
 23  12  17  2   
 24  13  18  2   
 25  13  32  1   
 26  14  18  1   
 27  14  33  1   
 28  15  19  ar  
 29  15  34  1   
 30  16  19  ar  
 31  16  35  1   
 32  17  20  1   
 33  17  21  1   
 34  18  36  1   
 35  19  22  1   
 36  20  37  1   
 37  20  38  1   
 38  20  39  1   
 39  21  40  1   
 40  21  41  1   
 41  21  42  1   
 42  22  23  2   
 43  22  24  1   
 44  24  25  1   
 45  25  26  1   
 46  25  43  1   
 47  25  44  1   
 48  26  45  1   
 49  26  46  1   
 50  26  47  1   
@<TRIPOS>SUBSTRUCTURE
  1 ****   3 GROUP 4 **** **** 0

# MOE 2024.06 (io_trps.svl 2023.06)
