@<TRIPOS>MOLECULE
NONAME
49 50 1 0 0 
SMALL
USER_CHARGES


@<TRIPOS>ATOM
  1 S        1.4090     0.5870     1.3360 S.o2  1 <1>   1.3330 
  2 O        2.2990     1.5050     2.0060 O.2   1 <1>  -0.6500 
  3 O        1.8160    -0.7790     1.1280 O.2   1 <1>  -0.6500 
  4 N        1.1450     1.2600    -0.2300 N.am  1 <1>  -0.6930 
  5 C       -0.2080     0.6070     2.0810 C.3   1 <1>  -0.1350 
  6 C        0.3150     2.3680    -0.3960 C.ar  1 <1>   0.1990 
  7 C        2.2630     1.0260    -1.2010 C.3   1 <1>   0.3370 
  8 C       -0.8450     2.2500    -1.1510 C.ar  1 <1>  -0.1500 
  9 C        0.5920     3.5940     0.2000 C.ar  1 <1>  -0.1500 
 10 C        3.2860     2.1880    -1.2890 C.2   1 <1>   0.5690 
 11 C        1.6550     0.6320    -2.5570 C.3   1 <1>  -0.2400 
 12 C       -1.7020     3.3230    -1.3140 C.ar  1 <1>  -0.1500 
 13 C       -0.2620     4.6690     0.0380 C.ar  1 <1>  -0.1500 
 14 O        3.6590     2.5610    -2.3790 O.2   1 <1>  -0.5700 
 15 N        3.7720     2.7300    -0.1240 N.am  1 <1>  -0.5470 
 16 C       -1.4130     4.5410    -0.7210 C.ar  1 <1>  -0.1430 
 17 C        4.6780     3.7790     0.1090 C.ar  1 <1>   0.1170 
 18 C       -2.3490     5.7230    -0.8980 C.3   1 <1>  -0.0970 
 19 C        5.4460     3.8010     1.2800 C.ar  1 <1>  -0.1430 
 20 C        4.8000     4.8270    -0.7980 C.ar  1 <1>  -0.1500 
 21 C        6.3040     4.8720     1.5270 C.ar  1 <1>  -0.1430 
 22 C        5.3320     2.6490     2.2830 C.3   1 <1>  -0.0970 
 23 C        5.6610     5.8770    -0.5590 C.ar  1 <1>  -0.1500 
 24 C        6.4090     5.9000     0.6010 C.ar  1 <1>  -0.1500 
 25 C        7.1480     4.9710     2.7920 C.3   1 <1>  -0.0970 
 26 H       -0.1660     0.1770     3.0620 H     1 <1>   0.0800 
 27 H       -0.8960     0.0390     1.4860 H     1 <1>   0.0800 
 28 H       -0.5710     1.6130     2.1630 H     1 <1>   0.0800 
 29 H        2.8280     0.1730    -0.8700 H     1 <1>   0.0800 
 30 H       -1.0760     1.3070    -1.6130 H     1 <1>   0.1500 
 31 H        1.4780     3.7180     0.7950 H     1 <1>   0.1500 
 32 H        1.1550     1.4720    -3.0040 H     1 <1>   0.0800 
 33 H        0.9660    -0.1830    -2.4350 H     1 <1>   0.0800 
 34 H        2.4380     0.3190    -3.2240 H     1 <1>   0.0800 
 35 H       -2.5940     3.2080    -1.9050 H     1 <1>   0.1500 
 36 H       -0.0240     5.6090     0.5060 H     1 <1>   0.1500 
 37 H        3.4080     2.3100     0.7410 H     1 <1>   0.3700 
 38 H       -2.8670     5.6560    -1.8380 H     1 <1>   0.0800 
 39 H       -1.7950     6.6450    -0.8840 H     1 <1>   0.0800 
 40 H       -3.0710     5.7390    -0.1020 H     1 <1>   0.0800 
 41 H        4.2140     4.8290    -1.6980 H     1 <1>   0.1500 
 42 H        5.1810     1.7110     1.7800 H     1 <1>   0.0800 
 43 H        4.5040     2.8250     2.9450 H     1 <1>   0.0800 
 44 H        6.2230     2.5380     2.8700 H     1 <1>   0.0800 
 45 H        5.7450     6.6770    -1.2730 H     1 <1>   0.1500 
 46 H        7.0730     6.7270     0.7770 H     1 <1>   0.1500 
 47 H        6.5320     4.8250     3.6610 H     1 <1>   0.0800 
 48 H        7.6120     5.9370     2.8740 H     1 <1>   0.0800 
 49 H        7.9210     4.2250     2.7750 H     1 <1>   0.0800 
@<TRIPOS>BOND
  1   1   2  2   
  2   1   3  2   
  3   1   4  am  
  4   1   5  1   
  5   4   6  1   
  6   4   7  1   
  7   5  26  1   
  8   5  27  1   
  9   5  28  1   
 10   6   8  ar  
 11   6   9  ar  
 12   7  10  1   
 13   7  11  1   
 14   7  29  1   
 15   8  12  ar  
 16   8  30  1   
 17   9  13  ar  
 18   9  31  1   
 19  10  14  2   
 20  10  15  am  
 21  11  32  1   
 22  11  33  1   
 23  11  34  1   
 24  12  16  ar  
 25  12  35  1   
 26  13  16  ar  
 27  13  36  1   
 28  15  17  1   
 29  15  37  1   
 30  16  18  1   
 31  17  19  ar  
 32  17  20  ar  
 33  18  38  1   
 34  18  39  1   
 35  18  40  1   
 36  19  21  ar  
 37  19  22  1   
 38  20  23  ar  
 39  20  41  1   
 40  21  24  ar  
 41  21  25  1   
 42  22  42  1   
 43  22  43  1   
 44  22  44  1   
 45  23  24  ar  
 46  23  45  1   
 47  24  46  1   
 48  25  47  1   
 49  25  48  1   
 50  25  49  1   
@<TRIPOS>SUBSTRUCTURE
  1 ****  15 GROUP 4 **** **** 0

# MOE 2024.06 (io_trps.svl 2023.06)
