@<TRIPOS>MOLECULE
NONAME
47 49 1 0 0 
SMALL
USER_CHARGES


@<TRIPOS>ATOM
  1 N       -2.7930     1.4040     0.4110 N.4   1 <1>  -0.9590 
  2 C       -3.3100     2.4980    -0.4770 C.3   1 <1>   0.3430 
  3 C       -1.5060     1.7750     1.0600 C.3   1 <1>   0.3430 
  4 C       -2.6690     0.1240    -0.3350 C.3   1 <1>   0.3430 
  5 C       -4.8360     2.7180    -0.3410 C.3   1 <1>   0.0000 
  6 C       -1.7540     2.8010     2.1590 C.3   1 <1>  -0.2400 
  7 C       -2.7300    -1.0390     0.6480 C.3   1 <1>  -0.2400 
  8 C       -5.1810     3.1290     1.1090 C.3   1 <1>  -0.1600 
  9 C       -5.6210     1.4560    -0.7840 C.3   1 <1>  -0.1600 
 10 C       -5.2110     3.8910    -1.2670 C.3   1 <1>  -0.1600 
 11 C       -6.6390     3.5730     1.3200 C.3   1 <1>  -0.0800 
 12 C       -7.1380     1.6490    -0.9700 C.3   1 <1>  -0.0800 
 13 C       -6.7150     4.1720    -1.1970 C.3   1 <1>  -0.0800 
 14 C       -7.5860     2.3810     1.5340 C.3   1 <1>  -0.1600 
 15 C       -7.1200     4.5560     0.2360 C.3   1 <1>  -0.1600 
 16 C       -7.9440     1.4940     0.3290 C.3   1 <1>  -0.1600 
 17 C       -7.4810     2.9500    -1.7150 C.3   1 <1>  -0.1600 
 18 H       -3.4950     1.2700     1.1500 H     1 <1>   0.4500 
 19 H       -3.0710     2.2790    -1.5040 H     1 <1>   0.0800 
 20 H       -2.8220     3.4250    -0.2250 H     1 <1>   0.0800 
 21 H       -0.8190     2.1700     0.3280 H     1 <1>   0.0800 
 22 H       -1.0550     0.9010     1.5030 H     1 <1>   0.0800 
 23 H       -1.7440     0.1010    -0.8890 H     1 <1>   0.0800 
 24 H       -3.4820     0.0260    -1.0360 H     1 <1>   0.0800 
 25 H       -2.1110     3.7320     1.7580 H     1 <1>   0.0800 
 26 H       -0.8280     3.0010     2.6680 H     1 <1>   0.0800 
 27 H       -2.4540     2.4240     2.8830 H     1 <1>   0.0800 
 28 H       -1.8990    -1.0260     1.3300 H     1 <1>   0.0800 
 29 H       -2.6880    -1.9640     0.0990 H     1 <1>   0.0800 
 30 H       -3.6530    -1.0250     1.1990 H     1 <1>   0.0800 
 31 H       -4.5580     3.9640     1.3800 H     1 <1>   0.0800 
 32 H       -4.9590     2.3340     1.7960 H     1 <1>   0.0800 
 33 H       -5.4630     0.6500    -0.0900 H     1 <1>   0.0800 
 34 H       -5.2330     1.1420    -1.7370 H     1 <1>   0.0800 
 35 H       -4.9440     3.6640    -2.2850 H     1 <1>   0.0800 
 36 H       -4.6760     4.7810    -0.9810 H     1 <1>   0.0800 
 37 H       -6.6600     4.1150     2.2510 H     1 <1>   0.0800 
 38 H       -7.4780     0.8460    -1.6040 H     1 <1>   0.0800 
 39 H       -6.9440     5.0040    -1.8420 H     1 <1>   0.0800 
 40 H       -8.5080     2.7630     1.9380 H     1 <1>   0.0800 
 41 H       -7.1700     1.7540     2.3020 H     1 <1>   0.0800 
 42 H       -6.6890     5.5190     0.4490 H     1 <1>   0.0800 
 43 H       -8.1880     4.6750     0.2960 H     1 <1>   0.0800 
 44 H       -7.8770     0.4680     0.6460 H     1 <1>   0.0800 
 45 H       -8.9820     1.6580     0.0950 H     1 <1>   0.0800 
 46 H       -8.5400     3.1380    -1.6690 H     1 <1>   0.0800 
 47 H       -7.2360     2.8190    -2.7540 H     1 <1>   0.0800 
@<TRIPOS>BOND
  1   1   2  1   
  2   1   3  1   
  3   1   4  1   
  4   1  18  1   
  5   2   5  1   
  6   2  19  1   
  7   2  20  1   
  8   3   6  1   
  9   3  21  1   
 10   3  22  1   
 11   4   7  1   
 12   4  23  1   
 13   4  24  1   
 14   5   8  1   
 15   5   9  1   
 16   5  10  1   
 17   6  25  1   
 18   6  26  1   
 19   6  27  1   
 20   7  28  1   
 21   7  29  1   
 22   7  30  1   
 23   8  11  1   
 24   8  31  1   
 25   8  32  1   
 26   9  12  1   
 27   9  33  1   
 28   9  34  1   
 29  10  13  1   
 30  10  35  1   
 31  10  36  1   
 32  11  14  1   
 33  11  15  1   
 34  11  37  1   
 35  12  16  1   
 36  12  17  1   
 37  12  38  1   
 38  13  15  1   
 39  13  17  1   
 40  13  39  1   
 41  14  16  1   
 42  14  40  1   
 43  14  41  1   
 44  15  42  1   
 45  15  43  1   
 46  16  44  1   
 47  16  45  1   
 48  17  46  1   
 49  17  47  1   
@<TRIPOS>SUBSTRUCTURE
  1 ****   5 GROUP 4 **** **** 0

# MOE 2024.06 (io_trps.svl 2023.06)
