@<TRIPOS>MOLECULE
NONAME
46 49 1 0 0 
SMALL
USER_CHARGES


@<TRIPOS>ATOM
  1 O        0.1270     0.4800     0.2800 O.3   1 <1>  -0.3630 
  2 C        1.0950    -0.4580     0.0850 C.ar  1 <1>   0.0830 
  3 C       -1.2420     0.1390     0.2180 C.3   1 <1>   0.1200 
  4 C        2.3970    -0.0140     0.1000 C.ar  1 <1>  -0.1500 
  5 C        0.8180    -1.8230    -0.1240 C.ar  1 <1>  -0.1500 
  6 C       -2.0940     1.4000     0.4330 C.3   1 <1>  -0.0800 
  7 C        3.4430    -0.9200    -0.0930 C.ar  1 <1>   0.0000 
  8 C        1.8400    -2.7240    -0.3170 C.ar  1 <1>  -0.1500 
  9 C       -3.5830     1.0340     0.4600 C.3   1 <1>  -0.2400 
 10 C       -1.8400     2.4510    -0.6580 C.3   1 <1>  -0.2400 
 11 C        3.1610    -2.2680    -0.3040 C.ar  1 <1>  -0.1520 
 12 C        4.8480    -0.8010    -0.1160 C.2   1 <1>  -0.1810 
 13 N        4.3500    -2.9430    -0.4620 N.pl3 1 <1>   0.0480 
 14 C        5.3530    -2.0290    -0.3420 C.2   1 <1>  -0.3320 
 15 C        5.6980     0.4350     0.1130 C.3   1 <1>   0.0210 
 16 C        4.5760    -4.3960    -0.3530 C.3   1 <1>   0.0960 
 17 C        6.8080    -2.3770    -0.4180 C.3   1 <1>   0.6030 
 18 C        7.1840     0.1340    -0.1900 C.3   1 <1>  -0.1600 
 19 C        6.0870    -4.7190    -0.3790 C.3   1 <1>   0.3430 
 20 N        6.9320    -3.6610     0.2790 N.4   1 <1>  -0.9060 
 21 C        7.6230    -1.2760     0.2780 C.3   1 <1>  -0.1600 
 22 H       -1.4410    -0.5820     0.9920 H     1 <1>   0.0800 
 23 H       -1.4410    -0.2900    -0.7480 H     1 <1>   0.0800 
 24 H        2.6130     1.0250     0.2610 H     1 <1>   0.1500 
 25 H       -0.1940    -2.1780    -0.1360 H     1 <1>   0.1500 
 26 H       -1.8330     1.8200     1.3900 H     1 <1>   0.0800 
 27 H        1.6250    -3.7650    -0.4790 H     1 <1>   0.1500 
 28 H       -3.8870     0.6070    -0.4800 H     1 <1>   0.0800 
 29 H       -4.1780     1.9100     0.6480 H     1 <1>   0.0800 
 30 H       -3.7790     0.3210     1.2420 H     1 <1>   0.0800 
 31 H       -2.0730     2.0540    -1.6300 H     1 <1>   0.0800 
 32 H       -0.8070     2.7520    -0.6520 H     1 <1>   0.0800 
 33 H       -2.4440     3.3240    -0.4860 H     1 <1>   0.0800 
 34 H        5.5890     0.7370     1.1400 H     1 <1>   0.0800 
 35 H        5.3500     1.2410    -0.5100 H     1 <1>   0.0800 
 36 H        4.0720    -4.8960    -1.1600 H     1 <1>   0.0800 
 37 H        4.1470    -4.7340     0.5730 H     1 <1>   0.0800 
 38 H        7.1060    -2.4690    -1.4510 H     1 <1>   0.0800 
 39 H        7.7970     0.8860     0.2790 H     1 <1>   0.0800 
 40 H        7.3360     0.2120    -1.2530 H     1 <1>   0.0800 
 41 H        6.3920    -4.8240    -1.4080 H     1 <1>   0.0800 
 42 H        6.2470    -5.6720     0.1010 H     1 <1>   0.0800 
 43 H        6.5870    -3.4830     1.2290 H     1 <1>   0.4500 
 44 H        7.9190    -3.9270     0.3310 H     1 <1>   0.4500 
 45 H        8.6680    -1.4100     0.0620 H     1 <1>   0.0800 
 46 H        7.4800    -1.3320     1.3430 H     1 <1>   0.0800 
@<TRIPOS>BOND
  1   1   2  1   
  2   1   3  1   
  3   2   4  ar  
  4   2   5  ar  
  5   3   6  1   
  6   3  22  1   
  7   3  23  1   
  8   4   7  ar  
  9   4  24  1   
 10   5   8  ar  
 11   5  25  1   
 12   6   9  1   
 13   6  10  1   
 14   6  26  1   
 15   7  11  ar  
 16   7  12  1   
 17   8  11  ar  
 18   8  27  1   
 19   9  28  1   
 20   9  29  1   
 21   9  30  1   
 22  10  31  1   
 23  10  32  1   
 24  10  33  1   
 25  11  13  1   
 26  12  14  2   
 27  12  15  1   
 28  13  14  1   
 29  13  16  1   
 30  14  17  1   
 31  15  18  1   
 32  15  34  1   
 33  15  35  1   
 34  16  19  1   
 35  16  36  1   
 36  16  37  1   
 37  17  20  1   
 38  17  21  1   
 39  17  38  1   
 40  18  21  1   
 41  18  39  1   
 42  18  40  1   
 43  19  20  1   
 44  19  41  1   
 45  19  42  1   
 46  20  43  1   
 47  20  44  1   
 48  21  45  1   
 49  21  46  1   
@<TRIPOS>SUBSTRUCTURE
  1 ****   7 GROUP 4 **** **** 0

# MOE 2024.06 (io_trps.svl 2023.06)
