@<TRIPOS>MOLECULE
NONAME
35 36 1 0 0 
SMALL
USER_CHARGES


@<TRIPOS>ATOM
  1 BR       0.1830     0.3540    -0.9370 Br    1 <1>  -0.1110 
  2 C       -1.6110     1.0410    -0.9010 C.ar  1 <1>   0.1110 
  3 C       -2.3670     1.0010    -2.0560 C.ar  1 <1>  -0.1500 
  4 C       -2.1040     1.5620     0.2790 C.ar  1 <1>  -0.1500 
  5 C       -3.6590     1.4940    -2.0180 C.ar  1 <1>  -0.1500 
  6 C       -3.3970     2.0520     0.2980 C.ar  1 <1>  -0.1500 
  7 C       -4.2070     2.0190    -0.8440 C.ar  1 <1>   0.0860 
  8 C       -5.5710     2.5180    -0.8220 C.2   1 <1>   0.5440 
  9 O       -6.0120     3.1330    -1.7750 O.2   1 <1>  -0.5700 
 10 N       -6.4300     2.2940     0.2360 N.am  1 <1>  -0.6600 
 11 C       -7.5990     3.1990     0.4390 C.3   1 <1>   0.1400 
 12 C       -6.3890     1.0510     1.0490 C.3   1 <1>   0.1400 
 13 C       -8.7220     2.8930    -0.5710 C.3   1 <1>   0.3430 
 14 C       -7.7130     0.2810     0.9640 C.3   1 <1>  -0.1600 
 15 N       -9.3770     1.5430    -0.4000 N.4   1 <1>  -0.9590 
 16 C       -8.4130     0.3990    -0.3950 C.3   1 <1>   0.3430 
 17 C      -10.3820     1.3510    -1.4870 C.3   1 <1>   0.2630 
 18 H       -1.9490     0.5960    -2.9610 H     1 <1>   0.1500 
 19 H       -1.4830     1.5860     1.1580 H     1 <1>   0.1500 
 20 H       -4.2570     1.4800    -2.9130 H     1 <1>   0.1500 
 21 H       -3.7870     2.4740     1.2080 H     1 <1>   0.1500 
 22 H       -7.2720     4.2130     0.2830 H     1 <1>   0.0800 
 23 H       -7.9640     3.1280     1.4480 H     1 <1>   0.0800 
 24 H       -6.1670     1.2960     2.0750 H     1 <1>   0.0800 
 25 H       -5.5990     0.4140     0.6880 H     1 <1>   0.0800 
 26 H       -8.3060     2.9680    -1.5630 H     1 <1>   0.0800 
 27 H       -9.4720     3.6610    -0.4820 H     1 <1>   0.0800 
 28 H       -8.3710     0.5840     1.7580 H     1 <1>   0.0800 
 29 H       -7.4850    -0.7560     1.1360 H     1 <1>   0.0800 
 30 H       -9.8690     1.5380     0.5040 H     1 <1>   0.4500 
 31 H       -8.9560    -0.5160    -0.5740 H     1 <1>   0.0800 
 32 H       -7.6850     0.5150    -1.1840 H     1 <1>   0.0800 
 33 H       -9.8950     1.3520    -2.4500 H     1 <1>   0.0800 
 34 H      -11.1110     2.1460    -1.4700 H     1 <1>   0.0800 
 35 H      -10.8970     0.4120    -1.3620 H     1 <1>   0.0800 
@<TRIPOS>BOND
  1   1   2  1   
  2   2   3  ar  
  3   2   4  ar  
  4   3   5  ar  
  5   3  18  1   
  6   4   6  ar  
  7   4  19  1   
  8   5   7  ar  
  9   5  20  1   
 10   6   7  ar  
 11   6  21  1   
 12   7   8  1   
 13   8   9  2   
 14   8  10  am  
 15  10  11  1   
 16  10  12  1   
 17  11  13  1   
 18  11  22  1   
 19  11  23  1   
 20  12  14  1   
 21  12  24  1   
 22  12  25  1   
 23  13  15  1   
 24  13  26  1   
 25  13  27  1   
 26  14  16  1   
 27  14  28  1   
 28  14  29  1   
 29  15  16  1   
 30  15  17  1   
 31  15  30  1   
 32  16  31  1   
 33  16  32  1   
 34  17  33  1   
 35  17  34  1   
 36  17  35  1   
@<TRIPOS>SUBSTRUCTURE
  1 ****   8 GROUP 4 **** **** 0

# MOE 2024.06 (io_trps.svl 2023.06)
