@<TRIPOS>MOLECULE
NONAME
33 34 1 0 0 
SMALL
USER_CHARGES


@<TRIPOS>ATOM
  1 CL      -1.8240    -1.0000     1.9010 Cl    1 <1>  -0.1240 
  2 C       -0.8440    -2.1440     1.0260 C.2   1 <1>   0.1640 
  3 S        0.6070    -2.7070     1.8230 S.3   1 <1>  -0.0800 
  4 C       -0.9960    -2.6940    -0.1890 C.2   1 <1>  -0.1500 
  5 C        1.0130    -3.7330     0.4420 C.2   1 <1>  -0.0220 
  6 C        0.0680    -3.5960    -0.5170 C.2   1 <1>  -0.1500 
  7 S        2.5420    -4.6990     0.5120 S.o2  1 <1>   1.5000 
  8 O        2.3280    -5.9270    -0.2230 O.2   1 <1>  -0.6500 
  9 O        3.0510    -4.7630     1.8650 O.2   1 <1>  -0.6500 
 10 N        3.6290    -3.7580    -0.3880 N.am  1 <1>  -0.8490 
 11 C        4.8400    -4.5050    -0.7870 C.3   1 <1>   0.1960 
 12 C        3.8920    -2.4460     0.2340 C.3   1 <1>   0.1960 
 13 C        6.0610    -4.1450     0.0770 C.3   1 <1>  -0.0800 
 14 C        5.1520    -1.7870    -0.3480 C.3   1 <1>  -0.0800 
 15 C        6.3990    -2.6450    -0.0500 C.3   1 <1>  -0.1600 
 16 C        7.2770    -5.0070    -0.2850 C.3   1 <1>  -0.2400 
 17 C        5.3350    -0.3600     0.1860 C.3   1 <1>  -0.2400 
 18 H       -1.8090    -2.5030    -0.8660 H     1 <1>   0.1500 
 19 H        0.0840    -4.1090    -1.4640 H     1 <1>   0.1500 
 20 H        5.0620    -4.2630    -1.8120 H     1 <1>   0.0800 
 21 H        4.6690    -5.5680    -0.7450 H     1 <1>   0.0800 
 22 H        4.0300    -2.5580     1.2980 H     1 <1>   0.0800 
 23 H        3.0430    -1.8040     0.0740 H     1 <1>   0.0800 
 24 H        5.8040    -4.3590     1.1020 H     1 <1>   0.0800 
 25 H        5.0180    -1.7240    -1.4150 H     1 <1>   0.0800 
 26 H        7.1110    -2.4860    -0.8420 H     1 <1>   0.0800 
 27 H        6.8630    -2.3290     0.8690 H     1 <1>   0.0800 
 28 H        7.5590    -4.8570    -1.3130 H     1 <1>   0.0800 
 29 H        7.0500    -6.0490    -0.1390 H     1 <1>   0.0800 
 30 H        8.1120    -4.7530     0.3430 H     1 <1>   0.0800 
 31 H        5.4420    -0.3640     1.2570 H     1 <1>   0.0800 
 32 H        4.4860     0.2480    -0.0720 H     1 <1>   0.0800 
 33 H        6.2140     0.0870    -0.2450 H     1 <1>   0.0800 
@<TRIPOS>BOND
  1   1   2  1   
  2   2   3  1   
  3   2   4  2   
  4   3   5  1   
  5   4   6  1   
  6   4  18  1   
  7   5   6  2   
  8   5   7  1   
  9   6  19  1   
 10   7   8  2   
 11   7   9  2   
 12   7  10  am  
 13  10  11  1   
 14  10  12  1   
 15  11  13  1   
 16  11  20  1   
 17  11  21  1   
 18  12  14  1   
 19  12  22  1   
 20  12  23  1   
 21  13  15  1   
 22  13  16  1   
 23  13  24  1   
 24  14  15  1   
 25  14  17  1   
 26  14  25  1   
 27  15  26  1   
 28  15  27  1   
 29  16  28  1   
 30  16  29  1   
 31  16  30  1   
 32  17  31  1   
 33  17  32  1   
 34  17  33  1   
@<TRIPOS>SUBSTRUCTURE
  1 ****  10 GROUP 4 **** **** 0

# MOE 2024.06 (io_trps.svl 2023.06)
