@<TRIPOS>MOLECULE
NONAME
46 47 1 0 0 
SMALL
USER_CHARGES


@<TRIPOS>ATOM
  1 S        1.1010     0.9350    -0.9920 S.o2  1 <1>   1.3330 
  2 O        2.2980     1.2470    -1.7390 O.2   1 <1>  -0.6500 
  3 O        1.1150    -0.1290    -0.0210 O.2   1 <1>  -0.6500 
  4 N        0.6290     2.3970    -0.1980 N.am  1 <1>  -0.6930 
  5 C       -0.2320     0.6830    -2.1430 C.3   1 <1>  -0.1350 
  6 C       -0.5150     2.4400     0.5920 C.ar  1 <1>   0.1990 
  7 C        1.7130     3.3810     0.1150 C.3   1 <1>   0.2570 
  8 C       -1.6760     3.1050     0.1770 C.ar  1 <1>  -0.1440 
  9 C       -0.4980     1.8040     1.8270 C.ar  1 <1>  -0.1500 
 10 C        2.7840     2.8720     1.0860 C.2   1 <1>   0.5690 
 11 C       -2.8020     3.0990     0.9980 C.ar  1 <1>  -0.1440 
 12 C       -1.7280     3.8380    -1.1650 C.3   1 <1>  -0.0970 
 13 C       -1.6120     1.8070     2.6400 C.ar  1 <1>  -0.1500 
 14 O        2.7920     3.2860     2.2210 O.2   1 <1>  -0.5700 
 15 N        3.7090     1.9820     0.6440 N.am  1 <1>  -0.7300 
 16 C       -2.7610     2.4510     2.2230 C.ar  1 <1>  -0.1500 
 17 C       -4.0980     3.7910     0.5960 C.3   1 <1>  -0.0970 
 18 C        4.7110     1.2970     1.4700 C.3   1 <1>   0.2200 
 19 C        6.0120     1.2130     0.6830 C.3   1 <1>  -0.1600 
 20 C        4.2990    -0.1620     1.6190 C.3   1 <1>  -0.1600 
 21 C        5.8340     0.0370    -0.2840 C.3   1 <1>  -0.1600 
 22 C        4.7450    -0.8550     0.3270 C.3   1 <1>  -0.1600 
 23 H       -0.0540    -0.2000    -2.7230 H     1 <1>   0.0800 
 24 H       -0.3130     1.5220    -2.8060 H     1 <1>   0.0800 
 25 H       -1.1580     0.5670    -1.6140 H     1 <1>   0.0800 
 26 H        1.2680     4.2600     0.5450 H     1 <1>   0.0800 
 27 H        2.1950     3.6750    -0.7990 H     1 <1>   0.0800 
 28 H        0.3970     1.3020     2.1500 H     1 <1>   0.1500 
 29 H       -0.7590     3.9430    -1.6160 H     1 <1>   0.0800 
 30 H       -2.1230     4.8290    -1.0310 H     1 <1>   0.0800 
 31 H       -2.3620     3.3020    -1.8480 H     1 <1>   0.0800 
 32 H       -1.5840     1.3090     3.5930 H     1 <1>   0.1500 
 33 H        3.6060     1.5820    -0.2990 H     1 <1>   0.3700 
 34 H       -3.6240     2.4450     2.8660 H     1 <1>   0.1500 
 35 H       -3.9560     4.8570     0.5780 H     1 <1>   0.0800 
 36 H       -4.8870     3.5690     1.2920 H     1 <1>   0.0800 
 37 H       -4.4130     3.4610    -0.3770 H     1 <1>   0.0800 
 38 H        4.8280     1.7940     2.4200 H     1 <1>   0.0800 
 39 H        6.8100     0.9850     1.3680 H     1 <1>   0.0800 
 40 H        6.2430     2.1360     0.1790 H     1 <1>   0.0800 
 41 H        3.2440    -0.2690     1.8030 H     1 <1>   0.0800 
 42 H        4.8370    -0.5860     2.4480 H     1 <1>   0.0800 
 43 H        6.7580    -0.5000    -0.4150 H     1 <1>   0.0800 
 44 H        5.5030     0.3990    -1.2430 H     1 <1>   0.0800 
 45 H        3.9120    -0.9260    -0.3530 H     1 <1>   0.0800 
 46 H        5.1120    -1.8460     0.5300 H     1 <1>   0.0800 
@<TRIPOS>BOND
  1   1   2  2   
  2   1   3  2   
  3   1   4  am  
  4   1   5  1   
  5   4   6  1   
  6   4   7  1   
  7   5  23  1   
  8   5  24  1   
  9   5  25  1   
 10   6   8  ar  
 11   6   9  ar  
 12   7  10  1   
 13   7  26  1   
 14   7  27  1   
 15   8  11  ar  
 16   8  12  1   
 17   9  13  ar  
 18   9  28  1   
 19  10  14  2   
 20  10  15  am  
 21  11  16  ar  
 22  11  17  1   
 23  12  29  1   
 24  12  30  1   
 25  12  31  1   
 26  13  16  ar  
 27  13  32  1   
 28  15  18  1   
 29  15  33  1   
 30  16  34  1   
 31  17  35  1   
 32  17  36  1   
 33  17  37  1   
 34  18  19  1   
 35  18  20  1   
 36  18  38  1   
 37  19  21  1   
 38  19  39  1   
 39  19  40  1   
 40  20  22  1   
 41  20  41  1   
 42  20  42  1   
 43  21  22  1   
 44  21  43  1   
 45  21  44  1   
 46  22  45  1   
 47  22  46  1   
@<TRIPOS>SUBSTRUCTURE
  1 ****   4 GROUP 4 **** **** 0

# MOE 2024.06 (io_trps.svl 2023.06)
