@<TRIPOS>MOLECULE
NONAME
44 46 1 0 0 
SMALL
USER_CHARGES


@<TRIPOS>ATOM
  1 O        0.4560     0.5200    -0.1970 O.2   1 <1>  -0.5700 
  2 C       -0.5530     1.1750    -0.2750 C.2   1 <1>   0.5690 
  3 N       -0.6180     2.5290    -0.1830 N.am  1 <1>  -0.4200 
  4 C       -1.9270     0.5800    -0.5140 C.3   1 <1>  -0.0190 
  5 C       -1.8900     2.9820    -0.3450 C.2   1 <1>   0.5690 
  6 C        0.5540     3.3910     0.0870 C.3   1 <1>   0.1400 
  7 C       -2.8500     1.8290    -0.5670 C.3   1 <1>  -0.0190 
  8 C       -2.2850    -0.4940     0.5300 C.3   1 <1>  -0.0220 
  9 O       -2.2300     4.1360    -0.3300 O.2   1 <1>  -0.5700 
 10 C        1.3820     3.5710    -1.1850 C.3   1 <1>  -0.0990 
 11 C       -4.0260     1.8550     0.4290 C.3   1 <1>  -0.0220 
 12 C       -3.7870    -0.6090     0.6960 C.2   1 <1>  -0.2880 
 13 C        2.6940     4.2300    -0.8400 C.2   1 <1>   0.5690 
 14 C       -4.5800     0.4620     0.6500 C.2   1 <1>  -0.2880 
 15 O        2.7390     5.4340    -0.8300 O.2   1 <1>  -0.5700 
 16 N        3.7440     3.4140    -0.5370 N.am  1 <1>  -0.5470 
 17 C        5.0760     3.6540    -0.1530 C.ar  1 <1>   0.1170 
 18 C        5.8720     2.5500     0.1730 C.ar  1 <1>   0.0820 
 19 C        5.6360     4.9250    -0.0850 C.ar  1 <1>  -0.1500 
 20 O        5.2870     1.3160     0.0930 O.3   1 <1>  -0.3630 
 21 C        7.1970     2.7330     0.5590 C.ar  1 <1>  -0.1500 
 22 C        6.9530     5.1020     0.2990 C.ar  1 <1>  -0.1500 
 23 C        5.9980     0.1430     0.4220 C.3   1 <1>   0.0400 
 24 C        7.7340     4.0070     0.6220 C.ar  1 <1>  -0.1500 
 25 H       -1.9260     0.1190    -1.4860 H     1 <1>   0.0800 
 26 H        1.1540     2.9280     0.8530 H     1 <1>   0.0800 
 27 H        0.2290     4.3520     0.4510 H     1 <1>   0.0800 
 28 H       -3.2490     1.9150    -1.5610 H     1 <1>   0.0800 
 29 H       -1.8540    -0.2500     1.4860 H     1 <1>   0.0800 
 30 H       -1.8740    -1.4380     0.2160 H     1 <1>   0.0800 
 31 H        0.8480     4.1940    -1.8800 H     1 <1>   0.0800 
 32 H        1.5780     2.6210    -1.6480 H     1 <1>   0.0800 
 33 H       -4.7950     2.5030     0.0450 H     1 <1>   0.0800 
 34 H       -3.7080     2.2500     1.3790 H     1 <1>   0.0800 
 35 H       -4.1410    -1.6120     0.8760 H     1 <1>   0.1500 
 36 H       -5.6490     0.4250     0.7880 H     1 <1>   0.1500 
 37 H        3.5480     2.4090    -0.5580 H     1 <1>   0.3700 
 38 H        5.0500     5.7900    -0.3330 H     1 <1>   0.1500 
 39 H        7.8270     1.9030     0.8150 H     1 <1>   0.1500 
 40 H        7.3680     6.0940     0.3460 H     1 <1>   0.1500 
 41 H        5.3370    -0.6960     0.2960 H     1 <1>   0.0800 
 42 H        6.3170     0.2030     1.4480 H     1 <1>   0.0800 
 43 H        6.8400     0.0460    -0.2400 H     1 <1>   0.0800 
 44 H        8.7580     4.1470     0.9210 H     1 <1>   0.1500 
@<TRIPOS>BOND
  1   1   2  2   
  2   2   3  am  
  3   2   4  1   
  4   3   5  am  
  5   3   6  1   
  6   4   7  1   
  7   4   8  1   
  8   4  25  1   
  9   5   7  1   
 10   5   9  2   
 11   6  10  1   
 12   6  26  1   
 13   6  27  1   
 14   7  11  1   
 15   7  28  1   
 16   8  12  1   
 17   8  29  1   
 18   8  30  1   
 19  10  13  1   
 20  10  31  1   
 21  10  32  1   
 22  11  14  1   
 23  11  33  1   
 24  11  34  1   
 25  12  14  2   
 26  12  35  1   
 27  13  15  2   
 28  13  16  am  
 29  14  36  1   
 30  16  17  1   
 31  16  37  1   
 32  17  18  ar  
 33  17  19  ar  
 34  18  20  1   
 35  18  21  ar  
 36  19  22  ar  
 37  19  38  1   
 38  20  23  1   
 39  21  24  ar  
 40  21  39  1   
 41  22  24  ar  
 42  22  40  1   
 43  23  41  1   
 44  23  42  1   
 45  23  43  1   
 46  24  44  1   
@<TRIPOS>SUBSTRUCTURE
  1 ****   6 GROUP 4 **** **** 0

# MOE 2024.06 (io_trps.svl 2023.06)
