@<TRIPOS>MOLECULE
NONAME
41 41 1 0 0 
SMALL
USER_CHARGES


@<TRIPOS>ATOM
  1 O       -0.6680    -1.0650    -1.8770 O.2   1 <1>  -0.5700 
  2 C       -0.2800    -1.3550    -0.7660 C.2   1 <1>   0.6900 
  3 N        0.9920    -1.8050    -0.6520 N.am  1 <1>  -0.4900 
  4 N       -1.0650    -1.2410     0.3300 N.am  1 <1>  -0.7300 
  5 C        1.7050    -2.1790     0.4470 C.2   1 <1>   0.5690 
  6 C       -2.4430    -0.7180     0.4430 C.3   1 <1>   0.2200 
  7 O        1.2480    -2.1720     1.5630 O.2   1 <1>  -0.5700 
  8 C        3.1400    -2.6310     0.2410 C.3   1 <1>  -0.0990 
  9 C       -3.4060    -1.4970    -0.4670 C.3   1 <1>  -0.0170 
 10 C       -2.4290     0.7850     0.1600 C.3   1 <1>  -0.2400 
 11 C        4.0700    -1.5190    -0.2840 C.3   1 <1>  -0.0800 
 12 C       -4.8610    -1.1620    -0.1640 C.ar  1 <1>  -0.1440 
 13 C        5.4770    -2.0800    -0.5220 C.3   1 <1>  -0.2400 
 14 C        4.1440    -0.3400     0.6950 C.3   1 <1>  -0.2400 
 15 C       -5.5630    -0.2820    -0.9720 C.ar  1 <1>  -0.1500 
 16 C       -5.4950    -1.7350     0.9270 C.ar  1 <1>  -0.1500 
 17 C       -6.8840     0.0250    -0.6920 C.ar  1 <1>  -0.1500 
 18 C       -6.8160    -1.4300     1.2090 C.ar  1 <1>  -0.1500 
 19 C       -7.5110    -0.5490     0.4000 C.ar  1 <1>  -0.1500 
 20 H        1.4570    -1.8320    -1.5510 H     1 <1>   0.3700 
 21 H       -0.6050    -1.4840     1.2160 H     1 <1>   0.3700 
 22 H       -2.7600    -0.8650     1.4620 H     1 <1>   0.0800 
 23 H        3.1360    -3.4560    -0.4470 H     1 <1>   0.0800 
 24 H        3.5170    -2.9970     1.1790 H     1 <1>   0.0800 
 25 H       -3.2580    -2.5520    -0.3180 H     1 <1>   0.0800 
 26 H       -3.1960    -1.2780    -1.4990 H     1 <1>   0.0800 
 27 H       -2.1610     0.9740    -0.8640 H     1 <1>   0.0800 
 28 H       -1.7280     1.2770     0.8090 H     1 <1>   0.0800 
 29 H       -3.4040     1.2010     0.3400 H     1 <1>   0.0800 
 30 H        3.6930    -1.1550    -1.2260 H     1 <1>   0.0800 
 31 H        5.9010    -2.4460     0.3970 H     1 <1>   0.0800 
 32 H        6.1230    -1.3140    -0.9140 H     1 <1>   0.0800 
 33 H        5.4470    -2.8880    -1.2310 H     1 <1>   0.0800 
 34 H        4.5010    -0.6670     1.6570 H     1 <1>   0.0800 
 35 H        3.1770     0.1120     0.8280 H     1 <1>   0.0800 
 36 H        4.8140     0.4150     0.3220 H     1 <1>   0.0800 
 37 H       -5.0830     0.1700    -1.8230 H     1 <1>   0.1500 
 38 H       -4.9650    -2.4230     1.5620 H     1 <1>   0.1500 
 39 H       -7.4210     0.7090    -1.3240 H     1 <1>   0.1500 
 40 H       -7.3010    -1.8780     2.0580 H     1 <1>   0.1500 
 41 H       -8.5370    -0.3110     0.6180 H     1 <1>   0.1500 
@<TRIPOS>BOND
  1   1   2  2   
  2   2   3  am  
  3   2   4  am  
  4   3   5  am  
  5   3  20  1   
  6   4   6  1   
  7   4  21  1   
  8   5   7  2   
  9   5   8  1   
 10   6   9  1   
 11   6  10  1   
 12   6  22  1   
 13   8  11  1   
 14   8  23  1   
 15   8  24  1   
 16   9  12  1   
 17   9  25  1   
 18   9  26  1   
 19  10  27  1   
 20  10  28  1   
 21  10  29  1   
 22  11  13  1   
 23  11  14  1   
 24  11  30  1   
 25  12  15  ar  
 26  12  16  ar  
 27  13  31  1   
 28  13  32  1   
 29  13  33  1   
 30  14  34  1   
 31  14  35  1   
 32  14  36  1   
 33  15  17  ar  
 34  15  37  1   
 35  16  18  ar  
 36  16  38  1   
 37  17  19  ar  
 38  17  39  1   
 39  18  19  ar  
 40  18  40  1   
 41  19  41  1   
@<TRIPOS>SUBSTRUCTURE
  1 ****   4 GROUP 4 **** **** 0

# MOE 2024.06 (io_trps.svl 2023.06)
