@<TRIPOS>MOLECULE
NONAME
42 43 1 0 0 
SMALL
USER_CHARGES


@<TRIPOS>ATOM
  1 BR      -0.0290    -0.0680     1.9390 Br    1 <1>  -0.1110 
  2 C        0.8160    -1.4630     0.9170 C.ar  1 <1>   0.1110 
  3 C        0.0270    -2.4700     0.3940 C.ar  1 <1>  -0.1500 
  4 C        2.1840    -1.4170     0.7290 C.ar  1 <1>  -0.1500 
  5 C        0.6330    -3.4810    -0.3390 C.ar  1 <1>  -0.1440 
  6 C        2.7840    -2.4240    -0.0070 C.ar  1 <1>  -0.1500 
  7 C        2.0120    -3.4580    -0.5290 C.ar  1 <1>   0.0830 
  8 C       -0.1930    -4.6000    -0.9320 C.3   1 <1>   0.4870 
  9 O        2.5790    -4.4540    -1.2490 O.3   1 <1>  -0.3630 
 10 N       -0.3500    -5.6380     0.1050 N.4   1 <1>  -0.9060 
 11 C        3.6880    -5.1640    -0.7010 C.3   1 <1>   0.1810 
 12 C       -1.2070    -6.7720    -0.2640 C.3   1 <1>   0.4230 
 13 C        3.2630    -6.5570    -0.2400 C.2   1 <1>   0.5690 
 14 C       -2.6730    -6.3230    -0.3540 C.3   1 <1>  -0.1600 
 15 C       -1.0300    -7.8660     0.7930 C.3   1 <1>  -0.1600 
 16 O        2.1890    -6.7160     0.2940 O.2   1 <1>  -0.5700 
 17 N        4.0760    -7.6160    -0.4250 N.am  1 <1>  -0.8000 
 18 C       -3.6020    -7.5150    -0.6290 C.3   1 <1>  -0.1600 
 19 C       -1.9530    -9.0620     0.5170 C.3   1 <1>  -0.1600 
 20 C       -3.4180    -8.6180     0.4200 C.3   1 <1>  -0.1600 
 21 H       -1.0360    -2.4420     0.5650 H     1 <1>   0.1500 
 22 H        2.7610    -0.6090     1.1450 H     1 <1>   0.1500 
 23 H        3.8450    -2.3910    -0.1800 H     1 <1>   0.1500 
 24 H        0.3060    -5.0080    -1.7960 H     1 <1>   0.0800 
 25 H       -1.1540    -4.2170    -1.2330 H     1 <1>   0.0800 
 26 H       -0.6580    -5.2160     0.9820 H     1 <1>   0.4500 
 27 H        0.6020    -6.0110     0.2910 H     1 <1>   0.4500 
 28 H        4.0970    -4.6250     0.1330 H     1 <1>   0.0800 
 29 H        4.4320    -5.2420    -1.4720 H     1 <1>   0.0800 
 30 H       -0.8970    -7.1670    -1.2190 H     1 <1>   0.0800 
 31 H       -2.8010    -5.6100    -1.1480 H     1 <1>   0.0800 
 32 H       -2.9710    -5.8650     0.5730 H     1 <1>   0.0800 
 33 H       -1.2590    -7.4750     1.7700 H     1 <1>   0.0800 
 34 H       -0.0110    -8.2130     0.7940 H     1 <1>   0.0800 
 35 H        3.7940    -8.5410    -0.0930 H     1 <1>   0.3700 
 36 H        4.9970    -7.5760    -0.8660 H     1 <1>   0.3700 
 37 H       -3.3960    -7.9180    -1.6070 H     1 <1>   0.0800 
 38 H       -4.6270    -7.1850    -0.6240 H     1 <1>   0.0800 
 39 H       -1.8510    -9.7880     1.3060 H     1 <1>   0.0800 
 40 H       -1.6630    -9.5390    -0.4040 H     1 <1>   0.0800 
 41 H       -4.0330    -9.4650     0.1620 H     1 <1>   0.0800 
 42 H       -3.7490    -8.2600     1.3810 H     1 <1>   0.0800 
@<TRIPOS>BOND
  1   1   2  1   
  2   2   3  ar  
  3   2   4  ar  
  4   3   5  ar  
  5   3  21  1   
  6   4   6  ar  
  7   4  22  1   
  8   5   7  ar  
  9   5   8  1   
 10   6   7  ar  
 11   6  23  1   
 12   7   9  1   
 13   8  10  1   
 14   8  24  1   
 15   8  25  1   
 16   9  11  1   
 17  10  12  1   
 18  10  26  1   
 19  10  27  1   
 20  11  13  1   
 21  11  28  1   
 22  11  29  1   
 23  12  14  1   
 24  12  15  1   
 25  12  30  1   
 26  13  16  2   
 27  13  17  am  
 28  14  18  1   
 29  14  31  1   
 30  14  32  1   
 31  15  19  1   
 32  15  33  1   
 33  15  34  1   
 34  17  35  1   
 35  17  36  1   
 36  18  20  1   
 37  18  37  1   
 38  18  38  1   
 39  19  20  1   
 40  19  39  1   
 41  19  40  1   
 42  20  41  1   
 43  20  42  1   
@<TRIPOS>SUBSTRUCTURE
  1 ****  10 GROUP 4 **** **** 0

# MOE 2024.06 (io_trps.svl 2023.06)
