@<TRIPOS>MOLECULE
NONAME
41 42 1 0 0 
SMALL
USER_CHARGES


@<TRIPOS>ATOM
  1 BR       0.1190    -0.4850    -1.5590 Br    1 <1>  -0.1110 
  2 C       -1.6630    -0.7670    -0.8940 C.ar  1 <1>   0.1110 
  3 C       -2.7250    -0.6820    -1.7730 C.ar  1 <1>  -0.1500 
  4 C       -1.8400    -1.0460     0.4460 C.ar  1 <1>  -0.1500 
  5 C       -4.0040    -0.8850    -1.2830 C.ar  1 <1>  -0.1500 
  6 C       -3.1270    -1.2460     0.9160 C.ar  1 <1>  -0.1500 
  7 C       -4.2280    -1.1690     0.0630 C.ar  1 <1>  -0.0090 
  8 S       -5.9170    -1.4120     0.6820 S.o2  1 <1>   1.4470 
  9 O       -5.9130    -1.6760     2.1050 O.2   1 <1>  -0.6500 
 10 O       -6.6070    -2.3380    -0.1890 O.2   1 <1>  -0.6500 
 11 N       -6.6620     0.0960     0.4780 N.am  1 <1>  -0.8490 
 12 C       -8.1360    -0.0410     0.6330 C.3   1 <1>   0.2570 
 13 C       -6.1140     1.1460     1.3480 C.3   1 <1>   0.1960 
 14 C       -9.0490     1.1530     0.2690 C.2   1 <1>   0.5690 
 15 C       -5.2650     2.0930     0.5060 C.3   1 <1>  -0.2400 
 16 O       -8.5600     2.2210    -0.0270 O.2   1 <1>  -0.5700 
 17 N      -10.4170     0.9980     0.2950 N.am  1 <1>  -0.6600 
 18 C      -11.1570    -0.2600     0.6280 C.3   1 <1>   0.1400 
 19 C      -11.3370     2.1180    -0.0780 C.3   1 <1>   0.1400 
 20 C      -12.1780    -0.5910    -0.4730 C.3   1 <1>   0.1200 
 21 C      -12.3540     1.6550    -1.1330 C.3   1 <1>   0.1200 
 22 O      -13.0210     0.5010    -0.7040 O.3   1 <1>  -0.5600 
 23 H       -2.5550    -0.4630    -2.8120 H     1 <1>   0.1500 
 24 H       -0.9900    -1.1070     1.1030 H     1 <1>   0.1500 
 25 H       -4.8470    -0.8210    -1.9510 H     1 <1>   0.1500 
 26 H       -3.2810    -1.4660     1.9600 H     1 <1>   0.1500 
 27 H       -8.3510    -0.3210     1.6490 H     1 <1>   0.0800 
 28 H       -8.4610    -0.8460     0.0010 H     1 <1>   0.0800 
 29 H       -5.5170     0.7320     2.1430 H     1 <1>   0.0800 
 30 H       -6.9040     1.7170     1.8070 H     1 <1>   0.0800 
 31 H       -5.8560     2.5010    -0.2950 H     1 <1>   0.0800 
 32 H       -4.4100     1.5910     0.0980 H     1 <1>   0.0800 
 33 H       -4.9200     2.9060     1.1180 H     1 <1>   0.0800 
 34 H      -11.6820    -0.1230     1.5580 H     1 <1>   0.0800 
 35 H      -10.4900    -1.0930     0.7460 H     1 <1>   0.0800 
 36 H      -10.7840     2.9550    -0.4680 H     1 <1>   0.0800 
 37 H      -11.8630     2.4520     0.7990 H     1 <1>   0.0800 
 38 H      -12.7930    -1.4210    -0.1740 H     1 <1>   0.0800 
 39 H      -11.6790    -0.8430    -1.3930 H     1 <1>   0.0800 
 40 H      -11.8610     1.4440    -2.0660 H     1 <1>   0.0800 
 41 H      -13.0930     2.4200    -1.2970 H     1 <1>   0.0800 
@<TRIPOS>BOND
  1   1   2  1   
  2   2   3  ar  
  3   2   4  ar  
  4   3   5  ar  
  5   3  23  1   
  6   4   6  ar  
  7   4  24  1   
  8   5   7  ar  
  9   5  25  1   
 10   6   7  ar  
 11   6  26  1   
 12   7   8  1   
 13   8   9  2   
 14   8  10  2   
 15   8  11  am  
 16  11  12  1   
 17  11  13  1   
 18  12  14  1   
 19  12  27  1   
 20  12  28  1   
 21  13  15  1   
 22  13  29  1   
 23  13  30  1   
 24  14  16  2   
 25  14  17  am  
 26  15  31  1   
 27  15  32  1   
 28  15  33  1   
 29  17  18  1   
 30  17  19  1   
 31  18  20  1   
 32  18  34  1   
 33  18  35  1   
 34  19  21  1   
 35  19  36  1   
 36  19  37  1   
 37  20  22  1   
 38  20  38  1   
 39  20  39  1   
 40  21  22  1   
 41  21  40  1   
 42  21  41  1   
@<TRIPOS>SUBSTRUCTURE
  1 ****  11 GROUP 4 **** **** 0

# MOE 2024.06 (io_trps.svl 2023.06)
