@<TRIPOS>MOLECULE
NONAME
28 29 1 0 0 
SMALL
USER_CHARGES


@<TRIPOS>ATOM
  1 S       -0.0560    -0.7100    -0.7910 S.3   1 <1>  -0.4600 
  2 C        1.3890     0.3600    -1.0180 C.3   1 <1>   0.0700 
  3 C        0.6920    -2.3570    -0.6940 C.3   1 <1>   0.0700 
  4 C        2.3960     0.0810     0.1050 C.3   1 <1>   0.3430 
  5 C        1.7750    -2.3520     0.3930 C.3   1 <1>   0.3430 
  6 N        2.8570    -1.3500     0.1180 N.4   1 <1>  -0.9590 
  7 C        4.0430    -1.5250     1.0110 C.3   1 <1>   0.4860 
  8 C        5.2760    -0.9440     0.3210 C.ar  1 <1>   0.1670 
  9 N        5.3210    -1.0710    -1.0030 N.ar  1 <1>  -0.6200 
 10 C        6.2600    -0.3220     1.0760 C.ar  1 <1>  -0.1500 
 11 C        6.3970    -0.5660    -1.5910 C.ar  1 <1>   0.1600 
 12 C        7.3680     0.2030     0.4470 C.ar  1 <1>  -0.1500 
 13 C        7.4290     0.0700    -0.9230 C.ar  1 <1>  -0.1500 
 14 H        1.0380     1.3760    -0.9820 H     1 <1>   0.0800 
 15 H        1.8050     0.1560    -1.9880 H     1 <1>   0.0800 
 16 H        1.0960    -2.5950    -1.6620 H     1 <1>   0.0800 
 17 H       -0.0980    -3.0480    -0.4540 H     1 <1>   0.0800 
 18 H        1.9390     0.3260     1.0500 H     1 <1>   0.0800 
 19 H        3.2450     0.7300    -0.0340 H     1 <1>   0.0800 
 20 H        2.2040    -3.3390     0.4500 H     1 <1>   0.0800 
 21 H        1.3120    -2.1350     1.3420 H     1 <1>   0.0800 
 22 H        3.2690    -1.5270    -0.8180 H     1 <1>   0.4500 
 23 H        4.2200    -2.5750     1.1780 H     1 <1>   0.0800 
 24 H        3.8800    -1.0460     1.9610 H     1 <1>   0.0800 
 25 H        6.1760    -0.2430     2.1460 H     1 <1>   0.1500 
 26 H        6.4660    -0.6630    -2.6620 H     1 <1>   0.1500 
 27 H        8.1540     0.6930     0.9980 H     1 <1>   0.1500 
 28 H        8.2710     0.4560    -1.4710 H     1 <1>   0.1500 
@<TRIPOS>BOND
  1   1   2  1   
  2   1   3  1   
  3   2   4  1   
  4   2  14  1   
  5   2  15  1   
  6   3   5  1   
  7   3  16  1   
  8   3  17  1   
  9   4   6  1   
 10   4  18  1   
 11   4  19  1   
 12   5   6  1   
 13   5  20  1   
 14   5  21  1   
 15   6   7  1   
 16   6  22  1   
 17   7   8  1   
 18   7  23  1   
 19   7  24  1   
 20   8   9  ar  
 21   8  10  ar  
 22   9  11  ar  
 23  10  12  ar  
 24  10  25  1   
 25  11  13  ar  
 26  11  26  1   
 27  12  13  ar  
 28  12  27  1   
 29  13  28  1   
@<TRIPOS>SUBSTRUCTURE
  1 ****   6 GROUP 4 **** **** 0

# MOE 2024.06 (io_trps.svl 2023.06)
