@<TRIPOS>MOLECULE
NONAME
47 50 1 0 0 
SMALL
USER_CHARGES


@<TRIPOS>ATOM
  1 O        0.6360     0.6000    -2.0600 O.2   1 <1>  -0.5700 
  2 C        1.0060     1.5560    -1.3860 C.2   1 <1>   0.7160 
  3 N        2.3230     1.6620    -0.9530 N.am  1 <1>  -0.2290 
  4 C        0.1120     2.5840    -1.0100 C.2   1 <1>  -0.0860 
  5 C        2.6930     2.7640    -0.1590 C.2   1 <1>   0.4960 
  6 C        3.2760     0.7000    -1.2880 C.2   1 <1>  -0.0410 
  7 C        0.5720     3.6140    -0.2350 C.2   1 <1>  -0.0260 
  8 C       -1.2410     2.8430    -1.2500 C.2   1 <1>  -0.1500 
  9 N        1.8510     3.7100     0.1960 N.2   1 <1>  -0.5760 
 10 C        4.0620     2.8340     0.2720 C.2   1 <1>  -0.1240 
 11 C        4.5610     0.7860    -0.8710 C.2   1 <1>  -0.1500 
 12 N       -0.4440     4.4870     0.0070 N.pl3 1 <1>   0.0480 
 13 C       -1.5870     4.0080    -0.6150 C.2   1 <1>  -0.2370 
 14 C        4.9650     1.8770    -0.0720 C.2   1 <1>  -0.1500 
 15 C        4.5060     4.0110     1.1370 C.3   1 <1>  -0.1020 
 16 C       -0.2980     5.7430     0.7760 C.3   1 <1>   0.0160 
 17 C       -2.8750     4.6500    -0.5880 C.2   1 <1>   0.7150 
 18 O       -3.0270     5.7950    -0.2010 O.2   1 <1>  -0.5700 
 19 N       -4.0100     3.9650    -0.9570 N.am  1 <1>  -0.6600 
 20 C       -4.3670     2.6970    -0.2590 C.3   1 <1>   0.1400 
 21 C       -5.1840     4.7230    -1.4780 C.3   1 <1>   0.1400 
 22 C       -5.3910     2.9740     0.8640 C.3   1 <1>   0.3430 
 23 C       -6.1720     5.0150    -0.3340 C.3   1 <1>   0.3430 
 24 N       -6.5920     3.7530     0.3800 N.4   1 <1>  -0.9590 
 25 C       -7.5140     4.0700     1.5130 C.3   1 <1>   0.2630 
 26 H        2.9440    -0.1250    -1.9000 H     1 <1>   0.1500 
 27 H       -1.8680     2.2070    -1.8520 H     1 <1>   0.1500 
 28 H        5.2920     0.0410    -1.1320 H     1 <1>   0.1500 
 29 H        5.9940     1.9180     0.2450 H     1 <1>   0.1500 
 30 H        3.9370     4.0310     2.0490 H     1 <1>   0.0800 
 31 H        4.3420     4.9340     0.6100 H     1 <1>   0.0800 
 32 H        5.5500     3.9410     1.3870 H     1 <1>   0.0800 
 33 H        0.6980     5.8160     1.1750 H     1 <1>   0.0800 
 34 H       -1.0050     5.7520     1.5840 H     1 <1>   0.0800 
 35 H       -0.4810     6.5790     0.1270 H     1 <1>   0.0800 
 36 H       -3.4890     2.2500     0.1740 H     1 <1>   0.0800 
 37 H       -4.7740     1.9990    -0.9700 H     1 <1>   0.0800 
 38 H       -5.6670     4.1540    -2.2530 H     1 <1>   0.0800 
 39 H       -4.8550     5.6530    -1.9130 H     1 <1>   0.0800 
 40 H       -4.8930     3.5330     1.6390 H     1 <1>   0.0800 
 41 H       -5.7100     2.0360     1.2890 H     1 <1>   0.0800 
 42 H       -7.0370     5.5190    -0.7340 H     1 <1>   0.0800 
 43 H       -5.6900     5.6850     0.3600 H     1 <1>   0.0800 
 44 H       -7.0940     3.1640    -0.3010 H     1 <1>   0.4500 
 45 H       -7.0140     4.6910     2.2390 H     1 <1>   0.0800 
 46 H       -7.8380     3.1640     1.9990 H     1 <1>   0.0800 
 47 H       -8.3840     4.5950     1.1520 H     1 <1>   0.0800 
@<TRIPOS>BOND
  1   1   2  2   
  2   2   3  am  
  3   2   4  1   
  4   3   5  1   
  5   3   6  1   
  6   4   7  2   
  7   4   8  1   
  8   5   9  2   
  9   5  10  1   
 10   6  11  2   
 11   6  26  1   
 12   7   9  1   
 13   7  12  1   
 14   8  13  2   
 15   8  27  1   
 16  10  14  2   
 17  10  15  1   
 18  11  14  1   
 19  11  28  1   
 20  12  13  1   
 21  12  16  1   
 22  13  17  1   
 23  14  29  1   
 24  15  30  1   
 25  15  31  1   
 26  15  32  1   
 27  16  33  1   
 28  16  34  1   
 29  16  35  1   
 30  17  18  2   
 31  17  19  am  
 32  19  20  1   
 33  19  21  1   
 34  20  22  1   
 35  20  36  1   
 36  20  37  1   
 37  21  23  1   
 38  21  38  1   
 39  21  39  1   
 40  22  24  1   
 41  22  40  1   
 42  22  41  1   
 43  23  24  1   
 44  23  42  1   
 45  23  43  1   
 46  24  25  1   
 47  24  44  1   
 48  25  45  1   
 49  25  46  1   
 50  25  47  1   
@<TRIPOS>SUBSTRUCTURE
  1 ****   8 GROUP 4 **** **** 0

# MOE 2024.06 (io_trps.svl 2023.06)
