@<TRIPOS>MOLECULE
NONAME
40 41 1 0 0 
SMALL
USER_CHARGES


@<TRIPOS>ATOM
  1 CL      -3.0510     0.8040     4.1750 Cl    1 <1>  -0.1770 
  2 C       -3.3260     1.1590     2.4840 C.ar  1 <1>   0.1770 
  3 C       -2.3340     1.7280     1.7030 C.ar  1 <1>   0.1900 
  4 C       -4.5540     0.8650     1.9250 C.ar  1 <1>  -0.1500 
  5 F       -1.1680     2.0090     2.2270 F     1 <1>  -0.1900 
  6 C       -2.5430     2.0120     0.3660 C.ar  1 <1>  -0.1500 
  7 C       -4.7860     1.1460     0.5850 C.ar  1 <1>   0.0820 
  8 C       -3.7770     1.7180    -0.1950 C.ar  1 <1>  -0.1500 
  9 O       -6.0180     0.8350     0.1110 O.3   1 <1>  -0.3630 
 10 C       -6.3690     1.0650    -1.2480 C.3   1 <1>   0.1810 
 11 C       -7.7940     0.6000    -1.5520 C.2   1 <1>   0.5690 
 12 O       -7.9550    -0.0260    -2.5720 O.2   1 <1>  -0.5700 
 13 N       -8.8690     0.8890    -0.7360 N.am  1 <1>  -0.6600 
 14 C       -8.8220     1.8010     0.4510 C.3   1 <1>   0.1400 
 15 C      -10.1840     0.2040    -0.9480 C.3   1 <1>   0.1400 
 16 C      -10.0230     2.7700     0.4680 C.3   1 <1>   0.3430 
 17 C      -11.3480     1.2080    -0.9380 C.3   1 <1>   0.3430 
 18 N      -11.3390     2.0620     0.3020 N.4   1 <1>  -0.9590 
 19 C      -12.4720     3.0120     0.3340 C.3   1 <1>   0.4810 
 20 C      -13.7140     2.2080     0.6360 C.2   1 <1>  -0.2880 
 21 C      -14.3370     2.1680     1.8190 C.2   1 <1>  -0.3000 
 22 H       -5.3240     0.4180     2.5260 H     1 <1>   0.1500 
 23 H       -1.7540     2.4510    -0.2190 H     1 <1>   0.1500 
 24 H       -3.9260     1.9400    -1.2350 H     1 <1>   0.1500 
 25 H       -5.6830     0.5140    -1.8660 H     1 <1>   0.0800 
 26 H       -6.2800     2.1150    -1.4540 H     1 <1>   0.0800 
 27 H       -7.9200     2.3860     0.4430 H     1 <1>   0.0800 
 28 H       -8.8180     1.2080     1.3490 H     1 <1>   0.0800 
 29 H      -10.3290    -0.5280    -0.1720 H     1 <1>   0.0800 
 30 H      -10.1940    -0.3230    -1.8880 H     1 <1>   0.0800 
 31 H       -9.8940     3.4790    -0.3340 H     1 <1>   0.0800 
 32 H      -10.0150     3.3180     1.3960 H     1 <1>   0.0800 
 33 H      -12.2760     0.6640    -1.0050 H     1 <1>   0.0800 
 34 H      -11.2670     1.8320    -1.8130 H     1 <1>   0.0800 
 35 H      -11.4780     1.4380     1.1080 H     1 <1>   0.4500 
 36 H      -12.5690     3.5390    -0.6020 H     1 <1>   0.0800 
 37 H      -12.3220     3.7310     1.1240 H     1 <1>   0.0800 
 38 H      -14.0780     1.6540    -0.2140 H     1 <1>   0.1500 
 39 H      -15.2290     1.5900     2.0070 H     1 <1>   0.1500 
 40 H      -14.0290     2.7040     2.7020 H     1 <1>   0.1500 
@<TRIPOS>BOND
  1   1   2  1   
  2   2   3  ar  
  3   2   4  ar  
  4   3   5  1   
  5   3   6  ar  
  6   4   7  ar  
  7   4  22  1   
  8   6   8  ar  
  9   6  23  1   
 10   7   8  ar  
 11   7   9  1   
 12   8  24  1   
 13   9  10  1   
 14  10  11  1   
 15  10  25  1   
 16  10  26  1   
 17  11  12  2   
 18  11  13  am  
 19  13  14  1   
 20  13  15  1   
 21  14  16  1   
 22  14  27  1   
 23  14  28  1   
 24  15  17  1   
 25  15  29  1   
 26  15  30  1   
 27  16  18  1   
 28  16  31  1   
 29  16  32  1   
 30  17  18  1   
 31  17  33  1   
 32  17  34  1   
 33  18  19  1   
 34  18  35  1   
 35  19  20  1   
 36  19  36  1   
 37  19  37  1   
 38  20  21  2   
 39  20  38  1   
 40  21  39  1   
 41  21  40  1   
@<TRIPOS>SUBSTRUCTURE
  1 ****  14 GROUP 4 **** **** 0

# MOE 2024.06 (io_trps.svl 2023.06)
