@<TRIPOS>MOLECULE
NONAME
31 32 1 0 0 
SMALL
USER_CHARGES


@<TRIPOS>ATOM
  1 O        0.5040     0.1110    -1.0850 O.3   1 <1>  -0.2800 
  2 C        1.7640     0.3080    -0.7330 C.2   1 <1>  -0.0400 
  3 C       -0.0240    -0.7490    -0.2380 C.2   1 <1>  -0.0100 
  4 C        2.0610    -0.4450     0.3500 C.2   1 <1>  -0.1500 
  5 C        2.6270     1.2640    -1.5620 C.3   1 <1>   0.5700 
  6 C        0.8870    -1.1340     0.6780 C.2   1 <1>  -0.1500 
  7 N        3.9460     1.5550    -0.8800 N.pl3 1 <1>  -0.4870 
  8 C        1.8710     2.5010    -1.9510 C.1   1 <1>   0.3570 
  9 N        4.9510     0.6280    -0.9370 N.2   1 <1>  -0.5030 
 10 C        4.2280     2.6130     0.1370 C.3   1 <1>   0.2700 
 11 N        1.3070     3.4450    -2.2570 N.1   1 <1>  -0.5570 
 12 C        5.8290     0.8920    -0.0770 C.2   1 <1>   0.3280 
 13 C        5.5330     2.1010     0.7700 C.3   1 <1>  -0.0990 
 14 C        4.4790     3.9550    -0.5600 C.3   1 <1>  -0.2400 
 15 C        3.1170     2.7400     1.1860 C.3   1 <1>  -0.2400 
 16 C        7.0970     0.1050     0.1630 C.3   1 <1>  -0.1790 
 17 H       -1.0550    -1.0320    -0.3610 H     1 <1>   0.1500 
 18 H        3.0010    -0.5250     0.8680 H     1 <1>   0.1500 
 19 H        2.8560     0.7530    -2.4780 H     1 <1>   0.0800 
 20 H        0.7730    -1.8220     1.4970 H     1 <1>   0.1500 
 21 H        5.3970     1.8080     1.7940 H     1 <1>   0.0800 
 22 H        6.3300     2.8180     0.7040 H     1 <1>   0.0800 
 23 H        5.1970     3.8370    -1.3520 H     1 <1>   0.0800 
 24 H        4.8630     4.6710     0.1440 H     1 <1>   0.0800 
 25 H        3.5730     4.3620    -0.9680 H     1 <1>   0.0800 
 26 H        2.9480     1.8010     1.6790 H     1 <1>   0.0800 
 27 H        2.1990     3.0770     0.7430 H     1 <1>   0.0800 
 28 H        3.4020     3.4600     1.9310 H     1 <1>   0.0800 
 29 H        7.9530     0.7350     0.0050 H     1 <1>   0.0800 
 30 H        7.1440    -0.7230    -0.5200 H     1 <1>   0.0800 
 31 H        7.1110    -0.2710     1.1690 H     1 <1>   0.0800 
@<TRIPOS>BOND
  1   1   2  1   
  2   1   3  1   
  3   2   4  2   
  4   2   5  1   
  5   3   6  2   
  6   3  17  1   
  7   4   6  1   
  8   4  18  1   
  9   5   7  1   
 10   5   8  1   
 11   5  19  1   
 12   6  20  1   
 13   7   9  1   
 14   7  10  1   
 15   8  11  3   
 16   9  12  2   
 17  10  13  1   
 18  10  14  1   
 19  10  15  1   
 20  12  13  1   
 21  12  16  1   
 22  13  21  1   
 23  13  22  1   
 24  14  23  1   
 25  14  24  1   
 26  14  25  1   
 27  15  26  1   
 28  15  27  1   
 29  15  28  1   
 30  16  29  1   
 31  16  30  1   
 32  16  31  1   
@<TRIPOS>SUBSTRUCTURE
  1 ****   7 GROUP 4 **** **** 0

# MOE 2024.06 (io_trps.svl 2023.06)
