@<TRIPOS>MOLECULE
NONAME
35 36 1 0 0 
SMALL
USER_CHARGES


@<TRIPOS>ATOM
  1 BR       0.4370    -1.5890    -1.3820 Br    1 <1>  -0.1110 
  2 C        2.1090    -0.8180    -0.8150 C.ar  1 <1>   0.1110 
  3 C        3.0420    -1.6280    -0.1970 C.ar  1 <1>  -0.1500 
  4 C        2.3350     0.5260    -1.0380 C.ar  1 <1>  -0.1500 
  5 C        4.2410    -1.0660     0.2070 C.ar  1 <1>  -0.1500 
  6 C        3.5380     1.0720    -0.6270 C.ar  1 <1>  -0.1500 
  7 C        4.5070     0.2860    -0.0030 C.ar  1 <1>   0.1170 
  8 N        5.7350     0.8000     0.4400 N.am  1 <1>  -0.5470 
  9 C        6.4550     1.8860     0.0400 C.2   1 <1>   0.6900 
 10 O        6.0930     2.6120    -0.8650 O.2   1 <1>  -0.5700 
 11 N        7.6220     2.1220     0.6810 N.am  1 <1>  -0.7300 
 12 C        8.6100     3.1460     0.2960 C.3   1 <1>   0.2200 
 13 C        9.8640     2.4200    -0.2480 C.3   1 <1>   0.2000 
 14 C        8.8600     4.0060     1.5390 C.3   1 <1>  -0.2400 
 15 O       10.3530     1.4980     0.6840 O.3   1 <1>  -0.5600 
 16 C       11.0680     3.2830    -0.6060 C.3   1 <1>  -0.1600 
 17 C       11.7100     1.2460     0.4740 C.3   1 <1>   0.1200 
 18 C       12.2050     2.2820    -0.5330 C.3   1 <1>  -0.1600 
 19 H        2.8320    -2.6710    -0.0390 H     1 <1>   0.1500 
 20 H        1.5880     1.1310    -1.5210 H     1 <1>   0.1500 
 21 H        4.9770    -1.6850     0.6860 H     1 <1>   0.1500 
 22 H        3.7210     2.1190    -0.7900 H     1 <1>   0.1500 
 23 H        6.1930     0.2600     1.1640 H     1 <1>   0.3700 
 24 H        8.0540     1.3860     1.2390 H     1 <1>   0.3700 
 25 H        8.2040     3.7700    -0.4820 H     1 <1>   0.0800 
 26 H        9.5770     1.8570    -1.1210 H     1 <1>   0.0800 
 27 H        9.3500     3.4310     2.3040 H     1 <1>   0.0800 
 28 H        7.9260     4.3790     1.9180 H     1 <1>   0.0800 
 29 H        9.4760     4.8510     1.2950 H     1 <1>   0.0800 
 30 H       11.2200     4.0540     0.1260 H     1 <1>   0.0800 
 31 H       10.9680     3.7290    -1.5800 H     1 <1>   0.0800 
 32 H       11.8210     0.2420     0.1010 H     1 <1>   0.0800 
 33 H       12.2130     1.3450     1.4200 H     1 <1>   0.0800 
 34 H       13.1300     2.7330    -0.2210 H     1 <1>   0.0800 
 35 H       12.3500     1.8070    -1.4880 H     1 <1>   0.0800 
@<TRIPOS>BOND
  1   1   2  1   
  2   2   3  ar  
  3   2   4  ar  
  4   3   5  ar  
  5   3  19  1   
  6   4   6  ar  
  7   4  20  1   
  8   5   7  ar  
  9   5  21  1   
 10   6   7  ar  
 11   6  22  1   
 12   7   8  1   
 13   8   9  am  
 14   8  23  1   
 15   9  10  2   
 16   9  11  am  
 17  11  12  1   
 18  11  24  1   
 19  12  13  1   
 20  12  14  1   
 21  12  25  1   
 22  13  15  1   
 23  13  16  1   
 24  13  26  1   
 25  14  27  1   
 26  14  28  1   
 27  14  29  1   
 28  15  17  1   
 29  16  18  1   
 30  16  30  1   
 31  16  31  1   
 32  17  18  1   
 33  17  32  1   
 34  17  33  1   
 35  18  34  1   
 36  18  35  1   
@<TRIPOS>SUBSTRUCTURE
  1 ****   9 GROUP 4 **** **** 0

# MOE 2024.06 (io_trps.svl 2023.06)
