@<TRIPOS>MOLECULE
NONAME
39 39 1 0 0 
SMALL
USER_CHARGES


@<TRIPOS>ATOM
  1 CL      -0.4850    -1.8850     3.2430 Cl    1 <1>  -0.1770 
  2 C       -1.8100    -2.0400     2.1220 C.ar  1 <1>   0.1770 
  3 C       -1.5760    -2.5330     0.8530 C.ar  1 <1>  -0.1500 
  4 C       -3.0810    -1.6670     2.5140 C.ar  1 <1>  -0.1500 
  5 C       -2.6340    -2.6530    -0.0310 C.ar  1 <1>  -0.1500 
  6 C       -4.1320    -1.7910     1.6220 C.ar  1 <1>  -0.1500 
  7 C       -3.9350    -2.2920     0.3290 C.ar  1 <1>   0.0860 
  8 C       -5.0290    -2.4330    -0.6180 C.2   1 <1>   0.5440 
  9 O       -4.8300    -2.4370    -1.8140 O.2   1 <1>  -0.5700 
 10 N       -6.3220    -2.5580    -0.2020 N.am  1 <1>  -0.7300 
 11 C       -7.5260    -2.7510    -1.1350 C.3   1 <1>   0.2200 
 12 P       -8.8010    -1.5050    -0.9640 P.3   1 <1>   1.2420 
 13 C       -8.1650    -4.1350    -0.9520 C.3   1 <1>   0.8700 
 14 O      -10.1480    -1.8730    -1.3830 O.2   1 <1>  -0.7000 
 15 O       -8.2700    -0.1880    -1.7200 O.3   1 <1>  -0.5510 
 16 O       -8.7220    -1.0720     0.5840 O.3   1 <1>  -0.5510 
 17 CL      -9.2900    -4.5740    -2.2270 Cl    1 <1>  -0.2900 
 18 CL      -8.9960    -4.3020     0.5900 Cl    1 <1>  -0.2900 
 19 CL      -6.9360    -5.3920    -0.9660 Cl    1 <1>  -0.2900 
 20 C       -7.0510     0.4080    -1.4460 C.3   1 <1>   0.1200 
 21 C       -9.6680    -0.2170     1.1260 C.3   1 <1>   0.1200 
 22 C       -7.0070     1.7310    -2.2010 C.3   1 <1>  -0.2400 
 23 C      -10.7890    -1.0510     1.7410 C.3   1 <1>  -0.2400 
 24 H       -0.5780    -2.8150     0.5660 H     1 <1>   0.1500 
 25 H       -3.2370    -1.2830     3.5070 H     1 <1>   0.1500 
 26 H       -2.4530    -3.0360    -1.0220 H     1 <1>   0.1500 
 27 H       -5.1130    -1.4860     1.9380 H     1 <1>   0.1500 
 28 H       -6.5370    -2.5490     0.8010 H     1 <1>   0.3700 
 29 H       -7.1730    -2.7400    -2.1490 H     1 <1>   0.0800 
 30 H       -6.2610    -0.2390    -1.7850 H     1 <1>   0.0800 
 31 H       -6.9680     0.5740    -0.3850 H     1 <1>   0.0800 
 32 H      -10.0390     0.4450     0.3600 H     1 <1>   0.0800 
 33 H       -9.1830     0.3660     1.8900 H     1 <1>   0.0800 
 34 H       -7.1000     1.5560    -3.2580 H     1 <1>   0.0800 
 35 H       -6.0700     2.2240    -2.0170 H     1 <1>   0.0800 
 36 H       -7.8040     2.3730    -1.8720 H     1 <1>   0.0800 
 37 H      -11.3030    -1.6160     0.9840 H     1 <1>   0.0800 
 38 H      -11.5020    -0.4020     2.2150 H     1 <1>   0.0800 
 39 H      -10.3930    -1.7230     2.4820 H     1 <1>   0.0800 
@<TRIPOS>BOND
  1   1   2  1   
  2   2   3  ar  
  3   2   4  ar  
  4   3   5  ar  
  5   3  24  1   
  6   4   6  ar  
  7   4  25  1   
  8   5   7  ar  
  9   5  26  1   
 10   6   7  ar  
 11   6  27  1   
 12   7   8  1   
 13   8   9  2   
 14   8  10  am  
 15  10  11  1   
 16  10  28  1   
 17  11  12  1   
 18  11  13  1   
 19  11  29  1   
 20  12  14  2   
 21  12  15  1   
 22  12  16  1   
 23  13  17  1   
 24  13  18  1   
 25  13  19  1   
 26  15  20  1   
 27  16  21  1   
 28  20  22  1   
 29  20  30  1   
 30  20  31  1   
 31  21  23  1   
 32  21  32  1   
 33  21  33  1   
 34  22  34  1   
 35  22  35  1   
 36  22  36  1   
 37  23  37  1   
 38  23  38  1   
 39  23  39  1   
@<TRIPOS>SUBSTRUCTURE
  1 ****  10 GROUP 4 **** **** 0

# MOE 2024.06 (io_trps.svl 2023.06)
