@<TRIPOS>MOLECULE
NONAME
61 64 1 0 0 
SMALL
USER_CHARGES


@<TRIPOS>ATOM
  1 O        0.1780     0.4230    -1.7430 O.2   1 <1>  -0.5700 
  2 C        0.2840     1.6260    -1.6920 C.2   1 <1>   0.5690 
  3 N       -0.7260     2.5090    -1.4200 N.am  1 <1>  -0.2370 
  4 C        1.5970     2.3590    -2.0170 C.3   1 <1>   0.2510 
  5 C       -2.0320     2.1670    -0.9960 C.ar  1 <1>   0.1170 
  6 C       -0.2870     3.7840    -1.6560 C.2   1 <1>   0.5690 
  7 N        2.6770     2.2960    -0.9810 N.3   1 <1>  -0.8100 
  8 C        1.1310     3.8130    -2.1630 C.3   1 <1>  -0.0990 
  9 C       -2.6230     2.8230     0.0800 C.ar  1 <1>  -0.1500 
 10 C       -2.7600     1.1720    -1.6420 C.ar  1 <1>  -0.1500 
 11 O       -0.9180     4.7980    -1.5100 O.2   1 <1>  -0.5700 
 12 C        2.8410     0.9360    -0.4060 C.3   1 <1>   0.1100 
 13 C        3.9710     2.7650    -1.5250 C.3   1 <1>   0.1100 
 14 C       -3.9020     2.5000     0.5000 C.ar  1 <1>  -0.1500 
 15 C       -4.0370     0.8440    -1.2250 C.ar  1 <1>  -0.1500 
 16 C        3.9210     0.8990     0.6880 C.3   1 <1>   0.1400 
 17 C        5.0680     2.7950    -0.4450 C.3   1 <1>   0.1400 
 18 C       -4.6190     1.5030    -0.1550 C.ar  1 <1>   0.0830 
 19 N        5.2240     1.4510     0.1950 N.am  1 <1>  -0.6600 
 20 O       -5.8770     1.1240     0.1870 O.3   1 <1>  -0.3630 
 21 C        6.3930     0.7460     0.3350 C.2   1 <1>   0.5690 
 22 C       -6.5660     1.7530     1.2410 C.3   1 <1>   0.1200 
 23 O        6.4150    -0.3670     0.8100 O.2   1 <1>  -0.5700 
 24 C        7.7530     1.3330    -0.0880 C.3   1 <1>   0.4040 
 25 C       -7.9450     1.1100     1.3550 C.3   1 <1>  -0.2400 
 26 N        8.9280     0.6480     0.5710 N.4   1 <1>  -0.9590 
 27 C        9.0210     0.9040     2.0270 C.3   1 <1>   0.3430 
 28 C       10.2560     0.9480    -0.0080 C.3   1 <1>   0.3430 
 29 C       10.4410     0.4900     2.3860 C.3   1 <1>  -0.1600 
 30 C       11.2400     0.5310     1.0780 C.3   1 <1>  -0.1600 
 31 H        1.9670     1.9800    -2.9540 H     1 <1>   0.0800 
 32 H        1.1270     4.1140    -3.1940 H     1 <1>   0.0800 
 33 H        1.7080     4.5030    -1.5760 H     1 <1>   0.0800 
 34 H       -2.0810     3.5990     0.5900 H     1 <1>   0.1500 
 35 H       -2.3270     0.6450    -2.4740 H     1 <1>   0.1500 
 36 H        3.0910     0.2310    -1.1810 H     1 <1>   0.0800 
 37 H        1.9200     0.6150     0.0480 H     1 <1>   0.0800 
 38 H        3.8610     3.7600    -1.9220 H     1 <1>   0.0800 
 39 H        4.2830     2.1200    -2.3300 H     1 <1>   0.0800 
 40 H       -4.3190     3.0340     1.3320 H     1 <1>   0.1500 
 41 H       -4.5930     0.0730    -1.7270 H     1 <1>   0.1500 
 42 H        4.0380    -0.1170     1.0240 H     1 <1>   0.0800 
 43 H        3.5860     1.4830     1.5270 H     1 <1>   0.0800 
 44 H        4.7890     3.5130     0.3080 H     1 <1>   0.0800 
 45 H        5.9870     3.1210    -0.8940 H     1 <1>   0.0800 
 46 H       -6.6540     2.8020     1.0130 H     1 <1>   0.0800 
 47 H       -6.0040     1.6120     2.1480 H     1 <1>   0.0800 
 48 H        7.7670     2.3820     0.1490 H     1 <1>   0.0800 
 49 H        7.8330     1.2270    -1.1560 H     1 <1>   0.0800 
 50 H       -8.4900     1.2420     0.4370 H     1 <1>   0.0800 
 51 H       -8.4970     1.5700     2.1530 H     1 <1>   0.0800 
 52 H       -7.8450     0.0600     1.5650 H     1 <1>   0.0800 
 53 H        8.7410    -0.3660     0.4870 H     1 <1>   0.4500 
 54 H        8.2850     0.3360     2.5770 H     1 <1>   0.0800 
 55 H        8.8890     1.9550     2.2260 H     1 <1>   0.0800 
 56 H       10.3470     2.0070    -0.1880 H     1 <1>   0.0800 
 57 H       10.4230     0.4090    -0.9270 H     1 <1>   0.0800 
 58 H       10.4350    -0.5080     2.7900 H     1 <1>   0.0800 
 59 H       10.8510     1.1540     3.1270 H     1 <1>   0.0800 
 60 H       12.0570     1.2290     1.1300 H     1 <1>   0.0800 
 61 H       11.6390    -0.4430     0.8520 H     1 <1>   0.0800 
@<TRIPOS>BOND
  1   1   2  2   
  2   2   3  am  
  3   2   4  1   
  4   3   5  1   
  5   3   6  am  
  6   4   7  1   
  7   4   8  1   
  8   4  31  1   
  9   5   9  ar  
 10   5  10  ar  
 11   6   8  1   
 12   6  11  2   
 13   7  12  1   
 14   7  13  1   
 15   8  32  1   
 16   8  33  1   
 17   9  14  ar  
 18   9  34  1   
 19  10  15  ar  
 20  10  35  1   
 21  12  16  1   
 22  12  36  1   
 23  12  37  1   
 24  13  17  1   
 25  13  38  1   
 26  13  39  1   
 27  14  18  ar  
 28  14  40  1   
 29  15  18  ar  
 30  15  41  1   
 31  16  19  1   
 32  16  42  1   
 33  16  43  1   
 34  17  19  1   
 35  17  44  1   
 36  17  45  1   
 37  18  20  1   
 38  19  21  am  
 39  20  22  1   
 40  21  23  2   
 41  21  24  1   
 42  22  25  1   
 43  22  46  1   
 44  22  47  1   
 45  24  26  1   
 46  24  48  1   
 47  24  49  1   
 48  25  50  1   
 49  25  51  1   
 50  25  52  1   
 51  26  27  1   
 52  26  28  1   
 53  26  53  1   
 54  27  29  1   
 55  27  54  1   
 56  27  55  1   
 57  28  30  1   
 58  28  56  1   
 59  28  57  1   
 60  29  30  1   
 61  29  58  1   
 62  29  59  1   
 63  30  60  1   
 64  30  61  1   
@<TRIPOS>SUBSTRUCTURE
  1 ****   7 GROUP 4 **** **** 0

# MOE 2024.06 (io_trps.svl 2023.06)
