@<TRIPOS>MOLECULE
NONAME
44 45 1 0 0 
SMALL
USER_CHARGES


@<TRIPOS>ATOM
  1 O        0.6690    -0.2750    -0.5000 O.2   1 <1>  -0.5700 
  2 C        1.0380    -1.4230    -0.3560 C.2   1 <1>   0.6340 
  3 O        2.3540    -1.6680    -0.3190 O.3   1 <1>  -0.4300 
  4 C        0.1330    -2.5470    -0.2250 C.ar  1 <1>   0.0860 
  5 C        3.3070    -0.6300    -0.4390 C.3   1 <1>   0.0400 
  6 C       -1.2520    -2.3630    -0.1920 C.ar  1 <1>  -0.1500 
  7 C        0.5990    -3.8610    -0.1260 C.ar  1 <1>  -0.1500 
  8 C       -2.1330    -3.4240    -0.0700 C.ar  1 <1>   0.1170 
  9 C       -0.2670    -4.9300    -0.0050 C.ar  1 <1>  -0.1500 
 10 N       -3.5290    -3.2890    -0.0370 N.am  1 <1>  -0.5470 
 11 C       -1.6410    -4.7340     0.0220 C.ar  1 <1>   0.1000 
 12 C       -4.3730    -2.2310     0.1100 C.2   1 <1>   0.5690 
 13 N       -2.5210    -5.8140     0.1470 N.pl3 1 <1>  -0.8380 
 14 O       -4.0090    -1.0870     0.2200 O.2   1 <1>  -0.5700 
 15 C       -5.8600    -2.5290     0.1420 C.3   1 <1>  -0.0990 
 16 C       -2.6110    -6.4340     1.5030 C.3   1 <1>   0.2090 
 17 C       -2.4920    -6.8470    -0.9320 C.3   1 <1>   0.2090 
 18 C       -6.2700    -3.3430     1.3820 C.3   1 <1>  -0.1600 
 19 C       -3.7550    -7.4620     1.5590 C.3   1 <1>   0.1200 
 20 C       -3.6440    -7.8530    -0.7540 C.3   1 <1>   0.1200 
 21 C       -7.7760    -3.6230     1.3910 C.3   1 <1>  -0.2400 
 22 O       -3.6300    -8.4080     0.5330 O.3   1 <1>  -0.5600 
 23 H        4.2910    -1.0600    -0.3800 H     1 <1>   0.0800 
 24 H        3.1590     0.0710     0.3640 H     1 <1>   0.0800 
 25 H        3.1710    -0.1410    -1.3880 H     1 <1>   0.0800 
 26 H       -1.6370    -1.3610    -0.2680 H     1 <1>   0.1500 
 27 H        1.6580    -4.0510    -0.1440 H     1 <1>   0.1500 
 28 H        0.1220    -5.9290     0.0720 H     1 <1>   0.1500 
 29 H       -3.9550    -4.2190    -0.0380 H     1 <1>   0.3700 
 30 H       -6.1210    -3.0630    -0.7530 H     1 <1>   0.0800 
 31 H       -6.3940    -1.5950     0.1340 H     1 <1>   0.0800 
 32 H       -2.7810    -5.6650     2.2370 H     1 <1>   0.0800 
 33 H       -1.6830    -6.9240     1.7400 H     1 <1>   0.0800 
 34 H       -1.5570    -7.3780    -0.9050 H     1 <1>   0.0800 
 35 H       -2.5780    -6.3650    -1.8900 H     1 <1>   0.0800 
 36 H       -6.0050    -2.7910     2.2690 H     1 <1>   0.0800 
 37 H       -5.7360    -4.2780     1.4020 H     1 <1>   0.0800 
 38 H       -4.7070    -6.9720     1.4610 H     1 <1>   0.0800 
 39 H       -3.7330    -7.9900     2.4960 H     1 <1>   0.0800 
 40 H       -3.5460    -8.6580    -1.4600 H     1 <1>   0.0800 
 41 H       -4.5930    -7.3690    -0.9100 H     1 <1>   0.0800 
 42 H       -8.3300    -2.7010     1.4000 H     1 <1>   0.0800 
 43 H       -8.0400    -4.1870     2.2690 H     1 <1>   0.0800 
 44 H       -8.0610    -4.1910     0.5230 H     1 <1>   0.0800 
@<TRIPOS>BOND
  1   1   2  2   
  2   2   3  1   
  3   2   4  1   
  4   3   5  1   
  5   4   6  ar  
  6   4   7  ar  
  7   5  23  1   
  8   5  24  1   
  9   5  25  1   
 10   6   8  ar  
 11   6  26  1   
 12   7   9  ar  
 13   7  27  1   
 14   8  10  1   
 15   8  11  ar  
 16   9  11  ar  
 17   9  28  1   
 18  10  12  am  
 19  10  29  1   
 20  11  13  1   
 21  12  14  2   
 22  12  15  1   
 23  13  16  1   
 24  13  17  1   
 25  15  18  1   
 26  15  30  1   
 27  15  31  1   
 28  16  19  1   
 29  16  32  1   
 30  16  33  1   
 31  17  20  1   
 32  17  34  1   
 33  17  35  1   
 34  18  21  1   
 35  18  36  1   
 36  18  37  1   
 37  19  22  1   
 38  19  38  1   
 39  19  39  1   
 40  20  22  1   
 41  20  40  1   
 42  20  41  1   
 43  21  42  1   
 44  21  43  1   
 45  21  44  1   
@<TRIPOS>SUBSTRUCTURE
  1 ****   8 GROUP 4 **** **** 0

# MOE 2024.06 (io_trps.svl 2023.06)
