@<TRIPOS>MOLECULE
NONAME
51 54 1 0 0 
SMALL
USER_CHARGES


@<TRIPOS>ATOM
  1 O       -0.8770     1.6010    -2.5400 O.2   1 <1>  -0.5700 
  2 C       -0.9140     1.8470    -1.3560 C.2   1 <1>   0.5690 
  3 N       -1.4650     0.9650    -0.4820 N.am  1 <1>  -0.7300 
  4 C       -0.3580     3.1790    -0.8100 C.3   1 <1>   0.0610 
  5 C       -2.1500    -0.2730    -0.8580 C.3   1 <1>   0.3640 
  6 C        0.7230     2.9140     0.2690 C.3   1 <1>  -0.1600 
  7 C       -1.5000     4.0080    -0.1690 C.3   1 <1>  -0.1600 
  8 C        0.2850     4.0360    -1.9310 C.3   1 <1>  -0.1600 
  9 C       -3.6340    -0.0810    -0.5600 C.ar  1 <1>  -0.1430 
 10 C       -1.4920    -1.4250    -0.1020 C.3   1 <1>  -0.2400 
 11 C        1.2730     4.2340     0.8470 C.3   1 <1>   0.0000 
 12 C       -0.9720     5.3380     0.4040 C.3   1 <1>   0.0000 
 13 C        0.8270     5.3620    -1.3710 C.3   1 <1>  -0.0800 
 14 C       -4.2990    -0.5900     0.5420 C.ar  1 <1>  -0.1500 
 15 C       -4.4040     0.6640    -1.4320 C.ar  1 <1>  -0.1500 
 16 C        0.1050     5.0300     1.4650 C.3   1 <1>  -0.1600 
 17 C        1.8880     5.0610    -0.2990 C.3   1 <1>  -0.1600 
 18 C        2.3350     3.9400     1.9130 C.3   1 <1>  -0.2400 
 19 C       -0.3290     6.1530    -0.7360 C.3   1 <1>  -0.1600 
 20 C       -2.1230     6.1330     1.0350 C.3   1 <1>  -0.2400 
 21 C       -5.6510    -0.3380     0.7050 C.ar  1 <1>   0.1600 
 22 C       -5.7500     0.8570    -1.1760 C.ar  1 <1>   0.1600 
 23 N       -6.3930     0.3730    -0.1260 N.ar  1 <1>  -0.6200 
 24 H       -1.5770     1.2320     0.4930 H     1 <1>   0.3700 
 25 H       -2.0310    -0.4490    -1.9150 H     1 <1>   0.0800 
 26 H        1.5260     2.3470    -0.1690 H     1 <1>   0.0800 
 27 H        0.3090     2.3260     1.0680 H     1 <1>   0.0800 
 28 H       -1.9670     3.4430     0.6180 H     1 <1>   0.0800 
 29 H       -2.2520     4.2060    -0.9130 H     1 <1>   0.0800 
 30 H       -0.4460     4.2410    -2.6940 H     1 <1>   0.0800 
 31 H        1.0850     3.4850    -2.3940 H     1 <1>   0.0800 
 32 H       -1.5050    -1.2510     0.9580 H     1 <1>   0.0800 
 33 H       -0.4740    -1.5320    -0.4280 H     1 <1>   0.0800 
 34 H       -2.0120    -2.3400    -0.3160 H     1 <1>   0.0800 
 35 H        1.2680     5.9390    -2.1670 H     1 <1>   0.0800 
 36 H       -3.7920    -1.1790     1.2820 H     1 <1>   0.1500 
 37 H       -3.9600     1.1010    -2.3100 H     1 <1>   0.1500 
 38 H       -0.3310     4.4680     2.2720 H     1 <1>   0.0800 
 39 H        0.4770     5.9520     1.8770 H     1 <1>   0.0800 
 40 H        2.7060     4.5210    -0.7440 H     1 <1>   0.0800 
 41 H        2.2810     5.9860     0.0870 H     1 <1>   0.0800 
 42 H        1.9130     3.3660     2.7190 H     1 <1>   0.0800 
 43 H        2.7240     4.8580     2.3180 H     1 <1>   0.0800 
 44 H        3.1510     3.3840     1.4880 H     1 <1>   0.0800 
 45 H        0.0430     7.0880    -0.3540 H     1 <1>   0.0800 
 46 H       -1.0660     6.3780    -1.4870 H     1 <1>   0.0800 
 47 H       -2.5760     5.5720     1.8330 H     1 <1>   0.0800 
 48 H       -2.8770     6.3500     0.3000 H     1 <1>   0.0800 
 49 H       -1.7620     7.0630     1.4360 H     1 <1>   0.0800 
 50 H       -6.1500    -0.7450     1.5690 H     1 <1>   0.1500 
 51 H       -6.3280     1.4420    -1.8710 H     1 <1>   0.1500 
@<TRIPOS>BOND
  1   1   2  2   
  2   2   3  am  
  3   2   4  1   
  4   3   5  1   
  5   3  24  1   
  6   4   6  1   
  7   4   7  1   
  8   4   8  1   
  9   5   9  1   
 10   5  10  1   
 11   5  25  1   
 12   6  11  1   
 13   6  26  1   
 14   6  27  1   
 15   7  12  1   
 16   7  28  1   
 17   7  29  1   
 18   8  13  1   
 19   8  30  1   
 20   8  31  1   
 21   9  14  ar  
 22   9  15  ar  
 23  10  32  1   
 24  10  33  1   
 25  10  34  1   
 26  11  16  1   
 27  11  17  1   
 28  11  18  1   
 29  12  16  1   
 30  12  19  1   
 31  12  20  1   
 32  13  17  1   
 33  13  19  1   
 34  13  35  1   
 35  14  21  ar  
 36  14  36  1   
 37  15  22  ar  
 38  15  37  1   
 39  16  38  1   
 40  16  39  1   
 41  17  40  1   
 42  17  41  1   
 43  18  42  1   
 44  18  43  1   
 45  18  44  1   
 46  19  45  1   
 47  19  46  1   
 48  20  47  1   
 49  20  48  1   
 50  20  49  1   
 51  21  23  ar  
 52  21  50  1   
 53  22  23  ar  
 54  22  51  1   
@<TRIPOS>SUBSTRUCTURE
  1 ****   4 GROUP 4 **** **** 0

# MOE 2024.06 (io_trps.svl 2023.06)
