@<TRIPOS>MOLECULE
NONAME
44 45 1 0 0 
SMALL
USER_CHARGES


@<TRIPOS>ATOM
  1 S        0.0310     0.0620    -0.2740 S.o2  1 <1>   1.4470 
  2 O        0.3800     0.9170     0.8380 O.2   1 <1>  -0.6500 
  3 O        0.0130     0.5910    -1.6210 O.2   1 <1>  -0.6500 
  4 N       -1.5570    -0.3310     0.1010 N.am  1 <1>  -0.9140 
  5 C        0.9080    -1.5240    -0.2170 C.ar  1 <1>  -0.0090 
  6 C       -2.5200     0.6170    -0.4390 C.3   1 <1>   0.1960 
  7 C        2.2990    -1.5480    -0.2030 C.ar  1 <1>   0.0830 
  8 C        0.2310    -2.7390    -0.2060 C.ar  1 <1>  -0.1500 
  9 C       -3.9290     0.3210     0.1000 C.3   1 <1>  -0.0800 
 10 O        2.9420    -0.3520    -0.2380 O.3   1 <1>  -0.3630 
 11 C        2.9850    -2.7610    -0.1600 C.ar  1 <1>  -0.1500 
 12 C        0.9030    -3.9470    -0.1640 C.ar  1 <1>   0.0830 
 13 C       -4.4230    -1.0810    -0.3130 C.3   1 <1>  -0.1600 
 14 C       -4.9130     1.3980    -0.3920 C.3   1 <1>  -0.1600 
 15 C        4.3480    -0.2500    -0.2210 C.3   1 <1>   0.0400 
 16 C        2.2920    -3.9560    -0.1380 C.ar  1 <1>  -0.1500 
 17 O        0.1390    -5.0700    -0.1500 O.3   1 <1>  -0.3630 
 18 C       -5.8500    -1.3470     0.1840 C.3   1 <1>  -0.1600 
 19 C       -6.3390     1.1330     0.1090 C.3   1 <1>  -0.1600 
 20 C        0.7240    -6.3530    -0.1390 C.3   1 <1>   0.0400 
 21 C       -6.8200    -0.2630    -0.3030 C.3   1 <1>  -0.1600 
 22 H       -1.5760    -0.2230     1.1130 H     1 <1>   0.4200 
 23 H       -2.5250     0.5510    -1.5150 H     1 <1>   0.0800 
 24 H       -2.2310     1.6190    -0.1640 H     1 <1>   0.0800 
 25 H       -0.8440    -2.7620    -0.2360 H     1 <1>   0.1500 
 26 H       -3.8960     0.3730     1.1740 H     1 <1>   0.0800 
 27 H        4.0580    -2.7950    -0.1440 H     1 <1>   0.1500 
 28 H       -3.7680    -1.8350     0.0890 H     1 <1>   0.0800 
 29 H       -4.3990    -1.1670    -1.3860 H     1 <1>   0.0800 
 30 H       -4.9190     1.4150    -1.4690 H     1 <1>   0.0800 
 31 H       -4.5940     2.3670    -0.0490 H     1 <1>   0.0800 
 32 H        4.6060     0.7940    -0.2520 H     1 <1>   0.0800 
 33 H        4.7460    -0.7490    -1.0870 H     1 <1>   0.0800 
 34 H        4.7210    -0.6900     0.6870 H     1 <1>   0.0800 
 35 H        2.8450    -4.8750    -0.1040 H     1 <1>   0.1500 
 36 H       -5.8540    -1.3710     1.2600 H     1 <1>   0.0800 
 37 H       -6.1800    -2.3090    -0.1680 H     1 <1>   0.0800 
 38 H       -7.0070     1.8760    -0.2920 H     1 <1>   0.0800 
 39 H       -6.3620     1.2150     1.1830 H     1 <1>   0.0800 
 40 H       -0.0670    -7.0800    -0.1420 H     1 <1>   0.0800 
 41 H        1.3150    -6.4600     0.7540 H     1 <1>   0.0800 
 42 H        1.3300    -6.4680    -1.0200 H     1 <1>   0.0800 
 43 H       -7.7990    -0.4440     0.1070 H     1 <1>   0.0800 
 44 H       -6.8980    -0.3120    -1.3760 H     1 <1>   0.0800 
@<TRIPOS>BOND
  1   1   2  2   
  2   1   3  2   
  3   1   4  am  
  4   1   5  1   
  5   4   6  1   
  6   4  22  1   
  7   5   7  ar  
  8   5   8  ar  
  9   6   9  1   
 10   6  23  1   
 11   6  24  1   
 12   7  10  1   
 13   7  11  ar  
 14   8  12  ar  
 15   8  25  1   
 16   9  13  1   
 17   9  14  1   
 18   9  26  1   
 19  10  15  1   
 20  11  16  ar  
 21  11  27  1   
 22  12  16  ar  
 23  12  17  1   
 24  13  18  1   
 25  13  28  1   
 26  13  29  1   
 27  14  19  1   
 28  14  30  1   
 29  14  31  1   
 30  15  32  1   
 31  15  33  1   
 32  15  34  1   
 33  16  35  1   
 34  17  20  1   
 35  18  21  1   
 36  18  36  1   
 37  18  37  1   
 38  19  21  1   
 39  19  38  1   
 40  19  39  1   
 41  20  40  1   
 42  20  41  1   
 43  20  42  1   
 44  21  43  1   
 45  21  44  1   
@<TRIPOS>SUBSTRUCTURE
  1 ****   4 GROUP 4 **** **** 0

# MOE 2024.06 (io_trps.svl 2023.06)
