@<TRIPOS>MOLECULE
NONAME
42 43 1 0 0 
SMALL
USER_CHARGES


@<TRIPOS>ATOM
  1 O        0.1830     0.8010     1.5370 O.2   1 <1>  -0.5700 
  2 C       -0.7730     1.1660     0.8700 C.2   1 <1>   0.5440 
  3 N       -1.6070     0.2000     0.3360 N.am  1 <1>  -0.6600 
  4 C       -0.9870     2.5820     0.6360 C.ar  1 <1>   0.0860 
  5 C       -1.5500    -1.2170     0.7910 C.3   1 <1>   0.0600 
  6 C       -2.4740     0.4330    -0.8520 C.3   1 <1>   0.0600 
  7 C        0.0660     3.4150     0.2180 C.ar  1 <1>   0.1170 
  8 C       -2.2500     3.1490     0.8170 C.ar  1 <1>  -0.1500 
  9 N        1.3500     2.8710     0.0840 N.am  1 <1>  -0.5470 
 10 C       -0.1870     4.7620    -0.0290 C.ar  1 <1>  -0.1500 
 11 C       -2.4850     4.4870     0.5710 C.ar  1 <1>  -0.1500 
 12 C        2.4570     3.2450    -0.6250 C.2   1 <1>   0.5690 
 13 C       -1.4480     5.2960     0.1410 C.ar  1 <1>  -0.1500 
 14 O        2.4960     4.2210    -1.3340 O.2   1 <1>  -0.5700 
 15 C        3.6980     2.3600    -0.5180 C.3   1 <1>  -0.0190 
 16 C        3.4290     0.9350    -1.0450 C.3   1 <1>  -0.1600 
 17 C        4.2420     2.3120     0.9250 C.3   1 <1>  -0.1600 
 18 C        4.6810     0.0530    -0.9430 C.3   1 <1>  -0.1600 
 19 C        5.4920     1.4260     1.0240 C.3   1 <1>  -0.1600 
 20 C        5.2130     0.0130     0.4950 C.3   1 <1>  -0.1600 
 21 H       -1.0690    -1.2860     1.7530 H     1 <1>   0.0800 
 22 H       -0.9920    -1.8030     0.0830 H     1 <1>   0.0800 
 23 H       -2.5450    -1.6150     0.8790 H     1 <1>   0.0800 
 24 H       -2.2360     1.3690    -1.3260 H     1 <1>   0.0800 
 25 H       -3.5070     0.4430    -0.5510 H     1 <1>   0.0800 
 26 H       -2.3260    -0.3550    -1.5710 H     1 <1>   0.0800 
 27 H       -3.0560     2.5230     1.1590 H     1 <1>   0.1500 
 28 H        1.4570     1.9850     0.5960 H     1 <1>   0.3700 
 29 H        0.6120     5.4040    -0.3520 H     1 <1>   0.1500 
 30 H       -3.4680     4.9030     0.7130 H     1 <1>   0.1500 
 31 H       -1.6220     6.3400    -0.0560 H     1 <1>   0.1500 
 32 H        4.4560     2.8030    -1.1400 H     1 <1>   0.0800 
 33 H        3.1120     0.9880    -2.0730 H     1 <1>   0.0800 
 34 H        2.6350     0.4780    -0.4790 H     1 <1>   0.0800 
 35 H        3.4880     1.9240     1.5880 H     1 <1>   0.0800 
 36 H        4.4840     3.3090     1.2490 H     1 <1>   0.0800 
 37 H        5.4450     0.4400    -1.5960 H     1 <1>   0.0800 
 38 H        4.4450    -0.9460    -1.2670 H     1 <1>   0.0800 
 39 H        5.8130     1.3700     2.0500 H     1 <1>   0.0800 
 40 H        6.2900     1.8700     0.4530 H     1 <1>   0.0800 
 41 H        6.1180    -0.5690     0.5290 H     1 <1>   0.0800 
 42 H        4.4880    -0.4670     1.1300 H     1 <1>   0.0800 
@<TRIPOS>BOND
  1   1   2  2   
  2   2   3  am  
  3   2   4  1   
  4   3   5  1   
  5   3   6  1   
  6   4   7  ar  
  7   4   8  ar  
  8   5  21  1   
  9   5  22  1   
 10   5  23  1   
 11   6  24  1   
 12   6  25  1   
 13   6  26  1   
 14   7   9  1   
 15   7  10  ar  
 16   8  11  ar  
 17   8  27  1   
 18   9  12  am  
 19   9  28  1   
 20  10  13  ar  
 21  10  29  1   
 22  11  13  ar  
 23  11  30  1   
 24  12  14  2   
 25  12  15  1   
 26  13  31  1   
 27  15  16  1   
 28  15  17  1   
 29  15  32  1   
 30  16  18  1   
 31  16  33  1   
 32  16  34  1   
 33  17  19  1   
 34  17  35  1   
 35  17  36  1   
 36  18  20  1   
 37  18  37  1   
 38  18  38  1   
 39  19  20  1   
 40  19  39  1   
 41  19  40  1   
 42  20  41  1   
 43  20  42  1   
@<TRIPOS>SUBSTRUCTURE
  1 ****   9 GROUP 4 **** **** 0

# MOE 2024.06 (io_trps.svl 2023.06)
