@<TRIPOS>MOLECULE
NONAME
33 34 1 0 0 
SMALL
USER_CHARGES


@<TRIPOS>ATOM
  1 CL      -0.1750    -0.2600     0.7570 Cl    1 <1>  -0.1770 
  2 C        1.3520    -0.9120     0.2460 C.ar  1 <1>   0.7970 
  3 N        1.3860    -2.1980     0.0790 N.ar  1 <1>  -0.6200 
  4 N        2.3060    -0.0470     0.0860 N.ar  1 <1>  -0.6200 
  5 C        2.5620    -2.6390    -0.3030 C.ar  1 <1>   0.7200 
  6 C        3.4170    -0.6140    -0.3010 C.ar  1 <1>   0.7200 
  7 N        3.6110    -1.8820    -0.5070 N.ar  1 <1>  -0.6200 
  8 N        2.6970    -3.9960    -0.5030 N.pl3 1 <1>  -0.8380 
  9 N        4.4910     0.1710    -0.5100 N.pl3 1 <1>  -0.8690 
 10 C        1.6740    -4.9950    -0.0730 C.3   1 <1>   0.2090 
 11 C        3.8940    -4.6100    -1.1480 C.3   1 <1>   0.2090 
 12 C        4.6430     1.5250     0.0260 C.3   1 <1>   0.3470 
 13 C        2.3100    -5.9850     0.9080 C.3   1 <1>  -0.1600 
 14 C        4.5530    -5.5890    -0.1720 C.3   1 <1>  -0.1600 
 15 C        6.0280     1.9980    -0.3540 C.2   1 <1>  -0.2880 
 16 C        3.5610    -6.6530     0.3190 C.3   1 <1>  -0.1600 
 17 C        7.0150     2.2890     0.5000 C.2   1 <1>  -0.3000 
 18 H        5.3640    -0.3360    -0.6350 H     1 <1>   0.4000 
 19 H        1.3130    -5.5200    -0.9400 H     1 <1>   0.0800 
 20 H        0.8300    -4.5250     0.4020 H     1 <1>   0.0800 
 21 H        4.6110    -3.8670    -1.4510 H     1 <1>   0.0800 
 22 H        3.5800    -5.1360    -2.0330 H     1 <1>   0.0800 
 23 H        4.5280     1.5060     1.0980 H     1 <1>   0.0800 
 24 H        3.8930     2.1740    -0.3950 H     1 <1>   0.0800 
 25 H        1.5880    -6.7370     1.1710 H     1 <1>   0.0800 
 26 H        2.5720    -5.4540     1.8070 H     1 <1>   0.0800 
 27 H        4.9350    -5.0310     0.6650 H     1 <1>   0.0800 
 28 H        5.3860    -6.0660    -0.6570 H     1 <1>   0.0800 
 29 H        6.1420     2.0790    -1.4220 H     1 <1>   0.1500 
 30 H        3.2750    -7.2820    -0.5060 H     1 <1>   0.0800 
 31 H        4.0300    -7.2720     1.0650 H     1 <1>   0.0800 
 32 H        7.9920     2.6230     0.1950 H     1 <1>   0.1500 
 33 H        6.9340     2.2160     1.5710 H     1 <1>   0.1500 
@<TRIPOS>BOND
  1   1   2  1   
  2   2   3  ar  
  3   2   4  ar  
  4   3   5  ar  
  5   4   6  ar  
  6   5   7  ar  
  7   5   8  1   
  8   6   7  ar  
  9   6   9  1   
 10   8  10  1   
 11   8  11  1   
 12   9  12  1   
 13   9  18  1   
 14  10  13  1   
 15  10  19  1   
 16  10  20  1   
 17  11  14  1   
 18  11  21  1   
 19  11  22  1   
 20  12  15  1   
 21  12  23  1   
 22  12  24  1   
 23  13  16  1   
 24  13  25  1   
 25  13  26  1   
 26  14  16  1   
 27  14  27  1   
 28  14  28  1   
 29  15  17  2   
 30  15  29  1   
 31  16  30  1   
 32  16  31  1   
 33  17  32  1   
 34  17  33  1   
@<TRIPOS>SUBSTRUCTURE
  1 ****   7 GROUP 4 **** **** 0

# MOE 2024.06 (io_trps.svl 2023.06)
