@<TRIPOS>MOLECULE
NONAME
47 49 1 0 0 
SMALL
USER_CHARGES


@<TRIPOS>ATOM
  1 CL       0.5650     2.0390     1.6760 Cl    1 <1>  -0.1770 
  2 C       -1.1400     2.1750     1.3200 C.ar  1 <1>   0.1770 
  3 C       -1.7150     1.3050     0.4120 C.ar  1 <1>  -0.1500 
  4 C       -1.8910     3.1500     1.9510 C.ar  1 <1>  -0.1500 
  5 C       -3.0670     1.4150     0.1330 C.ar  1 <1>  -0.1500 
  6 C       -3.2410     3.2510     1.6650 C.ar  1 <1>  -0.1500 
  7 C       -3.8460     2.3870     0.7580 C.ar  1 <1>   0.1990 
  8 N       -5.2050     2.4970     0.4860 N.am  1 <1>  -0.6930 
  9 S       -5.8090     3.8290    -0.4420 S.o2  1 <1>   1.3330 
 10 C       -6.0820     1.3040     0.7080 C.3   1 <1>   0.3370 
 11 O       -5.1000     5.0100    -0.0150 O.2   1 <1>  -0.6500 
 12 O       -7.2500     3.8000    -0.3820 O.2   1 <1>  -0.6500 
 13 C       -5.2890     3.4330    -2.0990 C.3   1 <1>  -0.1350 
 14 C       -6.7500     0.7380    -0.5800 C.2   1 <1>   0.5690 
 15 C       -6.9140     1.5320     1.9780 C.3   1 <1>  -0.2400 
 16 O       -5.9730     0.2320    -1.3610 O.2   1 <1>  -0.5700 
 17 N       -8.0960     0.7270    -0.8820 N.am  1 <1>  -0.6600 
 18 C       -9.1900     1.5260    -0.2630 C.3   1 <1>   0.2840 
 19 C       -8.6460    -0.2040    -1.9050 C.3   1 <1>   0.1400 
 20 C      -10.2630     0.6060     0.3110 C.ar  1 <1>  -0.1430 
 21 C       -9.4750    -1.2810    -1.1970 C.3   1 <1>  -0.0170 
 22 C      -10.4090    -0.7040    -0.1370 C.ar  1 <1>  -0.1430 
 23 C      -11.1160     1.0940     1.2900 C.ar  1 <1>  -0.1500 
 24 C      -11.4040    -1.5050     0.3990 C.ar  1 <1>  -0.1500 
 25 C      -12.1080     0.2880     1.8200 C.ar  1 <1>  -0.1500 
 26 C      -12.2520    -1.0120     1.3740 C.ar  1 <1>  -0.1500 
 27 H       -1.1100     0.5560    -0.0680 H     1 <1>   0.1500 
 28 H       -1.4220     3.8190     2.6500 H     1 <1>   0.1500 
 29 H       -3.5200     0.7460    -0.5780 H     1 <1>   0.1500 
 30 H       -3.8390     4.0080     2.1430 H     1 <1>   0.1500 
 31 H       -5.4240     0.5000     0.9910 H     1 <1>   0.0800 
 32 H       -4.2260     3.2990    -2.1310 H     1 <1>   0.0800 
 33 H       -5.5550     4.2300    -2.7650 H     1 <1>   0.0800 
 34 H       -5.7620     2.5340    -2.4410 H     1 <1>   0.0800 
 35 H       -7.4070     2.4860     1.9610 H     1 <1>   0.0800 
 36 H       -6.2650     1.5120     2.8340 H     1 <1>   0.0800 
 37 H       -7.6420     0.7480     2.0920 H     1 <1>   0.0800 
 38 H       -9.6350     2.1440    -1.0230 H     1 <1>   0.0800 
 39 H       -8.8320     2.1840     0.4960 H     1 <1>   0.0800 
 40 H       -7.8630    -0.6680    -2.4790 H     1 <1>   0.0800 
 41 H       -9.2730     0.3480    -2.5830 H     1 <1>   0.0800 
 42 H       -8.8030    -1.9760    -0.7240 H     1 <1>   0.0800 
 43 H      -10.0440    -1.8230    -1.9300 H     1 <1>   0.0800 
 44 H      -11.0150     2.1050     1.6420 H     1 <1>   0.1500 
 45 H      -11.5220    -2.5200     0.0600 H     1 <1>   0.1500 
 46 H      -12.7670     0.6730     2.5790 H     1 <1>   0.1500 
 47 H      -13.0230    -1.6400     1.7850 H     1 <1>   0.1500 
@<TRIPOS>BOND
  1   1   2  1   
  2   2   3  ar  
  3   2   4  ar  
  4   3   5  ar  
  5   3  27  1   
  6   4   6  ar  
  7   4  28  1   
  8   5   7  ar  
  9   5  29  1   
 10   6   7  ar  
 11   6  30  1   
 12   7   8  1   
 13   8   9  am  
 14   8  10  1   
 15   9  11  2   
 16   9  12  2   
 17   9  13  1   
 18  10  14  1   
 19  10  15  1   
 20  10  31  1   
 21  13  32  1   
 22  13  33  1   
 23  13  34  1   
 24  14  16  2   
 25  14  17  am  
 26  15  35  1   
 27  15  36  1   
 28  15  37  1   
 29  17  18  1   
 30  17  19  1   
 31  18  20  1   
 32  18  38  1   
 33  18  39  1   
 34  19  21  1   
 35  19  40  1   
 36  19  41  1   
 37  20  22  ar  
 38  20  23  ar  
 39  21  22  1   
 40  21  42  1   
 41  21  43  1   
 42  22  24  ar  
 43  23  25  ar  
 44  23  44  1   
 45  24  26  ar  
 46  24  45  1   
 47  25  26  ar  
 48  25  46  1   
 49  26  47  1   
@<TRIPOS>SUBSTRUCTURE
  1 ****  10 GROUP 4 **** **** 0

# MOE 2024.06 (io_trps.svl 2023.06)
