@<TRIPOS>MOLECULE
NONAME
47 49 1 0 0 
SMALL
USER_CHARGES


@<TRIPOS>ATOM
  1 O        0.1140     0.3370    -0.6310 O.3   1 <1>  -0.5600 
  2 C        0.3880     1.6950    -0.6610 C.3   1 <1>   0.5600 
  3 C       -0.9900     0.1130     0.1740 C.3   1 <1>   0.2000 
  4 O       -0.4010     2.2980     0.3070 O.3   1 <1>  -0.5600 
  5 C        1.8520     1.9030    -0.3090 C.3   1 <1>  -0.2400 
  6 C       -0.0010     2.2510    -2.0200 C.3   1 <1>  -0.2400 
  7 C       -0.9840     1.3190     1.0920 C.3   1 <1>   0.2000 
  8 C       -0.9260    -1.2370     0.9120 C.3   1 <1>   0.2000 
  9 C       -2.3790     1.7210     1.6080 C.3   1 <1>   0.2000 
 10 O        0.0810    -1.2610     1.8700 O.3   1 <1>  -0.5600 
 11 C       -0.6240    -2.4270     0.0200 C.3   1 <1>   0.1200 
 12 O       -3.3130     1.7970     0.5820 O.3   1 <1>  -0.5600 
 13 C       -2.4350     3.0860     2.2680 C.3   1 <1>   0.1200 
 14 C        0.9200    -2.3420     1.6410 C.3   1 <1>   0.5600 
 15 O        0.2350    -3.1870     0.7860 O.3   1 <1>  -0.5600 
 16 C       -3.9140     3.0460     0.5870 C.3   1 <1>   0.5600 
 17 O       -3.6320     3.6050     1.8210 O.3   1 <1>  -0.5600 
 18 C        2.2140    -1.8670     0.9920 C.3   1 <1>  -0.2400 
 19 C        1.1450    -3.0660     2.9570 C.3   1 <1>  -0.2400 
 20 C       -3.3350     3.9070    -0.5290 C.3   1 <1>  -0.2400 
 21 C       -5.4170     2.8600     0.4750 C.3   1 <1>  -0.2400 
 22 H       -1.8540     0.1330    -0.4670 H     1 <1>   0.0800 
 23 H        2.0610     1.4810     0.6560 H     1 <1>   0.0800 
 24 H        2.0770     2.9530    -0.2950 H     1 <1>   0.0800 
 25 H        2.4730     1.4280    -1.0450 H     1 <1>   0.0800 
 26 H       -1.0450     2.0800    -2.2010 H     1 <1>   0.0800 
 27 H        0.5780     1.7730    -2.7880 H     1 <1>   0.0800 
 28 H        0.1940     3.3070    -2.0500 H     1 <1>   0.0800 
 29 H       -0.3260     1.1540     1.9270 H     1 <1>   0.0800 
 30 H       -1.8540    -1.4070     1.4280 H     1 <1>   0.0800 
 31 H       -2.7320     0.9770     2.3000 H     1 <1>   0.0800 
 32 H       -0.1140    -2.1390    -0.8830 H     1 <1>   0.0800 
 33 H       -1.5020    -3.0000    -0.2170 H     1 <1>   0.0800 
 34 H       -1.6370     3.7300     1.9390 H     1 <1>   0.0800 
 35 H       -2.4450     3.0270     3.3410 H     1 <1>   0.0800 
 36 H        2.0150    -1.3650     0.0640 H     1 <1>   0.0800 
 37 H        2.8530    -2.7090     0.8040 H     1 <1>   0.0800 
 38 H        2.7230    -1.1920     1.6530 H     1 <1>   0.0800 
 39 H        0.2030    -3.3750     3.3690 H     1 <1>   0.0800 
 40 H        1.6410    -2.4140     3.6510 H     1 <1>   0.0800 
 41 H        1.7620    -3.9300     2.7950 H     1 <1>   0.0800 
 42 H       -2.2740     4.0190    -0.4140 H     1 <1>   0.0800 
 43 H       -3.7940     4.8770    -0.5120 H     1 <1>   0.0800 
 44 H       -3.5370     3.4500    -1.4790 H     1 <1>   0.0800 
 45 H       -5.7700     2.2460     1.2830 H     1 <1>   0.0800 
 46 H       -5.6580     2.3900    -0.4600 H     1 <1>   0.0800 
 47 H       -5.9060     3.8150     0.5160 H     1 <1>   0.0800 
@<TRIPOS>BOND
  1   1   2  1   
  2   1   3  1   
  3   2   4  1   
  4   2   5  1   
  5   2   6  1   
  6   3   7  1   
  7   3   8  1   
  8   3  22  1   
  9   4   7  1   
 10   5  23  1   
 11   5  24  1   
 12   5  25  1   
 13   6  26  1   
 14   6  27  1   
 15   6  28  1   
 16   7   9  1   
 17   7  29  1   
 18   8  10  1   
 19   8  11  1   
 20   8  30  1   
 21   9  12  1   
 22   9  13  1   
 23   9  31  1   
 24  10  14  1   
 25  11  15  1   
 26  11  32  1   
 27  11  33  1   
 28  12  16  1   
 29  13  17  1   
 30  13  34  1   
 31  13  35  1   
 32  14  15  1   
 33  14  18  1   
 34  14  19  1   
 35  16  17  1   
 36  16  20  1   
 37  16  21  1   
 38  18  36  1   
 39  18  37  1   
 40  18  38  1   
 41  19  39  1   
 42  19  40  1   
 43  19  41  1   
 44  20  42  1   
 45  20  43  1   
 46  20  44  1   
 47  21  45  1   
 48  21  46  1   
 49  21  47  1   
@<TRIPOS>SUBSTRUCTURE
  1 ****   7 GROUP 4 **** **** 0

# MOE 2024.06 (io_trps.svl 2023.06)
