@<TRIPOS>MOLECULE
NONAME
40 42 1 0 0 
SMALL
USER_CHARGES


@<TRIPOS>ATOM
  1 CL      -1.9180    -0.0230     0.1490 Cl    1 <1>  -0.1770 
  2 C       -1.4560     1.6520    -0.0090 C.ar  1 <1>   0.1770 
  3 C       -0.4940     2.1730     0.8390 C.ar  1 <1>  -0.1500 
  4 C       -2.0590     2.4300    -0.9810 C.ar  1 <1>  -0.1500 
  5 C       -0.1330     3.5040     0.7160 C.ar  1 <1>  -0.1500 
  6 C       -1.6980     3.7620    -1.1020 C.ar  1 <1>  -0.1500 
  7 C       -0.7420     4.2990    -0.2460 C.ar  1 <1>   0.0830 
  8 O       -0.3780     5.6000    -0.3390 O.3   1 <1>  -0.1650 
  9 C       -1.3190     6.5740    -0.3820 C.ar  1 <1>   0.0830 
 10 C       -2.4760     6.5030     0.3840 C.ar  1 <1>  -0.1500 
 11 C       -1.1010     7.6670    -1.2030 C.ar  1 <1>  -0.1500 
 12 C       -3.4220     7.5150     0.3180 C.ar  1 <1>  -0.1430 
 13 C       -2.0380     8.6810    -1.2680 C.ar  1 <1>  -0.1500 
 14 C       -3.1950     8.6070    -0.5110 C.ar  1 <1>  -0.1500 
 15 C       -4.6900     7.4320     1.1450 C.3   1 <1>   0.4860 
 16 N       -5.8120     7.0350     0.2520 N.4   1 <1>  -0.9590 
 17 C       -7.1350     7.2450     0.9350 C.3   1 <1>   0.3430 
 18 C       -5.6270     5.6250    -0.2490 C.3   1 <1>   0.3430 
 19 C       -8.3260     7.0830    -0.0200 C.3   1 <1>   0.0700 
 20 C       -6.6260     5.2550    -1.3540 C.3   1 <1>   0.0700 
 21 S       -8.3100     5.4050    -0.7030 S.3   1 <1>  -0.4600 
 22 H       -0.0360     1.5420     1.5800 H     1 <1>   0.1500 
 23 H       -2.7910     1.9890    -1.6340 H     1 <1>   0.1500 
 24 H        0.6170     3.9290     1.3600 H     1 <1>   0.1500 
 25 H       -2.1420     4.3780    -1.8630 H     1 <1>   0.1500 
 26 H       -2.6180     5.6570     1.0350 H     1 <1>   0.1500 
 27 H       -0.1970     7.7200    -1.7860 H     1 <1>   0.1500 
 28 H       -1.8600     9.5320    -1.9060 H     1 <1>   0.1500 
 29 H       -3.9030     9.4170    -0.5730 H     1 <1>   0.1500 
 30 H       -4.8850     8.3970     1.5850 H     1 <1>   0.0800 
 31 H       -4.5680     6.7130     1.9400 H     1 <1>   0.0800 
 32 H       -5.7590     7.6560    -0.5660 H     1 <1>   0.4500 
 33 H       -7.1720     8.2370     1.3560 H     1 <1>   0.0800 
 34 H       -7.2430     6.5380     1.7430 H     1 <1>   0.0800 
 35 H       -5.7400     4.9300     0.5670 H     1 <1>   0.0800 
 36 H       -4.6320     5.5090    -0.6470 H     1 <1>   0.0800 
 37 H       -8.2820     7.7760    -0.8420 H     1 <1>   0.0800 
 38 H       -9.2610     7.2000     0.5000 H     1 <1>   0.0800 
 39 H       -6.5000     4.2330    -1.6640 H     1 <1>   0.0800 
 40 H       -6.5410     5.9030    -2.2080 H     1 <1>   0.0800 
@<TRIPOS>BOND
  1   1   2  1   
  2   2   3  ar  
  3   2   4  ar  
  4   3   5  ar  
  5   3  22  1   
  6   4   6  ar  
  7   4  23  1   
  8   5   7  ar  
  9   5  24  1   
 10   6   7  ar  
 11   6  25  1   
 12   7   8  1   
 13   8   9  1   
 14   9  10  ar  
 15   9  11  ar  
 16  10  12  ar  
 17  10  26  1   
 18  11  13  ar  
 19  11  27  1   
 20  12  14  ar  
 21  12  15  1   
 22  13  14  ar  
 23  13  28  1   
 24  14  29  1   
 25  15  16  1   
 26  15  30  1   
 27  15  31  1   
 28  16  17  1   
 29  16  18  1   
 30  16  32  1   
 31  17  19  1   
 32  17  33  1   
 33  17  34  1   
 34  18  20  1   
 35  18  35  1   
 36  18  36  1   
 37  19  21  1   
 38  19  37  1   
 39  19  38  1   
 40  20  21  1   
 41  20  39  1   
 42  20  40  1   
@<TRIPOS>SUBSTRUCTURE
  1 ****  10 GROUP 4 **** **** 0

# MOE 2024.06 (io_trps.svl 2023.06)
