@<TRIPOS>MOLECULE
NONAME
37 38 1 0 0 
SMALL
USER_CHARGES


@<TRIPOS>ATOM
  1 BR      -0.1570    -0.2240    -0.8460 Br    1 <1>  -0.1110 
  2 C        1.6370    -0.8220    -0.4390 C.ar  1 <1>   0.1110 
  3 C        2.1570    -1.8970    -1.1480 C.ar  1 <1>  -0.1440 
  4 C        2.3530    -0.1600     0.5500 C.ar  1 <1>  -0.1440 
  5 C        3.4430    -2.3120    -0.8450 C.ar  1 <1>  -0.1500 
  6 C        1.3550    -2.6120    -2.2240 C.3   1 <1>  -0.0960 
  7 C        3.6380    -0.5960     0.8330 C.ar  1 <1>  -0.1500 
  8 C        1.7560     1.0130     1.3150 C.3   1 <1>  -0.0960 
  9 C        4.1870    -1.6700     0.1340 C.ar  1 <1>   0.0830 
 10 O        5.4380    -2.1470     0.3480 O.3   1 <1>  -0.3630 
 11 C        6.3360    -1.4900     1.2310 C.3   1 <1>   0.1810 
 12 C        7.7190    -2.1360     1.2160 C.2   1 <1>   0.5690 
 13 O        8.1660    -2.4960     2.2820 O.2   1 <1>  -0.5700 
 14 N        8.4440    -2.2750     0.0550 N.am  1 <1>  -0.6600 
 15 C        9.7660    -2.9700     0.0390 C.3   1 <1>   0.1400 
 16 C        7.9910    -1.8470    -1.3040 C.3   1 <1>   0.1400 
 17 C       10.7910    -2.1770    -0.7880 C.3   1 <1>   0.1200 
 18 C        9.1220    -1.1260    -2.0580 C.3   1 <1>   0.1200 
 19 O       10.2880    -1.8980    -2.0650 O.3   1 <1>  -0.5600 
 20 H        3.8870    -3.1420    -1.3650 H     1 <1>   0.1500 
 21 H        1.0860    -1.9210    -3.0030 H     1 <1>   0.0800 
 22 H        0.4580    -3.0260    -1.8000 H     1 <1>   0.0800 
 23 H        1.9240    -3.4120    -2.6610 H     1 <1>   0.0800 
 24 H        4.1960    -0.0950     1.6000 H     1 <1>   0.1500 
 25 H        1.5010     1.8050     0.6340 H     1 <1>   0.0800 
 26 H        2.4510     1.3990     2.0390 H     1 <1>   0.0800 
 27 H        0.8670     0.6990     1.8330 H     1 <1>   0.0800 
 28 H        5.9280    -1.5480     2.2240 H     1 <1>   0.0800 
 29 H        6.4220    -0.4620     0.9320 H     1 <1>   0.0800 
 30 H        9.6450    -3.9480    -0.3920 H     1 <1>   0.0800 
 31 H       10.1420    -3.0950     1.0390 H     1 <1>   0.0800 
 32 H        7.1460    -1.1860    -1.2390 H     1 <1>   0.0800 
 33 H        7.6910    -2.7150    -1.8640 H     1 <1>   0.0800 
 34 H       11.6930    -2.7500    -0.9080 H     1 <1>   0.0800 
 35 H       11.0330    -1.2490    -0.3000 H     1 <1>   0.0800 
 36 H        9.3400    -0.1780    -1.5970 H     1 <1>   0.0800 
 37 H        8.8360    -0.9560    -3.0800 H     1 <1>   0.0800 
@<TRIPOS>BOND
  1   1   2  1   
  2   2   3  ar  
  3   2   4  ar  
  4   3   5  ar  
  5   3   6  1   
  6   4   7  ar  
  7   4   8  1   
  8   5   9  ar  
  9   5  20  1   
 10   6  21  1   
 11   6  22  1   
 12   6  23  1   
 13   7   9  ar  
 14   7  24  1   
 15   8  25  1   
 16   8  26  1   
 17   8  27  1   
 18   9  10  1   
 19  10  11  1   
 20  11  12  1   
 21  11  28  1   
 22  11  29  1   
 23  12  13  2   
 24  12  14  am  
 25  14  15  1   
 26  14  16  1   
 27  15  17  1   
 28  15  30  1   
 29  15  31  1   
 30  16  18  1   
 31  16  32  1   
 32  16  33  1   
 33  17  19  1   
 34  17  34  1   
 35  17  35  1   
 36  18  19  1   
 37  18  36  1   
 38  18  37  1   
@<TRIPOS>SUBSTRUCTURE
  1 ****  10 GROUP 4 **** **** 0

# MOE 2024.06 (io_trps.svl 2023.06)
