@<TRIPOS>MOLECULE
NONAME
35 36 1 0 0 
SMALL
USER_CHARGES


@<TRIPOS>ATOM
  1 S        0.0600     0.1470    -0.1600 S.o2  1 <1>   1.2950 
  2 O        0.3300     0.8070    -1.4220 O.2   1 <1>  -0.6500 
  3 O        0.2900     0.8640     1.0800 O.2   1 <1>  -0.6500 
  4 N       -1.6440    -0.3090    -0.1760 N.pl3 1 <1>   0.3170 
  5 C        0.9120    -1.4570    -0.1210 C.ar  1 <1>  -0.0090 
  6 C       -2.3950    -0.5590    -1.2760 C.2   1 <1>   0.0360 
  7 C       -2.4570    -0.6670     0.8500 C.2   1 <1>  -0.3020 
  8 C        2.2970    -1.4810     0.0040 C.ar  1 <1>   0.0830 
  9 C        0.2500    -2.6800    -0.2220 C.ar  1 <1>  -0.1500 
 10 N       -3.5730    -1.0350    -1.0300 N.2   1 <1>  -0.5650 
 11 C       -3.6170    -1.0980     0.3130 C.2   1 <1>   0.0770 
 12 O        2.9300    -0.2860     0.0860 O.3   1 <1>  -0.3620 
 13 C        2.9850    -2.6910     0.0390 C.ar  1 <1>  -0.1500 
 14 C        0.9280    -3.8880    -0.1900 C.ar  1 <1>  -0.1430 
 15 C        4.3220    -0.1680     0.2520 C.3   1 <1>   0.1200 
 16 C        2.3090    -3.8940    -0.0560 C.ar  1 <1>  -0.1430 
 17 C        0.1370    -5.1850    -0.3030 C.3   1 <1>  -0.0970 
 18 C        4.6570     1.3190     0.3270 C.3   1 <1>  -0.2400 
 19 C        3.0990    -5.1960    -0.0140 C.3   1 <1>  -0.0970 
 20 H       -2.0120    -0.3700    -2.2660 H     1 <1>   0.1500 
 21 H       -2.1570    -0.5880     1.8800 H     1 <1>   0.1500 
 22 H       -0.8180    -2.7180    -0.3300 H     1 <1>   0.1500 
 23 H       -4.4960    -1.4560     0.8260 H     1 <1>   0.1500 
 24 H        4.0530    -2.7080     0.1380 H     1 <1>   0.1500 
 25 H        4.8080    -0.6250    -0.5930 H     1 <1>   0.0800 
 26 H        4.6010    -0.6670     1.1640 H     1 <1>   0.0800 
 27 H       -0.9160    -4.9950    -0.4080 H     1 <1>   0.0800 
 28 H        0.2840    -5.7850     0.5770 H     1 <1>   0.0800 
 29 H        0.4630    -5.7410    -1.1640 H     1 <1>   0.0800 
 30 H        4.3560     1.8100    -0.5820 H     1 <1>   0.0800 
 31 H        5.7150     1.4500     0.4570 H     1 <1>   0.0800 
 32 H        4.1470     1.7690     1.1600 H     1 <1>   0.0800 
 33 H        4.1510    -5.0080     0.1000 H     1 <1>   0.0800 
 34 H        2.9530    -5.7460    -0.9260 H     1 <1>   0.0800 
 35 H        2.7740    -5.7980     0.8150 H     1 <1>   0.0800 
@<TRIPOS>BOND
  1   1   2  2   
  2   1   3  2   
  3   1   4  1   
  4   1   5  1   
  5   4   6  1   
  6   4   7  1   
  7   5   8  ar  
  8   5   9  ar  
  9   6  10  2   
 10   6  20  1   
 11   7  11  2   
 12   7  21  1   
 13   8  12  1   
 14   8  13  ar  
 15   9  14  ar  
 16   9  22  1   
 17  10  11  1   
 18  11  23  1   
 19  12  15  1   
 20  13  16  ar  
 21  13  24  1   
 22  14  16  ar  
 23  14  17  1   
 24  15  18  1   
 25  15  25  1   
 26  15  26  1   
 27  16  19  1   
 28  17  27  1   
 29  17  28  1   
 30  17  29  1   
 31  18  30  1   
 32  18  31  1   
 33  18  32  1   
 34  19  33  1   
 35  19  34  1   
 36  19  35  1   
@<TRIPOS>SUBSTRUCTURE
  1 ****   5 GROUP 4 **** **** 0

# MOE 2024.06 (io_trps.svl 2023.06)
