@<TRIPOS>MOLECULE
NONAME
34 34 1 0 0 
SMALL
USER_CHARGES


@<TRIPOS>ATOM
  1 O        0.3720     1.2630    -1.3180 O.2   1 <1>  -0.5700 
  2 C        0.1310     2.0060    -0.3870 C.2   1 <1>   0.5440 
  3 N        1.1120     2.3120     0.5190 N.am  1 <1>  -0.7300 
  4 C       -1.1880     2.5840    -0.2110 C.ar  1 <1>   0.0860 
  5 C        2.5110     1.8400     0.5630 C.3   1 <1>   0.2200 
  6 C       -2.3450     1.8090    -0.0620 C.ar  1 <1>  -0.1440 
  7 C       -1.3230     3.9720    -0.1700 C.ar  1 <1>  -0.1500 
  8 C        3.2600     2.2720    -0.7080 C.3   1 <1>  -0.1600 
  9 C        2.5300     0.3300     0.8030 C.3   1 <1>  -0.2400 
 10 C       -3.5740     2.4200     0.1230 C.ar  1 <1>  -0.1500 
 11 C       -2.2740     0.2870    -0.0980 C.3   1 <1>  -0.0970 
 12 C       -2.5500     4.5830     0.0170 C.ar  1 <1>  -0.1430 
 13 C        4.7800     2.0760    -0.6090 C.3   1 <1>  -0.2400 
 14 C       -3.6780     3.7980     0.1640 C.ar  1 <1>  -0.1500 
 15 C       -2.6720     6.0960     0.0560 C.3   1 <1>  -0.0970 
 16 H        0.8380     2.8820     1.3190 H     1 <1>   0.3700 
 17 H        2.9840     2.3180     1.4050 H     1 <1>   0.0800 
 18 H       -0.4410     4.5750    -0.2960 H     1 <1>   0.1500 
 19 H        3.0630     3.3140    -0.8870 H     1 <1>   0.0800 
 20 H        2.8910     1.7150    -1.5520 H     1 <1>   0.0800 
 21 H        2.1410    -0.1920    -0.0530 H     1 <1>   0.0800 
 22 H        1.9370     0.0840     1.6650 H     1 <1>   0.0800 
 23 H        3.5340    -0.0080     0.9770 H     1 <1>   0.0800 
 24 H       -4.4640     1.8250     0.2350 H     1 <1>   0.1500 
 25 H       -1.5290    -0.0680     0.5910 H     1 <1>   0.0800 
 26 H       -2.0100    -0.0410    -1.0880 H     1 <1>   0.0800 
 27 H       -3.2180    -0.1540     0.1670 H     1 <1>   0.0800 
 28 H        5.1760     2.6060     0.2390 H     1 <1>   0.0800 
 29 H        5.2530     2.4540    -1.4990 H     1 <1>   0.0800 
 30 H        5.0260     1.0330    -0.5180 H     1 <1>   0.0800 
 31 H       -4.6410     4.2550     0.3070 H     1 <1>   0.1500 
 32 H       -1.7030     6.5610     0.0780 H     1 <1>   0.0800 
 33 H       -3.2150     6.3990     0.9320 H     1 <1>   0.0800 
 34 H       -3.1980     6.4400    -0.8160 H     1 <1>   0.0800 
@<TRIPOS>BOND
  1   1   2  2   
  2   2   3  am  
  3   2   4  1   
  4   3   5  1   
  5   3  16  1   
  6   4   6  ar  
  7   4   7  ar  
  8   5   8  1   
  9   5   9  1   
 10   5  17  1   
 11   6  10  ar  
 12   6  11  1   
 13   7  12  ar  
 14   7  18  1   
 15   8  13  1   
 16   8  19  1   
 17   8  20  1   
 18   9  21  1   
 19   9  22  1   
 20   9  23  1   
 21  10  14  ar  
 22  10  24  1   
 23  11  25  1   
 24  11  26  1   
 25  11  27  1   
 26  12  14  ar  
 27  12  15  1   
 28  13  28  1   
 29  13  29  1   
 30  13  30  1   
 31  14  31  1   
 32  15  32  1   
 33  15  33  1   
 34  15  34  1   
@<TRIPOS>SUBSTRUCTURE
  1 ****   2 GROUP 4 **** **** 0

# MOE 2024.06 (io_trps.svl 2023.06)
