@<TRIPOS>MOLECULE
NONAME
41 42 1 0 0 
SMALL
USER_CHARGES


@<TRIPOS>ATOM
  1 CL       0.4250     0.4670    -2.1980 Cl    1 <1>  -0.1770 
  2 C        1.6640    -0.6500    -1.7160 C.ar  1 <1>   0.7970 
  3 N        2.7900    -0.1170    -1.3410 N.ar  1 <1>  -0.6200 
  4 N        1.3440    -1.9070    -1.7760 N.ar  1 <1>  -0.6200 
  5 C        3.6780    -1.0130    -0.9960 C.ar  1 <1>   0.7200 
  6 C        2.3200    -2.6840    -1.3920 C.ar  1 <1>   0.7200 
  7 N        3.4990    -2.3080    -0.9970 N.ar  1 <1>  -0.6200 
  8 N        4.8680    -0.4900    -0.5880 N.pl3 1 <1>  -0.6000 
  9 N        2.1190    -4.0150    -1.3890 N.pl3 1 <1>  -0.8690 
 10 C        6.0700    -1.0820    -0.1830 C.ar  1 <1>   0.1000 
 11 C        0.7660    -4.6500    -1.2370 C.3   1 <1>   0.2700 
 12 C        6.8270    -0.4650     0.8040 C.ar  1 <1>  -0.1500 
 13 C        6.5560    -2.2570    -0.7450 C.ar  1 <1>  -0.1500 
 14 C        0.2580    -4.7160     0.2070 C.2   1 <1>   0.6590 
 15 C        8.0280    -1.0090     1.2250 C.ar  1 <1>  -0.1500 
 16 C        7.7550    -2.8030    -0.3250 C.ar  1 <1>  -0.1500 
 17 O        0.1890    -5.7620     0.8020 O.2   1 <1>  -0.5700 
 18 O       -0.1040    -3.5650     0.7660 O.3   1 <1>  -0.4300 
 19 C        8.5060    -2.1850     0.6650 C.ar  1 <1>  -0.1430 
 20 C       -0.5660    -3.4960     2.0990 C.3   1 <1>   0.0400 
 21 C        9.8340    -2.7720     1.1410 C.3   1 <1>   0.0640 
 22 C       10.8480    -2.8290    -0.0060 C.3   1 <1>  -0.2400 
 23 C        9.6290    -4.1610     1.7540 C.3   1 <1>  -0.2400 
 24 H        4.8220     0.5230    -0.5130 H     1 <1>   0.4000 
 25 H        2.8910    -4.5280    -0.9600 H     1 <1>   0.4000 
 26 H        0.8130    -5.6530    -1.6220 H     1 <1>   0.0800 
 27 H        0.0430    -4.1130    -1.8250 H     1 <1>   0.0800 
 28 H        6.4740     0.4440     1.2530 H     1 <1>   0.1500 
 29 H        5.9970    -2.7480    -1.5200 H     1 <1>   0.1500 
 30 H        8.5890    -0.5090     1.9940 H     1 <1>   0.1500 
 31 H        8.1030    -3.7140    -0.7770 H     1 <1>   0.1500 
 32 H       -0.7950    -2.4700     2.3270 H     1 <1>   0.0800 
 33 H        0.2090    -3.8580     2.7540 H     1 <1>   0.0800 
 34 H       -1.4480    -4.1050     2.1950 H     1 <1>   0.0800 
 35 H       10.2400    -2.1330     1.9060 H     1 <1>   0.0800 
 36 H       10.5130    -3.4920    -0.7820 H     1 <1>   0.0800 
 37 H       11.8000    -3.1740     0.3550 H     1 <1>   0.0800 
 38 H       10.9770    -1.8470    -0.4270 H     1 <1>   0.0800 
 39 H        9.2690    -4.8560     1.0180 H     1 <1>   0.0800 
 40 H        8.9090    -4.1040     2.5510 H     1 <1>   0.0800 
 41 H       10.5550    -4.5320     2.1550 H     1 <1>   0.0800 
@<TRIPOS>BOND
  1   1   2  1   
  2   2   3  ar  
  3   2   4  ar  
  4   3   5  ar  
  5   4   6  ar  
  6   5   7  ar  
  7   5   8  1   
  8   6   7  ar  
  9   6   9  1   
 10   8  10  1   
 11   8  24  1   
 12   9  11  1   
 13   9  25  1   
 14  10  12  ar  
 15  10  13  ar  
 16  11  14  1   
 17  11  26  1   
 18  11  27  1   
 19  12  15  ar  
 20  12  28  1   
 21  13  16  ar  
 22  13  29  1   
 23  14  17  2   
 24  14  18  1   
 25  15  19  ar  
 26  15  30  1   
 27  16  19  ar  
 28  16  31  1   
 29  18  20  1   
 30  19  21  1   
 31  20  32  1   
 32  20  33  1   
 33  20  34  1   
 34  21  22  1   
 35  21  23  1   
 36  21  35  1   
 37  22  36  1   
 38  22  37  1   
 39  22  38  1   
 40  23  39  1   
 41  23  40  1   
 42  23  41  1   
@<TRIPOS>SUBSTRUCTURE
  1 ****   7 GROUP 4 **** **** 0

# MOE 2024.06 (io_trps.svl 2023.06)
