@<TRIPOS>MOLECULE
NONAME
37 37 1 0 0 
SMALL
USER_CHARGES


@<TRIPOS>ATOM
  1 S       -0.1630    -0.1320    -0.1410 S.o2  1 <1>   1.3330 
  2 O       -0.1340    -0.0380    -1.5830 O.2   1 <1>  -0.6500 
  3 O       -0.1870     1.0720     0.6590 O.2   1 <1>  -0.6500 
  4 N        1.1820    -1.0440     0.3370 N.am  1 <1>  -0.8490 
  5 C       -1.5380    -1.1700     0.3640 C.3   1 <1>  -0.0550 
  6 C        1.6000    -2.0270    -0.6800 C.3   1 <1>   0.1960 
  7 C        2.3300    -0.1860     0.6860 C.3   1 <1>   0.1960 
  8 C       -2.9170    -0.5690     0.0460 C.3   1 <1>  -0.1600 
  9 C        2.8030    -2.8610    -0.2000 C.3   1 <1>   0.1960 
 10 C        3.5540    -1.0080     1.1390 C.3   1 <1>   0.1960 
 11 C       -4.0480    -1.5000     0.4990 C.3   1 <1>  -0.1600 
 12 N        3.9580    -2.0070     0.1320 N.am  1 <1>  -0.8490 
 13 C       -5.4160    -0.8940     0.1790 C.3   1 <1>  -0.2400 
 14 S        5.3100    -2.8940     0.6340 S.o2  1 <1>   1.3330 
 15 O        6.1770    -2.0080     1.3750 O.2   1 <1>  -0.6500 
 16 O        4.8380    -4.1210     1.2340 O.2   1 <1>  -0.6500 
 17 C        6.1120    -3.2730    -0.9090 C.3   1 <1>  -0.1350 
 18 H       -1.4700    -1.3390     1.4220 H     1 <1>   0.0800 
 19 H       -1.4560    -2.1210    -0.1250 H     1 <1>   0.0800 
 20 H        1.8730    -1.5230    -1.5920 H     1 <1>   0.0800 
 21 H        0.7800    -2.6890    -0.8990 H     1 <1>   0.0800 
 22 H        2.0550     0.4770     1.4890 H     1 <1>   0.0800 
 23 H        2.6050     0.4200    -0.1610 H     1 <1>   0.0800 
 24 H       -2.9920    -0.3960    -1.0150 H     1 <1>   0.0800 
 25 H       -3.0100     0.3830     0.5440 H     1 <1>   0.0800 
 26 H        3.0790    -3.5540    -0.9760 H     1 <1>   0.0800 
 27 H        2.5030    -3.4320     0.6640 H     1 <1>   0.0800 
 28 H        3.3240    -1.5000     2.0700 H     1 <1>   0.0800 
 29 H        4.3680    -0.3270     1.3190 H     1 <1>   0.0800 
 30 H       -3.9770    -1.6690     1.5600 H     1 <1>   0.0800 
 31 H       -3.9580    -2.4510     0.0010 H     1 <1>   0.0800 
 32 H       -5.5390     0.0490     0.6850 H     1 <1>   0.0800 
 33 H       -6.1980    -1.5580     0.5030 H     1 <1>   0.0800 
 34 H       -5.5210    -0.7340    -0.8800 H     1 <1>   0.0800 
 35 H        6.3630    -2.3670    -1.4230 H     1 <1>   0.0800 
 36 H        5.4670    -3.8600    -1.5310 H     1 <1>   0.0800 
 37 H        7.0120    -3.8260    -0.7260 H     1 <1>   0.0800 
@<TRIPOS>BOND
  1   1   2  2   
  2   1   3  2   
  3   1   4  am  
  4   1   5  1   
  5   4   6  1   
  6   4   7  1   
  7   5   8  1   
  8   5  18  1   
  9   5  19  1   
 10   6   9  1   
 11   6  20  1   
 12   6  21  1   
 13   7  10  1   
 14   7  22  1   
 15   7  23  1   
 16   8  11  1   
 17   8  24  1   
 18   8  25  1   
 19   9  12  1   
 20   9  26  1   
 21   9  27  1   
 22  10  12  1   
 23  10  28  1   
 24  10  29  1   
 25  11  13  1   
 26  11  30  1   
 27  11  31  1   
 28  12  14  am  
 29  13  32  1   
 30  13  33  1   
 31  13  34  1   
 32  14  15  2   
 33  14  16  2   
 34  14  17  1   
 35  17  35  1   
 36  17  36  1   
 37  17  37  1   
@<TRIPOS>SUBSTRUCTURE
  1 ****   4 GROUP 4 **** **** 0

# MOE 2024.06 (io_trps.svl 2023.06)
