@<TRIPOS>MOLECULE
NONAME
41 43 1 0 0 
SMALL
USER_CHARGES


@<TRIPOS>ATOM
  1 I        0.0790     0.4760     0.8620 I     1 <1>  -0.0810 
  2 C        1.5870    -1.0260     0.7900 C.ar  1 <1>   0.0810 
  3 C        2.7020    -0.8110     0.0100 C.ar  1 <1>  -0.1500 
  4 C        1.4080    -2.1790     1.5300 C.ar  1 <1>  -0.1500 
  5 C        3.6990    -1.7830    -0.0450 C.ar  1 <1>   0.0860 
  6 C        2.3890    -3.1500     1.4690 C.ar  1 <1>  -0.1500 
  7 C        3.5290    -2.9750     0.6850 C.ar  1 <1>   0.1170 
  8 C        4.8740    -1.5710    -0.8490 C.2   1 <1>   0.5440 
  9 N        4.4780    -4.0050     0.6290 N.am  1 <1>  -0.5470 
 10 O        4.8090    -1.5640    -2.0620 O.2   1 <1>  -0.5700 
 11 N        6.0840    -1.4180    -0.2430 N.am  1 <1>  -0.7300 
 12 C        4.3090    -5.3300     0.3270 C.2   1 <1>   0.7150 
 13 C        7.3640    -1.8490    -0.8520 C.3   1 <1>   0.1400 
 14 O        5.2720    -6.0460     0.5170 O.2   1 <1>  -0.5700 
 15 C        3.0700    -5.8470    -0.2140 C.2   1 <1>   0.0550 
 16 C        7.6520    -3.3050    -0.4500 C.3   1 <1>   0.2000 
 17 O        2.6820    -7.0940     0.0410 O.3   1 <1>  -0.2800 
 18 C        2.1260    -5.2660    -1.0110 C.2   1 <1>  -0.1500 
 19 O        7.3540    -3.5040     0.9030 O.3   1 <1>  -0.5600 
 20 C        9.1030    -3.7320    -0.5940 C.3   1 <1>  -0.1600 
 21 C        1.5360    -7.3190    -0.5590 C.2   1 <1>  -0.0100 
 22 C        1.1330    -6.2210    -1.2310 C.2   1 <1>  -0.1500 
 23 C        8.1150    -4.5510     1.4300 C.3   1 <1>   0.1200 
 24 C        9.1950    -4.8740     0.4000 C.3   1 <1>  -0.1600 
 25 H        2.8110     0.0970    -0.5580 H     1 <1>   0.1500 
 26 H        0.5260    -2.3150     2.1330 H     1 <1>   0.1500 
 27 H        2.2700    -4.0580     2.0360 H     1 <1>   0.1500 
 28 H        5.4720    -3.7700     0.7750 H     1 <1>   0.3700 
 29 H        6.1160    -1.4850     0.7780 H     1 <1>   0.3700 
 30 H        8.1520    -1.2070    -0.5010 H     1 <1>   0.0800 
 31 H        7.3170    -1.7670    -1.9250 H     1 <1>   0.0800 
 32 H        7.0210    -3.9710    -1.0170 H     1 <1>   0.0800 
 33 H        2.1240    -4.2680    -1.4150 H     1 <1>   0.1500 
 34 H        9.7560    -2.9300    -0.2980 H     1 <1>   0.0800 
 35 H        9.3370    -4.0370    -1.5980 H     1 <1>   0.0800 
 36 H        1.0760    -8.2870    -0.4580 H     1 <1>   0.1500 
 37 H        0.2440    -6.0820    -1.8200 H     1 <1>   0.1500 
 38 H        7.4720    -5.3960     1.6080 H     1 <1>   0.0800 
 39 H        8.5430    -4.2150     2.3590 H     1 <1>   0.0800 
 40 H       10.1680    -4.9510     0.8520 H     1 <1>   0.0800 
 41 H        8.9540    -5.8090    -0.0760 H     1 <1>   0.0800 
@<TRIPOS>BOND
  1   1   2  1   
  2   2   3  ar  
  3   2   4  ar  
  4   3   5  ar  
  5   3  25  1   
  6   4   6  ar  
  7   4  26  1   
  8   5   7  ar  
  9   5   8  1   
 10   6   7  ar  
 11   6  27  1   
 12   7   9  1   
 13   8  10  2   
 14   8  11  am  
 15   9  12  am  
 16   9  28  1   
 17  11  13  1   
 18  11  29  1   
 19  12  14  2   
 20  12  15  1   
 21  13  16  1   
 22  13  30  1   
 23  13  31  1   
 24  15  17  1   
 25  15  18  2   
 26  16  19  1   
 27  16  20  1   
 28  16  32  1   
 29  17  21  1   
 30  18  22  1   
 31  18  33  1   
 32  19  23  1   
 33  20  24  1   
 34  20  34  1   
 35  20  35  1   
 36  21  22  2   
 37  21  36  1   
 38  22  37  1   
 39  23  24  1   
 40  23  38  1   
 41  23  39  1   
 42  24  40  1   
 43  24  41  1   
@<TRIPOS>SUBSTRUCTURE
  1 ****   9 GROUP 4 **** **** 0

# MOE 2024.06 (io_trps.svl 2023.06)
