@<TRIPOS>MOLECULE
NONAME
37 37 1 0 0 
SMALL
USER_CHARGES


@<TRIPOS>ATOM
  1 CL      -1.2320     0.4790    -2.8750 Cl    1 <1>  -0.1770 
  2 C       -2.1850     1.0740    -1.5290 C.ar  1 <1>   0.1770 
  3 C       -2.9340     0.1950    -0.7550 C.ar  1 <1>   0.0830 
  4 C       -2.1650     2.4320    -1.2720 C.ar  1 <1>  -0.1500 
  5 O       -2.9070    -1.1310    -1.0710 O.3   1 <1>  -0.3630 
  6 C       -3.6750     0.7080     0.3040 C.ar  1 <1>  -0.1500 
  7 C       -2.9140     2.9370    -0.2160 C.ar  1 <1>   0.0830 
  8 C       -3.6750    -2.0710    -0.3500 C.3   1 <1>   0.0400 
  9 C       -3.6770     2.0690     0.5760 C.ar  1 <1>   0.1990 
 10 O       -2.9580     4.2700     0.0950 O.3   1 <1>  -0.3630 
 11 N       -4.4300     2.5790     1.6290 N.am  1 <1>  -0.7570 
 12 C       -2.1070     5.1910    -0.5540 C.3   1 <1>   0.0400 
 13 S       -6.1280     2.4050     1.7890 S.o2  1 <1>   1.3330 
 14 O       -6.4250     0.9930     1.7890 O.2   1 <1>  -0.6500 
 15 O       -6.4780     3.2550     2.8990 O.2   1 <1>  -0.6500 
 16 C       -6.7210     3.1500     0.2670 C.3   1 <1>  -0.0550 
 17 C       -8.2540     3.1830     0.1520 C.3   1 <1>  -0.1600 
 18 C       -8.6980     3.8250    -1.1680 C.3   1 <1>  -0.1600 
 19 C      -10.2240     3.8550    -1.2750 C.3   1 <1>  -0.2400 
 20 H       -1.5680     3.0570    -1.9070 H     1 <1>   0.1500 
 21 H       -4.2550     0.0660     0.9390 H     1 <1>   0.1500 
 22 H       -3.5150    -3.0390    -0.7880 H     1 <1>   0.0800 
 23 H       -4.7150    -1.8050    -0.4220 H     1 <1>   0.0800 
 24 H       -3.3500    -2.0760     0.6760 H     1 <1>   0.0800 
 25 H       -4.1510     3.5070     1.9400 H     1 <1>   0.4200 
 26 H       -2.2650     6.1600    -0.1150 H     1 <1>   0.0800 
 27 H       -2.3550     5.2230    -1.6000 H     1 <1>   0.0800 
 28 H       -1.0850     4.8890    -0.4080 H     1 <1>   0.0800 
 29 H       -6.3260     2.6000    -0.5650 H     1 <1>   0.0800 
 30 H       -6.3480     4.1540     0.2020 H     1 <1>   0.0800 
 31 H       -8.6580     3.7410     0.9810 H     1 <1>   0.0800 
 32 H       -8.6350     2.1770     0.2120 H     1 <1>   0.0800 
 33 H       -8.2980     3.2660    -1.9970 H     1 <1>   0.0800 
 34 H       -8.3200     4.8320    -1.2290 H     1 <1>   0.0800 
 35 H      -10.6250     2.8570    -1.2390 H     1 <1>   0.0800 
 36 H      -10.5200     4.3080    -2.2050 H     1 <1>   0.0800 
 37 H      -10.6480     4.4270    -0.4680 H     1 <1>   0.0800 
@<TRIPOS>BOND
  1   1   2  1   
  2   2   3  ar  
  3   2   4  ar  
  4   3   5  1   
  5   3   6  ar  
  6   4   7  ar  
  7   4  20  1   
  8   5   8  1   
  9   6   9  ar  
 10   6  21  1   
 11   7   9  ar  
 12   7  10  1   
 13   8  22  1   
 14   8  23  1   
 15   8  24  1   
 16   9  11  1   
 17  10  12  1   
 18  11  13  am  
 19  11  25  1   
 20  12  26  1   
 21  12  27  1   
 22  12  28  1   
 23  13  14  2   
 24  13  15  2   
 25  13  16  1   
 26  16  17  1   
 27  16  29  1   
 28  16  30  1   
 29  17  18  1   
 30  17  31  1   
 31  17  32  1   
 32  18  19  1   
 33  18  33  1   
 34  18  34  1   
 35  19  35  1   
 36  19  36  1   
 37  19  37  1   
@<TRIPOS>SUBSTRUCTURE
  1 ****   9 GROUP 4 **** **** 0

# MOE 2024.06 (io_trps.svl 2023.06)
