@<TRIPOS>MOLECULE
NONAME
40 41 1 0 0 
SMALL
USER_CHARGES


@<TRIPOS>ATOM
  1 O       -8.4140    -0.5020    -1.8240 O.2   1 <1>  -0.5700 
  2 C       -9.1060    -0.0320    -0.9430 C.2   1 <1>   0.5440 
  3 N       -9.0830     1.2870    -0.5710 N.am  1 <1>  -0.4200 
  4 C      -10.0380    -0.7320    -0.1050 C.ar  1 <1>   0.0860 
  5 C       -9.9560     1.4610     0.4710 C.2   1 <1>   0.5440 
  6 C       -8.3420     2.3720    -1.2530 C.3   1 <1>   0.1400 
  7 C      -10.5650     0.1980     0.7780 C.ar  1 <1>   0.0860 
  8 C      -10.4420    -2.0600    -0.0510 C.ar  1 <1>  -0.1500 
  9 O      -10.1510     2.5240     1.0220 O.2   1 <1>  -0.5700 
 10 C       -6.9720     2.6100    -0.6000 C.3   1 <1>  -0.1600 
 11 C      -11.5040    -0.1900     1.7270 C.ar  1 <1>  -0.1500 
 12 C      -11.3780    -2.4450     0.8950 C.ar  1 <1>  -0.1500 
 13 C       -6.0410     1.3920    -0.7060 C.3   1 <1>  -0.1600 
 14 C      -11.9060    -1.5140     1.7810 C.ar  1 <1>  -0.1500 
 15 C       -4.6340     1.7020    -0.1820 C.3   1 <1>  -0.1600 
 16 C       -3.7420     0.4650    -0.3090 C.3   1 <1>   0.3430 
 17 N       -2.3420     0.7820     0.0960 N.4   1 <1>  -0.9590 
 18 C       -1.4120    -0.2980    -0.3590 C.3   1 <1>   0.2630 
 19 C       -2.2140     0.9910     1.5730 C.3   1 <1>   0.2630 
 20 H       -8.9260     3.2760    -1.2020 H     1 <1>   0.0800 
 21 H       -8.2160     2.1150    -2.2910 H     1 <1>   0.0800 
 22 H      -10.0260    -2.7720    -0.7430 H     1 <1>   0.1500 
 23 H       -7.1180     2.8840     0.4310 H     1 <1>   0.0800 
 24 H       -6.5150     3.4490    -1.0960 H     1 <1>   0.0800 
 25 H      -11.9060     0.5430     2.4070 H     1 <1>   0.1500 
 26 H      -11.6990    -3.4730     0.9460 H     1 <1>   0.1500 
 27 H       -5.9850     1.0810    -1.7370 H     1 <1>   0.0800 
 28 H       -6.4560     0.5760    -0.1390 H     1 <1>   0.0800 
 29 H      -12.6330    -1.8250     2.5130 H     1 <1>   0.1500 
 30 H       -4.7100     2.0060     0.8470 H     1 <1>   0.0800 
 31 H       -4.2170     2.5100    -0.7580 H     1 <1>   0.0800 
 32 H       -3.7550     0.1370    -1.3370 H     1 <1>   0.0800 
 33 H       -4.1340    -0.3340     0.3000 H     1 <1>   0.0800 
 34 H       -2.0750     1.6570    -0.3820 H     1 <1>   0.4500 
 35 H       -1.6650    -1.2340     0.1120 H     1 <1>   0.0800 
 36 H       -0.3950    -0.0480    -0.1040 H     1 <1>   0.0800 
 37 H       -1.4760    -0.4220    -1.4280 H     1 <1>   0.0800 
 38 H       -2.5170     0.1040     2.1050 H     1 <1>   0.0800 
 39 H       -2.8330     1.8130     1.8930 H     1 <1>   0.0800 
 40 H       -1.1910     1.2150     1.8320 H     1 <1>   0.0800 
@<TRIPOS>BOND
  1   1   2  2   
  2   2   3  am  
  3   2   4  1   
  4   3   5  am  
  5   3   6  1   
  6   4   7  ar  
  7   4   8  ar  
  8   5   7  1   
  9   5   9  2   
 10   6  10  1   
 11   6  20  1   
 12   6  21  1   
 13   7  11  ar  
 14   8  12  ar  
 15   8  22  1   
 16  10  13  1   
 17  10  23  1   
 18  10  24  1   
 19  11  14  ar  
 20  11  25  1   
 21  12  14  ar  
 22  12  26  1   
 23  13  15  1   
 24  13  27  1   
 25  13  28  1   
 26  14  29  1   
 27  15  16  1   
 28  15  30  1   
 29  15  31  1   
 30  16  17  1   
 31  16  32  1   
 32  16  33  1   
 33  17  18  1   
 34  17  19  1   
 35  17  34  1   
 36  18  35  1   
 37  18  36  1   
 38  18  37  1   
 39  19  38  1   
 40  19  39  1   
 41  19  40  1   
@<TRIPOS>SUBSTRUCTURE
  1 ****   3 GROUP 4 **** **** 0

# MOE 2024.06 (io_trps.svl 2023.06)
