@<TRIPOS>MOLECULE
NONAME
48 49 1 0 0 
SMALL
USER_CHARGES


@<TRIPOS>ATOM
  1 O       -4.3220    -7.1520     0.3240 O.3   1 <1>  -0.3630 
  2 C       -5.6680    -6.9570     0.3470 C.ar  1 <1>   0.0830 
  3 C       -3.7590    -8.4220     0.1160 C.3   1 <1>   0.1200 
  4 C       -6.1380    -5.6520     0.4920 C.ar  1 <1>  -0.1440 
  5 C       -6.5800    -8.0060     0.2280 C.ar  1 <1>  -0.1500 
  6 C       -2.2410    -8.2490     0.1170 C.3   1 <1>  -0.1600 
  7 C       -7.5040    -5.4160     0.5060 C.ar  1 <1>  -0.1500 
  8 C       -5.1920    -4.4640     0.6310 C.3   1 <1>   0.1220 
  9 C       -7.9400    -7.7560     0.2490 C.ar  1 <1>  -0.1500 
 10 C       -1.5420    -9.5900    -0.0910 C.3   1 <1>   0.3430 
 11 C       -8.4030    -6.4610     0.3870 C.ar  1 <1>  -0.1500 
 12 C       -5.0070    -3.7770    -0.7120 C.2   1 <1>  -0.2880 
 13 N       -0.0680    -9.3940    -0.1550 N.4   1 <1>  -0.9590 
 14 C       -5.2760    -2.4930    -0.9690 C.2   1 <1>  -0.3000 
 15 C        0.6090   -10.5780    -0.7490 C.3   1 <1>   0.3430 
 16 C        0.5250    -9.0840     1.1730 C.3   1 <1>   0.3430 
 17 C        1.9260   -10.1790    -1.4200 C.3   1 <1>  -0.1600 
 18 C        1.5370    -7.9450     1.0450 C.3   1 <1>  -0.1600 
 19 C        2.9420    -9.4310    -0.5360 C.3   1 <1>  -0.1600 
 20 C        2.4880    -8.0110    -0.1640 C.3   1 <1>  -0.1600 
 21 H       -4.1110    -8.7940    -0.8320 H     1 <1>   0.0800 
 22 H       -4.0800    -9.0660     0.9180 H     1 <1>   0.0800 
 23 H       -6.2590    -9.0230     0.1190 H     1 <1>   0.1500 
 24 H       -1.9550    -7.8180     1.0600 H     1 <1>   0.0800 
 25 H       -1.9770    -7.5760    -0.6790 H     1 <1>   0.0800 
 26 H       -7.8740    -4.4110     0.6060 H     1 <1>   0.1500 
 27 H       -4.2360    -4.7760     1.0070 H     1 <1>   0.0800 
 28 H       -5.5990    -3.7670     1.3430 H     1 <1>   0.0800 
 29 H       -8.6400    -8.5680     0.1580 H     1 <1>   0.1500 
 30 H       -1.8890   -10.0200    -1.0170 H     1 <1>   0.0800 
 31 H       -1.7920   -10.2680     0.7100 H     1 <1>   0.0800 
 32 H       -9.4610    -6.2640     0.4000 H     1 <1>   0.1500 
 33 H       -4.6280    -4.4520    -1.4610 H     1 <1>   0.1500 
 34 H        0.1310    -8.5910    -0.7670 H     1 <1>   0.4500 
 35 H       -5.1380    -2.0350    -1.9330 H     1 <1>   0.1500 
 36 H       -5.6580    -1.7940    -0.2450 H     1 <1>   0.1500 
 37 H       -0.0280   -11.0260    -1.4960 H     1 <1>   0.0800 
 38 H        0.7960   -11.3170     0.0140 H     1 <1>   0.0800 
 39 H        1.0200    -9.9590     1.5640 H     1 <1>   0.0800 
 40 H       -0.2400    -8.7960     1.8760 H     1 <1>   0.0800 
 41 H        1.7120    -9.5930    -2.2970 H     1 <1>   0.0800 
 42 H        2.3950   -11.0840    -1.7670 H     1 <1>   0.0800 
 43 H        2.1290    -7.9450     1.9450 H     1 <1>   0.0800 
 44 H        1.0110    -7.0060     1.0280 H     1 <1>   0.0800 
 45 H        3.8570    -9.3430    -1.0990 H     1 <1>   0.0800 
 46 H        3.1770   -10.0000     0.3480 H     1 <1>   0.0800 
 47 H        3.3610    -7.4230     0.0720 H     1 <1>   0.0800 
 48 H        2.0320    -7.5430    -1.0200 H     1 <1>   0.0800 
@<TRIPOS>BOND
  1   1   2  1   
  2   1   3  1   
  3   2   4  ar  
  4   2   5  ar  
  5   3   6  1   
  6   3  21  1   
  7   3  22  1   
  8   4   7  ar  
  9   4   8  1   
 10   5   9  ar  
 11   5  23  1   
 12   6  10  1   
 13   6  24  1   
 14   6  25  1   
 15   7  11  ar  
 16   7  26  1   
 17   8  12  1   
 18   8  27  1   
 19   8  28  1   
 20   9  11  ar  
 21   9  29  1   
 22  10  13  1   
 23  10  30  1   
 24  10  31  1   
 25  11  32  1   
 26  12  14  2   
 27  12  33  1   
 28  13  15  1   
 29  13  16  1   
 30  13  34  1   
 31  14  35  1   
 32  14  36  1   
 33  15  17  1   
 34  15  37  1   
 35  15  38  1   
 36  16  18  1   
 37  16  39  1   
 38  16  40  1   
 39  17  19  1   
 40  17  41  1   
 41  17  42  1   
 42  18  20  1   
 43  18  43  1   
 44  18  44  1   
 45  19  20  1   
 46  19  45  1   
 47  19  46  1   
 48  20  47  1   
 49  20  48  1   
@<TRIPOS>SUBSTRUCTURE
  1 ****   6 GROUP 4 **** **** 0

# MOE 2024.06 (io_trps.svl 2023.06)
