@<TRIPOS>MOLECULE
NONAME
38 39 1 0 0 
SMALL
USER_CHARGES


@<TRIPOS>ATOM
  1 BR      -0.0750    -0.8030     3.4240 Br    1 <1>  -0.1110 
  2 C       -0.1620    -2.1790     2.0730 C.ar  1 <1>   0.1110 
  3 C        0.9210    -2.4100     1.2410 C.ar  1 <1>   0.0830 
  4 C       -1.3300    -2.9090     1.9670 C.ar  1 <1>  -0.1500 
  5 O        2.0580    -1.6920     1.3400 O.3   1 <1>  -0.5330 
  6 C        0.8340    -3.4080     0.2740 C.ar  1 <1>   0.0830 
  7 C       -1.4270    -3.8970     0.9980 C.ar  1 <1>  -0.1430 
  8 O        1.9280    -3.6050    -0.5180 O.3   1 <1>  -0.3620 
  9 C       -0.3450    -4.1460     0.1600 C.ar  1 <1>  -0.1500 
 10 C       -2.7190    -4.6890     0.8580 C.3   1 <1>   0.2530 
 11 C        1.9830    -4.6730    -1.4380 C.3   1 <1>   0.0400 
 12 N       -3.8430    -3.7800     0.5590 N.3   1 <1>  -0.8100 
 13 C       -3.6610    -3.0540    -0.7260 C.3   1 <1>   0.1100 
 14 C       -5.1460    -4.4840     0.5800 C.3   1 <1>   0.1100 
 15 C       -4.8450    -2.1070    -1.0450 C.3   1 <1>   0.3430 
 16 C       -6.3350    -3.5250     0.3170 C.3   1 <1>   0.3430 
 17 N       -5.8610    -2.1240     0.0580 N.4   1 <1>  -0.9590 
 18 C       -6.9680    -1.1450    -0.1380 C.3   1 <1>   0.2630 
 19 H       -2.1510    -2.7010     2.6300 H     1 <1>   0.1500 
 20 H        2.7000    -2.0050     0.6720 H     1 <1>   0.4500 
 21 H       -0.4320    -4.9160    -0.5820 H     1 <1>   0.1500 
 22 H       -2.9080    -5.2010     1.7870 H     1 <1>   0.0800 
 23 H       -2.6250    -5.4290     0.0810 H     1 <1>   0.0800 
 24 H        2.9520    -4.6640    -1.9050 H     1 <1>   0.0800 
 25 H        1.2200    -4.5340    -2.1830 H     1 <1>   0.0800 
 26 H        1.8430    -5.5990    -0.9080 H     1 <1>   0.0800 
 27 H       -3.5430    -3.7570    -1.5330 H     1 <1>   0.0800 
 28 H       -2.7620    -2.4610    -0.6820 H     1 <1>   0.0800 
 29 H       -5.2850    -4.9500     1.5420 H     1 <1>   0.0800 
 30 H       -5.1530    -5.2660    -0.1610 H     1 <1>   0.0800 
 31 H       -5.3010    -2.4120    -1.9720 H     1 <1>   0.0800 
 32 H       -4.4630    -1.1080    -1.1790 H     1 <1>   0.0800 
 33 H       -6.9870    -3.5360     1.1760 H     1 <1>   0.0800 
 34 H       -6.9000    -3.8860    -0.5260 H     1 <1>   0.0800 
 35 H       -5.3080    -1.8910     0.9000 H     1 <1>   0.4500 
 36 H       -7.5370    -1.3930    -1.0190 H     1 <1>   0.0800 
 37 H       -6.5700    -0.1500    -0.2520 H     1 <1>   0.0800 
 38 H       -7.6290    -1.1530     0.7140 H     1 <1>   0.0800 
@<TRIPOS>BOND
  1   1   2  1   
  2   2   3  ar  
  3   2   4  ar  
  4   3   5  1   
  5   3   6  ar  
  6   4   7  ar  
  7   4  19  1   
  8   5  20  1   
  9   6   8  1   
 10   6   9  ar  
 11   7   9  ar  
 12   7  10  1   
 13   8  11  1   
 14   9  21  1   
 15  10  12  1   
 16  10  22  1   
 17  10  23  1   
 18  11  24  1   
 19  11  25  1   
 20  11  26  1   
 21  12  13  1   
 22  12  14  1   
 23  13  15  1   
 24  13  27  1   
 25  13  28  1   
 26  14  16  1   
 27  14  29  1   
 28  14  30  1   
 29  15  17  1   
 30  15  31  1   
 31  15  32  1   
 32  16  17  1   
 33  16  33  1   
 34  16  34  1   
 35  17  18  1   
 36  17  35  1   
 37  18  36  1   
 38  18  37  1   
 39  18  38  1   
@<TRIPOS>SUBSTRUCTURE
  1 ****   7 GROUP 4 **** **** 0

# MOE 2024.06 (io_trps.svl 2023.06)
