@<TRIPOS>MOLECULE
NONAME
43 45 1 0 0 
SMALL
USER_CHARGES


@<TRIPOS>ATOM
  1 S       -1.3630     0.3360    -0.8330 S.3   1 <1>  -0.0800 
  2 C       -1.8230     1.2280     0.6110 C.2   1 <1>  -0.1400 
  3 C       -0.0050     1.4090    -1.1160 C.2   1 <1>  -0.1100 
  4 C       -0.9770     2.2550     0.8210 C.2   1 <1>  -0.1500 
  5 C       -3.0420     0.7350     1.3590 C.3   1 <1>   0.5230 
  6 C        0.0570     2.3570    -0.1630 C.2   1 <1>  -0.1500 
  7 N       -4.2060     0.7860     0.4390 N.4   1 <1>  -0.9590 
  8 C       -4.5170     2.1990     0.0050 C.3   1 <1>   0.3430 
  9 C       -5.4230     0.1110     1.0180 C.3   1 <1>   0.3430 
 10 C       -5.7140     2.2780    -0.9660 C.3   1 <1>   0.2090 
 11 C       -6.6210     0.1240     0.0460 C.3   1 <1>   0.2090 
 12 N       -6.8850     1.4960    -0.4700 N.pl3 1 <1>  -0.8380 
 13 C       -7.9850     2.1750     0.0570 C.ar  1 <1>   0.1000 
 14 C       -9.2610     2.0460    -0.5040 C.ar  1 <1>  -0.1430 
 15 C       -7.8150     2.9800     1.1780 C.ar  1 <1>  -0.1500 
 16 C      -10.3410     2.7030     0.0790 C.ar  1 <1>  -0.1430 
 17 C       -9.4650     1.1850    -1.7530 C.3   1 <1>  -0.0970 
 18 C       -8.8850     3.6400     1.7450 C.ar  1 <1>  -0.1500 
 19 C      -10.1440     3.4990     1.1970 C.ar  1 <1>  -0.1500 
 20 C      -11.7580     2.5820    -0.4690 C.3   1 <1>  -0.0970 
 21 H        0.6150     1.2150    -1.9750 H     1 <1>   0.1500 
 22 H       -1.0170     2.9630     1.6330 H     1 <1>   0.1500 
 23 H       -3.2190     1.3530     2.2240 H     1 <1>   0.0800 
 24 H       -2.8690    -0.2780     1.6860 H     1 <1>   0.0800 
 25 H        0.8010     3.1350    -0.1080 H     1 <1>   0.1500 
 26 H       -3.9250     0.2740    -0.4090 H     1 <1>   0.4500 
 27 H       -3.6560     2.6360    -0.4730 H     1 <1>   0.0800 
 28 H       -4.7500     2.7970     0.8700 H     1 <1>   0.0800 
 29 H       -5.7230     0.6190     1.9190 H     1 <1>   0.0800 
 30 H       -5.1940    -0.9100     1.2730 H     1 <1>   0.0800 
 31 H       -5.4240     1.8980    -1.9300 H     1 <1>   0.0800 
 32 H       -6.0020     3.3080    -1.0990 H     1 <1>   0.0800 
 33 H       -7.4970    -0.2420     0.5550 H     1 <1>   0.0800 
 34 H       -6.4290    -0.5340    -0.7830 H     1 <1>   0.0800 
 35 H       -6.8450     3.0910     1.6170 H     1 <1>   0.1500 
 36 H       -8.5620     1.1100    -2.3290 H     1 <1>   0.0800 
 37 H      -10.2110     1.6090    -2.3980 H     1 <1>   0.0800 
 38 H       -9.7730     0.1970    -1.4640 H     1 <1>   0.0800 
 39 H       -8.7460     4.2630     2.6120 H     1 <1>   0.1500 
 40 H      -10.9730     4.0150     1.6490 H     1 <1>   0.1500 
 41 H      -12.0110     1.5480    -0.6230 H     1 <1>   0.0800 
 42 H      -11.8340     3.1070    -1.4040 H     1 <1>   0.0800 
 43 H      -12.4740     3.0000     0.2140 H     1 <1>   0.0800 
@<TRIPOS>BOND
  1   1   2  1   
  2   1   3  1   
  3   2   4  2   
  4   2   5  1   
  5   3   6  2   
  6   3  21  1   
  7   4   6  1   
  8   4  22  1   
  9   5   7  1   
 10   5  23  1   
 11   5  24  1   
 12   6  25  1   
 13   7   8  1   
 14   7   9  1   
 15   7  26  1   
 16   8  10  1   
 17   8  27  1   
 18   8  28  1   
 19   9  11  1   
 20   9  29  1   
 21   9  30  1   
 22  10  12  1   
 23  10  31  1   
 24  10  32  1   
 25  11  12  1   
 26  11  33  1   
 27  11  34  1   
 28  12  13  1   
 29  13  14  ar  
 30  13  15  ar  
 31  14  16  ar  
 32  14  17  1   
 33  15  18  ar  
 34  15  35  1   
 35  16  19  ar  
 36  16  20  1   
 37  17  36  1   
 38  17  37  1   
 39  17  38  1   
 40  18  19  ar  
 41  18  39  1   
 42  19  40  1   
 43  20  41  1   
 44  20  42  1   
 45  20  43  1   
@<TRIPOS>SUBSTRUCTURE
  1 ****  10 GROUP 4 **** **** 0

# MOE 2024.06 (io_trps.svl 2023.06)
