@<TRIPOS>MOLECULE
NONAME
56 59 1 0 0 
SMALL
USER_CHARGES


@<TRIPOS>ATOM
  1 O        1.3130    -0.2400     0.3220 O.2   1 <1>  -0.5700 
  2 C        2.1050    -1.0880     0.6870 C.2   1 <1>   0.5440 
  3 N        3.3320    -0.6480     1.1300 N.am  1 <1>  -0.6600 
  4 C        1.7990    -2.5030     0.5770 C.ar  1 <1>   0.0860 
  5 C        4.5470    -1.0500     0.3710 C.3   1 <1>   0.1400 
  6 C        3.4330     0.7240     1.7090 C.3   1 <1>   0.1400 
  7 C        0.9640    -2.9810    -0.4290 C.ar  1 <1>  -0.1500 
  8 C        2.3310    -3.4400     1.4620 C.ar  1 <1>  -0.1500 
  9 C        4.8140    -0.0320    -0.7600 C.3   1 <1>   0.3430 
 10 C        3.6730     1.7460     0.5830 C.3   1 <1>   0.3430 
 11 C        0.6770    -4.3260    -0.5730 C.ar  1 <1>   0.0820 
 12 C        2.0610    -4.7900     1.3350 C.ar  1 <1>  -0.1500 
 13 N        4.8770     1.3890    -0.2590 N.4   1 <1>  -0.9590 
 14 O       -0.1490    -4.6310    -1.6110 O.3   1 <1>  -0.3620 
 15 C        1.2400    -5.2590     0.3120 C.ar  1 <1>   0.0820 
 16 C        5.0350     2.3520    -1.3810 C.3   1 <1>   0.4860 
 17 C       -1.1260    -5.6400    -1.4770 C.3   1 <1>   0.0400 
 18 O        0.9930    -6.5870     0.1480 O.3   1 <1>  -0.3630 
 19 C        5.3410     3.7170    -0.7980 C.ar  1 <1>  -0.1440 
 20 C        1.5690    -7.5780     0.9710 C.3   1 <1>   0.0400 
 21 C        4.3930     4.7080    -0.7850 C.ar  1 <1>  -0.1500 
 22 C        6.6100     3.9710    -0.2550 C.ar  1 <1>  -0.1500 
 23 C        4.6550     5.9730    -0.2230 C.ar  1 <1>   0.0000 
 24 C        6.8900     5.1900     0.2960 C.ar  1 <1>  -0.1500 
 25 C        5.9280     6.2180     0.3320 C.ar  1 <1>   0.0000 
 26 C        3.6940     7.0040    -0.1930 C.ar  1 <1>  -0.1500 
 27 C        6.1900     7.4820     0.8990 C.ar  1 <1>  -0.1500 
 28 C        3.9750     8.2200     0.3630 C.ar  1 <1>  -0.1500 
 29 C        5.2370     8.4620     0.9170 C.ar  1 <1>  -0.1500 
 30 H        4.4090    -2.0290    -0.0570 H     1 <1>   0.0800 
 31 H        5.3910    -1.0980     1.0370 H     1 <1>   0.0800 
 32 H        4.2330     0.7610     2.4280 H     1 <1>   0.0800 
 33 H        2.5180     0.9690     2.2230 H     1 <1>   0.0800 
 34 H        0.5190    -2.2860    -1.1200 H     1 <1>   0.1500 
 35 H        2.9630    -3.1040     2.2660 H     1 <1>   0.1500 
 36 H        4.0160    -0.1210    -1.4800 H     1 <1>   0.0800 
 37 H        5.7350    -0.2890    -1.2560 H     1 <1>   0.0800 
 38 H        3.8010     2.7250     1.0160 H     1 <1>   0.0800 
 39 H        2.7890     1.7710    -0.0350 H     1 <1>   0.0800 
 40 H        2.5010    -5.4640     2.0460 H     1 <1>   0.1500 
 41 H        5.7020     1.4990     0.3420 H     1 <1>   0.4500 
 42 H        4.1300     2.3940    -1.9660 H     1 <1>   0.0800 
 43 H        5.8460     2.0520    -2.0250 H     1 <1>   0.0800 
 44 H       -1.8990    -5.4560    -2.2010 H     1 <1>   0.0800 
 45 H       -1.5350    -5.6060    -0.4830 H     1 <1>   0.0800 
 46 H       -0.6690    -6.5940    -1.6700 H     1 <1>   0.0800 
 47 H        1.2340    -8.5380     0.6210 H     1 <1>   0.0800 
 48 H        1.2430    -7.4250     1.9840 H     1 <1>   0.0800 
 49 H        2.6400    -7.5170     0.8940 H     1 <1>   0.0800 
 50 H        3.4140     4.5510    -1.2050 H     1 <1>   0.1500 
 51 H        7.3730     3.2110    -0.2750 H     1 <1>   0.1500 
 52 H        7.8620     5.3920     0.7120 H     1 <1>   0.1500 
 53 H        2.7240     6.8200    -0.6210 H     1 <1>   0.1500 
 54 H        7.1610     7.6660     1.3220 H     1 <1>   0.1500 
 55 H        3.2380     9.0050     0.3830 H     1 <1>   0.1500 
 56 H        5.4420     9.4260     1.3500 H     1 <1>   0.1500 
@<TRIPOS>BOND
  1   1   2  2   
  2   2   3  am  
  3   2   4  1   
  4   3   5  1   
  5   3   6  1   
  6   4   7  ar  
  7   4   8  ar  
  8   5   9  1   
  9   5  30  1   
 10   5  31  1   
 11   6  10  1   
 12   6  32  1   
 13   6  33  1   
 14   7  11  ar  
 15   7  34  1   
 16   8  12  ar  
 17   8  35  1   
 18   9  13  1   
 19   9  36  1   
 20   9  37  1   
 21  10  13  1   
 22  10  38  1   
 23  10  39  1   
 24  11  14  1   
 25  11  15  ar  
 26  12  15  ar  
 27  12  40  1   
 28  13  16  1   
 29  13  41  1   
 30  14  17  1   
 31  15  18  1   
 32  16  19  1   
 33  16  42  1   
 34  16  43  1   
 35  17  44  1   
 36  17  45  1   
 37  17  46  1   
 38  18  20  1   
 39  19  21  ar  
 40  19  22  ar  
 41  20  47  1   
 42  20  48  1   
 43  20  49  1   
 44  21  23  ar  
 45  21  50  1   
 46  22  24  ar  
 47  22  51  1   
 48  23  25  ar  
 49  23  26  ar  
 50  24  25  ar  
 51  24  52  1   
 52  25  27  ar  
 53  26  28  ar  
 54  26  53  1   
 55  27  29  ar  
 56  27  54  1   
 57  28  29  ar  
 58  28  55  1   
 59  29  56  1   
@<TRIPOS>SUBSTRUCTURE
  1 ****  10 GROUP 4 **** **** 0

# MOE 2024.06 (io_trps.svl 2023.06)
