@<TRIPOS>MOLECULE
NONAME
48 49 1 0 0 
SMALL
USER_CHARGES


@<TRIPOS>ATOM
  1 O        0.2120     0.8540    -1.9490 O.2   1 <1>  -0.5700 
  2 C        0.0940     1.6470    -1.0350 C.2   1 <1>   0.5440 
  3 N       -1.1520     1.8710    -0.5280 N.am  1 <1>  -0.7300 
  4 C        1.2510     2.3290    -0.4870 C.ar  1 <1>   0.0860 
  5 C       -2.4030     1.3790    -1.1120 C.3   1 <1>   0.3640 
  6 C        2.5110     1.7330    -0.5190 C.ar  1 <1>  -0.1500 
  7 C        1.1570     3.5970     0.0900 C.ar  1 <1>  -0.1500 
  8 C       -3.4970     2.3900    -0.7870 C.ar  1 <1>  -0.1430 
  9 C       -2.7100    -0.0060    -0.5470 C.3   1 <1>  -0.2400 
 10 C        3.6340     2.3580     0.0100 C.ar  1 <1>   0.0830 
 11 C        2.2610     4.2340     0.6240 C.ar  1 <1>  -0.1500 
 12 C       -4.0990     3.1020    -1.8120 C.ar  1 <1>  -0.1500 
 13 C       -3.9040     2.6310     0.5170 C.ar  1 <1>  -0.1500 
 14 O        4.8710     1.7830    -0.0160 O.3   1 <1>  -0.3630 
 15 C        3.5100     3.6220     0.5930 C.ar  1 <1>   0.0830 
 16 C       -5.0900     4.0380    -1.5640 C.ar  1 <1>   0.0830 
 17 C       -4.8990     3.5540     0.7860 C.ar  1 <1>  -0.1500 
 18 C        5.1090     0.5600    -0.6770 C.3   1 <1>   0.0400 
 19 O        4.6250     4.2080     1.1070 O.3   1 <1>  -0.3630 
 20 O       -5.5710     4.6610    -2.6790 O.3   1 <1>  -0.3630 
 21 C       -5.5130     4.2640    -0.2430 C.ar  1 <1>   0.0830 
 22 C        4.6020     5.4890     1.6960 C.3   1 <1>   0.0400 
 23 C       -6.1060     5.9640    -2.6290 C.3   1 <1>   0.0400 
 24 O       -6.5170     5.1520     0.0160 O.3   1 <1>  -0.3630 
 25 C       -7.1740     5.1960     1.2640 C.3   1 <1>   0.0400 
 26 H       -1.2880     2.5360     0.2300 H     1 <1>   0.3700 
 27 H       -2.2860     1.3010    -2.1810 H     1 <1>   0.0800 
 28 H        2.5820     0.7620    -0.9720 H     1 <1>   0.1500 
 29 H        0.2060     4.0990     0.1150 H     1 <1>   0.1500 
 30 H       -2.7510     0.0120     0.5250 H     1 <1>   0.0800 
 31 H       -1.9500    -0.6990    -0.8600 H     1 <1>   0.0800 
 32 H       -3.6560    -0.3460    -0.9260 H     1 <1>   0.0800 
 33 H        2.1320     5.2080     1.0570 H     1 <1>   0.1500 
 34 H       -3.7990     2.9400    -2.8320 H     1 <1>   0.1500 
 35 H       -3.4500     2.0970     1.3340 H     1 <1>   0.1500 
 36 H       -5.1800     3.7040     1.8100 H     1 <1>   0.1500 
 37 H        6.1580     0.3390    -0.5990 H     1 <1>   0.0800 
 38 H        4.8330     0.6630    -1.7120 H     1 <1>   0.0800 
 39 H        4.5360    -0.2130    -0.1980 H     1 <1>   0.0800 
 40 H        5.6010     5.7240     2.0160 H     1 <1>   0.0800 
 41 H        3.9410     5.4720     2.5440 H     1 <1>   0.0800 
 42 H        4.2750     6.2040     0.9620 H     1 <1>   0.0800 
 43 H       -6.1120     6.3620    -3.6270 H     1 <1>   0.0800 
 44 H       -5.4890     6.5730    -1.9920 H     1 <1>   0.0800 
 45 H       -7.1120     5.9130    -2.2530 H     1 <1>   0.0800 
 46 H       -8.0020     5.8770     1.1810 H     1 <1>   0.0800 
 47 H       -6.4860     5.5500     2.0100 H     1 <1>   0.0800 
 48 H       -7.5350     4.2110     1.5040 H     1 <1>   0.0800 
@<TRIPOS>BOND
  1   1   2  2   
  2   2   3  am  
  3   2   4  1   
  4   3   5  1   
  5   3  26  1   
  6   4   6  ar  
  7   4   7  ar  
  8   5   8  1   
  9   5   9  1   
 10   5  27  1   
 11   6  10  ar  
 12   6  28  1   
 13   7  11  ar  
 14   7  29  1   
 15   8  12  ar  
 16   8  13  ar  
 17   9  30  1   
 18   9  31  1   
 19   9  32  1   
 20  10  14  1   
 21  10  15  ar  
 22  11  15  ar  
 23  11  33  1   
 24  12  16  ar  
 25  12  34  1   
 26  13  17  ar  
 27  13  35  1   
 28  14  18  1   
 29  15  19  1   
 30  16  20  1   
 31  16  21  ar  
 32  17  21  ar  
 33  17  36  1   
 34  18  37  1   
 35  18  38  1   
 36  18  39  1   
 37  19  22  1   
 38  20  23  1   
 39  21  24  1   
 40  22  40  1   
 41  22  41  1   
 42  22  42  1   
 43  23  43  1   
 44  23  44  1   
 45  23  45  1   
 46  24  25  1   
 47  25  46  1   
 48  25  47  1   
 49  25  48  1   
@<TRIPOS>SUBSTRUCTURE
  1 ****   3 GROUP 4 **** **** 0

# MOE 2024.06 (io_trps.svl 2023.06)
