@<TRIPOS>MOLECULE
NONAME
33 33 1 0 0 
SMALL
USER_CHARGES


@<TRIPOS>ATOM
  1 O       -1.0680    -3.6030    -2.1260 O.2   1 <1>  -0.5700 
  2 C       -1.0920    -2.6710    -1.3420 C.2   1 <1>   0.5440 
  3 N        0.0910    -2.3210    -0.7650 N.am  1 <1>  -0.7300 
  4 C       -2.3320    -1.9620    -1.0600 C.ar  1 <1>   0.0860 
  5 C        1.3600    -3.1060    -0.8360 C.3   1 <1>   0.2010 
  6 C       -2.5530    -1.1800     0.0920 C.ar  1 <1>   0.0830 
  7 C       -3.3830    -2.0510    -1.9790 C.ar  1 <1>  -0.1500 
  8 C        2.2330    -2.9670     0.4120 C.2   1 <1>   0.6590 
  9 O       -1.5600    -1.0870     1.0140 O.3   1 <1>  -0.3630 
 10 C       -3.7670    -0.5230     0.2820 C.ar  1 <1>  -0.1500 
 11 C       -4.5840    -1.4010    -1.7850 C.ar  1 <1>  -0.1500 
 12 O        1.9870    -2.1740     1.2900 O.2   1 <1>  -0.5700 
 13 O        3.2900    -3.7700     0.4710 O.3   1 <1>  -0.4300 
 14 C       -1.6820    -0.3980     2.2400 C.3   1 <1>   0.0400 
 15 C       -4.7860    -0.6300    -0.6540 C.ar  1 <1>   0.0830 
 16 C        4.1810    -3.7480     1.5670 C.3   1 <1>   0.0400 
 17 O       -5.9900    -0.0230    -0.5390 O.3   1 <1>  -0.3630 
 18 C       -6.3170     0.7880     0.5670 C.3   1 <1>   0.0400 
 19 H        0.0430    -1.6660     0.0290 H     1 <1>   0.3700 
 20 H        1.9240    -2.7740    -1.6880 H     1 <1>   0.0800 
 21 H        1.1270    -4.1460    -0.9740 H     1 <1>   0.0800 
 22 H       -3.2490    -2.6450    -2.8670 H     1 <1>   0.1500 
 23 H       -3.9240     0.0720     1.1570 H     1 <1>   0.1500 
 24 H       -5.3750    -1.4860    -2.5090 H     1 <1>   0.1500 
 25 H       -0.7590    -0.5170     2.7810 H     1 <1>   0.0800 
 26 H       -2.4920    -0.8270     2.8030 H     1 <1>   0.0800 
 27 H       -1.8550     0.6440     2.0400 H     1 <1>   0.0800 
 28 H        4.9520    -4.4770     1.3960 H     1 <1>   0.0800 
 29 H        3.6360    -3.9870     2.4640 H     1 <1>   0.0800 
 30 H        4.6110    -2.7640     1.6460 H     1 <1>   0.0800 
 31 H       -7.3190     1.1520     0.4280 H     1 <1>   0.0800 
 32 H       -5.6300     1.6140     0.6100 H     1 <1>   0.0800 
 33 H       -6.2650     0.1940     1.4620 H     1 <1>   0.0800 
@<TRIPOS>BOND
  1   1   2  2   
  2   2   3  am  
  3   2   4  1   
  4   3   5  1   
  5   3  19  1   
  6   4   6  ar  
  7   4   7  ar  
  8   5   8  1   
  9   5  20  1   
 10   5  21  1   
 11   6   9  1   
 12   6  10  ar  
 13   7  11  ar  
 14   7  22  1   
 15   8  12  2   
 16   8  13  1   
 17   9  14  1   
 18  10  15  ar  
 19  10  23  1   
 20  11  15  ar  
 21  11  24  1   
 22  13  16  1   
 23  14  25  1   
 24  14  26  1   
 25  14  27  1   
 26  15  17  1   
 27  16  28  1   
 28  16  29  1   
 29  16  30  1   
 30  17  18  1   
 31  18  31  1   
 32  18  32  1   
 33  18  33  1   
@<TRIPOS>SUBSTRUCTURE
  1 ****   4 GROUP 4 **** **** 0

# MOE 2024.06 (io_trps.svl 2023.06)
