@<TRIPOS>MOLECULE
NONAME
51 53 1 0 0 
SMALL
USER_CHARGES


@<TRIPOS>ATOM
  1 N       -1.0280     0.6060     0.8780 N.ar  1 <1>  -0.6200 
  2 C       -1.6520     0.7390    -0.2620 C.ar  1 <1>   0.7200 
  3 C       -0.3860     1.6640     1.2570 C.ar  1 <1>   0.7200 
  4 N       -1.6770     1.8330    -0.9940 N.ar  1 <1>  -0.6200 
  5 N       -2.3570    -0.3080    -0.7690 N.pl3 1 <1>  -0.6000 
  6 N       -0.3100     2.8050     0.6200 N.ar  1 <1>  -0.6200 
  7 N        0.2620     1.5830     2.4170 N.pl3 1 <1>  -0.9000 
  8 C       -0.9810     2.8200    -0.5010 C.ar  1 <1>   0.4770 
  9 C       -2.5580    -1.5850    -0.2310 C.ar  1 <1>   0.1000 
 10 C       -0.9780     4.1400    -1.2820 C.3   1 <1>   0.4860 
 11 C       -1.5380    -2.5400    -0.1360 C.ar  1 <1>  -0.1440 
 12 C       -3.8340    -1.9020     0.2120 C.ar  1 <1>  -0.1500 
 13 N       -1.2820     5.3270    -0.4010 N.4   1 <1>  -0.9590 
 14 C       -1.8130    -3.7840     0.4280 C.ar  1 <1>  -0.1430 
 15 C       -0.1330    -2.2200    -0.6490 C.3   1 <1>  -0.0970 
 16 C       -4.1060    -3.1400     0.7570 C.ar  1 <1>  -0.1500 
 17 C       -2.6670     5.2530     0.1500 C.3   1 <1>   0.3430 
 18 C       -1.0010     6.6230    -1.0770 C.3   1 <1>   0.3430 
 19 C       -3.0960    -4.0750     0.8670 C.ar  1 <1>  -0.1500 
 20 C       -0.7430    -4.8570     0.5910 C.3   1 <1>  -0.0970 
 21 C       -2.8750     6.3790     1.1620 C.3   1 <1>  -0.1600 
 22 C       -1.1850     7.7690    -0.0820 C.3   1 <1>  -0.1600 
 23 C       -2.5860     7.7570     0.5480 C.3   1 <1>  -0.0800 
 24 C       -2.7110     8.8570     1.6070 C.3   1 <1>  -0.2400 
 25 H       -2.8990    -0.0770    -1.5960 H     1 <1>   0.4000 
 26 H        1.0120     2.2360     2.6260 H     1 <1>   0.4000 
 27 H        0.3180     0.6620     2.8510 H     1 <1>   0.4000 
 28 H       -1.7030     4.0740    -2.0750 H     1 <1>   0.0800 
 29 H       -0.0040     4.2570    -1.7240 H     1 <1>   0.0800 
 30 H       -4.6190    -1.1730     0.1350 H     1 <1>   0.1500 
 31 H       -0.6470     5.2340     0.4080 H     1 <1>   0.4500 
 32 H       -0.1590    -1.4840    -1.4310 H     1 <1>   0.0800 
 33 H        0.3420    -3.0910    -1.0580 H     1 <1>   0.0800 
 34 H        0.4660    -1.8420     0.1590 H     1 <1>   0.0800 
 35 H       -5.0990    -3.3760     1.0990 H     1 <1>   0.1500 
 36 H       -2.8250     4.3040     0.6390 H     1 <1>   0.0800 
 37 H       -3.3860     5.3490    -0.6480 H     1 <1>   0.0800 
 38 H       -1.6760     6.7580    -1.9070 H     1 <1>   0.0800 
 39 H        0.0100     6.6360    -1.4530 H     1 <1>   0.0800 
 40 H       -3.3180    -5.0350     1.2990 H     1 <1>   0.1500 
 41 H        0.1320    -4.4410     1.0560 H     1 <1>   0.0800 
 42 H       -0.4770    -5.2570    -0.3710 H     1 <1>   0.0800 
 43 H       -1.0950    -5.6630     1.2080 H     1 <1>   0.0800 
 44 H       -2.2400     6.2100     2.0150 H     1 <1>   0.0800 
 45 H       -3.8930     6.3490     1.5100 H     1 <1>   0.0800 
 46 H       -1.0340     8.7030    -0.5960 H     1 <1>   0.0800 
 47 H       -0.4320     7.6990     0.6840 H     1 <1>   0.0800 
 48 H       -3.3140     7.9500    -0.2240 H     1 <1>   0.0800 
 49 H       -2.0020     8.7100     2.4030 H     1 <1>   0.0800 
 50 H       -3.7010     8.8600     2.0290 H     1 <1>   0.0800 
 51 H       -2.5350     9.8230     1.1670 H     1 <1>   0.0800 
@<TRIPOS>BOND
  1   1   2  ar  
  2   1   3  ar  
  3   2   4  ar  
  4   2   5  1   
  5   3   6  ar  
  6   3   7  1   
  7   4   8  ar  
  8   5   9  1   
  9   5  25  1   
 10   6   8  ar  
 11   7  26  1   
 12   7  27  1   
 13   8  10  1   
 14   9  11  ar  
 15   9  12  ar  
 16  10  13  1   
 17  10  28  1   
 18  10  29  1   
 19  11  14  ar  
 20  11  15  1   
 21  12  16  ar  
 22  12  30  1   
 23  13  17  1   
 24  13  18  1   
 25  13  31  1   
 26  14  19  ar  
 27  14  20  1   
 28  15  32  1   
 29  15  33  1   
 30  15  34  1   
 31  16  19  ar  
 32  16  35  1   
 33  17  21  1   
 34  17  36  1   
 35  17  37  1   
 36  18  22  1   
 37  18  38  1   
 38  18  39  1   
 39  19  40  1   
 40  20  41  1   
 41  20  42  1   
 42  20  43  1   
 43  21  23  1   
 44  21  44  1   
 45  21  45  1   
 46  22  23  1   
 47  22  46  1   
 48  22  47  1   
 49  23  24  1   
 50  23  48  1   
 51  24  49  1   
 52  24  50  1   
 53  24  51  1   
@<TRIPOS>SUBSTRUCTURE
  1 ****   2 GROUP 4 **** **** 0

# MOE 2024.06 (io_trps.svl 2023.06)
