@<TRIPOS>MOLECULE
NONAME
41 43 1 0 0 
SMALL
USER_CHARGES


@<TRIPOS>ATOM
  1 O        0.0440    -0.1710     1.0910 O.co2 1 <1>  -0.9000 
  2 C        0.4350    -1.0260     0.2890 C.2   1 <1>   0.9060 
  3 O       -0.2570    -1.3690    -0.6700 O.co2 1 <1>  -0.9000 
  4 C        1.7650    -1.6900     0.5660 C.3   1 <1>  -0.1860 
  5 C        3.0380    -0.8380     0.8630 C.3   1 <1>  -0.0190 
  6 C        2.2550    -2.5720    -0.5930 C.3   1 <1>   0.2000 
  7 C        3.1460     0.6780     0.6250 C.2   1 <1>   0.5690 
  8 C        4.0360    -1.5320    -0.0780 C.3   1 <1>   0.2000 
  9 O        3.2380    -1.7910    -1.1670 O.3   1 <1>  -0.5600 
 10 C        3.1110    -3.7170    -0.0450 C.3   1 <1>  -0.1600 
 11 O        4.2530     1.1580     0.7380 O.2   1 <1>  -0.5700 
 12 N        2.0570     1.4590     0.3680 N.am  1 <1>  -0.5470 
 13 C        4.3710    -2.9570     0.3830 C.3   1 <1>  -0.1600 
 14 C        1.9010     2.8290     0.1070 C.ar  1 <1>   0.1170 
 15 C        2.9380     3.6520    -0.3160 C.ar  1 <1>  -0.1500 
 16 C        0.6380     3.3780     0.2690 C.ar  1 <1>  -0.1500 
 17 C        2.7370     5.0100    -0.5530 C.ar  1 <1>   0.0820 
 18 C        0.4190     4.7240     0.0400 C.ar  1 <1>  -0.1500 
 19 O        3.7490     5.8200    -0.9890 O.3   1 <1>  -0.3630 
 20 C        1.4570     5.5510    -0.3550 C.ar  1 <1>   0.0820 
 21 C        5.0300     5.3040    -1.2800 C.3   1 <1>   0.0400 
 22 O        1.1370     6.8650    -0.5340 O.3   1 <1>  -0.3630 
 23 C        1.9850     7.8520     0.0110 C.3   1 <1>   0.0400 
 24 H        1.5640    -2.3160     1.4130 H     1 <1>   0.0800 
 25 H        3.3390    -0.9960     1.8810 H     1 <1>   0.0800 
 26 H        1.5120    -2.8680    -1.3160 H     1 <1>   0.0800 
 27 H        4.8950    -0.9470    -0.3600 H     1 <1>   0.0800 
 28 H        3.3290    -4.4110    -0.8360 H     1 <1>   0.0800 
 29 H        2.6310    -4.2340     0.7660 H     1 <1>   0.0800 
 30 H        1.1570     0.9690     0.5240 H     1 <1>   0.3700 
 31 H        4.5470    -3.0030     1.4430 H     1 <1>   0.0800 
 32 H        5.2360    -3.3200    -0.1430 H     1 <1>   0.0800 
 33 H        3.8980     3.2040    -0.4590 H     1 <1>   0.1500 
 34 H       -0.1730     2.7390     0.5770 H     1 <1>   0.1500 
 35 H       -0.5630     5.1390     0.1700 H     1 <1>   0.1500 
 36 H        5.6460     6.1140    -1.6270 H     1 <1>   0.0800 
 37 H        5.4500     4.8820    -0.3840 H     1 <1>   0.0800 
 38 H        4.9390     4.5570    -2.0490 H     1 <1>   0.0800 
 39 H        2.7780     8.0510    -0.6870 H     1 <1>   0.0800 
 40 H        1.4050     8.7430     0.1650 H     1 <1>   0.0800 
 41 H        2.3820     7.5000     0.9470 H     1 <1>   0.0800 
@<TRIPOS>BOND
  1   1   2  ar  
  2   2   3  ar  
  3   2   4  1   
  4   4   5  1   
  5   4   6  1   
  6   4  24  1   
  7   5   7  1   
  8   5   8  1   
  9   5  25  1   
 10   6   9  1   
 11   6  10  1   
 12   6  26  1   
 13   7  11  2   
 14   7  12  am  
 15   8   9  1   
 16   8  13  1   
 17   8  27  1   
 18  10  13  1   
 19  10  28  1   
 20  10  29  1   
 21  12  14  1   
 22  12  30  1   
 23  13  31  1   
 24  13  32  1   
 25  14  15  ar  
 26  14  16  ar  
 27  15  17  ar  
 28  15  33  1   
 29  16  18  ar  
 30  16  34  1   
 31  17  19  1   
 32  17  20  ar  
 33  18  20  ar  
 34  18  35  1   
 35  19  21  1   
 36  20  22  1   
 37  21  36  1   
 38  21  37  1   
 39  21  38  1   
 40  22  23  1   
 41  23  39  1   
 42  23  40  1   
 43  23  41  1   
@<TRIPOS>SUBSTRUCTURE
  1 ****  12 GROUP 4 **** **** 0

# MOE 2024.06 (io_trps.svl 2023.06)
