@<TRIPOS>MOLECULE
NONAME
48 50 1 0 0 
SMALL
USER_CHARGES


@<TRIPOS>ATOM
  1 CL       1.8090     1.7480     2.1600 Cl    1 <1>  -0.1770 
  2 C        2.6220     1.6520     0.6190 C.ar  1 <1>   0.1770 
  3 C        3.6640     0.7610     0.4670 C.ar  1 <1>  -0.1500 
  4 C        2.2110     2.4710    -0.4160 C.ar  1 <1>  -0.1500 
  5 C        4.3270     0.6740    -0.7520 C.ar  1 <1>   0.1000 
  6 C        2.8640     2.3880    -1.6340 C.ar  1 <1>  -0.1500 
  7 N        5.3940    -0.2010    -0.9490 N.pl3 1 <1>  -0.8380 
  8 C        3.9110     1.4960    -1.7950 C.ar  1 <1>  -0.1500 
  9 C        6.7580     0.3760    -1.1480 C.3   1 <1>   0.2090 
 10 C        5.3440    -1.6020    -0.4260 C.3   1 <1>   0.2090 
 11 C        7.6390     0.1730     0.1020 C.3   1 <1>   0.3430 
 12 C        6.2620    -1.7890     0.8020 C.3   1 <1>   0.3430 
 13 N        7.6500    -1.2600     0.5690 N.4   1 <1>  -0.9590 
 14 C        8.5570    -1.4750     1.7230 C.3   1 <1>   0.4860 
 15 C        9.9700    -1.1490     1.2800 C.ar  1 <1>  -0.1430 
 16 C       10.5490    -1.8420     0.2210 C.ar  1 <1>   0.0830 
 17 C       10.6780    -0.1500     1.9300 C.ar  1 <1>  -0.1500 
 18 O        9.7870    -2.8300    -0.3410 O.3   1 <1>  -0.3630 
 19 C       11.8370    -1.4940    -0.2190 C.ar  1 <1>   0.0830 
 20 C       11.9560     0.1730     1.5190 C.ar  1 <1>  -0.1500 
 21 C       10.3860    -4.0410    -0.7660 C.3   1 <1>   0.0400 
 22 O       12.3690    -2.1240    -1.3060 O.3   1 <1>  -0.3630 
 23 C       12.5320    -0.4900     0.4510 C.ar  1 <1>  -0.1500 
 24 C       13.6570    -1.8220    -1.7990 C.3   1 <1>   0.0400 
 25 H        3.9500     0.1510     1.2980 H     1 <1>   0.1500 
 26 H        1.3950     3.1560    -0.2700 H     1 <1>   0.1500 
 27 H        2.5560     3.0140    -2.4550 H     1 <1>   0.1500 
 28 H        4.4120     1.4260    -2.7440 H     1 <1>   0.1500 
 29 H        6.6810     1.4300    -1.3570 H     1 <1>   0.0800 
 30 H        7.2210    -0.0930    -1.9980 H     1 <1>   0.0800 
 31 H        5.6490    -2.2750    -1.2090 H     1 <1>   0.0800 
 32 H        4.3310    -1.8550    -0.1630 H     1 <1>   0.0800 
 33 H        7.2600     0.8060     0.8870 H     1 <1>   0.0800 
 34 H        8.6430     0.4930    -0.1250 H     1 <1>   0.0800 
 35 H        6.3050    -2.8370     1.0490 H     1 <1>   0.0800 
 36 H        5.8170    -1.2700     1.6340 H     1 <1>   0.0800 
 37 H        8.0910    -1.8130    -0.1880 H     1 <1>   0.4500 
 38 H        8.5190    -2.5060     2.0360 H     1 <1>   0.0800 
 39 H        8.2690    -0.8490     2.5510 H     1 <1>   0.0800 
 40 H       10.2490     0.3870     2.7610 H     1 <1>   0.1500 
 41 H       12.5090     0.9450     2.0280 H     1 <1>   0.1500 
 42 H       10.7580    -3.9140    -1.7680 H     1 <1>   0.0800 
 43 H        9.6400    -4.8140    -0.7550 H     1 <1>   0.0800 
 44 H       11.1900    -4.2950    -0.0970 H     1 <1>   0.0800 
 45 H       13.5240    -0.2020     0.1570 H     1 <1>   0.1500 
 46 H       13.6850    -0.7890    -2.0980 H     1 <1>   0.0800 
 47 H       13.8450    -2.4510    -2.6500 H     1 <1>   0.0800 
 48 H       14.3830    -2.0230    -1.0310 H     1 <1>   0.0800 
@<TRIPOS>BOND
  1   1   2  1   
  2   2   3  ar  
  3   2   4  ar  
  4   3   5  ar  
  5   3  25  1   
  6   4   6  ar  
  7   4  26  1   
  8   5   7  1   
  9   5   8  ar  
 10   6   8  ar  
 11   6  27  1   
 12   7   9  1   
 13   7  10  1   
 14   8  28  1   
 15   9  11  1   
 16   9  29  1   
 17   9  30  1   
 18  10  12  1   
 19  10  31  1   
 20  10  32  1   
 21  11  13  1   
 22  11  33  1   
 23  11  34  1   
 24  12  13  1   
 25  12  35  1   
 26  12  36  1   
 27  13  14  1   
 28  13  37  1   
 29  14  15  1   
 30  14  38  1   
 31  14  39  1   
 32  15  16  ar  
 33  15  17  ar  
 34  16  18  1   
 35  16  19  ar  
 36  17  20  ar  
 37  17  40  1   
 38  18  21  1   
 39  19  22  1   
 40  19  23  ar  
 41  20  23  ar  
 42  20  41  1   
 43  21  42  1   
 44  21  43  1   
 45  21  44  1   
 46  22  24  1   
 47  23  45  1   
 48  24  46  1   
 49  24  47  1   
 50  24  48  1   
@<TRIPOS>SUBSTRUCTURE
  1 ****  11 GROUP 4 **** **** 0

# MOE 2024.06 (io_trps.svl 2023.06)
