@<TRIPOS>MOLECULE
NONAME
37 38 1 0 0 
SMALL
USER_CHARGES


@<TRIPOS>ATOM
  1 CL      -0.2850    -0.2360     0.5330 Cl    1 <1>  -0.1770 
  2 C       -1.7120     0.7290     0.2760 C.ar  1 <1>   0.1770 
  3 C       -1.5860     2.0190    -0.2000 C.ar  1 <1>  -0.1500 
  4 C       -2.9550     0.1940     0.5520 C.ar  1 <1>  -0.1500 
  5 C       -2.7250     2.7800    -0.4010 C.ar  1 <1>  -0.1500 
  6 C       -4.0870     0.9640     0.3470 C.ar  1 <1>  -0.1500 
  7 C       -4.0030     2.2760    -0.1340 C.ar  1 <1>   0.0860 
  8 C       -5.1820     3.0950    -0.3530 C.2   1 <1>   0.6340 
  9 O       -5.1390     4.2340    -0.7670 O.2   1 <1>  -0.5700 
 10 O       -6.3870     2.5730    -0.0850 O.3   1 <1>  -0.4300 
 11 C       -7.5600     3.3340    -0.2900 C.3   1 <1>   0.1200 
 12 C       -8.7720     2.4960     0.1330 C.3   1 <1>   0.3430 
 13 N      -10.0730     3.1960    -0.1250 N.4   1 <1>  -0.9590 
 14 C      -10.2410     4.4200     0.7200 C.3   1 <1>   0.3430 
 15 C      -11.2140     2.2500     0.0620 C.3   1 <1>   0.3430 
 16 C      -11.5280     5.1470     0.3270 C.3   1 <1>  -0.1600 
 17 C      -12.5210     2.9300    -0.3480 C.3   1 <1>  -0.1600 
 18 C      -12.7540     4.2310     0.4320 C.3   1 <1>  -0.1600 
 19 H       -0.6090     2.4180    -0.4080 H     1 <1>   0.1500 
 20 H       -3.0270    -0.8140     0.9220 H     1 <1>   0.1500 
 21 H       -2.6230     3.7870    -0.7720 H     1 <1>   0.1500 
 22 H       -5.0490     0.5350     0.5660 H     1 <1>   0.1500 
 23 H       -7.6110     3.5850    -1.3360 H     1 <1>   0.0800 
 24 H       -7.4780     4.2290     0.3020 H     1 <1>   0.0800 
 25 H       -8.6880     2.2630     1.1820 H     1 <1>   0.0800 
 26 H       -8.7500     1.5730    -0.4240 H     1 <1>   0.0800 
 27 H      -10.0980     3.4990    -1.1080 H     1 <1>   0.4500 
 28 H       -9.4040     5.0870     0.5860 H     1 <1>   0.0800 
 29 H      -10.2890     4.1420     1.7610 H     1 <1>   0.0800 
 30 H      -11.2740     1.9500     1.0960 H     1 <1>   0.0800 
 31 H      -11.0670     1.3680    -0.5410 H     1 <1>   0.0800 
 32 H      -11.4350     5.5220    -0.6780 H     1 <1>   0.0800 
 33 H      -11.6640     5.9960     0.9740 H     1 <1>   0.0800 
 34 H      -13.3410     2.2560    -0.1650 H     1 <1>   0.0800 
 35 H      -12.5050     3.1330    -1.4050 H     1 <1>   0.0800 
 36 H      -13.6240     4.7380     0.0490 H     1 <1>   0.0800 
 37 H      -12.9410     3.9990     1.4680 H     1 <1>   0.0800 
@<TRIPOS>BOND
  1   1   2  1   
  2   2   3  ar  
  3   2   4  ar  
  4   3   5  ar  
  5   3  19  1   
  6   4   6  ar  
  7   4  20  1   
  8   5   7  ar  
  9   5  21  1   
 10   6   7  ar  
 11   6  22  1   
 12   7   8  1   
 13   8   9  2   
 14   8  10  1   
 15  10  11  1   
 16  11  12  1   
 17  11  23  1   
 18  11  24  1   
 19  12  13  1   
 20  12  25  1   
 21  12  26  1   
 22  13  14  1   
 23  13  15  1   
 24  13  27  1   
 25  14  16  1   
 26  14  28  1   
 27  14  29  1   
 28  15  17  1   
 29  15  30  1   
 30  15  31  1   
 31  16  18  1   
 32  16  32  1   
 33  16  33  1   
 34  17  18  1   
 35  17  34  1   
 36  17  35  1   
 37  18  36  1   
 38  18  37  1   
@<TRIPOS>SUBSTRUCTURE
  1 ****  10 GROUP 4 **** **** 0

# MOE 2024.06 (io_trps.svl 2023.06)
