@<TRIPOS>MOLECULE
NONAME
50 53 1 0 0 
SMALL
USER_CHARGES


@<TRIPOS>ATOM
  1 O       -1.6530     0.9090    -1.6060 O.3   1 <1>  -0.3680 
  2 C       -1.9560     1.0520    -0.2880 C.ar  1 <1>   0.0750 
  3 C       -1.3110     2.0200    -2.4090 C.3   1 <1>   0.0320 
  4 C       -2.3030    -0.0950     0.4200 C.ar  1 <1>  -0.1510 
  5 C       -1.9190     2.2830     0.3630 C.ar  1 <1>  -0.1570 
  6 C       -2.5900     0.0040     1.7770 C.ar  1 <1>  -0.1570 
  7 C       -2.3340    -1.4380    -0.3070 C.3   1 <1>   0.5730 
  8 C       -2.2150     2.3680     1.7100 C.ar  1 <1>  -0.1570 
  9 C       -2.5490     1.2290     2.4180 C.ar  1 <1>  -0.1570 
 10 N       -3.5030    -2.2640     0.0890 N.pl3 1 <1>  -0.4620 
 11 C       -1.0410    -2.2130    -0.0140 C.3   1 <1>  -0.1670 
 12 N       -4.7850    -1.8270     0.3380 N.2   1 <1>  -0.2670 
 13 C       -3.4520    -3.5720     0.1670 C.cat 1 <1>   1.0690 
 14 C       -1.1110    -3.6560    -0.5270 C.3   1 <1>   0.3850 
 15 C       -5.4170    -2.9160     0.5900 C.2   1 <1>   0.7460 
 16 N       -4.6370    -4.0080     0.5090 N.pl3 1 <1>  -0.7040 
 17 N       -2.3640    -4.2860    -0.1010 N.pl3 1 <1>  -0.7180 
 18 C        0.0200    -4.5220    -0.0050 C.ar  1 <1>  -0.1510 
 19 N       -6.7290    -3.0610     0.8890 N.pl3 1 <1>  -0.8980 
 20 C        0.1830    -4.7590     1.3540 C.ar  1 <1>  -0.1570 
 21 C        0.9020    -5.1090    -0.9000 C.ar  1 <1>  -0.1570 
 22 C        1.2060    -5.5730     1.8050 C.ar  1 <1>  -0.1570 
 23 C        1.9240    -5.9230    -0.4450 C.ar  1 <1>  -0.1570 
 24 C        2.0820    -6.1610     0.9090 C.ar  1 <1>  -0.1510 
 25 C        3.2050    -7.0570     1.4060 C.3   1 <1>  -0.0250 
 26 C        2.7350    -8.5100     1.4930 C.3   1 <1>  -0.2470 
 27 H       -1.1270     1.6690    -3.4080 H     1 <1>   0.0720 
 28 H       -0.4210     2.4770    -2.0140 H     1 <1>   0.0720 
 29 H       -2.1310     2.7160    -2.4130 H     1 <1>   0.0720 
 30 H       -1.6600     3.1860    -0.1560 H     1 <1>   0.1430 
 31 H       -2.8510    -0.8650     2.3540 H     1 <1>   0.1430 
 32 H       -2.4140    -1.2840    -1.3690 H     1 <1>   0.0720 
 33 H       -2.1850     3.3210     2.2090 H     1 <1>   0.1430 
 34 H       -2.7750     1.3000     3.4680 H     1 <1>   0.1430 
 35 H       -0.8520    -2.2020     1.0450 H     1 <1>   0.0720 
 36 H       -0.2150    -1.7080    -0.4810 H     1 <1>   0.0720 
 37 H       -1.0840    -3.6470    -1.6050 H     1 <1>   0.0720 
 38 H       -4.9820    -4.9560     0.5880 H     1 <1>   0.4450 
 39 H       -2.2940    -5.2920     0.0620 H     1 <1>   0.4450 
 40 H       -6.9190    -3.5370     1.7730 H     1 <1>   0.3940 
 41 H       -7.2270    -2.1650     0.8730 H     1 <1>   0.3940 
 42 H       -0.4760    -4.3180     2.0800 H     1 <1>   0.1430 
 43 H        0.8090    -4.9460    -1.9600 H     1 <1>   0.1430 
 44 H        1.3230    -5.7510     2.8610 H     1 <1>   0.1430 
 45 H        2.6000    -6.3750    -1.1500 H     1 <1>   0.1430 
 46 H        3.5320    -6.7260     2.3770 H     1 <1>   0.0720 
 47 H        4.0460    -6.9900     0.7390 H     1 <1>   0.0720 
 48 H        1.9070    -8.5930     2.1750 H     1 <1>   0.0720 
 49 H        3.5360    -9.1370     1.8440 H     1 <1>   0.0720 
 50 H        2.4220    -8.8580     0.5250 H     1 <1>   0.0720 
@<TRIPOS>BOND
  1   1   2  1   
  2   1   3  1   
  3   2   4  ar  
  4   2   5  ar  
  5   3  27  1   
  6   3  28  1   
  7   3  29  1   
  8   4   6  ar  
  9   4   7  1   
 10   5   8  ar  
 11   5  30  1   
 12   6   9  ar  
 13   6  31  1   
 14   7  10  1   
 15   7  11  1   
 16   7  32  1   
 17   8   9  ar  
 18   8  33  1   
 19   9  34  1   
 20  10  12  1   
 21  10  13  ar  
 22  11  14  1   
 23  11  35  1   
 24  11  36  1   
 25  12  15  2   
 26  13  16  ar  
 27  13  17  ar  
 28  14  17  1   
 29  14  18  1   
 30  14  37  1   
 31  15  16  1   
 32  15  19  1   
 33  16  38  1   
 34  17  39  1   
 35  18  20  ar  
 36  18  21  ar  
 37  19  40  1   
 38  19  41  1   
 39  20  22  ar  
 40  20  42  1   
 41  21  23  ar  
 42  21  43  1   
 43  22  24  ar  
 44  22  44  1   
 45  23  24  ar  
 46  23  45  1   
 47  24  25  1   
 48  25  26  1   
 49  25  46  1   
 50  25  47  1   
 51  26  48  1   
 52  26  49  1   
 53  26  50  1   
@<TRIPOS>SUBSTRUCTURE
  1 ****  11 GROUP 4 **** **** 0

# MOE 2024.06 (io_trps.svl 2023.06)
