@<TRIPOS>MOLECULE
Structure536
26 27 1 0 0 
SMALL
USER_CHARGES


@<TRIPOS>ATOM
  1 CL      -0.2050    -0.4220    -1.0980 Cl    1 <1>  -0.1770 
  2 C       -1.1380    -1.7070    -0.3930 C.ar  1 <1>   0.7970 
  3 N       -2.4410    -1.6160    -0.5670 N.ar  1 <1>  -0.6200 
  4 N       -0.4350    -2.6320     0.2400 N.ar  1 <1>  -0.6200 
  5 C       -3.1420    -2.5940    -0.0330 C.ar  1 <1>   0.4100 
  6 C       -1.1610    -3.5940     0.7710 C.ar  1 <1>   0.1600 
  7 N       -4.5100    -2.5660    -0.1900 N.pl3 1 <1>  -0.8380 
  8 C       -2.5240    -3.6180     0.6620 C.ar  1 <1>  -0.1500 
  9 C       -5.2060    -3.7180    -0.8190 C.3   1 <1>   0.2090 
 10 C       -5.2170    -1.2620    -0.3310 C.3   1 <1>   0.2090 
 11 C       -6.5970    -3.8620    -0.2040 C.3   1 <1>  -0.1600 
 12 C       -6.6150    -1.3770     0.2770 C.3   1 <1>  -0.1600 
 13 C       -7.3720    -2.5510    -0.3410 C.3   1 <1>   0.2000 
 14 O       -8.5770    -2.6870     0.3100 O.3   1 <1>  -0.6800 
 15 H       -0.6460    -4.3740     1.3060 H     1 <1>   0.1500 
 16 H       -3.1110    -4.3970     1.1050 H     1 <1>   0.1500 
 17 H       -4.6450    -4.6250    -0.6750 H     1 <1>   0.0800 
 18 H       -5.2890    -3.5410    -1.8790 H     1 <1>   0.0800 
 19 H       -5.2810    -1.0050    -1.3750 H     1 <1>   0.0800 
 20 H       -4.6660    -0.4870     0.1750 H     1 <1>   0.0800 
 21 H       -6.4870    -4.1250     0.8330 H     1 <1>   0.0800 
 22 H       -7.1280    -4.6490    -0.7090 H     1 <1>   0.0800 
 23 H       -7.1520    -0.4640     0.0970 H     1 <1>   0.0800 
 24 H       -6.5110    -1.5150     1.3380 H     1 <1>   0.0800 
 25 H       -7.5810    -2.3520    -1.3790 H     1 <1>   0.0800 
 26 H       -8.4240    -2.8420     1.2610 H     1 <1>   0.4000 
@<TRIPOS>BOND
  1   1   2  1   
  2   2   3  ar  
  3   2   4  ar  
  4   3   5  ar  
  5   4   6  ar  
  6   5   7  1   
  7   5   8  ar  
  8   6   8  ar  
  9   6  15  1   
 10   7   9  1   
 11   7  10  1   
 12   8  16  1   
 13   9  11  1   
 14   9  17  1   
 15   9  18  1   
 16  10  12  1   
 17  10  19  1   
 18  10  20  1   
 19  11  13  1   
 20  11  21  1   
 21  11  22  1   
 22  12  13  1   
 23  12  23  1   
 24  12  24  1   
 25  13  14  1   
 26  13  25  1   
 27  14  26  1   
@<TRIPOS>SUBSTRUCTURE
  1 ****   7 GROUP 4 **** **** 0

# MOE 2024.06 (io_trps.svl 2023.06)
