@<TRIPOS>MOLECULE
NONAME
51 54 1 0 0 
SMALL
USER_CHARGES


@<TRIPOS>ATOM
  1 N        0.0320     0.3050    -0.0750 N.4   1 <1>  -0.9590 
  2 C        1.2360     1.0660    -0.5200 C.3   1 <1>   0.4230 
  3 C       -1.2490     0.9680    -0.4700 C.3   1 <1>   0.4860 
  4 C       -0.0440    -0.0630     1.3790 C.3   1 <1>   0.3430 
  5 C        2.4740     0.1690    -0.4640 C.3   1 <1>  -0.1600 
  6 C        1.4660     2.3450     0.3000 C.3   1 <1>  -0.1600 
  7 C       -2.4110     0.0280    -0.2070 C.ar  1 <1>  -0.1430 
  8 C       -1.0750    -1.1760     1.5870 C.3   1 <1>  -0.0170 
  9 C        3.7140     0.9220    -0.9470 C.3   1 <1>   0.3430 
 10 C        2.7160     3.0840    -0.1860 C.3   1 <1>   0.3430 
 11 C       -2.3360    -0.9670     0.7620 C.ar  1 <1>  -0.1440 
 12 C       -3.5740     0.1760    -0.9490 C.ar  1 <1>  -0.1500 
 13 N        3.8930     2.1720    -0.1480 N.4   1 <1>  -0.9590 
 14 C       -3.4220    -1.8000     0.9770 C.ar  1 <1>  -0.1500 
 15 C       -4.6540    -0.6590    -0.7290 C.ar  1 <1>  -0.1500 
 16 C        5.1430     2.8880    -0.5560 C.3   1 <1>   0.4860 
 17 C       -4.5780    -1.6470     0.2350 C.ar  1 <1>  -0.1500 
 18 C        6.3190     1.9960    -0.2190 C.ar  1 <1>  -0.1430 
 19 C        6.7230     1.8390     1.1000 C.ar  1 <1>  -0.1500 
 20 C        6.9950     1.3180    -1.2250 C.ar  1 <1>  -0.1500 
 21 C        7.7780     0.9990     1.4100 C.ar  1 <1>  -0.1500 
 22 C        8.0490     0.4790    -0.9120 C.ar  1 <1>  -0.1500 
 23 C        8.4380     0.3160     0.4040 C.ar  1 <1>  -0.1500 
 24 H        0.0000    -0.5890    -0.5870 H     1 <1>   0.4500 
 25 H        1.0900     1.3530    -1.5500 H     1 <1>   0.0800 
 26 H       -1.2310     1.2160    -1.5190 H     1 <1>   0.0800 
 27 H       -1.3940     1.8740     0.0950 H     1 <1>   0.0800 
 28 H       -0.3380     0.8000     1.9550 H     1 <1>   0.0800 
 29 H        0.9120    -0.4020     1.7400 H     1 <1>   0.0800 
 30 H        2.3320    -0.6860    -1.1030 H     1 <1>   0.0800 
 31 H        2.6590    -0.1850     0.5340 H     1 <1>   0.0800 
 32 H        1.5890     2.1210     1.3440 H     1 <1>   0.0800 
 33 H        0.6260     3.0070     0.1940 H     1 <1>   0.0800 
 34 H       -1.3310    -1.2240     2.6320 H     1 <1>   0.0800 
 35 H       -0.6360    -2.1210     1.3210 H     1 <1>   0.0800 
 36 H        3.6110     1.1680    -1.9930 H     1 <1>   0.0800 
 37 H        4.5810     0.2870    -0.8390 H     1 <1>   0.0800 
 38 H        2.8940     3.9430     0.4440 H     1 <1>   0.0800 
 39 H        2.5620     3.4370    -1.1940 H     1 <1>   0.0800 
 40 H       -3.6620     0.9390    -1.7040 H     1 <1>   0.1500 
 41 H        4.0820     1.8900     0.8250 H     1 <1>   0.4500 
 42 H       -3.3800    -2.5760     1.7230 H     1 <1>   0.1500 
 43 H       -5.5570    -0.5430    -1.3050 H     1 <1>   0.1500 
 44 H        5.2400     3.8160    -0.0160 H     1 <1>   0.0800 
 45 H        5.1320     3.1050    -1.6120 H     1 <1>   0.0800 
 46 H       -5.4190    -2.2970     0.4060 H     1 <1>   0.1500 
 47 H        6.2380     2.3680     1.9030 H     1 <1>   0.1500 
 48 H        6.7200     1.4340    -2.2600 H     1 <1>   0.1500 
 49 H        8.0940     0.8760     2.4320 H     1 <1>   0.1500 
 50 H        8.5740    -0.0480    -1.6920 H     1 <1>   0.1500 
 51 H        9.2600    -0.3370     0.6460 H     1 <1>   0.1500 
@<TRIPOS>BOND
  1   1   2  1   
  2   1   3  1   
  3   1   4  1   
  4   1  24  1   
  5   2   5  1   
  6   2   6  1   
  7   2  25  1   
  8   3   7  1   
  9   3  26  1   
 10   3  27  1   
 11   4   8  1   
 12   4  28  1   
 13   4  29  1   
 14   5   9  1   
 15   5  30  1   
 16   5  31  1   
 17   6  10  1   
 18   6  32  1   
 19   6  33  1   
 20   7  11  ar  
 21   7  12  ar  
 22   8  11  1   
 23   8  34  1   
 24   8  35  1   
 25   9  13  1   
 26   9  36  1   
 27   9  37  1   
 28  10  13  1   
 29  10  38  1   
 30  10  39  1   
 31  11  14  ar  
 32  12  15  ar  
 33  12  40  1   
 34  13  16  1   
 35  13  41  1   
 36  14  17  ar  
 37  14  42  1   
 38  15  17  ar  
 39  15  43  1   
 40  16  18  1   
 41  16  44  1   
 42  16  45  1   
 43  17  46  1   
 44  18  19  ar  
 45  18  20  ar  
 46  19  21  ar  
 47  19  47  1   
 48  20  22  ar  
 49  20  48  1   
 50  21  23  ar  
 51  21  49  1   
 52  22  23  ar  
 53  22  50  1   
 54  23  51  1   
@<TRIPOS>SUBSTRUCTURE
  1 ****   2 GROUP 4 **** **** 0

# MOE 2024.06 (io_trps.svl 2023.06)
