@<TRIPOS>MOLECULE
NONAME
37 40 1 0 0 
SMALL
USER_CHARGES


@<TRIPOS>ATOM
  1 O       -0.6750     0.7230     1.5190 O.2   1 <1>  -0.5700 
  2 C       -0.9980     1.6710     0.8500 C.2   1 <1>   0.5690 
  3 N       -0.1920     2.5060     0.0900 N.am  1 <1>  -0.2370 
  4 C       -2.4080     2.1830     0.7430 C.3   1 <1>  -0.0190 
  5 C        1.2200     2.5530     0.1330 C.ar  1 <1>   0.1170 
  6 C       -1.0040     3.2890    -0.7160 C.2   1 <1>   0.5690 
  7 C       -3.8040     1.5700     1.0410 C.3   1 <1>   0.0580 
  8 C       -2.3770     2.6760    -0.7030 C.3   1 <1>  -0.0190 
  9 C        1.9730     1.3830     0.1250 C.ar  1 <1>  -0.1500 
 10 C        1.8950     3.7680     0.1850 C.ar  1 <1>  -0.1500 
 11 O       -0.7150     4.2780    -1.3390 O.2   1 <1>  -0.5700 
 12 C       -4.4570     1.0040    -0.2250 C.2   1 <1>  -0.2880 
 13 C       -4.6880     2.8250     1.2980 C.3   1 <1>  -0.1600 
 14 C       -3.7930     3.1750    -1.0900 C.3   1 <1>   0.0580 
 15 C        3.3550     1.4270     0.1690 C.ar  1 <1>  -0.1500 
 16 C        3.2760     3.8140     0.2270 C.ar  1 <1>  -0.1500 
 17 C       -4.5090     1.8340    -1.2790 C.2   1 <1>  -0.2880 
 18 C       -4.5180     3.8420     0.1150 C.3   1 <1>  -0.1600 
 19 C        4.0160     2.6430     0.2210 C.ar  1 <1>  -0.1430 
 20 C        5.5320     2.6920     0.2660 C.3   1 <1>  -0.0970 
 21 H       -2.3400     3.0390     1.3950 H     1 <1>   0.0800 
 22 H       -3.8050     0.8870     1.8740 H     1 <1>   0.0800 
 23 H       -2.2080     1.8260    -1.3480 H     1 <1>   0.0800 
 24 H        1.4790     0.4290     0.0880 H     1 <1>   0.1500 
 25 H        1.3390     4.6890     0.1880 H     1 <1>   0.1500 
 26 H       -4.8600     0.0070    -0.1640 H     1 <1>   0.1500 
 27 H       -4.4330     3.2930     2.2340 H     1 <1>   0.0800 
 28 H       -5.7190     2.5210     1.3660 H     1 <1>   0.0800 
 29 H       -3.7880     3.7740    -1.9850 H     1 <1>   0.0800 
 30 H        3.9150     0.5080     0.1620 H     1 <1>   0.1500 
 31 H        3.7740     4.7670     0.2620 H     1 <1>   0.1500 
 32 H       -4.9660     1.6470    -2.2360 H     1 <1>   0.1500 
 33 H       -3.9540     4.7010     0.4370 H     1 <1>   0.0800 
 34 H       -5.4880     4.1870    -0.1990 H     1 <1>   0.0800 
 35 H        5.9220     1.8200     0.7600 H     1 <1>   0.0800 
 36 H        5.8650     3.5620     0.8030 H     1 <1>   0.0800 
 37 H        5.9240     2.7290    -0.7340 H     1 <1>   0.0800 
@<TRIPOS>BOND
  1   1   2  2   
  2   2   3  am  
  3   2   4  1   
  4   3   5  1   
  5   3   6  am  
  6   4   7  1   
  7   4   8  1   
  8   4  21  1   
  9   5   9  ar  
 10   5  10  ar  
 11   6   8  1   
 12   6  11  2   
 13   7  12  1   
 14   7  13  1   
 15   7  22  1   
 16   8  14  1   
 17   8  23  1   
 18   9  15  ar  
 19   9  24  1   
 20  10  16  ar  
 21  10  25  1   
 22  12  17  2   
 23  12  26  1   
 24  13  18  1   
 25  13  27  1   
 26  13  28  1   
 27  14  17  1   
 28  14  18  1   
 29  14  29  1   
 30  15  19  ar  
 31  15  30  1   
 32  16  19  ar  
 33  16  31  1   
 34  17  32  1   
 35  18  33  1   
 36  18  34  1   
 37  19  20  1   
 38  20  35  1   
 39  20  36  1   
 40  20  37  1   
@<TRIPOS>SUBSTRUCTURE
  1 ****   3 GROUP 4 **** **** 0

# MOE 2024.06 (io_trps.svl 2023.06)
