@<TRIPOS>MOLECULE
NONAME
41 42 1 0 0 
SMALL
USER_CHARGES


@<TRIPOS>ATOM
  1 O       -1.5370     0.3920     0.2570 O.2   1 <1>  -0.5700 
  2 C       -2.4520    -0.3830     0.4030 C.2   1 <1>   0.4950 
  3 C       -2.5590    -1.6050    -0.3050 C.2   1 <1>  -0.1360 
  4 C       -3.5590    -0.0170     1.3760 C.3   1 <1>  -0.0990 
  5 C       -3.5570    -2.5110    -0.1570 C.2   1 <1>  -0.0380 
  6 C       -4.2570    -1.2580     1.9730 C.3   1 <1>   0.0000 
  7 N       -3.6230    -3.6590    -0.9210 N.pl3 1 <1>  -0.6000 
  8 C       -4.6810    -2.2280     0.8440 C.3   1 <1>  -0.0220 
  9 C       -3.3040    -1.9770     2.9480 C.3   1 <1>  -0.2400 
 10 C       -5.4990    -0.8130     2.7610 C.3   1 <1>  -0.2400 
 11 C       -4.4690    -4.7780    -0.8370 C.ar  1 <1>   0.1000 
 12 C       -5.1690    -5.2180    -1.9660 C.ar  1 <1>   0.0830 
 13 C       -4.5920    -5.4880     0.3490 C.ar  1 <1>  -0.1500 
 14 O       -4.9850    -4.5240    -3.1310 O.3   1 <1>  -0.3630 
 15 C       -6.0050    -6.3270    -1.8730 C.ar  1 <1>  -0.1500 
 16 C       -5.4240    -6.5890     0.4450 C.ar  1 <1>   0.0830 
 17 C       -5.7760    -4.7890    -4.2690 C.3   1 <1>   0.0400 
 18 C       -6.1380    -7.0070    -0.6740 C.ar  1 <1>  -0.1500 
 19 O       -5.4870    -7.2030     1.6560 O.3   1 <1>  -0.3620 
 20 C       -6.2850    -8.3490     1.8510 C.3   1 <1>   0.0400 
 21 H       -1.7660    -1.7830    -1.0040 H     1 <1>   0.1500 
 22 H       -4.2720     0.5820     0.8400 H     1 <1>   0.0800 
 23 H       -3.1470     0.5890     2.1620 H     1 <1>   0.0800 
 24 H       -3.1090    -3.6440    -1.8090 H     1 <1>   0.4000 
 25 H       -5.0370    -3.1330     1.2960 H     1 <1>   0.0800 
 26 H       -5.5050    -1.8100     0.2930 H     1 <1>   0.0800 
 27 H       -2.4210    -2.3280     2.4450 H     1 <1>   0.0800 
 28 H       -3.7910    -2.8280     3.3910 H     1 <1>   0.0800 
 29 H       -2.9990    -1.3150     3.7380 H     1 <1>   0.0800 
 30 H       -6.1960    -0.3030     2.1190 H     1 <1>   0.0800 
 31 H       -5.2220    -0.1450     3.5580 H     1 <1>   0.0800 
 32 H       -5.9980    -1.6640     3.1910 H     1 <1>   0.0800 
 33 H       -4.0280    -5.1830     1.2100 H     1 <1>   0.1500 
 34 H       -6.5590    -6.6810    -2.7210 H     1 <1>   0.1500 
 35 H       -5.5070    -4.0820    -5.0330 H     1 <1>   0.0800 
 36 H       -6.8130    -4.6690    -4.0090 H     1 <1>   0.0800 
 37 H       -5.5740    -5.7890    -4.6100 H     1 <1>   0.0800 
 38 H       -6.7920    -7.8560    -0.6330 H     1 <1>   0.1500 
 39 H       -6.1720    -8.6640     2.8720 H     1 <1>   0.0800 
 40 H       -5.9470    -9.1260     1.1890 H     1 <1>   0.0800 
 41 H       -7.3130    -8.0960     1.6580 H     1 <1>   0.0800 
@<TRIPOS>BOND
  1   1   2  2   
  2   2   3  1   
  3   2   4  1   
  4   3   5  2   
  5   3  21  1   
  6   4   6  1   
  7   4  22  1   
  8   4  23  1   
  9   5   7  1   
 10   5   8  1   
 11   6   8  1   
 12   6   9  1   
 13   6  10  1   
 14   7  11  1   
 15   7  24  1   
 16   8  25  1   
 17   8  26  1   
 18   9  27  1   
 19   9  28  1   
 20   9  29  1   
 21  10  30  1   
 22  10  31  1   
 23  10  32  1   
 24  11  12  ar  
 25  11  13  ar  
 26  12  14  1   
 27  12  15  ar  
 28  13  16  ar  
 29  13  33  1   
 30  14  17  1   
 31  15  18  ar  
 32  15  34  1   
 33  16  18  ar  
 34  16  19  1   
 35  17  35  1   
 36  17  36  1   
 37  17  37  1   
 38  18  38  1   
 39  19  20  1   
 40  20  39  1   
 41  20  40  1   
 42  20  41  1   
@<TRIPOS>SUBSTRUCTURE
  1 ****   7 GROUP 4 **** **** 0

# MOE 2024.06 (io_trps.svl 2023.06)
