@<TRIPOS>MOLECULE
NONAME
42 44 1 0 0 
SMALL
USER_CHARGES


@<TRIPOS>ATOM
  1 F        0.3710     0.6830     0.1730 F     1 <1>  -0.1900 
  2 C        1.5440     1.2420     0.0710 C.ar  1 <1>   0.1900 
  3 C        1.7200     2.5240     0.5520 C.ar  1 <1>  -0.1500 
  4 C        2.5730     0.5330    -0.5180 C.ar  1 <1>  -0.1500 
  5 C        2.9700     3.1060     0.4420 C.ar  1 <1>  -0.1500 
  6 C        3.8170     1.1320    -0.6200 C.ar  1 <1>  -0.1500 
  7 C        4.0470     2.4250    -0.1360 C.ar  1 <1>   0.0860 
  8 C        5.3500     3.0550    -0.2300 C.2   1 <1>   0.3980 
  9 O        5.4180     4.2470    -0.4590 O.2   1 <1>  -0.5700 
 10 C        6.5600     2.2850    -0.0600 C.ar  1 <1>   0.0860 
 11 C        7.7090     2.5810    -0.7970 C.ar  1 <1>  -0.1500 
 12 C        6.6450     1.2190     0.8420 C.ar  1 <1>  -0.1500 
 13 C        8.8660     1.8410    -0.6620 C.ar  1 <1>  -0.1500 
 14 C        7.8030     0.4790     0.9780 C.ar  1 <1>  -0.1500 
 15 C        8.9350     0.7720     0.2240 C.ar  1 <1>   0.1000 
 16 N       10.1040     0.0360     0.3480 N.pl3 1 <1>  -0.8380 
 17 C       11.3590     0.7300     0.7390 C.3   1 <1>   0.2090 
 18 C       10.0620    -1.4430     0.4700 C.3   1 <1>   0.2090 
 19 C       12.3730     0.6370    -0.4030 C.3   1 <1>  -0.1600 
 20 C       11.1080    -2.1200    -0.4230 C.3   1 <1>  -0.1600 
 21 C       13.2320    -0.6410    -0.4120 C.3   1 <1>  -0.1600 
 22 C       12.5500    -1.9300     0.0740 C.3   1 <1>  -0.1600 
 23 H        0.8950     3.0510     0.9980 H     1 <1>   0.1500 
 24 H        2.3980    -0.4610    -0.8880 H     1 <1>   0.1500 
 25 H        3.1260     4.1080     0.8050 H     1 <1>   0.1500 
 26 H        4.6210     0.5890    -1.0880 H     1 <1>   0.1500 
 27 H        7.6820     3.4070    -1.4870 H     1 <1>   0.1500 
 28 H        5.7940     0.9700     1.4500 H     1 <1>   0.1500 
 29 H        9.7320     2.0820    -1.2480 H     1 <1>   0.1500 
 30 H        7.8440    -0.3290     1.6840 H     1 <1>   0.1500 
 31 H       11.7560     0.3060     1.6450 H     1 <1>   0.0800 
 32 H       11.1370     1.7660     0.9310 H     1 <1>   0.0800 
 33 H        9.0870    -1.7890     0.1720 H     1 <1>   0.0800 
 34 H       10.2140    -1.7210     1.4990 H     1 <1>   0.0800 
 35 H       13.0350     1.4810    -0.3390 H     1 <1>   0.0800 
 36 H       11.8450     0.7230    -1.3360 H     1 <1>   0.0800 
 37 H       11.0010    -1.7790    -1.4380 H     1 <1>   0.0800 
 38 H       10.8940    -3.1740    -0.4170 H     1 <1>   0.0800 
 39 H       14.1010    -0.4770     0.2030 H     1 <1>   0.0800 
 40 H       13.5850    -0.7940    -1.4170 H     1 <1>   0.0800 
 41 H       13.1440    -2.7620    -0.2650 H     1 <1>   0.0800 
 42 H       12.5620    -1.9600     1.1500 H     1 <1>   0.0800 
@<TRIPOS>BOND
  1   1   2  1   
  2   2   3  ar  
  3   2   4  ar  
  4   3   5  ar  
  5   3  23  1   
  6   4   6  ar  
  7   4  24  1   
  8   5   7  ar  
  9   5  25  1   
 10   6   7  ar  
 11   6  26  1   
 12   7   8  1   
 13   8   9  2   
 14   8  10  1   
 15  10  11  ar  
 16  10  12  ar  
 17  11  13  ar  
 18  11  27  1   
 19  12  14  ar  
 20  12  28  1   
 21  13  15  ar  
 22  13  29  1   
 23  14  15  ar  
 24  14  30  1   
 25  15  16  1   
 26  16  17  1   
 27  16  18  1   
 28  17  19  1   
 29  17  31  1   
 30  17  32  1   
 31  18  20  1   
 32  18  33  1   
 33  18  34  1   
 34  19  21  1   
 35  19  35  1   
 36  19  36  1   
 37  20  22  1   
 38  20  37  1   
 39  20  38  1   
 40  21  22  1   
 41  21  39  1   
 42  21  40  1   
 43  22  41  1   
 44  22  42  1   
@<TRIPOS>SUBSTRUCTURE
  1 ****  12 GROUP 4 **** **** 0

# MOE 2024.06 (io_trps.svl 2023.06)
