@<TRIPOS>MOLECULE
NONAME
40 41 1 0 0 
SMALL
USER_CHARGES


@<TRIPOS>ATOM
  1 BR      -1.8290     0.5900     1.8750 Br    1 <1>  -0.1110 
  2 C       -0.8920     2.0310     1.0010 C.ar  1 <1>   0.1110 
  3 C       -1.3940     2.5610    -0.1790 C.ar  1 <1>  -0.1440 
  4 C        0.2640     2.4980     1.5950 C.ar  1 <1>  -0.1500 
  5 C       -0.6880     3.5940    -0.7800 C.ar  1 <1>  -0.1500 
  6 C       -2.6700     2.0280    -0.7980 C.3   1 <1>   0.4870 
  7 C        0.9500     3.5330     0.9850 C.ar  1 <1>  -0.1500 
  8 C        0.4740     4.0760    -0.1980 C.ar  1 <1>  -0.1500 
  9 N       -3.8420     2.4280     0.0530 N.4   1 <1>  -0.9590 
 10 C       -5.1240     1.7270    -0.2930 C.3   1 <1>   0.4230 
 11 C       -3.9480     3.9310     0.0530 C.3   1 <1>   0.2630 
 12 C       -6.2430     2.1630     0.6680 C.3   1 <1>  -0.1600 
 13 C       -4.9510     0.2000    -0.2170 C.3   1 <1>  -0.1600 
 14 C       -7.5420     1.3910     0.4320 C.3   1 <1>   0.3430 
 15 C       -6.2690    -0.5430    -0.4420 C.3   1 <1>   0.3430 
 16 N       -7.2910    -0.0720     0.5320 N.4   1 <1>  -0.9590 
 17 C       -8.5720    -0.8330     0.3490 C.3   1 <1>   0.2630 
 18 H        0.6250     2.0630     2.5110 H     1 <1>   0.1500 
 19 H       -1.0220     4.0360    -1.7050 H     1 <1>   0.1500 
 20 H       -2.5880     0.9560    -0.8570 H     1 <1>   0.0800 
 21 H       -2.7820     2.4160    -1.7980 H     1 <1>   0.0800 
 22 H        1.8550     3.9150     1.4280 H     1 <1>   0.1500 
 23 H        1.0200     4.8790    -0.6680 H     1 <1>   0.1500 
 24 H       -3.5670     2.1520     1.0090 H     1 <1>   0.4500 
 25 H       -5.4110     1.9940    -1.2990 H     1 <1>   0.0800 
 26 H       -4.2280     4.2910    -0.9240 H     1 <1>   0.0800 
 27 H       -3.0030     4.3770     0.3230 H     1 <1>   0.0800 
 28 H       -4.6810     4.2640     0.7690 H     1 <1>   0.0800 
 29 H       -6.4720     3.2040     0.5270 H     1 <1>   0.0800 
 30 H       -5.9380     2.0220     1.6900 H     1 <1>   0.0800 
 31 H       -4.5560    -0.0880     0.7410 H     1 <1>   0.0800 
 32 H       -4.2730    -0.1400    -0.9780 H     1 <1>   0.0800 
 33 H       -7.9350     1.6270    -0.5450 H     1 <1>   0.0800 
 34 H       -8.2760     1.6880     1.1660 H     1 <1>   0.0800 
 35 H       -6.1090    -1.6040    -0.3220 H     1 <1>   0.0800 
 36 H       -6.6190    -0.3710    -1.4480 H     1 <1>   0.0800 
 37 H       -6.9560    -0.2840     1.4860 H     1 <1>   0.4500 
 38 H       -8.9810    -0.6570    -0.6330 H     1 <1>   0.0800 
 39 H       -9.3000    -0.5250     1.0830 H     1 <1>   0.0800 
 40 H       -8.4010    -1.8910     0.4650 H     1 <1>   0.0800 
@<TRIPOS>BOND
  1   1   2  1   
  2   2   3  ar  
  3   2   4  ar  
  4   3   5  ar  
  5   3   6  1   
  6   4   7  ar  
  7   4  18  1   
  8   5   8  ar  
  9   5  19  1   
 10   6   9  1   
 11   6  20  1   
 12   6  21  1   
 13   7   8  ar  
 14   7  22  1   
 15   8  23  1   
 16   9  10  1   
 17   9  11  1   
 18   9  24  1   
 19  10  12  1   
 20  10  13  1   
 21  10  25  1   
 22  11  26  1   
 23  11  27  1   
 24  11  28  1   
 25  12  14  1   
 26  12  29  1   
 27  12  30  1   
 28  13  15  1   
 29  13  31  1   
 30  13  32  1   
 31  14  16  1   
 32  14  33  1   
 33  14  34  1   
 34  15  16  1   
 35  15  35  1   
 36  15  36  1   
 37  16  17  1   
 38  16  37  1   
 39  17  38  1   
 40  17  39  1   
 41  17  40  1   
@<TRIPOS>SUBSTRUCTURE
  1 ****   9 GROUP 4 **** **** 0

# MOE 2024.06 (io_trps.svl 2023.06)
