@<TRIPOS>MOLECULE
NONAME
45 46 1 0 0 
SMALL
USER_CHARGES


@<TRIPOS>ATOM
  1 O       -9.9360     1.3280     0.6730 O.3   1 <1>  -0.3630 
  2 C      -11.1980     0.8690     0.4240 C.ar  1 <1>   0.0830 
  3 C       -8.7830     0.6250     0.2910 C.3   1 <1>   0.1200 
  4 C      -11.5590    -0.4390     0.0450 C.ar  1 <1>   0.0830 
  5 C      -12.1880     1.8290     0.5750 C.ar  1 <1>  -0.1500 
  6 C       -7.5930     1.5610     0.4770 C.3   1 <1>  -0.1600 
  7 O      -10.6050    -1.4090    -0.0820 O.3   1 <1>  -0.3630 
  8 C      -12.9040    -0.7240    -0.1860 C.ar  1 <1>  -0.1500 
  9 C      -13.5180     1.5280     0.3480 C.ar  1 <1>  -0.1500 
 10 C       -6.3010     0.8570     0.0720 C.3   1 <1>   0.3430 
 11 C      -10.9380    -2.7720    -0.2270 C.3   1 <1>   0.1200 
 12 C      -13.8750     0.2500    -0.0350 C.ar  1 <1>  -0.1500 
 13 N       -5.1250     1.7300     0.3450 N.4   1 <1>  -0.9590 
 14 C       -9.6440    -3.5790    -0.1910 C.3   1 <1>  -0.2400 
 15 C       -5.0490     2.8900    -0.5950 C.3   1 <1>   0.3430 
 16 C       -3.8640     0.9310     0.3270 C.3   1 <1>   0.3430 
 17 C       -3.8970     3.8110    -0.1870 C.3   1 <1>  -0.1600 
 18 C       -2.6890     1.8110     0.7570 C.3   1 <1>  -0.1600 
 19 C       -2.5610     3.0590    -0.1250 C.3   1 <1>  -0.1600 
 20 H       -8.8930     0.3320    -0.7400 H     1 <1>   0.0800 
 21 H       -8.6980    -0.2440     0.9220 H     1 <1>   0.0800 
 22 H      -11.9090     2.8230     0.8730 H     1 <1>   0.1500 
 23 H       -7.5450     1.8470     1.5130 H     1 <1>   0.0800 
 24 H       -7.7560     2.4310    -0.1320 H     1 <1>   0.0800 
 25 H      -13.2270    -1.7020    -0.4870 H     1 <1>   0.1500 
 26 H      -14.2710     2.2870     0.4690 H     1 <1>   0.1500 
 27 H       -6.3350     0.5960    -0.9730 H     1 <1>   0.0800 
 28 H       -6.2130    -0.0540     0.6440 H     1 <1>   0.0800 
 29 H      -11.4410    -2.9030    -1.1700 H     1 <1>   0.0800 
 30 H      -11.5850    -3.0540     0.5860 H     1 <1>   0.0800 
 31 H      -14.9090     0.0140    -0.2160 H     1 <1>   0.1500 
 32 H       -5.2260     2.1140     1.2940 H     1 <1>   0.4500 
 33 H       -9.0000    -3.2830    -0.9990 H     1 <1>   0.0800 
 34 H       -9.8680    -4.6250    -0.2980 H     1 <1>   0.0800 
 35 H       -9.1420    -3.4320     0.7480 H     1 <1>   0.0800 
 36 H       -5.9700     3.4490    -0.5760 H     1 <1>   0.0800 
 37 H       -4.8870     2.5360    -1.6000 H     1 <1>   0.0800 
 38 H       -3.6850     0.5540    -0.6670 H     1 <1>   0.0800 
 39 H       -3.9470     0.0920     0.9990 H     1 <1>   0.0800 
 40 H       -4.1150     4.2530     0.7700 H     1 <1>   0.0800 
 41 H       -3.8190     4.6140    -0.9000 H     1 <1>   0.0800 
 42 H       -1.7790     1.2380     0.6940 H     1 <1>   0.0800 
 43 H       -2.8150     2.0990     1.7860 H     1 <1>   0.0800 
 44 H       -1.7940     3.7070     0.2660 H     1 <1>   0.0800 
 45 H       -2.2660     2.7680    -1.1200 H     1 <1>   0.0800 
@<TRIPOS>BOND
  1   1   2  1   
  2   1   3  1   
  3   2   4  ar  
  4   2   5  ar  
  5   3   6  1   
  6   3  20  1   
  7   3  21  1   
  8   4   7  1   
  9   4   8  ar  
 10   5   9  ar  
 11   5  22  1   
 12   6  10  1   
 13   6  23  1   
 14   6  24  1   
 15   7  11  1   
 16   8  12  ar  
 17   8  25  1   
 18   9  12  ar  
 19   9  26  1   
 20  10  13  1   
 21  10  27  1   
 22  10  28  1   
 23  11  14  1   
 24  11  29  1   
 25  11  30  1   
 26  12  31  1   
 27  13  15  1   
 28  13  16  1   
 29  13  32  1   
 30  14  33  1   
 31  14  34  1   
 32  14  35  1   
 33  15  17  1   
 34  15  36  1   
 35  15  37  1   
 36  16  18  1   
 37  16  38  1   
 38  16  39  1   
 39  17  19  1   
 40  17  40  1   
 41  17  41  1   
 42  18  19  1   
 43  18  42  1   
 44  18  43  1   
 45  19  44  1   
 46  19  45  1   
@<TRIPOS>SUBSTRUCTURE
  1 ****   3 GROUP 4 **** **** 0

# MOE 2024.06 (io_trps.svl 2023.06)
