@<TRIPOS>MOLECULE
NONAME
44 44 1 0 0 
SMALL
USER_CHARGES


@<TRIPOS>ATOM
  1 O       -0.7070     0.9200    -1.3200 O.2   1 <1>  -0.5700 
  2 C       -1.5990     0.7170    -2.1010 C.2   1 <1>   0.6590 
  3 O       -2.7050     1.4420    -2.1710 O.3   1 <1>  -0.4300 
  4 C       -1.5190    -0.4160    -3.0900 C.3   1 <1>  -0.1790 
  5 C       -3.0320     2.5400    -1.3410 C.3   1 <1>   0.6240 
  6 C       -1.9110     3.5390    -1.3870 C.1   1 <1>  -0.2000 
  7 C       -3.3350     2.0940     0.1040 C.ar  1 <1>  -0.1440 
  8 C       -4.2860     3.1590    -1.9540 C.3   1 <1>  -0.2400 
  9 C       -0.9190     4.1920    -1.3240 C.1   1 <1>  -0.2000 
 10 C       -3.4150     3.0470     1.1170 C.ar  1 <1>  -0.1500 
 11 C       -3.5560     0.7620     0.4430 C.ar  1 <1>  -0.1500 
 12 C        0.4170     4.8130    -1.1360 C.3   1 <1>   0.5430 
 13 C       -3.6810     2.6820     2.4250 C.ar  1 <1>  -0.1500 
 14 C       -3.8200     0.3930     1.7510 C.ar  1 <1>  -0.1500 
 15 N        0.9440     4.3730     0.1850 N.4   1 <1>  -0.9590 
 16 C       -3.8800     1.3520     2.7440 C.ar  1 <1>  -0.1500 
 17 C        2.1170     5.1960     0.5780 C.3   1 <1>   0.3430 
 18 C        1.2170     2.9040     0.2000 C.3   1 <1>   0.3430 
 19 C        2.4270     5.0120     2.0590 C.3   1 <1>  -0.2400 
 20 C        0.4580     2.2770     1.3620 C.3   1 <1>  -0.2400 
 21 H       -2.3440    -1.0850    -2.9380 H     1 <1>   0.0800 
 22 H       -0.5990    -0.9560    -2.9560 H     1 <1>   0.0800 
 23 H       -1.5560    -0.0260    -4.0900 H     1 <1>   0.0800 
 24 H       -4.0980     3.4560    -2.9700 H     1 <1>   0.0800 
 25 H       -4.5830     4.0250    -1.3930 H     1 <1>   0.0800 
 26 H       -5.0920     2.4490    -1.9310 H     1 <1>   0.0800 
 27 H       -3.2760     4.0910     0.8970 H     1 <1>   0.1500 
 28 H       -3.5290    -0.0120    -0.3030 H     1 <1>   0.1500 
 29 H        0.3150     5.8860    -1.1600 H     1 <1>   0.0800 
 30 H        1.0810     4.5070    -1.9270 H     1 <1>   0.0800 
 31 H       -3.7390     3.4300     3.1960 H     1 <1>   0.1500 
 32 H       -3.9820    -0.6420     1.9960 H     1 <1>   0.1500 
 33 H        0.1790     4.5260     0.8520 H     1 <1>   0.4500 
 34 H       -4.0870     1.0640     3.7610 H     1 <1>   0.1500 
 35 H        1.9020     6.2380     0.4010 H     1 <1>   0.0800 
 36 H        2.9770     4.9250    -0.0130 H     1 <1>   0.0800 
 37 H        2.2730     2.7160     0.3050 H     1 <1>   0.0800 
 38 H        0.8860     2.4490    -0.7200 H     1 <1>   0.0800 
 39 H        1.5640     5.2290     2.6630 H     1 <1>   0.0800 
 40 H        3.2100     5.6940     2.3420 H     1 <1>   0.0800 
 41 H        2.7760     4.0160     2.2640 H     1 <1>   0.0800 
 42 H        0.7700     2.6770     2.3090 H     1 <1>   0.0800 
 43 H        0.6450     1.2180     1.3680 H     1 <1>   0.0800 
 44 H       -0.6020     2.4130     1.2400 H     1 <1>   0.0800 
@<TRIPOS>BOND
  1   1   2  2   
  2   2   3  1   
  3   2   4  1   
  4   3   5  1   
  5   4  21  1   
  6   4  22  1   
  7   4  23  1   
  8   5   6  1   
  9   5   7  1   
 10   5   8  1   
 11   6   9  3   
 12   7  10  ar  
 13   7  11  ar  
 14   8  24  1   
 15   8  25  1   
 16   8  26  1   
 17   9  12  1   
 18  10  13  ar  
 19  10  27  1   
 20  11  14  ar  
 21  11  28  1   
 22  12  15  1   
 23  12  29  1   
 24  12  30  1   
 25  13  16  ar  
 26  13  31  1   
 27  14  16  ar  
 28  14  32  1   
 29  15  17  1   
 30  15  18  1   
 31  15  33  1   
 32  16  34  1   
 33  17  19  1   
 34  17  35  1   
 35  17  36  1   
 36  18  20  1   
 37  18  37  1   
 38  18  38  1   
 39  19  39  1   
 40  19  40  1   
 41  19  41  1   
 42  20  42  1   
 43  20  43  1   
 44  20  44  1   
@<TRIPOS>SUBSTRUCTURE
  1 ****   6 GROUP 4 **** **** 0

# MOE 2024.06 (io_trps.svl 2023.06)
