@<TRIPOS>MOLECULE
NONAME
34 34 1 0 0 
SMALL
USER_CHARGES


@<TRIPOS>ATOM
  1 O        0.2840     0.8930     1.9010 O.2   1 <1>  -0.5700 
  2 C        0.8310     1.3710     0.9390 C.2   1 <1>   0.5690 
  3 N        1.9720     0.8550     0.4280 N.am  1 <1>  -0.7300 
  4 C        0.2320     2.5970     0.2740 C.3   1 <1>  -0.0990 
  5 C        2.7190    -0.2590     1.0130 C.3   1 <1>   0.3640 
  6 C       -0.3590     2.2920    -1.1120 C.3   1 <1>  -0.2400 
  7 C        4.1940    -0.0620     0.6820 C.ar  1 <1>  -0.1440 
  8 C        2.1720    -1.5720     0.4570 C.3   1 <1>  -0.2400 
  9 C        4.6580    -0.1030    -0.6260 C.ar  1 <1>  -0.1500 
 10 C        5.1010     0.1750     1.7050 C.ar  1 <1>  -0.1500 
 11 C        6.0010     0.0850    -0.9040 C.ar  1 <1>  -0.1500 
 12 C        6.4430     0.3630     1.4270 C.ar  1 <1>  -0.1500 
 13 C        6.9030     0.3180     0.1210 C.ar  1 <1>  -0.1440 
 14 C        8.3780     0.5230    -0.1830 C.3   1 <1>  -0.0170 
 15 C        8.6750     2.0050    -0.4230 C.3   1 <1>  -0.2400 
 16 H        2.4550     1.3190    -0.3390 H     1 <1>   0.3700 
 17 H        0.9930     3.3500     0.1890 H     1 <1>   0.0800 
 18 H       -0.5430     2.9840     0.9120 H     1 <1>   0.0800 
 19 H        2.5820    -0.2510     2.0820 H     1 <1>   0.0800 
 20 H        0.4040     1.9300    -1.7780 H     1 <1>   0.0800 
 21 H       -0.7920     3.1810    -1.5330 H     1 <1>   0.0800 
 22 H       -1.1260     1.5420    -1.0270 H     1 <1>   0.0800 
 23 H        2.2130    -1.5880    -0.6150 H     1 <1>   0.0800 
 24 H        1.1530    -1.7010     0.7750 H     1 <1>   0.0800 
 25 H        2.7530    -2.3920     0.8380 H     1 <1>   0.0800 
 26 H        3.9780    -0.2830    -1.4400 H     1 <1>   0.1500 
 27 H        4.7660     0.2170     2.7270 H     1 <1>   0.1500 
 28 H        6.3430     0.0490    -1.9230 H     1 <1>   0.1500 
 29 H        7.1310     0.5470     2.2340 H     1 <1>   0.1500 
 30 H        8.6510    -0.0460    -1.0550 H     1 <1>   0.0800 
 31 H        8.9710     0.1640     0.6390 H     1 <1>   0.0800 
 32 H        8.0980     2.3690    -1.2550 H     1 <1>   0.0800 
 33 H        9.7200     2.1440    -0.6370 H     1 <1>   0.0800 
 34 H        8.4200     2.5800     0.4490 H     1 <1>   0.0800 
@<TRIPOS>BOND
  1   1   2  2   
  2   2   3  am  
  3   2   4  1   
  4   3   5  1   
  5   3  16  1   
  6   4   6  1   
  7   4  17  1   
  8   4  18  1   
  9   5   7  1   
 10   5   8  1   
 11   5  19  1   
 12   6  20  1   
 13   6  21  1   
 14   6  22  1   
 15   7   9  ar  
 16   7  10  ar  
 17   8  23  1   
 18   8  24  1   
 19   8  25  1   
 20   9  11  ar  
 21   9  26  1   
 22  10  12  ar  
 23  10  27  1   
 24  11  13  ar  
 25  11  28  1   
 26  12  13  ar  
 27  12  29  1   
 28  13  14  1   
 29  14  15  1   
 30  14  30  1   
 31  14  31  1   
 32  15  32  1   
 33  15  33  1   
 34  15  34  1   
@<TRIPOS>SUBSTRUCTURE
  1 ****   7 GROUP 4 **** **** 0

# MOE 2024.06 (io_trps.svl 2023.06)
