@<TRIPOS>MOLECULE
NONAME
32 32 1 0 0 
SMALL
USER_CHARGES


@<TRIPOS>ATOM
  1 S        0.0850    -0.2270    -0.2360 S.o2  1 <1>   1.3330 
  2 O       -0.1880    -1.0730     0.9000 O.2   1 <1>  -0.6500 
  3 O        0.3430    -0.7960    -1.5380 O.2   1 <1>  -0.6500 
  4 N        1.4360     0.6420     0.2310 N.am  1 <1>  -0.9140 
  5 C       -1.1780     1.0460    -0.3760 C.3   1 <1>  -0.0550 
  6 C        2.6800     0.0760    -0.2720 C.3   1 <1>   0.1960 
  7 C       -2.5740     0.5180    -0.7530 C.3   1 <1>  -0.2400 
  8 C        3.8900     0.8010     0.3390 C.3   1 <1>  -0.0800 
  9 C        3.9190     2.2960    -0.0380 C.3   1 <1>  -0.1600 
 10 C        5.1930     0.1140    -0.1110 C.3   1 <1>  -0.1600 
 11 C        5.1570     3.0000     0.5330 C.3   1 <1>  -0.1600 
 12 C        6.4310     0.8160     0.4640 C.3   1 <1>  -0.1600 
 13 C        6.4480     2.3030     0.0880 C.3   1 <1>  -0.1600 
 14 H        1.4510     0.5260     1.2430 H     1 <1>   0.4200 
 15 H       -0.8680     1.7560    -1.1190 H     1 <1>   0.0800 
 16 H       -1.2500     1.5670     0.5590 H     1 <1>   0.0800 
 17 H        2.7090     0.1660    -1.3460 H     1 <1>   0.0800 
 18 H        2.7240    -0.9720    -0.0220 H     1 <1>   0.0800 
 19 H       -2.5340     0.0150    -1.7030 H     1 <1>   0.0800 
 20 H       -3.2740     1.3320    -0.8200 H     1 <1>   0.0800 
 21 H       -2.9200    -0.1780    -0.0090 H     1 <1>   0.0800 
 22 H        3.8280     0.7150     1.4100 H     1 <1>   0.0800 
 23 H        3.0360     2.7860     0.3340 H     1 <1>   0.0800 
 24 H        3.9180     2.3950    -1.1100 H     1 <1>   0.0800 
 25 H        5.2530     0.1250    -1.1870 H     1 <1>   0.0800 
 26 H        5.1930    -0.9140     0.2080 H     1 <1>   0.0800 
 27 H        5.1040     2.9980     1.6080 H     1 <1>   0.0800 
 28 H        5.1710     4.0250     0.2060 H     1 <1>   0.0800 
 29 H        7.3210     0.3410     0.0920 H     1 <1>   0.0800 
 30 H        6.4300     0.7200     1.5370 H     1 <1>   0.0800 
 31 H        7.2940     2.7820     0.5490 H     1 <1>   0.0800 
 32 H        6.5550     2.3990    -0.9790 H     1 <1>   0.0800 
@<TRIPOS>BOND
  1   1   2  2   
  2   1   3  2   
  3   1   4  am  
  4   1   5  1   
  5   4   6  1   
  6   4  14  1   
  7   5   7  1   
  8   5  15  1   
  9   5  16  1   
 10   6   8  1   
 11   6  17  1   
 12   6  18  1   
 13   7  19  1   
 14   7  20  1   
 15   7  21  1   
 16   8   9  1   
 17   8  10  1   
 18   8  22  1   
 19   9  11  1   
 20   9  23  1   
 21   9  24  1   
 22  10  12  1   
 23  10  25  1   
 24  10  26  1   
 25  11  13  1   
 26  11  27  1   
 27  11  28  1   
 28  12  13  1   
 29  12  29  1   
 30  12  30  1   
 31  13  31  1   
 32  13  32  1   
@<TRIPOS>SUBSTRUCTURE
  1 ****   6 GROUP 4 **** **** 0

# MOE 2024.06 (io_trps.svl 2023.06)
