@<TRIPOS>MOLECULE
NONAME
44 45 1 0 0 
SMALL
USER_CHARGES


@<TRIPOS>ATOM
  1 O       -0.2440    -1.0130     0.3920 O.3   1 <1>  -0.3630 
  2 C       -1.4180    -1.3150    -0.2220 C.ar  1 <1>   0.0830 
  3 C        0.6260    -0.0190    -0.1030 C.3   1 <1>   0.0400 
  4 C       -2.1430    -2.3960     0.2700 C.ar  1 <1>  -0.1440 
  5 C       -1.9080    -0.5970    -1.3080 C.ar  1 <1>  -0.1500 
  6 C       -3.3480    -2.7410    -0.3190 C.ar  1 <1>  -0.1500 
  7 C       -1.6090    -3.2060     1.4450 C.3   1 <1>  -0.0960 
  8 C       -3.1120    -0.9460    -1.8900 C.ar  1 <1>  -0.1500 
  9 C       -3.8450    -2.0130    -1.3910 C.ar  1 <1>  -0.1440 
 10 C       -5.1840    -2.3740    -1.9970 C.3   1 <1>   0.4860 
 11 N       -6.2440    -1.9150    -1.0420 N.4   1 <1>  -0.9590 
 12 C       -7.5720    -2.5500    -1.3680 C.3   1 <1>   0.3430 
 13 C       -6.2320    -0.4170    -0.9920 C.3   1 <1>   0.3430 
 14 C       -8.4900    -2.7710    -0.1300 C.3   1 <1>   0.3430 
 15 C       -7.4460     0.2040    -0.2970 C.3   1 <1>  -0.1600 
 16 N       -8.9740    -1.5330     0.5930 N.4   1 <1>  -0.9590 
 17 C       -7.9310    -0.5250     0.9550 C.3   1 <1>   0.3430 
 18 C       -9.7240    -1.9360     1.8320 C.3   1 <1>   0.2630 
 19 H        1.5010    -0.0030     0.5210 H     1 <1>   0.0800 
 20 H        0.1310     0.9340    -0.0590 H     1 <1>   0.0800 
 21 H        0.9030    -0.2680    -1.1120 H     1 <1>   0.0800 
 22 H       -1.3600     0.2340    -1.7130 H     1 <1>   0.1500 
 23 H       -3.8840    -3.5910     0.0670 H     1 <1>   0.1500 
 24 H       -1.4780    -2.5660     2.3000 H     1 <1>   0.0800 
 25 H       -0.6540    -3.6270     1.1880 H     1 <1>   0.0800 
 26 H       -2.2740    -4.0070     1.7120 H     1 <1>   0.0800 
 27 H       -3.4600    -0.3750    -2.7340 H     1 <1>   0.1500 
 28 H       -5.2300    -3.4420    -2.1330 H     1 <1>   0.0800 
 29 H       -5.3000    -1.8990    -2.9580 H     1 <1>   0.0800 
 30 H       -5.8940    -2.2540    -0.1350 H     1 <1>   0.4500 
 31 H       -7.3930    -3.5190    -1.8060 H     1 <1>   0.0800 
 32 H       -8.0920    -1.9620    -2.1070 H     1 <1>   0.0800 
 33 H       -6.1750    -0.0200    -1.9940 H     1 <1>   0.0800 
 34 H       -5.3370    -0.0980    -0.4770 H     1 <1>   0.0800 
 35 H       -7.9630    -3.4010     0.5660 H     1 <1>   0.0800 
 36 H       -9.3530    -3.3300    -0.4580 H     1 <1>   0.0800 
 37 H       -8.2500     0.3380    -0.9990 H     1 <1>   0.0800 
 38 H       -7.1480     1.1950     0.0010 H     1 <1>   0.0800 
 39 H       -9.6660    -1.0500    -0.0050 H     1 <1>   0.4500 
 40 H       -8.3700     0.2040     1.6180 H     1 <1>   0.0800 
 41 H       -7.1080    -0.9880     1.4760 H     1 <1>   0.0800 
 42 H       -9.0680    -2.4350     2.5280 H     1 <1>   0.0800 
 43 H      -10.5340    -2.6030     1.5840 H     1 <1>   0.0800 
 44 H      -10.1400    -1.0680     2.3190 H     1 <1>   0.0800 
@<TRIPOS>BOND
  1   1   2  1   
  2   1   3  1   
  3   2   4  ar  
  4   2   5  ar  
  5   3  19  1   
  6   3  20  1   
  7   3  21  1   
  8   4   6  ar  
  9   4   7  1   
 10   5   8  ar  
 11   5  22  1   
 12   6   9  ar  
 13   6  23  1   
 14   7  24  1   
 15   7  25  1   
 16   7  26  1   
 17   8   9  ar  
 18   8  27  1   
 19   9  10  1   
 20  10  11  1   
 21  10  28  1   
 22  10  29  1   
 23  11  12  1   
 24  11  13  1   
 25  11  30  1   
 26  12  14  1   
 27  12  31  1   
 28  12  32  1   
 29  13  15  1   
 30  13  33  1   
 31  13  34  1   
 32  14  16  1   
 33  14  35  1   
 34  14  36  1   
 35  15  17  1   
 36  15  37  1   
 37  15  38  1   
 38  16  17  1   
 39  16  18  1   
 40  16  39  1   
 41  17  40  1   
 42  17  41  1   
 43  18  42  1   
 44  18  43  1   
 45  18  44  1   
@<TRIPOS>SUBSTRUCTURE
  1 ****   9 GROUP 4 **** **** 0

# MOE 2024.06 (io_trps.svl 2023.06)
