@<TRIPOS>MOLECULE
NONAME
40 41 1 0 0 
SMALL
USER_CHARGES


@<TRIPOS>ATOM
  1 F       -2.1830    -0.1420     3.0250 F     1 <1>  -0.3400 
  2 C       -3.0040    -0.8910     2.3010 C.3   1 <1>   1.1640 
  3 F       -4.1030    -1.0550     3.0290 F     1 <1>  -0.3400 
  4 F       -2.4420    -2.0870     2.2000 F     1 <1>  -0.3400 
  5 C       -3.3270    -0.2910     0.9200 C.ar  1 <1>  -0.1440 
  6 C       -4.4130    -0.7660     0.1910 C.ar  1 <1>  -0.1500 
  7 C       -2.5510     0.7240     0.3700 C.ar  1 <1>  -0.1500 
  8 C       -4.7300    -0.2360    -1.0510 C.ar  1 <1>  -0.1440 
  9 C       -2.8550     1.2490    -0.8730 C.ar  1 <1>  -0.1500 
 10 C       -3.9410     0.7720    -1.5830 C.ar  1 <1>  -0.1500 
 11 C       -5.9380    -0.7470    -1.8140 C.3   1 <1>   0.4870 
 12 N       -7.1570    -0.2700    -1.1120 N.4   1 <1>  -0.9590 
 13 C       -8.3850    -0.9930    -1.5000 C.3   1 <1>   0.3430 
 14 C       -7.3310     1.1970    -1.1560 C.3   1 <1>   0.3430 
 15 C       -8.7000    -2.0000    -0.3980 C.3   1 <1>  -0.1600 
 16 C       -7.4800     1.7040     0.2780 C.3   1 <1>  -0.1600 
 17 C       -9.3110    -1.3880     0.8790 C.3   1 <1>  -0.1600 
 18 C       -8.6720     1.1250     1.0670 C.3   1 <1>  -0.1600 
 19 C       -8.4890    -0.3090     1.6140 C.3   1 <1>  -0.1600 
 20 H       -5.0100    -1.5620     0.6060 H     1 <1>   0.1500 
 21 H       -1.6980     1.1140     0.9020 H     1 <1>   0.1500 
 22 H       -2.2400     2.0310    -1.2870 H     1 <1>   0.1500 
 23 H       -4.1540     1.1960    -2.5510 H     1 <1>   0.1500 
 24 H       -5.9160    -1.8240    -1.8300 H     1 <1>   0.0800 
 25 H       -5.9220    -0.3860    -2.8300 H     1 <1>   0.0800 
 26 H       -7.0220    -0.4740    -0.1150 H     1 <1>   0.4500 
 27 H       -8.2400    -1.5000    -2.4400 H     1 <1>   0.0800 
 28 H       -9.2140    -0.3100    -1.6030 H     1 <1>   0.0800 
 29 H       -8.2020     1.4590    -1.7350 H     1 <1>   0.0800 
 30 H       -6.4700     1.6650    -1.6070 H     1 <1>   0.0800 
 31 H       -7.8230    -2.5730    -0.1530 H     1 <1>   0.0800 
 32 H       -9.4210    -2.6960    -0.7930 H     1 <1>   0.0800 
 33 H       -7.6130     2.7710     0.2200 H     1 <1>   0.0800 
 34 H       -6.5620     1.5450     0.8190 H     1 <1>   0.0800 
 35 H       -9.4660    -2.2000     1.5710 H     1 <1>   0.0800 
 36 H      -10.2910    -0.9980     0.6570 H     1 <1>   0.0800 
 37 H       -9.5760     1.2050     0.4880 H     1 <1>   0.0800 
 38 H       -8.8120     1.7680     1.9220 H     1 <1>   0.0800 
 39 H       -7.4510    -0.5850     1.6920 H     1 <1>   0.0800 
 40 H       -8.8580    -0.2940     2.6270 H     1 <1>   0.0800 
@<TRIPOS>BOND
  1   1   2  1   
  2   2   3  1   
  3   2   4  1   
  4   2   5  1   
  5   5   6  ar  
  6   5   7  ar  
  7   6   8  ar  
  8   6  20  1   
  9   7   9  ar  
 10   7  21  1   
 11   8  10  ar  
 12   8  11  1   
 13   9  10  ar  
 14   9  22  1   
 15  10  23  1   
 16  11  12  1   
 17  11  24  1   
 18  11  25  1   
 19  12  13  1   
 20  12  14  1   
 21  12  26  1   
 22  13  15  1   
 23  13  27  1   
 24  13  28  1   
 25  14  16  1   
 26  14  29  1   
 27  14  30  1   
 28  15  17  1   
 29  15  31  1   
 30  15  32  1   
 31  16  18  1   
 32  16  33  1   
 33  16  34  1   
 34  17  19  1   
 35  17  35  1   
 36  17  36  1   
 37  18  19  1   
 38  18  37  1   
 39  18  38  1   
 40  19  39  1   
 41  19  40  1   
@<TRIPOS>SUBSTRUCTURE
  1 ****   6 GROUP 4 **** **** 0

# MOE 2024.06 (io_trps.svl 2023.06)
