@<TRIPOS>MOLECULE
NONAME
33 34 1 0 0 
SMALL
USER_CHARGES


@<TRIPOS>ATOM
  1 O       -0.2480     0.0900    -0.6590 O.3   1 <1>  -0.5600 
  2 C       -1.2760     0.8720    -0.1610 C.3   1 <1>   0.4800 
  3 C        0.8730     0.3170     0.1080 C.3   1 <1>   0.2000 
  4 O       -1.0540     0.9300     1.2060 O.3   1 <1>  -0.5600 
  5 C       -2.6180     0.2110    -0.4620 C.3   1 <1>  -0.1600 
  6 C        0.3090     0.8430     1.4230 C.3   1 <1>   0.1200 
  7 C        1.7670     1.3160    -0.6290 C.3   1 <1>  -0.2400 
  8 C       -3.8190     0.9410     0.1660 C.3   1 <1>   0.0640 
  9 C       -5.1040     0.1550    -0.0910 C.ar  1 <1>  -0.1440 
 10 C       -3.9640     2.3820    -0.3430 C.3   1 <1>  -0.2400 
 11 C       -5.7970    -0.4010     0.9740 C.ar  1 <1>  -0.1500 
 12 C       -5.5970    -0.0210    -1.3770 C.ar  1 <1>  -0.1500 
 13 C       -6.9630    -1.1170     0.7610 C.ar  1 <1>  -0.1500 
 14 C       -6.7620    -0.7370    -1.5940 C.ar  1 <1>  -0.1500 
 15 C       -7.4470    -1.2860    -0.5240 C.ar  1 <1>  -0.1500 
 16 H       -1.1990     1.8620    -0.5760 H     1 <1>   0.0800 
 17 H        1.3830    -0.6200     0.2510 H     1 <1>   0.0800 
 18 H       -2.5890    -0.7970    -0.0920 H     1 <1>   0.0800 
 19 H       -2.7400     0.1700    -1.5280 H     1 <1>   0.0800 
 20 H        0.6900     1.8180     1.6690 H     1 <1>   0.0800 
 21 H        0.4880     0.1600     2.2340 H     1 <1>   0.0800 
 22 H        1.2520     2.2460    -0.7890 H     1 <1>   0.0800 
 23 H        2.0630     0.9050    -1.5770 H     1 <1>   0.0800 
 24 H        2.6520     1.5090    -0.0510 H     1 <1>   0.0800 
 25 H       -3.6600     0.9870     1.2310 H     1 <1>   0.0800 
 26 H       -4.0170     2.4080    -1.4170 H     1 <1>   0.0800 
 27 H       -3.1350     2.9850    -0.0190 H     1 <1>   0.0800 
 28 H       -4.8660     2.8140     0.0530 H     1 <1>   0.0800 
 29 H       -5.4330    -0.2810     1.9790 H     1 <1>   0.1500 
 30 H       -5.0770     0.3980    -2.2190 H     1 <1>   0.1500 
 31 H       -7.4910    -1.5430     1.5950 H     1 <1>   0.1500 
 32 H       -7.1350    -0.8660    -2.5940 H     1 <1>   0.1500 
 33 H       -8.3520    -1.8420    -0.6910 H     1 <1>   0.1500 
@<TRIPOS>BOND
  1   1   2  1   
  2   1   3  1   
  3   2   4  1   
  4   2   5  1   
  5   2  16  1   
  6   3   6  1   
  7   3   7  1   
  8   3  17  1   
  9   4   6  1   
 10   5   8  1   
 11   5  18  1   
 12   5  19  1   
 13   6  20  1   
 14   6  21  1   
 15   7  22  1   
 16   7  23  1   
 17   7  24  1   
 18   8   9  1   
 19   8  10  1   
 20   8  25  1   
 21   9  11  ar  
 22   9  12  ar  
 23  10  26  1   
 24  10  27  1   
 25  10  28  1   
 26  11  13  ar  
 27  11  29  1   
 28  12  14  ar  
 29  12  30  1   
 30  13  15  ar  
 31  13  31  1   
 32  14  15  ar  
 33  14  32  1   
 34  15  33  1   
@<TRIPOS>SUBSTRUCTURE
  1 ****   5 GROUP 4 **** **** 0

# MOE 2024.06 (io_trps.svl 2023.06)
