@<TRIPOS>MOLECULE
NONAME
39 39 1 0 0 
SMALL
USER_CHARGES


@<TRIPOS>ATOM
  1 CL       0.5070    -0.5320    -1.0940 Cl    1 <1>  -0.1770 
  2 C        2.0130    -0.9260    -0.3080 C.ar  1 <1>   0.1770 
  3 C        3.1900    -0.3980    -0.7980 C.ar  1 <1>  -0.1500 
  4 C        2.0000    -1.7590     0.7930 C.ar  1 <1>  -0.1500 
  5 C        4.4130    -0.6940    -0.1910 C.ar  1 <1>   0.0860 
  6 C        3.1980    -2.0670     1.4110 C.ar  1 <1>  -0.1500 
  7 C        5.6500    -0.1370    -0.7090 C.2   1 <1>   0.6340 
  8 C        4.3830    -1.5400     0.9230 C.ar  1 <1>  -0.1500 
  9 O        5.7000     0.6000    -1.6700 O.2   1 <1>  -0.5700 
 10 O        6.8010    -0.4490    -0.0990 O.3   1 <1>  -0.4300 
 11 C        8.0280     0.0670    -0.5740 C.3   1 <1>   0.1200 
 12 C        9.1580    -0.4400     0.3290 C.3   1 <1>   0.3430 
 13 N       10.5300    -0.0500    -0.1690 N.4   1 <1>  -0.9590 
 14 C       11.6440    -0.7690     0.5200 C.3   1 <1>   0.5030 
 15 C       10.6800     1.4490    -0.1600 C.3   1 <1>   0.2630 
 16 C       11.6710    -0.4470     2.0180 C.3   1 <1>  -0.2400 
 17 C       12.9760    -0.3610    -0.1200 C.3   1 <1>  -0.2400 
 18 C       11.4690    -2.2770     0.3160 C.3   1 <1>  -0.2400 
 19 H        3.1550     0.2480    -1.6580 H     1 <1>   0.1500 
 20 H        1.0680    -2.1570     1.1550 H     1 <1>   0.1500 
 21 H        3.2060    -2.7160     2.2710 H     1 <1>   0.1500 
 22 H        5.3010    -1.7950     1.4230 H     1 <1>   0.1500 
 23 H        7.9600     1.1410    -0.5530 H     1 <1>   0.0800 
 24 H        8.1600    -0.2770    -1.5860 H     1 <1>   0.0800 
 25 H        9.0790    -1.5120     0.3680 H     1 <1>   0.0800 
 26 H        9.0120    -0.0520     1.3230 H     1 <1>   0.0800 
 27 H       10.5960    -0.3590    -1.1470 H     1 <1>   0.4500 
 28 H       10.6330     1.8250     0.8490 H     1 <1>   0.0800 
 29 H        9.8970     1.9130    -0.7360 H     1 <1>   0.0800 
 30 H       11.6230     1.7400    -0.5930 H     1 <1>   0.0800 
 31 H       10.7680    -0.7600     2.5080 H     1 <1>   0.0800 
 32 H       11.8270     0.6010     2.1960 H     1 <1>   0.0800 
 33 H       12.4850    -0.9740     2.4840 H     1 <1>   0.0800 
 34 H       13.2320     0.6590     0.0990 H     1 <1>   0.0800 
 35 H       12.9540    -0.5060    -1.1850 H     1 <1>   0.0800 
 36 H       13.7720    -0.9680     0.2750 H     1 <1>   0.0800 
 37 H       10.6290    -2.6640     0.8620 H     1 <1>   0.0800 
 38 H       12.3360    -2.7980     0.6830 H     1 <1>   0.0800 
 39 H       11.3630    -2.5180    -0.7260 H     1 <1>   0.0800 
@<TRIPOS>BOND
  1   1   2  1   
  2   2   3  ar  
  3   2   4  ar  
  4   3   5  ar  
  5   3  19  1   
  6   4   6  ar  
  7   4  20  1   
  8   5   7  1   
  9   5   8  ar  
 10   6   8  ar  
 11   6  21  1   
 12   7   9  2   
 13   7  10  1   
 14   8  22  1   
 15  10  11  1   
 16  11  12  1   
 17  11  23  1   
 18  11  24  1   
 19  12  13  1   
 20  12  25  1   
 21  12  26  1   
 22  13  14  1   
 23  13  15  1   
 24  13  27  1   
 25  14  16  1   
 26  14  17  1   
 27  14  18  1   
 28  15  28  1   
 29  15  29  1   
 30  15  30  1   
 31  16  31  1   
 32  16  32  1   
 33  16  33  1   
 34  17  34  1   
 35  17  35  1   
 36  17  36  1   
 37  18  37  1   
 38  18  38  1   
 39  18  39  1   
@<TRIPOS>SUBSTRUCTURE
  1 ****  10 GROUP 4 **** **** 0

# MOE 2024.06 (io_trps.svl 2023.06)
