@<TRIPOS>MOLECULE
NONAME
44 45 1 0 0 
SMALL
USER_CHARGES


@<TRIPOS>ATOM
  1 S        0.0010    -0.2070     1.3170 S.o2  1 <1>   1.4470 
  2 O        0.3790    -0.4300     2.6970 O.2   1 <1>  -0.6500 
  3 O       -0.1050     1.1470     0.8210 O.2   1 <1>  -0.6500 
  4 N        1.1760    -0.9790     0.3700 N.am  1 <1>  -0.8490 
  5 C       -1.5090    -1.1290     0.9190 C.ar  1 <1>  -0.0090 
  6 C        2.4160    -0.1880     0.3060 C.3   1 <1>   0.1960 
  7 C        1.4810    -2.3380     0.8480 C.3   1 <1>   0.1960 
  8 C       -1.8820    -1.3480    -0.4000 C.ar  1 <1>  -0.1500 
  9 C       -2.3260    -1.6440     1.9160 C.ar  1 <1>  -0.1500 
 10 C        3.4890    -0.8720    -0.5630 C.3   1 <1>   0.1960 
 11 C        2.5340    -3.0210    -0.0450 C.3   1 <1>   0.1960 
 12 C       -3.0230    -2.0630    -0.7300 C.ar  1 <1>  -0.1440 
 13 C       -3.4690    -2.3570     1.6040 C.ar  1 <1>  -0.1500 
 14 N        3.7860    -2.2420    -0.1010 N.am  1 <1>  -0.8490 
 15 C       -3.8250    -2.5740     0.2830 C.ar  1 <1>  -0.1430 
 16 C       -3.3680    -2.2670    -2.1990 C.3   1 <1>  -0.0970 
 17 S        4.9770    -2.9790    -1.0550 S.o2  1 <1>   1.3330 
 18 C       -5.0910    -3.3620    -0.0230 C.3   1 <1>  -0.0960 
 19 O        5.9360    -1.9630    -1.4230 O.2   1 <1>  -0.6500 
 20 O        4.3040    -3.7410    -2.0820 O.2   1 <1>  -0.6500 
 21 C        5.7670    -4.1040     0.1060 C.3   1 <1>  -0.0550 
 22 C        6.9220    -4.9270    -0.4920 C.3   1 <1>  -0.2400 
 23 H        2.8080    -0.0380     1.2980 H     1 <1>   0.0800 
 24 H        2.2030     0.7810    -0.1150 H     1 <1>   0.0800 
 25 H        0.5840    -2.9330     0.8410 H     1 <1>   0.0800 
 26 H        1.8530    -2.3040     1.8590 H     1 <1>   0.0800 
 27 H       -1.2580    -0.9460    -1.1800 H     1 <1>   0.1500 
 28 H       -2.0670    -1.4850     2.9500 H     1 <1>   0.1500 
 29 H        4.3850    -0.2750    -0.5230 H     1 <1>   0.0800 
 30 H        3.1540    -0.8960    -1.5870 H     1 <1>   0.0800 
 31 H        2.1220    -3.1340    -1.0350 H     1 <1>   0.0800 
 32 H        2.7380    -4.0040     0.3430 H     1 <1>   0.0800 
 33 H       -4.0800    -2.7430     2.4010 H     1 <1>   0.1500 
 34 H       -2.6080    -1.8520    -2.8360 H     1 <1>   0.0800 
 35 H       -4.3000    -1.7830    -2.4270 H     1 <1>   0.0800 
 36 H       -3.4540    -3.3150    -2.4180 H     1 <1>   0.0800 
 37 H       -5.7640    -2.7660    -0.6120 H     1 <1>   0.0800 
 38 H       -5.5980    -3.6460     0.8810 H     1 <1>   0.0800 
 39 H       -4.8450    -4.2560    -0.5670 H     1 <1>   0.0800 
 40 H        5.0320    -4.7810     0.4920 H     1 <1>   0.0800 
 41 H        6.1470    -3.5330     0.9310 H     1 <1>   0.0800 
 42 H        6.5640    -5.5290    -1.3090 H     1 <1>   0.0800 
 43 H        7.3470    -5.5720     0.2560 H     1 <1>   0.0800 
 44 H        7.6910    -4.2700    -0.8610 H     1 <1>   0.0800 
@<TRIPOS>BOND
  1   1   2  2   
  2   1   3  2   
  3   1   4  am  
  4   1   5  1   
  5   4   6  1   
  6   4   7  1   
  7   5   8  ar  
  8   5   9  ar  
  9   6  10  1   
 10   6  23  1   
 11   6  24  1   
 12   7  11  1   
 13   7  25  1   
 14   7  26  1   
 15   8  12  ar  
 16   8  27  1   
 17   9  13  ar  
 18   9  28  1   
 19  10  14  1   
 20  10  29  1   
 21  10  30  1   
 22  11  14  1   
 23  11  31  1   
 24  11  32  1   
 25  12  15  ar  
 26  12  16  1   
 27  13  15  ar  
 28  13  33  1   
 29  14  17  am  
 30  15  18  1   
 31  16  34  1   
 32  16  35  1   
 33  16  36  1   
 34  17  19  2   
 35  17  20  2   
 36  17  21  1   
 37  18  37  1   
 38  18  38  1   
 39  18  39  1   
 40  21  22  1   
 41  21  40  1   
 42  21  41  1   
 43  22  42  1   
 44  22  43  1   
 45  22  44  1   
@<TRIPOS>SUBSTRUCTURE
  1 ****   7 GROUP 4 **** **** 0

# MOE 2024.06 (io_trps.svl 2023.06)
