@<TRIPOS>MOLECULE
NONAME
50 51 1 0 0 
SMALL
USER_CHARGES


@<TRIPOS>ATOM
  1 F        0.2720    -1.0560     1.9720 F     1 <1>  -0.3400 
  2 C        0.4060    -1.3020     0.6760 C.3   1 <1>   1.1640 
  3 F        1.3700    -2.2070     0.5630 F     1 <1>  -0.3400 
  4 F        0.8760    -0.1870     0.1290 F     1 <1>  -0.3400 
  5 C       -0.9210    -1.7630     0.0460 C.ar  1 <1>  -0.1440 
  6 C       -1.8140    -0.8400    -0.4890 C.ar  1 <1>  -0.1500 
  7 C       -1.2590    -3.1110     0.0020 C.ar  1 <1>  -0.1500 
  8 C       -3.0100    -1.2520    -1.0500 C.ar  1 <1>  -0.1500 
  9 C       -2.4540    -3.5260    -0.5590 C.ar  1 <1>  -0.1500 
 10 C       -3.3410    -2.5980    -1.0830 C.ar  1 <1>  -0.1430 
 11 C       -4.6600    -3.0480    -1.6840 C.3   1 <1>   0.4870 
 12 N       -5.5870    -3.4160    -0.5790 N.4   1 <1>  -0.9590 
 13 C       -6.8170    -4.0780    -1.1210 C.3   1 <1>   0.3430 
 14 C       -5.9190    -2.2340     0.2720 C.3   1 <1>   0.3430 
 15 C       -7.7600    -4.5330     0.0000 C.3   1 <1>  -0.0190 
 16 C       -6.8130    -2.6690     1.4350 C.3   1 <1>  -0.1600 
 17 C       -9.0220    -5.1000    -0.6420 C.2   1 <1>   0.5690 
 18 C       -8.0930    -3.3570     0.9400 C.3   1 <1>  -0.1600 
 19 O       -9.3330    -4.6330    -1.7130 O.2   1 <1>  -0.5700 
 20 N       -9.7590    -6.0890    -0.0400 N.am  1 <1>  -0.6600 
 21 C       -9.4650    -6.7030     1.2840 C.3   1 <1>   0.1400 
 22 C      -10.9920    -6.6050    -0.6980 C.3   1 <1>   0.1400 
 23 C       -8.6310    -7.9670     1.0880 C.3   1 <1>  -0.2400 
 24 C      -12.2020    -5.8100    -0.2130 C.3   1 <1>  -0.2400 
 25 H       -1.5800     0.2130    -0.4720 H     1 <1>   0.1500 
 26 H       -0.5850    -3.8510     0.4060 H     1 <1>   0.1500 
 27 H       -3.6730    -0.5080    -1.4610 H     1 <1>   0.1500 
 28 H       -2.6740    -4.5800    -0.5830 H     1 <1>   0.1500 
 29 H       -4.4860    -3.8990    -2.3220 H     1 <1>   0.0800 
 30 H       -5.0850    -2.2560    -2.2800 H     1 <1>   0.0800 
 31 H       -5.0830    -4.0830     0.0170 H     1 <1>   0.4500 
 32 H       -6.5490    -4.9320    -1.7220 H     1 <1>   0.0800 
 33 H       -7.3480    -3.3850    -1.7560 H     1 <1>   0.0800 
 34 H       -6.4330    -1.4920    -0.3170 H     1 <1>   0.0800 
 35 H       -5.0150    -1.7920     0.6630 H     1 <1>   0.0800 
 36 H       -7.2640    -5.3110     0.5480 H     1 <1>   0.0800 
 37 H       -7.0790    -1.8000     2.0120 H     1 <1>   0.0800 
 38 H       -6.2630    -3.3280     2.0850 H     1 <1>   0.0800 
 39 H       -8.6680    -3.7060     1.7810 H     1 <1>   0.0800 
 40 H       -8.7010    -2.6420     0.4100 H     1 <1>   0.0800 
 41 H      -10.3880    -6.9540     1.7800 H     1 <1>   0.0800 
 42 H       -8.9410    -6.0100     1.9170 H     1 <1>   0.0800 
 43 H      -11.1220    -7.6500    -0.4730 H     1 <1>   0.0800 
 44 H      -10.9060    -6.5100    -1.7680 H     1 <1>   0.0800 
 45 H       -9.1750    -8.6890     0.5050 H     1 <1>   0.0800 
 46 H       -8.4110    -8.4070     2.0440 H     1 <1>   0.0800 
 47 H       -7.7040    -7.7420     0.5950 H     1 <1>   0.0800 
 48 H      -12.3290    -5.9150     0.8490 H     1 <1>   0.0800 
 49 H      -13.0890    -6.1720    -0.7000 H     1 <1>   0.0800 
 50 H      -12.0820    -4.7700    -0.4600 H     1 <1>   0.0800 
@<TRIPOS>BOND
  1   1   2  1   
  2   2   3  1   
  3   2   4  1   
  4   2   5  1   
  5   5   6  ar  
  6   5   7  ar  
  7   6   8  ar  
  8   6  25  1   
  9   7   9  ar  
 10   7  26  1   
 11   8  10  ar  
 12   8  27  1   
 13   9  10  ar  
 14   9  28  1   
 15  10  11  1   
 16  11  12  1   
 17  11  29  1   
 18  11  30  1   
 19  12  13  1   
 20  12  14  1   
 21  12  31  1   
 22  13  15  1   
 23  13  32  1   
 24  13  33  1   
 25  14  16  1   
 26  14  34  1   
 27  14  35  1   
 28  15  17  1   
 29  15  18  1   
 30  15  36  1   
 31  16  18  1   
 32  16  37  1   
 33  16  38  1   
 34  17  19  2   
 35  17  20  am  
 36  18  39  1   
 37  18  40  1   
 38  20  21  1   
 39  20  22  1   
 40  21  23  1   
 41  21  41  1   
 42  21  42  1   
 43  22  24  1   
 44  22  43  1   
 45  22  44  1   
 46  23  45  1   
 47  23  46  1   
 48  23  47  1   
 49  24  48  1   
 50  24  49  1   
 51  24  50  1   
@<TRIPOS>SUBSTRUCTURE
  1 ****  12 GROUP 4 **** **** 0

# MOE 2024.06 (io_trps.svl 2023.06)
