@<TRIPOS>MOLECULE
NONAME
49 51 1 0 0 
SMALL
USER_CHARGES


@<TRIPOS>ATOM
  1 S        0.0980     0.2250     0.0260 S.o2  1 <1>   1.5760 
  2 O       -0.2720    -0.5190     1.2070 O.2   1 <1>  -0.6500 
  3 O        0.4760    -0.4600    -1.1890 O.2   1 <1>  -0.6500 
  4 N       -1.1350     1.3180    -0.3260 N.am  1 <1>  -0.8490 
  5 N        1.3330     1.2980     0.4300 N.am  1 <1>  -0.8490 
  6 C       -2.2640     0.6430    -0.9780 C.3   1 <1>   0.1960 
  7 C       -1.6140     2.0130     0.8780 C.3   1 <1>   0.1960 
  8 C        1.8060     2.0500    -0.7490 C.3   1 <1>   0.1960 
  9 C        2.4520     0.5830     1.0630 C.3   1 <1>   0.1960 
 10 C       -3.4020     1.6370    -1.2780 C.3   1 <1>   0.1200 
 11 C       -2.7610     2.9800     0.5330 C.3   1 <1>   0.1200 
 12 C        2.9140     3.0510    -0.3840 C.3   1 <1>   0.1400 
 13 C        3.5800     1.5420     1.4810 C.3   1 <1>   0.1400 
 14 O       -3.8020     2.2990    -0.1100 O.3   1 <1>  -0.5600 
 15 N        4.0300     2.3620     0.3210 N.am  1 <1>  -0.6600 
 16 C        5.3250     2.7770     0.1630 C.2   1 <1>   0.6900 
 17 O        5.5420     3.9100    -0.2300 O.2   1 <1>  -0.5700 
 18 N        6.3700     1.9320     0.4390 N.am  1 <1>  -0.6600 
 19 C        7.7230     2.4750     0.7360 C.3   1 <1>   0.1400 
 20 C        6.3480     0.5010     0.0320 C.3   1 <1>   0.1400 
 21 C        8.6460     2.2720    -0.4700 C.3   1 <1>  -0.1600 
 22 C        7.2680     0.2850    -1.1750 C.3   1 <1>  -0.1600 
 23 C        8.6890     0.8020    -0.9090 C.3   1 <1>  -0.1600 
 24 H       -2.6410    -0.1450    -0.3460 H     1 <1>   0.0800 
 25 H       -1.9340     0.2010    -1.9020 H     1 <1>   0.0800 
 26 H       -0.8060     2.5690     1.3210 H     1 <1>   0.0800 
 27 H       -1.9670     1.3020     1.6070 H     1 <1>   0.0800 
 28 H        0.9850     2.5900    -1.1870 H     1 <1>   0.0800 
 29 H        2.1880     1.3710    -1.4930 H     1 <1>   0.0800 
 30 H        2.8470    -0.1540     0.3840 H     1 <1>   0.0800 
 31 H        2.0990     0.0690     1.9410 H     1 <1>   0.0800 
 32 H       -4.2570     1.1160    -1.6700 H     1 <1>   0.0800 
 33 H       -3.0810     2.3700    -1.9970 H     1 <1>   0.0800 
 34 H       -2.4100     3.7650    -0.1130 H     1 <1>   0.0800 
 35 H       -3.1610     3.4190     1.4300 H     1 <1>   0.0800 
 36 H        2.5120     3.8190     0.2540 H     1 <1>   0.0800 
 37 H        3.2840     3.5190    -1.2800 H     1 <1>   0.0800 
 38 H        4.4020     0.9830     1.8900 H     1 <1>   0.0800 
 39 H        3.2140     2.1990     2.2500 H     1 <1>   0.0800 
 40 H        8.1240     1.9630     1.5940 H     1 <1>   0.0800 
 41 H        7.6590     3.5230     0.9730 H     1 <1>   0.0800 
 42 H        5.3500     0.2010    -0.2320 H     1 <1>   0.0800 
 43 H        6.6790    -0.1030     0.8580 H     1 <1>   0.0800 
 44 H        9.6370     2.6060    -0.2190 H     1 <1>   0.0800 
 45 H        8.2900     2.8850    -1.2800 H     1 <1>   0.0800 
 46 H        6.8500     0.8020    -2.0220 H     1 <1>   0.0800 
 47 H        7.3020    -0.7620    -1.4150 H     1 <1>   0.0800 
 48 H        9.1470     0.2100    -0.1360 H     1 <1>   0.0800 
 49 H        9.2830     0.7060    -1.8010 H     1 <1>   0.0800 
@<TRIPOS>BOND
  1   1   2  2   
  2   1   3  2   
  3   1   4  am  
  4   1   5  am  
  5   4   6  1   
  6   4   7  1   
  7   5   8  1   
  8   5   9  1   
  9   6  10  1   
 10   6  24  1   
 11   6  25  1   
 12   7  11  1   
 13   7  26  1   
 14   7  27  1   
 15   8  12  1   
 16   8  28  1   
 17   8  29  1   
 18   9  13  1   
 19   9  30  1   
 20   9  31  1   
 21  10  14  1   
 22  10  32  1   
 23  10  33  1   
 24  11  14  1   
 25  11  34  1   
 26  11  35  1   
 27  12  15  1   
 28  12  36  1   
 29  12  37  1   
 30  13  15  1   
 31  13  38  1   
 32  13  39  1   
 33  15  16  am  
 34  16  17  2   
 35  16  18  am  
 36  18  19  1   
 37  18  20  1   
 38  19  21  1   
 39  19  40  1   
 40  19  41  1   
 41  20  22  1   
 42  20  42  1   
 43  20  43  1   
 44  21  23  1   
 45  21  44  1   
 46  21  45  1   
 47  22  23  1   
 48  22  46  1   
 49  22  47  1   
 50  23  48  1   
 51  23  49  1   
@<TRIPOS>SUBSTRUCTURE
  1 ****   8 GROUP 4 **** **** 0

# MOE 2024.06 (io_trps.svl 2023.06)
