@<TRIPOS>MOLECULE
NONAME
34 35 1 0 0 
SMALL
USER_CHARGES


@<TRIPOS>ATOM
  1 CL      -1.1290     0.4320     1.0610 Cl    1 <1>  -0.1770 
  2 C        0.1280     1.6180     0.7390 C.ar  1 <1>   0.1770 
  3 C        1.4540     1.3010     0.9740 C.ar  1 <1>   0.1770 
  4 C       -0.2370     2.8680     0.2420 C.ar  1 <1>   0.1170 
  5 CL       1.9010    -0.2690     1.6000 Cl    1 <1>  -0.1770 
  6 C        2.4550     2.2200     0.7160 C.ar  1 <1>  -0.1500 
  7 N       -1.5960     3.1510     0.0140 N.am  1 <1>  -0.5470 
  8 C        0.7840     3.7810    -0.0210 C.ar  1 <1>  -0.1500 
  9 C        2.1130     3.4650     0.2140 C.ar  1 <1>  -0.1500 
 10 C       -2.2840     4.3230    -0.1090 C.2   1 <1>   0.6900 
 11 O       -1.7320     5.3920     0.0660 O.2   1 <1>  -0.5700 
 12 N       -3.6240     4.2700    -0.4020 N.am  1 <1>  -0.6600 
 13 C       -4.3110     3.1070    -1.0290 C.3   1 <1>   0.1400 
 14 C       -4.5070     5.4480    -0.1840 C.3   1 <1>   0.1400 
 15 C       -5.4810     2.6700    -0.1420 C.3   1 <1>  -0.1600 
 16 C       -5.6930     5.0390     0.6970 C.3   1 <1>  -0.1600 
 17 C       -6.4520     3.8350     0.1150 C.3   1 <1>  -0.0800 
 18 C       -7.5790     3.4000     1.0570 C.3   1 <1>  -0.2400 
 19 H        3.4830     1.9630     0.9040 H     1 <1>   0.1500 
 20 H       -2.2210     2.3570     0.1230 H     1 <1>   0.3700 
 21 H        0.5440     4.7520    -0.4160 H     1 <1>   0.1500 
 22 H        2.8800     4.1920     0.0060 H     1 <1>   0.1500 
 23 H       -3.6350     2.2850    -1.1800 H     1 <1>   0.0800 
 24 H       -4.6820     3.4060    -1.9940 H     1 <1>   0.0800 
 25 H       -4.8570     5.8050    -1.1370 H     1 <1>   0.0800 
 26 H       -3.9650     6.2470     0.2940 H     1 <1>   0.0800 
 27 H       -5.0920     2.3010     0.7910 H     1 <1>   0.0800 
 28 H       -6.0040     1.8630    -0.6240 H     1 <1>   0.0800 
 29 H       -6.3600     5.8770     0.7930 H     1 <1>   0.0800 
 30 H       -5.3220     4.8020     1.6780 H     1 <1>   0.0800 
 31 H       -6.8890     4.1290    -0.8250 H     1 <1>   0.0800 
 32 H       -7.1820     3.0980     2.0110 H     1 <1>   0.0800 
 33 H       -8.1220     2.5730     0.6340 H     1 <1>   0.0800 
 34 H       -8.2680     4.2120     1.2140 H     1 <1>   0.0800 
@<TRIPOS>BOND
  1   1   2  1   
  2   2   3  ar  
  3   2   4  ar  
  4   3   5  1   
  5   3   6  ar  
  6   4   7  1   
  7   4   8  ar  
  8   6   9  ar  
  9   6  19  1   
 10   7  10  am  
 11   7  20  1   
 12   8   9  ar  
 13   8  21  1   
 14   9  22  1   
 15  10  11  2   
 16  10  12  am  
 17  12  13  1   
 18  12  14  1   
 19  13  15  1   
 20  13  23  1   
 21  13  24  1   
 22  14  16  1   
 23  14  25  1   
 24  14  26  1   
 25  15  17  1   
 26  15  27  1   
 27  15  28  1   
 28  16  17  1   
 29  16  29  1   
 30  16  30  1   
 31  17  18  1   
 32  17  31  1   
 33  18  32  1   
 34  18  33  1   
 35  18  34  1   
@<TRIPOS>SUBSTRUCTURE
  1 ****   7 GROUP 4 **** **** 0

# MOE 2024.06 (io_trps.svl 2023.06)
