@<TRIPOS>MOLECULE
NONAME
42 43 1 0 0 
SMALL
USER_CHARGES


@<TRIPOS>ATOM
  1 O        0.4040    -1.2660    -0.0440 O.3   1 <1>  -0.3630 
  2 C       -0.8560    -1.2870     0.4670 C.ar  1 <1>   0.0830 
  3 C        1.4940    -0.7620     0.6940 C.3   1 <1>   0.1200 
  4 C       -1.8690    -1.8050    -0.3360 C.ar  1 <1>  -0.1440 
  5 C       -1.1620    -0.8160     1.7420 C.ar  1 <1>  -0.1500 
  6 C        2.7450    -0.8910    -0.1690 C.3   1 <1>   0.1200 
  7 C       -3.1690    -1.8460     0.1420 C.ar  1 <1>  -0.1500 
  8 C       -1.5620    -2.3250    -1.7330 C.3   1 <1>  -0.0960 
  9 C       -2.4630    -0.8630     2.2090 C.ar  1 <1>  -0.1500 
 10 O        3.8390    -0.3940     0.5450 O.3   1 <1>  -0.5600 
 11 C       -3.4670    -1.3770     1.4090 C.ar  1 <1>  -0.1500 
 12 C        5.0450    -0.4610    -0.1390 C.3   1 <1>   0.1200 
 13 C        6.1280     0.1010     0.7890 C.3   1 <1>   0.3430 
 14 N        7.4950     0.0650     0.1730 N.4   1 <1>  -0.9590 
 15 C        8.5500     0.4670     1.1360 C.3   1 <1>   0.3430 
 16 C        7.6600     0.9620    -0.9990 C.3   1 <1>   0.3430 
 17 C        9.7430     0.8250     0.2610 C.3   1 <1>  -0.1600 
 18 C        9.1660     1.1560    -1.1190 C.3   1 <1>  -0.1600 
 19 H        1.5930    -1.3460     1.5920 H     1 <1>   0.0800 
 20 H        1.2980     0.2710     0.9230 H     1 <1>   0.0800 
 21 H       -0.4070    -0.4110     2.3870 H     1 <1>   0.1500 
 22 H        2.6280    -0.3160    -1.0710 H     1 <1>   0.0800 
 23 H        2.9230    -1.9270    -0.4020 H     1 <1>   0.0800 
 24 H       -3.9590    -2.2440    -0.4700 H     1 <1>   0.1500 
 25 H       -1.1440    -1.5350    -2.3310 H     1 <1>   0.0800 
 26 H       -2.4500    -2.6890    -2.2170 H     1 <1>   0.0800 
 27 H       -0.8500    -3.1280    -1.6730 H     1 <1>   0.0800 
 28 H       -2.6960    -0.4980     3.1940 H     1 <1>   0.1500 
 29 H       -4.4790    -1.4140     1.7720 H     1 <1>   0.1500 
 30 H        4.9570     0.1270    -1.0350 H     1 <1>   0.0800 
 31 H        5.2430    -1.4930    -0.3770 H     1 <1>   0.0800 
 32 H        6.1290    -0.4830     1.6940 H     1 <1>   0.0800 
 33 H        5.8730     1.1170     1.0430 H     1 <1>   0.0800 
 34 H        7.7130    -0.8940    -0.1280 H     1 <1>   0.4500 
 35 H        8.7850    -0.3260     1.8290 H     1 <1>   0.0800 
 36 H        8.2320     1.3400     1.6840 H     1 <1>   0.0800 
 37 H        7.1910     1.9130    -0.7990 H     1 <1>   0.0800 
 38 H        7.2400     0.5360    -1.8960 H     1 <1>   0.0800 
 39 H       10.4140    -0.0140     0.1960 H     1 <1>   0.0800 
 40 H       10.2790     1.6590     0.6810 H     1 <1>   0.0800 
 41 H        9.3910     2.1660    -1.4150 H     1 <1>   0.0800 
 42 H        9.5630     0.4870    -1.8630 H     1 <1>   0.0800 
@<TRIPOS>BOND
  1   1   2  1   
  2   1   3  1   
  3   2   4  ar  
  4   2   5  ar  
  5   3   6  1   
  6   3  19  1   
  7   3  20  1   
  8   4   7  ar  
  9   4   8  1   
 10   5   9  ar  
 11   5  21  1   
 12   6  10  1   
 13   6  22  1   
 14   6  23  1   
 15   7  11  ar  
 16   7  24  1   
 17   8  25  1   
 18   8  26  1   
 19   8  27  1   
 20   9  11  ar  
 21   9  28  1   
 22  10  12  1   
 23  11  29  1   
 24  12  13  1   
 25  12  30  1   
 26  12  31  1   
 27  13  14  1   
 28  13  32  1   
 29  13  33  1   
 30  14  15  1   
 31  14  16  1   
 32  14  34  1   
 33  15  17  1   
 34  15  35  1   
 35  15  36  1   
 36  16  18  1   
 37  16  37  1   
 38  16  38  1   
 39  17  18  1   
 40  17  39  1   
 41  17  40  1   
 42  18  41  1   
 43  18  42  1   
@<TRIPOS>SUBSTRUCTURE
  1 ****   6 GROUP 4 **** **** 0

# MOE 2024.06 (io_trps.svl 2023.06)
