@<TRIPOS>MOLECULE
NONAME
50 52 1 0 0 
SMALL
USER_CHARGES


@<TRIPOS>ATOM
  1 BR      -0.0700     0.3050     0.9890 Br    1 <1>  -0.1110 
  2 C        1.6050    -0.6500     0.8590 C.ar  1 <1>   0.1110 
  3 C        1.6760    -2.0390     0.9650 C.ar  1 <1>   0.0820 
  4 C        2.7340     0.1260     0.6870 C.ar  1 <1>  -0.1500 
  5 O        0.6210    -2.8720     1.1170 O.3   1 <1>  -0.3630 
  6 C        2.9310    -2.6240     0.9280 C.ar  1 <1>  -0.1500 
  7 C        3.9990    -0.4600     0.6220 C.ar  1 <1>   0.0860 
  8 C       -0.5000    -2.7700     0.2700 C.3   1 <1>   0.1200 
  9 C        4.0680    -1.8510     0.7600 C.ar  1 <1>  -0.1500 
 10 C        5.1840     0.3540     0.4250 C.2   1 <1>   0.5440 
 11 C       -1.0330    -4.1780     0.0230 C.3   1 <1>  -0.2400 
 12 O        5.2090     1.5020     0.8200 O.2   1 <1>  -0.5700 
 13 N        6.2700    -0.1680    -0.2430 N.am  1 <1>  -0.5470 
 14 C        7.5440     0.3710    -0.4730 C.ar  1 <1>   0.1170 
 15 C        8.1310     1.3040     0.3740 C.ar  1 <1>  -0.1500 
 16 C        8.2630    -0.0500    -1.5850 C.ar  1 <1>  -0.1500 
 17 C        9.3910     1.8090     0.1150 C.ar  1 <1>  -0.1500 
 18 C        9.5260     0.4480    -1.8480 C.ar  1 <1>  -0.1500 
 19 C       10.1010     1.3810    -0.9970 C.ar  1 <1>  -0.1430 
 20 C       11.4890     1.9250    -1.2750 C.3   1 <1>   0.4860 
 21 N       12.4280     1.3860    -0.2560 N.4   1 <1>  -0.9590 
 22 C       13.8070     1.9730    -0.3330 C.3   1 <1>   0.3430 
 23 C       12.4800    -0.1150    -0.2140 C.3   1 <1>   0.3430 
 24 C       14.7630     1.3150     0.6890 C.3   1 <1>   0.1200 
 25 C       13.4220    -0.6100     0.9090 C.3   1 <1>   0.1200 
 26 O       14.0650     0.4600     1.5520 O.3   1 <1>  -0.5600 
 27 H        2.6400     1.1950     0.6100 H     1 <1>   0.1500 
 28 H        3.0080    -3.6930     1.0320 H     1 <1>   0.1500 
 29 H       -0.2030    -2.3080    -0.6560 H     1 <1>   0.0800 
 30 H       -1.2440    -2.1690     0.7630 H     1 <1>   0.0800 
 31 H        5.0250    -2.3420     0.7500 H     1 <1>   0.1500 
 32 H       -0.2820    -4.7790    -0.4570 H     1 <1>   0.0800 
 33 H       -1.8970    -4.1340    -0.6150 H     1 <1>   0.0800 
 34 H       -1.3180    -4.6330     0.9550 H     1 <1>   0.0800 
 35 H        6.0770    -1.0380    -0.7350 H     1 <1>   0.3700 
 36 H        7.5970     1.6430     1.2440 H     1 <1>   0.1500 
 37 H        7.8260    -0.7670    -2.2570 H     1 <1>   0.1500 
 38 H        9.7990     2.5410     0.7920 H     1 <1>   0.1500 
 39 H       10.0480     0.1040    -2.7260 H     1 <1>   0.1500 
 40 H       11.4650     3.0020    -1.2250 H     1 <1>   0.0800 
 41 H       11.8060     1.6350    -2.2640 H     1 <1>   0.0800 
 42 H       12.0650     1.6470     0.6730 H     1 <1>   0.4500 
 43 H       13.7650     3.0320    -0.1380 H     1 <1>   0.0800 
 44 H       14.2130     1.8410    -1.3220 H     1 <1>   0.0800 
 45 H       12.8280    -0.4980    -1.1580 H     1 <1>   0.0800 
 46 H       11.4940    -0.5170    -0.0440 H     1 <1>   0.0800 
 47 H       15.2440     2.0690     1.2880 H     1 <1>   0.0800 
 48 H       15.5280     0.7480     0.1870 H     1 <1>   0.0800 
 49 H       14.1700    -1.2750     0.5130 H     1 <1>   0.0800 
 50 H       12.8580    -1.1450     1.6540 H     1 <1>   0.0800 
@<TRIPOS>BOND
  1   1   2  1   
  2   2   3  ar  
  3   2   4  ar  
  4   3   5  1   
  5   3   6  ar  
  6   4   7  ar  
  7   4  27  1   
  8   5   8  1   
  9   6   9  ar  
 10   6  28  1   
 11   7   9  ar  
 12   7  10  1   
 13   8  11  1   
 14   8  29  1   
 15   8  30  1   
 16   9  31  1   
 17  10  12  2   
 18  10  13  am  
 19  11  32  1   
 20  11  33  1   
 21  11  34  1   
 22  13  14  1   
 23  13  35  1   
 24  14  15  ar  
 25  14  16  ar  
 26  15  17  ar  
 27  15  36  1   
 28  16  18  ar  
 29  16  37  1   
 30  17  19  ar  
 31  17  38  1   
 32  18  19  ar  
 33  18  39  1   
 34  19  20  1   
 35  20  21  1   
 36  20  40  1   
 37  20  41  1   
 38  21  22  1   
 39  21  23  1   
 40  21  42  1   
 41  22  24  1   
 42  22  43  1   
 43  22  44  1   
 44  23  25  1   
 45  23  45  1   
 46  23  46  1   
 47  24  26  1   
 48  24  47  1   
 49  24  48  1   
 50  25  26  1   
 51  25  49  1   
 52  25  50  1   
@<TRIPOS>SUBSTRUCTURE
  1 ****  13 GROUP 4 **** **** 0

# MOE 2024.06 (io_trps.svl 2023.06)
