@<TRIPOS>MOLECULE
NONAME
39 42 1 0 0 
SMALL
USER_CHARGES


@<TRIPOS>ATOM
  1 S       12.1660    -1.5770     0.3530 S.3   1 <1>  -0.0800 
  2 C       10.4180    -1.8220     0.1590 C.ar  1 <1>   0.2970 
  3 C       11.9580     0.1550     0.1280 C.2   1 <1>  -0.1400 
  4 N        9.8430    -3.0050     0.2250 N.ar  1 <1>  -0.5670 
  5 C        9.7760    -0.6240    -0.0610 C.ar  1 <1>   0.0000 
  6 C       10.6930     0.4850    -0.0710 C.2   1 <1>  -0.1810 
  7 C       12.9530     1.2690     0.1260 C.3   1 <1>   0.0200 
  8 C        8.5360    -2.9450     0.0540 C.ar  1 <1>   0.4770 
  9 C        8.3970    -0.7160    -0.2240 C.ar  1 <1>   0.4100 
 10 C       10.5550     1.9720    -0.2590 C.3   1 <1>   0.0210 
 11 C       12.0210     2.4820    -0.1360 C.3   1 <1>  -0.1600 
 12 N        7.7760    -1.8800    -0.1630 N.ar  1 <1>  -0.6200 
 13 C        7.7960    -4.2600     0.1140 C.3   1 <1>  -0.0960 
 14 N        7.6430     0.4020    -0.4510 N.pl3 1 <1>  -0.8690 
 15 C        6.1820     0.4800    -0.2340 C.3   1 <1>   0.2090 
 16 C        5.6780     1.8980    -0.5590 C.3   1 <1>   0.2000 
 17 O        6.4880     2.8660     0.0450 O.3   1 <1>  -0.5600 
 18 C        4.2750     2.1960    -0.0540 C.3   1 <1>  -0.1600 
 19 C        5.7680     4.0330     0.3050 C.3   1 <1>   0.1200 
 20 C        4.2940     3.7070     0.0750 C.3   1 <1>  -0.1600 
 21 H       13.6720     1.1380    -0.6630 H     1 <1>   0.0800 
 22 H       13.4460     1.3420     1.0800 H     1 <1>   0.0800 
 23 H        9.9290     2.3930     0.5080 H     1 <1>   0.0800 
 24 H       10.1440     2.1920    -1.2300 H     1 <1>   0.0800 
 25 H       12.3130     2.9760    -1.0470 H     1 <1>   0.0800 
 26 H       12.0970     3.1850     0.6750 H     1 <1>   0.0800 
 27 H        8.4820    -5.0760     0.2450 H     1 <1>   0.0800 
 28 H        7.2500    -4.4040    -0.8000 H     1 <1>   0.0800 
 29 H        7.1070    -4.2430     0.9370 H     1 <1>   0.0800 
 30 H        8.0840     1.3120    -0.2850 H     1 <1>   0.4000 
 31 H        5.9680     0.2430     0.7930 H     1 <1>   0.0800 
 32 H        5.6840    -0.2400    -0.8590 H     1 <1>   0.0800 
 33 H        5.7270     2.0610    -1.6220 H     1 <1>   0.0800 
 34 H        4.1280     1.7440     0.9120 H     1 <1>   0.0800 
 35 H        3.5170     1.8460    -0.7320 H     1 <1>   0.0800 
 36 H        6.1140     4.8060    -0.3590 H     1 <1>   0.0800 
 37 H        5.9560     4.3140     1.3270 H     1 <1>   0.0800 
 38 H        3.6770     4.0580     0.8840 H     1 <1>   0.0800 
 39 H        3.9680     4.1680    -0.8410 H     1 <1>   0.0800 
@<TRIPOS>BOND
  1   1   2  1   
  2   1   3  1   
  3   2   4  ar  
  4   2   5  ar  
  5   3   6  2   
  6   3   7  1   
  7   4   8  ar  
  8   5   6  1   
  9   5   9  ar  
 10   6  10  1   
 11   7  11  1   
 12   7  21  1   
 13   7  22  1   
 14   8  12  ar  
 15   8  13  1   
 16   9  12  ar  
 17   9  14  1   
 18  10  11  1   
 19  10  23  1   
 20  10  24  1   
 21  11  25  1   
 22  11  26  1   
 23  13  27  1   
 24  13  28  1   
 25  13  29  1   
 26  14  15  1   
 27  14  30  1   
 28  15  16  1   
 29  15  31  1   
 30  15  32  1   
 31  16  17  1   
 32  16  18  1   
 33  16  33  1   
 34  17  19  1   
 35  18  20  1   
 36  18  34  1   
 37  18  35  1   
 38  19  20  1   
 39  19  36  1   
 40  19  37  1   
 41  20  38  1   
 42  20  39  1   
@<TRIPOS>SUBSTRUCTURE
  1 ****   9 GROUP 4 **** **** 0

# MOE 2024.06 (io_trps.svl 2023.06)
