@<TRIPOS>MOLECULE
NONAME
60 62 1 0 0 
SMALL
USER_CHARGES


@<TRIPOS>ATOM
  1 S       -0.0080     0.3710    -1.0160 S.o2  1 <1>   1.4470 
  2 O       -0.9720     1.2990    -0.4620 O.2   1 <1>  -0.6500 
  3 O        0.4690     0.5670    -2.3670 O.2   1 <1>  -0.6500 
  4 N        1.3400     0.3750     0.0090 N.am  1 <1>  -0.8490 
  5 C       -0.6610    -1.3170    -0.8600 C.ar  1 <1>  -0.0090 
  6 C        2.2680     1.4640    -0.3320 C.3   1 <1>   0.1960 
  7 C        0.9830     0.4020     1.4270 C.3   1 <1>   0.1960 
  8 C       -2.0250    -1.5470    -0.7510 C.ar  1 <1>  -0.1500 
  9 C        0.1810    -2.4190    -0.8580 C.ar  1 <1>  -0.1500 
 10 C        3.3500     1.6860     0.7420 C.3   1 <1>  -0.1600 
 11 C        2.2100     0.0640     2.2880 C.3   1 <1>  -0.1600 
 12 C       -2.5720    -2.8260    -0.6390 C.ar  1 <1>   0.0860 
 13 C       -0.3260    -3.7000    -0.7440 C.ar  1 <1>  -0.1500 
 14 C        3.5490     0.4500     1.6290 C.3   1 <1>  -0.0800 
 15 C       -1.6890    -3.9120    -0.6360 C.ar  1 <1>  -0.1430 
 16 C       -4.0150    -2.9720    -0.5450 C.2   1 <1>   0.5440 
 17 C        4.6420     0.6800     2.6780 C.3   1 <1>  -0.2400 
 18 C       -2.1940    -5.3470    -0.5230 C.3   1 <1>  -0.0970 
 19 O       -4.5420    -3.6250     0.3360 O.2   1 <1>  -0.5700 
 20 N       -4.8300    -2.3400    -1.4440 N.am  1 <1>  -0.7300 
 21 C       -6.2690    -2.6470    -1.7140 C.3   1 <1>   0.1400 
 22 C       -7.2270    -1.9880    -0.6980 C.3   1 <1>   0.3430 
 23 N       -7.0180    -2.5180     0.6790 N.4   1 <1>  -0.9590 
 24 C       -7.6640    -3.8550     0.9060 C.3   1 <1>   0.3430 
 25 C       -7.3890    -1.5430     1.7570 C.3   1 <1>   0.3430 
 26 C       -7.4390    -4.3440     2.3490 C.3   1 <1>   0.1200 
 27 C       -7.1890    -2.1520     3.1590 C.3   1 <1>   0.1200 
 28 O       -7.8670    -3.3710     3.2600 O.3   1 <1>  -0.5600 
 29 H        1.7210     2.3830    -0.4750 H     1 <1>   0.0800 
 30 H        2.7450     1.2180    -1.2660 H     1 <1>   0.0800 
 31 H        0.2020    -0.3100     1.6330 H     1 <1>   0.0800 
 32 H        0.6140     1.3830     1.6820 H     1 <1>   0.0800 
 33 H       -2.6840    -0.6960    -0.7470 H     1 <1>   0.1500 
 34 H        1.2450    -2.2700    -0.9450 H     1 <1>   0.1500 
 35 H        3.0600     2.5210     1.3560 H     1 <1>   0.0800 
 36 H        4.2730     1.9510     0.2580 H     1 <1>   0.0800 
 37 H        2.2160    -0.9920     2.4920 H     1 <1>   0.0800 
 38 H        2.0980     0.5690     3.2310 H     1 <1>   0.0800 
 39 H        0.3580    -4.5320    -0.7430 H     1 <1>   0.1500 
 40 H        3.8560    -0.3640     0.9910 H     1 <1>   0.0800 
 41 H        4.3840     1.5020     3.3240 H     1 <1>   0.0800 
 42 H        5.5780     0.9020     2.1970 H     1 <1>   0.0800 
 43 H        4.7710    -0.2030     3.2790 H     1 <1>   0.0800 
 44 H       -2.9710    -5.5300    -1.2430 H     1 <1>   0.0800 
 45 H       -2.5860    -5.5210     0.4640 H     1 <1>   0.0800 
 46 H       -1.4020    -6.0520    -0.7000 H     1 <1>   0.0800 
 47 H       -4.3570    -1.8400    -2.2050 H     1 <1>   0.3700 
 48 H       -6.4120    -3.7140    -1.7130 H     1 <1>   0.0800 
 49 H       -6.5130    -2.2910    -2.7000 H     1 <1>   0.0800 
 50 H       -8.2480    -2.1560    -1.0000 H     1 <1>   0.0800 
 51 H       -7.0480    -0.9250    -0.7110 H     1 <1>   0.0800 
 52 H       -5.9950    -2.7080     0.7530 H     1 <1>   0.4500 
 53 H       -7.2520    -4.5810     0.2240 H     1 <1>   0.0800 
 54 H       -8.7240    -3.7870     0.7290 H     1 <1>   0.0800 
 55 H       -8.4230    -1.2610     1.6540 H     1 <1>   0.0800 
 56 H       -6.7880    -0.6520     1.6690 H     1 <1>   0.0800 
 57 H       -6.3990    -4.5570     2.5260 H     1 <1>   0.0800 
 58 H       -8.0090    -5.2380     2.5320 H     1 <1>   0.0800 
 59 H       -7.5860    -1.4930     3.9110 H     1 <1>   0.0800 
 60 H       -6.1450    -2.3180     3.3630 H     1 <1>   0.0800 
@<TRIPOS>BOND
  1   1   2  2   
  2   1   3  2   
  3   1   4  am  
  4   1   5  1   
  5   4   6  1   
  6   4   7  1   
  7   5   8  ar  
  8   5   9  ar  
  9   6  10  1   
 10   6  29  1   
 11   6  30  1   
 12   7  11  1   
 13   7  31  1   
 14   7  32  1   
 15   8  12  ar  
 16   8  33  1   
 17   9  13  ar  
 18   9  34  1   
 19  10  14  1   
 20  10  35  1   
 21  10  36  1   
 22  11  14  1   
 23  11  37  1   
 24  11  38  1   
 25  12  15  ar  
 26  12  16  1   
 27  13  15  ar  
 28  13  39  1   
 29  14  17  1   
 30  14  40  1   
 31  15  18  1   
 32  16  19  2   
 33  16  20  am  
 34  17  41  1   
 35  17  42  1   
 36  17  43  1   
 37  18  44  1   
 38  18  45  1   
 39  18  46  1   
 40  20  21  1   
 41  20  47  1   
 42  21  22  1   
 43  21  48  1   
 44  21  49  1   
 45  22  23  1   
 46  22  50  1   
 47  22  51  1   
 48  23  24  1   
 49  23  25  1   
 50  23  52  1   
 51  24  26  1   
 52  24  53  1   
 53  24  54  1   
 54  25  27  1   
 55  25  55  1   
 56  25  56  1   
 57  26  28  1   
 58  26  57  1   
 59  26  58  1   
 60  27  28  1   
 61  27  59  1   
 62  27  60  1   
@<TRIPOS>SUBSTRUCTURE
  1 ****   8 GROUP 4 **** **** 0

# MOE 2024.06 (io_trps.svl 2023.06)
