@<TRIPOS>MOLECULE
NONAME
38 40 1 0 0 
SMALL
USER_CHARGES


@<TRIPOS>ATOM
  1 S       -0.0890     0.3900    -0.9370 S.2   1 <1>  -0.3800 
  2 C        0.9090     1.4820    -0.3050 C.2   1 <1>   0.5810 
  3 S        0.1920     2.9950     0.2840 S.3   1 <1>  -0.3710 
  4 N        2.2390     1.3240    -0.1870 N.am  1 <1>  -0.6600 
  5 C       -1.6180     2.8870    -0.0890 C.3   1 <1>   0.0700 
  6 C        2.9710     0.1110    -0.6150 C.3   1 <1>   0.1400 
  7 C        3.1710     2.3270     0.3790 C.3   1 <1>   0.1400 
  8 C       -2.2900     4.1510     0.4430 C.3   1 <1>   0.1400 
  9 C        4.3740     0.2770    -0.0410 C.3   1 <1>  -0.1600 
 10 C        4.5640     1.7860     0.0760 C.3   1 <1>  -0.1600 
 11 N       -3.7570     4.0660     0.2570 N.am  1 <1>  -0.6600 
 12 C       -4.4780     4.6540    -0.7400 C.2   1 <1>   0.5440 
 13 C       -4.6520     3.3610     1.2110 C.3   1 <1>   0.2840 
 14 O       -3.9770     5.2930    -1.6440 O.2   1 <1>  -0.5700 
 15 C       -5.8740     4.3900    -0.5420 C.ar  1 <1>   0.0860 
 16 C       -6.0210     3.6280     0.6030 C.ar  1 <1>  -0.1440 
 17 C       -6.9960     4.7610    -1.2720 C.ar  1 <1>  -0.1500 
 18 C       -7.2690     3.2240     1.0410 C.ar  1 <1>  -0.1500 
 19 C       -8.2510     4.3620    -0.8420 C.ar  1 <1>  -0.1500 
 20 C       -8.3870     3.5970     0.3090 C.ar  1 <1>  -0.1500 
 21 H       -1.9950     2.0070     0.4000 H     1 <1>   0.0800 
 22 H       -1.7270     2.8100    -1.1570 H     1 <1>   0.0800 
 23 H        3.0050     0.0840    -1.6910 H     1 <1>   0.0800 
 24 H        2.4950    -0.7810    -0.2440 H     1 <1>   0.0800 
 25 H        3.0150     2.3900     1.4430 H     1 <1>   0.0800 
 26 H        3.0200     3.2950    -0.0690 H     1 <1>   0.0800 
 27 H       -1.9120     5.0050    -0.0930 H     1 <1>   0.0800 
 28 H       -2.0670     4.2770     1.4880 H     1 <1>   0.0800 
 29 H        5.1180    -0.1850    -0.6660 H     1 <1>   0.0800 
 30 H        4.4060    -0.1740     0.9350 H     1 <1>   0.0800 
 31 H        5.2720     2.0530     0.8410 H     1 <1>   0.0800 
 32 H        4.8960     2.1870    -0.8650 H     1 <1>   0.0800 
 33 H       -4.5710     3.7910     2.1940 H     1 <1>   0.0800 
 34 H       -4.4310     2.3080     1.2310 H     1 <1>   0.0800 
 35 H       -6.8720     5.3540    -2.1620 H     1 <1>   0.1500 
 36 H       -7.3780     2.6320     1.9320 H     1 <1>   0.1500 
 37 H       -9.1250     4.6460    -1.4030 H     1 <1>   0.1500 
 38 H       -9.3670     3.2920     0.6340 H     1 <1>   0.1500 
@<TRIPOS>BOND
  1   1   2  2   
  2   2   3  1   
  3   2   4  am  
  4   3   5  1   
  5   4   6  1   
  6   4   7  1   
  7   5   8  1   
  8   5  21  1   
  9   5  22  1   
 10   6   9  1   
 11   6  23  1   
 12   6  24  1   
 13   7  10  1   
 14   7  25  1   
 15   7  26  1   
 16   8  11  1   
 17   8  27  1   
 18   8  28  1   
 19   9  10  1   
 20   9  29  1   
 21   9  30  1   
 22  10  31  1   
 23  10  32  1   
 24  11  12  am  
 25  11  13  1   
 26  12  14  2   
 27  12  15  1   
 28  13  16  1   
 29  13  33  1   
 30  13  34  1   
 31  15  16  ar  
 32  15  17  ar  
 33  16  18  ar  
 34  17  19  ar  
 35  17  35  1   
 36  18  20  ar  
 37  18  36  1   
 38  19  20  ar  
 39  19  37  1   
 40  20  38  1   
@<TRIPOS>SUBSTRUCTURE
  1 ****   5 GROUP 4 **** **** 0

# MOE 2024.06 (io_trps.svl 2023.06)
