@<TRIPOS>MOLECULE
NONAME
41 42 1 0 0 
SMALL
USER_CHARGES


@<TRIPOS>ATOM
  1 CL       1.2470    -0.9630    -0.1330 Cl    1 <1>  -0.1770 
  2 C        1.1070     0.7570    -0.3830 C.ar  1 <1>   0.1770 
  3 C        0.2010     1.2330    -1.3090 C.ar  1 <1>  -0.1500 
  4 C        1.9090     1.6110     0.3500 C.ar  1 <1>  -0.1500 
  5 C        0.1120     2.5990    -1.4850 C.ar  1 <1>   0.1770 
  6 C        1.8190     2.9890     0.1650 C.ar  1 <1>   0.1170 
  7 CL      -1.0230     3.2350    -2.6470 Cl    1 <1>  -0.1770 
  8 C        0.9020     3.4740    -0.7640 C.ar  1 <1>  -0.1500 
  9 N        2.6440     3.8730     0.8970 N.am  1 <1>  -0.2370 
 10 C        3.9990     3.7580     1.0310 C.2   1 <1>   0.5690 
 11 C        2.2140     4.9960     1.5580 C.2   1 <1>   0.5690 
 12 O        4.6920     2.8440     0.6550 O.2   1 <1>  -0.5700 
 13 C        4.5840     4.9510     1.7620 C.3   1 <1>   0.2110 
 14 O        1.0830     5.3960     1.6150 O.2   1 <1>  -0.5700 
 15 C        3.3490     5.7180     2.2460 C.3   1 <1>  -0.0990 
 16 S        5.5320     6.0500     0.5920 S.3   1 <1>  -0.3610 
 17 C        7.0420     5.2670     0.1220 C.cat 1 <1>   0.8400 
 18 N        7.1740     3.9750     0.3030 N.pl3 1 <1>  -0.7940 
 19 N        7.9670     6.0270    -0.4160 N.pl3 1 <1>  -0.7940 
 20 C        8.3210     3.0900     0.0260 C.3   1 <1>   0.3290 
 21 C        7.9320     7.4850    -0.6640 C.3   1 <1>   0.3290 
 22 C        7.9210     2.1330    -1.0890 C.3   1 <1>  -0.2400 
 23 C        9.3530     8.0200    -0.5490 C.3   1 <1>  -0.2400 
 24 H       -0.4180     0.5600    -1.8740 H     1 <1>   0.1500 
 25 H        2.6010     1.1940     1.0590 H     1 <1>   0.1500 
 26 H        0.7940     4.5320    -0.9290 H     1 <1>   0.1500 
 27 H        5.2380     4.6640     2.5660 H     1 <1>   0.0800 
 28 H        3.2290     5.6260     3.3100 H     1 <1>   0.0800 
 29 H        3.3610     6.7560     1.9680 H     1 <1>   0.0800 
 30 H        6.3460     3.4250     0.5760 H     1 <1>   0.4500 
 31 H        8.8300     5.5980    -0.7410 H     1 <1>   0.4500 
 32 H        8.5670     2.5330     0.9150 H     1 <1>   0.0800 
 33 H        9.1870     3.6580    -0.2680 H     1 <1>   0.0800 
 34 H        7.3020     7.9860     0.0530 H     1 <1>   0.0800 
 35 H        7.5470     7.6750    -1.6530 H     1 <1>   0.0800 
 36 H        7.0750     1.5380    -0.7920 H     1 <1>   0.0800 
 37 H        8.7380     1.4680    -1.3050 H     1 <1>   0.0800 
 38 H        7.6790     2.6740    -1.9860 H     1 <1>   0.0800 
 39 H        9.7480     7.8390     0.4350 H     1 <1>   0.0800 
 40 H        9.3480     9.0830    -0.7150 H     1 <1>   0.0800 
 41 H        9.9940     7.5710    -1.2870 H     1 <1>   0.0800 
@<TRIPOS>BOND
  1   1   2  1   
  2   2   3  ar  
  3   2   4  ar  
  4   3   5  ar  
  5   3  24  1   
  6   4   6  ar  
  7   4  25  1   
  8   5   7  1   
  9   5   8  ar  
 10   6   8  ar  
 11   6   9  1   
 12   8  26  1   
 13   9  10  am  
 14   9  11  am  
 15  10  12  2   
 16  10  13  1   
 17  11  14  2   
 18  11  15  1   
 19  13  15  1   
 20  13  16  1   
 21  13  27  1   
 22  15  28  1   
 23  15  29  1   
 24  16  17  1   
 25  17  18  ar  
 26  17  19  ar  
 27  18  20  1   
 28  18  30  1   
 29  19  21  1   
 30  19  31  1   
 31  20  22  1   
 32  20  32  1   
 33  20  33  1   
 34  21  23  1   
 35  21  34  1   
 36  21  35  1   
 37  22  36  1   
 38  22  37  1   
 39  22  38  1   
 40  23  39  1   
 41  23  40  1   
 42  23  41  1   
@<TRIPOS>SUBSTRUCTURE
  1 ****  10 GROUP 4 **** **** 0

# MOE 2024.06 (io_trps.svl 2023.06)
