@<TRIPOS>MOLECULE
NONAME
42 43 1 0 0 
SMALL
USER_CHARGES


@<TRIPOS>ATOM
  1 O       -7.8220    -4.3880     0.2550 O.3   1 <1>  -0.3630 
  2 C       -7.9560    -3.0290     0.1990 C.ar  1 <1>   0.0830 
  3 C       -6.5950    -5.0440     0.0670 C.3   1 <1>   0.1200 
  4 C       -6.9250    -2.0840     0.0250 C.ar  1 <1>   0.0830 
  5 C       -9.2640    -2.5890     0.3340 C.ar  1 <1>  -0.1500 
  6 C       -6.8530    -6.5490     0.1460 C.3   1 <1>   0.3430 
  7 O       -5.6260    -2.4920    -0.1030 O.3   1 <1>  -0.3630 
  8 C       -7.2560    -0.7290    -0.0100 C.ar  1 <1>  -0.1500 
  9 C       -9.5740    -1.2430     0.2980 C.ar  1 <1>  -0.1500 
 10 N       -5.6190    -7.3580    -0.1250 N.4   1 <1>  -0.9590 
 11 C       -4.5630    -1.5810    -0.2780 C.3   1 <1>   0.1200 
 12 C       -8.5680    -0.3140     0.1250 C.ar  1 <1>  -0.1500 
 13 C       -5.9730    -8.8000    -0.2750 C.3   1 <1>   0.3430 
 14 C       -4.5700    -7.1590     0.9210 C.3   1 <1>   0.3430 
 15 C       -3.2690    -2.3810    -0.3820 C.3   1 <1>  -0.2400 
 16 C       -4.7340    -9.5940    -0.6920 C.3   1 <1>  -0.1600 
 17 C       -3.3010    -7.9190     0.5310 C.3   1 <1>  -0.1600 
 18 C       -3.5790    -9.4100     0.3010 C.3   1 <1>  -0.1600 
 19 H       -5.9300    -4.7240     0.8490 H     1 <1>   0.0800 
 20 H       -6.2170    -4.7700    -0.9020 H     1 <1>   0.0800 
 21 H      -10.0490    -3.3110     0.4690 H     1 <1>   0.1500 
 22 H       -7.6080    -6.7950    -0.5830 H     1 <1>   0.0800 
 23 H       -7.2360    -6.7860     1.1250 H     1 <1>   0.0800 
 24 H       -6.5100     0.0310    -0.1410 H     1 <1>   0.1500 
 25 H      -10.5960    -0.9210     0.4040 H     1 <1>   0.1500 
 26 H       -5.2210    -7.0530    -1.0230 H     1 <1>   0.4500 
 27 H       -4.5340    -0.9210     0.5730 H     1 <1>   0.0800 
 28 H       -4.7370    -1.0200    -1.1810 H     1 <1>   0.0800 
 29 H       -8.8070     0.7360     0.0960 H     1 <1>   0.1500 
 30 H       -6.7420    -8.9180    -1.0210 H     1 <1>   0.0800 
 31 H       -6.3470    -9.1830     0.6620 H     1 <1>   0.0800 
 32 H       -4.9290    -7.5210     1.8720 H     1 <1>   0.0800 
 33 H       -4.3370    -6.1110     1.0240 H     1 <1>   0.0800 
 34 H       -3.1070    -2.9440     0.5200 H     1 <1>   0.0800 
 35 H       -2.4400    -1.7090    -0.5170 H     1 <1>   0.0800 
 36 H       -3.3100    -3.0450    -1.2260 H     1 <1>   0.0800 
 37 H       -4.4260    -9.2860    -1.6760 H     1 <1>   0.0800 
 38 H       -4.9890   -10.6390    -0.7490 H     1 <1>   0.0800 
 39 H       -2.5720    -7.8110     1.3150 H     1 <1>   0.0800 
 40 H       -2.8820    -7.4820    -0.3590 H     1 <1>   0.0800 
 41 H       -2.6930    -9.8950    -0.0740 H     1 <1>   0.0800 
 42 H       -3.8340    -9.8760     1.2390 H     1 <1>   0.0800 
@<TRIPOS>BOND
  1   1   2  1   
  2   1   3  1   
  3   2   4  ar  
  4   2   5  ar  
  5   3   6  1   
  6   3  19  1   
  7   3  20  1   
  8   4   7  1   
  9   4   8  ar  
 10   5   9  ar  
 11   5  21  1   
 12   6  10  1   
 13   6  22  1   
 14   6  23  1   
 15   7  11  1   
 16   8  12  ar  
 17   8  24  1   
 18   9  12  ar  
 19   9  25  1   
 20  10  13  1   
 21  10  14  1   
 22  10  26  1   
 23  11  15  1   
 24  11  27  1   
 25  11  28  1   
 26  12  29  1   
 27  13  16  1   
 28  13  30  1   
 29  13  31  1   
 30  14  17  1   
 31  14  32  1   
 32  14  33  1   
 33  15  34  1   
 34  15  35  1   
 35  15  36  1   
 36  16  18  1   
 37  16  37  1   
 38  16  38  1   
 39  17  18  1   
 40  17  39  1   
 41  17  40  1   
 42  18  41  1   
 43  18  42  1   
@<TRIPOS>SUBSTRUCTURE
  1 ****   3 GROUP 4 **** **** 0

# MOE 2024.06 (io_trps.svl 2023.06)
