@<TRIPOS>MOLECULE
Structure2201
34 34 1 0 0 
SMALL
USER_CHARGES


@<TRIPOS>ATOM
  1 O       -0.1890     0.2410    -0.0880 O.2   1 <1>  -0.5700 
  2 C       -0.2150     1.4180     0.2150 C.2   1 <1>   0.7800 
  3 O        0.9220     2.1180     0.3050 O.3   1 <1>  -0.4300 
  4 N       -1.3820     2.0870     0.4830 N.am  1 <1>  -0.6600 
  5 C        2.2350     1.6610     0.0670 C.3   1 <1>   0.2800 
  6 C       -2.7210     1.4310     0.3680 C.3   1 <1>   0.1400 
  7 C       -1.4330     3.5050     0.9260 C.3   1 <1>   0.1400 
  8 C        3.1280     2.8790     0.3050 C.3   1 <1>  -0.2400 
  9 C        2.3840     1.2060    -1.3900 C.3   1 <1>  -0.2400 
 10 C        2.6060     0.5600     1.0670 C.3   1 <1>  -0.2400 
 11 C       -3.6330     2.2320    -0.5680 C.3   1 <1>  -0.1860 
 12 C       -2.2910     4.3170    -0.0480 C.3   1 <1>  -0.1600 
 13 C       -5.0150     1.6020    -0.5830 C.2   1 <1>   0.9060 
 14 C       -3.6990     3.7210    -0.1710 C.3   1 <1>  -0.1600 
 15 O       -5.5790     1.3710     0.4930 O.co2 1 <1>  -0.9000 
 16 O       -5.5410     1.3510    -1.6710 O.co2 1 <1>  -0.9000 
 17 H       -2.6240     0.4250    -0.0060 H     1 <1>   0.0800 
 18 H       -3.1690     1.3760     1.3460 H     1 <1>   0.0800 
 19 H       -1.8680     3.5430     1.9100 H     1 <1>   0.0800 
 20 H       -0.4470     3.9320     0.9790 H     1 <1>   0.0800 
 21 H        4.1600     2.6250     0.1420 H     1 <1>   0.0800 
 22 H        3.0200     3.2280     1.3170 H     1 <1>   0.0800 
 23 H        2.8620     3.6730    -0.3700 H     1 <1>   0.0800 
 24 H        1.8230     0.3080    -1.5740 H     1 <1>   0.0800 
 25 H        3.4150     0.9950    -1.6060 H     1 <1>   0.0800 
 26 H        2.0430     1.9760    -2.0580 H     1 <1>   0.0800 
 27 H        3.6490     0.3170     0.9760 H     1 <1>   0.0800 
 28 H        2.0460    -0.3370     0.8800 H     1 <1>   0.0800 
 29 H        2.4170     0.8910     2.0720 H     1 <1>   0.0800 
 30 H       -3.2410     2.1510    -1.5640 H     1 <1>   0.0800 
 31 H       -2.3600     5.3330     0.2970 H     1 <1>   0.0800 
 32 H       -1.8140     4.3240    -1.0120 H     1 <1>   0.0800 
 33 H       -4.2690     4.2600    -0.9070 H     1 <1>   0.0800 
 34 H       -4.2130     3.8060     0.7720 H     1 <1>   0.0800 
@<TRIPOS>BOND
  1   1   2  2   
  2   2   3  1   
  3   2   4  am  
  4   3   5  1   
  5   4   6  1   
  6   4   7  1   
  7   5   8  1   
  8   5   9  1   
  9   5  10  1   
 10   6  11  1   
 11   6  17  1   
 12   6  18  1   
 13   7  12  1   
 14   7  19  1   
 15   7  20  1   
 16   8  21  1   
 17   8  22  1   
 18   8  23  1   
 19   9  24  1   
 20   9  25  1   
 21   9  26  1   
 22  10  27  1   
 23  10  28  1   
 24  10  29  1   
 25  11  13  1   
 26  11  14  1   
 27  11  30  1   
 28  12  14  1   
 29  12  31  1   
 30  12  32  1   
 31  13  15  ar  
 32  13  16  ar  
 33  14  33  1   
 34  14  34  1   
@<TRIPOS>SUBSTRUCTURE
  1 ****   4 GROUP 4 **** **** 0

# MOE 2024.06 (io_trps.svl 2023.06)
