@<TRIPOS>MOLECULE
NONAME
44 46 1 0 0 
SMALL
USER_CHARGES


@<TRIPOS>ATOM
  1 CL      -2.4190    -2.6520    -1.9410 Cl    1 <1>  -0.1770 
  2 C       -2.1170    -2.3330    -0.2400 C.ar  1 <1>   0.1770 
  3 C       -3.1800    -2.2070     0.6370 C.ar  1 <1>   0.1770 
  4 C       -0.8030    -2.2090     0.2120 C.ar  1 <1>   0.1990 
  5 CL      -4.8270    -2.3660     0.0700 Cl    1 <1>  -0.1770 
  6 C       -2.9640    -1.9530     1.9790 C.ar  1 <1>  -0.1500 
  7 N        0.2880    -2.3270    -0.6510 N.am  1 <1>  -0.6930 
  8 C       -0.5990    -1.9550     1.5660 C.ar  1 <1>  -0.1500 
  9 C       -1.6650    -1.8270     2.4420 C.ar  1 <1>  -0.1500 
 10 S        1.2300    -3.7790    -0.6940 S.o2  1 <1>   1.3330 
 11 C        0.9580    -1.0630    -1.0970 C.3   1 <1>   0.2570 
 12 O        1.3190    -4.2750     0.6560 O.2   1 <1>  -0.6500 
 13 O        2.4290    -3.4770    -1.4390 O.2   1 <1>  -0.6500 
 14 C        0.2150    -4.8660    -1.6700 C.3   1 <1>  -0.1350 
 15 C        1.9820    -0.5270    -0.0920 C.2   1 <1>   0.5690 
 16 O        1.7090     0.4580     0.5530 O.2   1 <1>  -0.5700 
 17 N        3.1580    -1.1840     0.0650 N.am  1 <1>  -0.7300 
 18 C        4.1550    -0.9320     1.1160 C.3   1 <1>   0.2200 
 19 C        5.6030    -1.1430     0.6240 C.3   1 <1>  -0.0800 
 20 C        4.0190    -1.9680     2.2430 C.3   1 <1>  -0.1600 
 21 C        6.3080    -1.4540     1.9360 C.3   1 <1>  -0.1600 
 22 C        5.7580    -2.4980    -0.0980 C.3   1 <1>  -0.1600 
 23 C        5.4070    -2.6290     2.2840 C.3   1 <1>  -0.0800 
 24 C        5.5570    -3.5170     1.0370 C.3   1 <1>  -0.1600 
 25 H       -3.8010    -1.8570     2.6490 H     1 <1>   0.1500 
 26 H        0.4080    -1.8590     1.9350 H     1 <1>   0.1500 
 27 H       -1.4790    -1.6300     3.4850 H     1 <1>   0.1500 
 28 H        0.2100    -0.3060    -1.2470 H     1 <1>   0.0800 
 29 H        1.4480    -1.2260    -2.0390 H     1 <1>   0.0800 
 30 H        0.0320    -4.4360    -2.6350 H     1 <1>   0.0800 
 31 H       -0.7250    -5.0340    -1.1830 H     1 <1>   0.0800 
 32 H        0.7070    -5.8090    -1.8010 H     1 <1>   0.0800 
 33 H        3.3130    -2.0580    -0.4570 H     1 <1>   0.3700 
 34 H        4.0360     0.0640     1.5130 H     1 <1>   0.0800 
 35 H        6.0040    -0.3010     0.0890 H     1 <1>   0.0800 
 36 H        3.2370    -2.6850     2.0640 H     1 <1>   0.0800 
 37 H        3.8270    -1.4620     3.1720 H     1 <1>   0.0800 
 38 H        6.2400    -0.6510     2.6500 H     1 <1>   0.0800 
 39 H        7.3370    -1.7440     1.8020 H     1 <1>   0.0800 
 40 H        6.7540    -2.5860    -0.4950 H     1 <1>   0.0800 
 41 H        5.0610    -2.6390    -0.9040 H     1 <1>   0.0800 
 42 H        5.6300    -3.1290     3.2110 H     1 <1>   0.0800 
 43 H        6.4230    -4.1510     1.1260 H     1 <1>   0.0800 
 44 H        4.6860    -4.1300     0.8760 H     1 <1>   0.0800 
@<TRIPOS>BOND
  1   1   2  1   
  2   2   3  ar  
  3   2   4  ar  
  4   3   5  1   
  5   3   6  ar  
  6   4   7  1   
  7   4   8  ar  
  8   6   9  ar  
  9   6  25  1   
 10   7  10  am  
 11   7  11  1   
 12   8   9  ar  
 13   8  26  1   
 14   9  27  1   
 15  10  12  2   
 16  10  13  2   
 17  10  14  1   
 18  11  15  1   
 19  11  28  1   
 20  11  29  1   
 21  14  30  1   
 22  14  31  1   
 23  14  32  1   
 24  15  16  2   
 25  15  17  am  
 26  17  18  1   
 27  17  33  1   
 28  18  19  1   
 29  18  20  1   
 30  18  34  1   
 31  19  21  1   
 32  19  22  1   
 33  19  35  1   
 34  20  23  1   
 35  20  36  1   
 36  20  37  1   
 37  21  23  1   
 38  21  38  1   
 39  21  39  1   
 40  22  24  1   
 41  22  40  1   
 42  22  41  1   
 43  23  24  1   
 44  23  42  1   
 45  24  43  1   
 46  24  44  1   
@<TRIPOS>SUBSTRUCTURE
  1 ****   7 GROUP 4 **** **** 0

# MOE 2024.06 (io_trps.svl 2023.06)
