@<TRIPOS>MOLECULE
NONAME
41 41 1 0 0 
SMALL
USER_CHARGES


@<TRIPOS>ATOM
  1 BR       0.2530    -0.5730    -0.4830 Br    1 <1>  -0.1110 
  2 C        2.1020    -1.1150    -0.3090 C.ar  1 <1>   0.1110 
  3 C        2.8880    -0.5050     0.6600 C.ar  1 <1>  -0.1440 
  4 C        2.5900    -2.0990    -1.1590 C.ar  1 <1>  -0.1440 
  5 C        4.2110    -0.9000     0.7760 C.ar  1 <1>  -0.1500 
  6 C        2.3260     0.5710     1.5780 C.3   1 <1>  -0.0960 
  7 C        3.9160    -2.4750    -1.0210 C.ar  1 <1>  -0.1500 
  8 C        1.7120    -2.7540    -2.2140 C.3   1 <1>  -0.0960 
  9 C        4.7290    -1.8860    -0.0640 C.ar  1 <1>   0.0820 
 10 O        6.0130    -2.3240    -0.0080 O.3   1 <1>  -0.3630 
 11 C        6.9340    -1.7790     0.9270 C.3   1 <1>   0.1810 
 12 C        8.3020    -2.4400     0.7850 C.2   1 <1>   0.5690 
 13 O        9.2530    -1.9700     1.3640 O.2   1 <1>  -0.5700 
 14 N        8.4430    -3.5400    -0.0040 N.am  1 <1>  -0.7300 
 15 C        9.6040    -4.4760    -0.0670 C.3   1 <1>   0.1400 
 16 C       10.7860    -3.9100    -0.8810 C.3   1 <1>   0.3430 
 17 N       11.3900    -2.7080    -0.2270 N.4   1 <1>  -0.9590 
 18 C       12.0030    -1.7720    -1.2120 C.3   1 <1>   0.2630 
 19 C       12.3430    -3.0620     0.8670 C.3   1 <1>   0.2630 
 20 H        4.8210    -0.4320     1.5240 H     1 <1>   0.1500 
 21 H        1.9740     1.4040     0.9960 H     1 <1>   0.0800 
 22 H        3.0740     0.9280     2.2620 H     1 <1>   0.0800 
 23 H        1.5050     0.1750     2.1490 H     1 <1>   0.0800 
 24 H        4.3330    -3.2330    -1.6600 H     1 <1>   0.1500 
 25 H        1.3460    -2.0120    -2.9010 H     1 <1>   0.0800 
 26 H        0.8750    -3.2400    -1.7460 H     1 <1>   0.0800 
 27 H        2.2620    -3.4900    -2.7720 H     1 <1>   0.0800 
 28 H        6.5560    -1.9500     1.9180 H     1 <1>   0.0800 
 29 H        7.0230    -0.7240     0.7420 H     1 <1>   0.0800 
 30 H        7.5790    -3.8610    -0.4640 H     1 <1>   0.3700 
 31 H        9.2760    -5.3930    -0.5250 H     1 <1>   0.0800 
 32 H        9.9280    -4.7110     0.9330 H     1 <1>   0.0800 
 33 H       10.4200    -3.6470    -1.8600 H     1 <1>   0.0800 
 34 H       11.5390    -4.6710    -1.0040 H     1 <1>   0.0800 
 35 H       10.5910    -2.2180     0.2400 H     1 <1>   0.4500 
 36 H       12.8310    -2.2450    -1.7150 H     1 <1>   0.0800 
 37 H       12.3610    -0.8870    -0.7110 H     1 <1>   0.0800 
 38 H       11.2730    -1.4750    -1.9480 H     1 <1>   0.0800 
 39 H       13.1850    -3.6060     0.4730 H     1 <1>   0.0800 
 40 H       11.8490    -3.6680     1.6090 H     1 <1>   0.0800 
 41 H       12.7020    -2.1660     1.3480 H     1 <1>   0.0800 
@<TRIPOS>BOND
  1   1   2  1   
  2   2   3  ar  
  3   2   4  ar  
  4   3   5  ar  
  5   3   6  1   
  6   4   7  ar  
  7   4   8  1   
  8   5   9  ar  
  9   5  20  1   
 10   6  21  1   
 11   6  22  1   
 12   6  23  1   
 13   7   9  ar  
 14   7  24  1   
 15   8  25  1   
 16   8  26  1   
 17   8  27  1   
 18   9  10  1   
 19  10  11  1   
 20  11  12  1   
 21  11  28  1   
 22  11  29  1   
 23  12  13  2   
 24  12  14  am  
 25  14  15  1   
 26  14  30  1   
 27  15  16  1   
 28  15  31  1   
 29  15  32  1   
 30  16  17  1   
 31  16  33  1   
 32  16  34  1   
 33  17  18  1   
 34  17  19  1   
 35  17  35  1   
 36  18  36  1   
 37  18  37  1   
 38  18  38  1   
 39  19  39  1   
 40  19  40  1   
 41  19  41  1   
@<TRIPOS>SUBSTRUCTURE
  1 ****  10 GROUP 4 **** **** 0

# MOE 2024.06 (io_trps.svl 2023.06)
