@<TRIPOS>MOLECULE
NONAME
40 41 1 0 0 
SMALL
USER_CHARGES


@<TRIPOS>ATOM
  1 CL      -1.8050     0.5850     1.6090 Cl    1 <1>  -0.1770 
  2 C       -0.8990     1.9050     0.9030 C.ar  1 <1>   0.1770 
  3 C       -1.3720     2.5270    -0.2430 C.ar  1 <1>  -0.1440 
  4 C        0.2710     2.3100     1.5170 C.ar  1 <1>  -0.1500 
  5 C       -0.6410     3.5760    -0.7820 C.ar  1 <1>  -0.1500 
  6 C       -2.6590     2.0600    -0.8940 C.3   1 <1>   0.4870 
  7 C        0.9890     3.3600     0.9740 C.ar  1 <1>  -0.1500 
  8 C        0.5330     3.9900    -0.1720 C.ar  1 <1>  -0.1500 
  9 N       -3.8140     2.3710     0.0150 N.4   1 <1>  -0.9590 
 10 C       -5.0890     1.6630    -0.3410 C.3   1 <1>   0.4230 
 11 C       -3.9480     3.8670     0.1300 C.3   1 <1>   0.2630 
 12 C       -6.1940     2.0230     0.6660 C.3   1 <1>  -0.1600 
 13 C       -4.8790     0.1390    -0.3490 C.3   1 <1>  -0.1600 
 14 C       -7.4800     1.2310     0.4240 C.3   1 <1>   0.3430 
 15 C       -6.1840    -0.6250    -0.5750 C.3   1 <1>   0.3430 
 16 N       -7.1900    -0.2290     0.4470 N.4   1 <1>  -0.9590 
 17 C       -8.4560    -1.0140     0.2630 C.3   1 <1>   0.2630 
 18 H        0.6180     1.8110     2.4060 H     1 <1>   0.1500 
 19 H       -0.9630     4.0830    -1.6770 H     1 <1>   0.1500 
 20 H       -2.5780     1.0000    -1.0610 H     1 <1>   0.0800 
 21 H       -2.7890     2.5470    -1.8470 H     1 <1>   0.0800 
 22 H        1.9040     3.6870     1.4410 H     1 <1>   0.1500 
 23 H        1.1010     4.8050    -0.5910 H     1 <1>   0.1500 
 24 H       -3.5050     2.0270     0.9390 H     1 <1>   0.4500 
 25 H       -5.4040     1.9760    -1.3250 H     1 <1>   0.0800 
 26 H       -4.2720     4.2920    -0.8070 H     1 <1>   0.0800 
 27 H       -3.0010     4.3110     0.3950 H     1 <1>   0.0800 
 28 H       -4.6590     4.1300     0.8950 H     1 <1>   0.0800 
 29 H       -6.4510     3.0630     0.5810 H     1 <1>   0.0800 
 30 H       -5.8600     1.8400     1.6720 H     1 <1>   0.0800 
 31 H       -4.4490    -0.1870     0.5820 H     1 <1>   0.0800 
 32 H       -4.2150    -0.1450    -1.1440 H     1 <1>   0.0800 
 33 H       -7.9030     1.5030    -0.5310 H     1 <1>   0.0800 
 34 H       -8.2020     1.4730     1.1890 H     1 <1>   0.0800 
 35 H       -5.9960    -1.6860    -0.5120 H     1 <1>   0.0800 
 36 H       -6.5660    -0.4140    -1.5620 H     1 <1>   0.0800 
 37 H       -6.8220    -0.4760     1.3810 H     1 <1>   0.4500 
 38 H       -8.8970    -0.8030    -0.6980 H     1 <1>   0.0800 
 39 H       -9.1710    -0.7610     1.0310 H     1 <1>   0.0800 
 40 H       -8.2550    -2.0720     0.3240 H     1 <1>   0.0800 
@<TRIPOS>BOND
  1   1   2  1   
  2   2   3  ar  
  3   2   4  ar  
  4   3   5  ar  
  5   3   6  1   
  6   4   7  ar  
  7   4  18  1   
  8   5   8  ar  
  9   5  19  1   
 10   6   9  1   
 11   6  20  1   
 12   6  21  1   
 13   7   8  ar  
 14   7  22  1   
 15   8  23  1   
 16   9  10  1   
 17   9  11  1   
 18   9  24  1   
 19  10  12  1   
 20  10  13  1   
 21  10  25  1   
 22  11  26  1   
 23  11  27  1   
 24  11  28  1   
 25  12  14  1   
 26  12  29  1   
 27  12  30  1   
 28  13  15  1   
 29  13  31  1   
 30  13  32  1   
 31  14  16  1   
 32  14  33  1   
 33  14  34  1   
 34  15  16  1   
 35  15  35  1   
 36  15  36  1   
 37  16  17  1   
 38  16  37  1   
 39  17  38  1   
 40  17  39  1   
 41  17  40  1   
@<TRIPOS>SUBSTRUCTURE
  1 ****   9 GROUP 4 **** **** 0

# MOE 2024.06 (io_trps.svl 2023.06)
