@<TRIPOS>MOLECULE
NONAME
49 51 1 0 0 
SMALL
USER_CHARGES


@<TRIPOS>ATOM
  1 O        1.6120    -0.1940    -0.7000 O.2   1 <1>  -0.5700 
  2 C        2.0050    -0.9290     0.1880 C.2   1 <1>   0.5440 
  3 N        2.9260    -0.4000     1.0640 N.am  1 <1>  -0.6600 
  4 C        1.5710    -2.3130     0.2680 C.ar  1 <1>   0.0860 
  5 C        4.2990    -0.9780     1.0920 C.3   1 <1>   0.1400 
  6 C        2.8990     1.0670     1.3290 C.3   1 <1>   0.1400 
  7 C        1.6440    -3.0410     1.4590 C.ar  1 <1>  -0.1500 
  8 C        1.0610    -2.9750    -0.8510 C.ar  1 <1>  -0.1500 
  9 C        5.2000    -0.2410     0.0780 C.3   1 <1>   0.3430 
 10 C        3.7710     1.8010     0.2930 C.3   1 <1>   0.3430 
 11 C        1.2480    -4.3630     1.5210 C.ar  1 <1>  -0.1500 
 12 C        0.6610    -4.2980    -0.7970 C.ar  1 <1>  -0.1500 
 13 N        5.1770     1.2590     0.2600 N.4   1 <1>  -0.9590 
 14 C        0.7570    -5.0060     0.3970 C.ar  1 <1>   0.0830 
 15 C        5.9890     1.9390    -0.7860 C.3   1 <1>   0.4860 
 16 O        0.3930    -6.2990     0.5400 O.3   1 <1>  -0.3630 
 17 C        7.4270     1.4860    -0.6400 C.ar  1 <1>  -0.1440 
 18 C       -0.1570    -7.0390    -0.5280 C.3   1 <1>   0.0400 
 19 C        7.9700     0.5860    -1.5450 C.ar  1 <1>  -0.1500 
 20 C        8.2100     1.9580     0.4040 C.ar  1 <1>  -0.1500 
 21 C        9.2760     0.1530    -1.3980 C.ar  1 <1>  -0.1500 
 22 C        9.5150     1.5220     0.5470 C.ar  1 <1>  -0.1500 
 23 C       10.0540     0.6170    -0.3510 C.ar  1 <1>  -0.1430 
 24 C       11.4870     0.1400    -0.1920 C.3   1 <1>  -0.0970 
 25 H        4.2660    -2.0250     0.8410 H     1 <1>   0.0800 
 26 H        4.7080    -0.8900     2.0840 H     1 <1>   0.0800 
 27 H        3.2530     1.2640     2.3260 H     1 <1>   0.0800 
 28 H        1.8860     1.4280     1.2620 H     1 <1>   0.0800 
 29 H        2.0090    -2.5640     2.3510 H     1 <1>   0.1500 
 30 H        0.9760    -2.4380    -1.7810 H     1 <1>   0.1500 
 31 H        4.8560    -0.4860    -0.9140 H     1 <1>   0.0800 
 32 H        6.2100    -0.6070     0.1740 H     1 <1>   0.0800 
 33 H        3.7830     2.8540     0.5210 H     1 <1>   0.0800 
 34 H        3.3090     1.6750    -0.6740 H     1 <1>   0.0800 
 35 H        1.3110    -4.9120     2.4450 H     1 <1>   0.1500 
 36 H        0.2770    -4.7610    -1.6860 H     1 <1>   0.1500 
 37 H        5.6320     1.4590     1.1580 H     1 <1>   0.4500 
 38 H        5.9380     3.0080    -0.6620 H     1 <1>   0.0800 
 39 H        5.6200     1.6890    -1.7670 H     1 <1>   0.0800 
 40 H       -0.3770    -8.0280    -0.1700 H     1 <1>   0.0800 
 41 H        0.5630    -7.0900    -1.3260 H     1 <1>   0.0800 
 42 H       -1.0620    -6.5590    -0.8550 H     1 <1>   0.0800 
 43 H        7.3930     0.2120    -2.3740 H     1 <1>   0.1500 
 44 H        7.8250     2.6700     1.1130 H     1 <1>   0.1500 
 45 H        9.6900    -0.5470    -2.1050 H     1 <1>   0.1500 
 46 H       10.1180     1.8920     1.3600 H     1 <1>   0.1500 
 47 H       11.5150    -0.7330     0.4350 H     1 <1>   0.0800 
 48 H       12.0920     0.9080     0.2570 H     1 <1>   0.0800 
 49 H       11.9120    -0.1060    -1.1480 H     1 <1>   0.0800 
@<TRIPOS>BOND
  1   1   2  2   
  2   2   3  am  
  3   2   4  1   
  4   3   5  1   
  5   3   6  1   
  6   4   7  ar  
  7   4   8  ar  
  8   5   9  1   
  9   5  25  1   
 10   5  26  1   
 11   6  10  1   
 12   6  27  1   
 13   6  28  1   
 14   7  11  ar  
 15   7  29  1   
 16   8  12  ar  
 17   8  30  1   
 18   9  13  1   
 19   9  31  1   
 20   9  32  1   
 21  10  13  1   
 22  10  33  1   
 23  10  34  1   
 24  11  14  ar  
 25  11  35  1   
 26  12  14  ar  
 27  12  36  1   
 28  13  15  1   
 29  13  37  1   
 30  14  16  1   
 31  15  17  1   
 32  15  38  1   
 33  15  39  1   
 34  16  18  1   
 35  17  19  ar  
 36  17  20  ar  
 37  18  40  1   
 38  18  41  1   
 39  18  42  1   
 40  19  21  ar  
 41  19  43  1   
 42  20  22  ar  
 43  20  44  1   
 44  21  23  ar  
 45  21  45  1   
 46  22  23  ar  
 47  22  46  1   
 48  23  24  1   
 49  24  47  1   
 50  24  48  1   
 51  24  49  1   
@<TRIPOS>SUBSTRUCTURE
  1 ****   5 GROUP 4 **** **** 0

# MOE 2024.06 (io_trps.svl 2023.06)
