@<TRIPOS>MOLECULE
NONAME
46 48 1 0 0 
SMALL
USER_CHARGES


@<TRIPOS>ATOM
  1 O       -0.4220     0.5590    -1.8450 O.2   1 <1>  -0.5700 
  2 C       -1.4110     1.0840    -1.4150 C.2   1 <1>   0.6590 
  3 O       -1.4430     2.3140    -0.9440 O.3   1 <1>  -0.4300 
  4 C       -2.7690     0.4510    -1.3780 C.3   1 <1>  -0.0990 
  5 C       -2.7180     2.6980    -0.4800 C.3   1 <1>   0.2800 
  6 C       -3.6610     1.6760    -1.1500 C.3   1 <1>  -0.0190 
  7 C       -2.9820     4.1520    -0.9400 C.3   1 <1>  -0.1600 
  8 C       -2.6740     2.6150     1.0620 C.3   1 <1>  -0.1600 
  9 C       -4.9450     1.4190    -0.3750 C.2   1 <1>   0.5690 
 10 C       -2.5150     5.2330     0.0570 C.3   1 <1>  -0.1600 
 11 C       -1.5790     3.5080     1.6800 C.3   1 <1>  -0.1600 
 12 O       -5.0020     0.4750     0.3730 O.2   1 <1>  -0.5700 
 13 N       -5.9710     2.3000    -0.5630 N.am  1 <1>  -0.5470 
 14 C       -1.2920     4.7810     0.8620 C.3   1 <1>  -0.1600 
 15 C       -7.2420     2.4380     0.0210 C.ar  1 <1>   0.1170 
 16 C       -7.9450     3.6210    -0.2300 C.ar  1 <1>   0.0830 
 17 C       -7.8290     1.4650     0.8210 C.ar  1 <1>  -0.1500 
 18 O       -7.3350     4.5530    -1.0260 O.3   1 <1>  -0.3630 
 19 C       -9.2080     3.8090     0.3220 C.ar  1 <1>  -0.1500 
 20 C       -9.0860     1.6530     1.3730 C.ar  1 <1>  -0.1430 
 21 C       -7.9580     5.7870    -1.3120 C.3   1 <1>   0.0400 
 22 C       -9.7720     2.8280     1.1190 C.ar  1 <1>  -0.1500 
 23 C       -9.7050     0.5760     2.2440 C.3   1 <1>  -0.0970 
 24 H       -2.7960    -0.2400    -0.5550 H     1 <1>   0.0800 
 25 H       -2.9920    -0.0550    -2.2980 H     1 <1>   0.0800 
 26 H       -3.9310     2.0560    -2.1190 H     1 <1>   0.0800 
 27 H       -4.0350     4.3010    -1.0930 H     1 <1>   0.0800 
 28 H       -2.4970     4.3060    -1.8890 H     1 <1>   0.0800 
 29 H       -2.5360     1.5970     1.3840 H     1 <1>   0.0800 
 30 H       -3.6250     2.9390     1.4480 H     1 <1>   0.0800 
 31 H       -3.3140     5.4500     0.7460 H     1 <1>   0.0800 
 32 H       -2.2890     6.1410    -0.4740 H     1 <1>   0.0800 
 33 H       -0.6650     2.9450     1.7630 H     1 <1>   0.0800 
 34 H       -1.8810     3.7810     2.6770 H     1 <1>   0.0800 
 35 H       -5.7890     3.0800    -1.1960 H     1 <1>   0.3700 
 36 H       -0.9700     5.5690     1.5210 H     1 <1>   0.0800 
 37 H       -0.4840     4.5840     0.1770 H     1 <1>   0.0800 
 38 H       -7.3080     0.5470     1.0170 H     1 <1>   0.1500 
 39 H       -9.7710     4.7050     0.1480 H     1 <1>   0.1500 
 40 H       -7.2990     6.3600    -1.9390 H     1 <1>   0.0800 
 41 H       -8.1320     6.3130    -0.3900 H     1 <1>   0.0800 
 42 H       -8.8830     5.6010    -1.8300 H     1 <1>   0.0800 
 43 H      -10.7500     2.9830     1.5410 H     1 <1>   0.1500 
 44 H       -8.9400     0.0210     2.7560 H     1 <1>   0.0800 
 45 H      -10.2760    -0.1010     1.6350 H     1 <1>   0.0800 
 46 H      -10.3550     1.0140     2.9800 H     1 <1>   0.0800 
@<TRIPOS>BOND
  1   1   2  2   
  2   2   3  1   
  3   2   4  1   
  4   3   5  1   
  5   4   6  1   
  6   4  24  1   
  7   4  25  1   
  8   5   6  1   
  9   5   7  1   
 10   5   8  1   
 11   6   9  1   
 12   6  26  1   
 13   7  10  1   
 14   7  27  1   
 15   7  28  1   
 16   8  11  1   
 17   8  29  1   
 18   8  30  1   
 19   9  12  2   
 20   9  13  am  
 21  10  14  1   
 22  10  31  1   
 23  10  32  1   
 24  11  14  1   
 25  11  33  1   
 26  11  34  1   
 27  13  15  1   
 28  13  35  1   
 29  14  36  1   
 30  14  37  1   
 31  15  16  ar  
 32  15  17  ar  
 33  16  18  1   
 34  16  19  ar  
 35  17  20  ar  
 36  17  38  1   
 37  18  21  1   
 38  19  22  ar  
 39  19  39  1   
 40  20  22  ar  
 41  20  23  1   
 42  21  40  1   
 43  21  41  1   
 44  21  42  1   
 45  22  43  1   
 46  23  44  1   
 47  23  45  1   
 48  23  46  1   
@<TRIPOS>SUBSTRUCTURE
  1 ****  13 GROUP 4 **** **** 0

# MOE 2024.06 (io_trps.svl 2023.06)
