@<TRIPOS>MOLECULE
NONAME
50 52 1 0 0 
SMALL
USER_CHARGES


@<TRIPOS>ATOM
  1 S        0.3950     0.5510    -1.4420 S.o2  1 <1>   1.4470 
  2 O        1.0470    -0.2370    -2.4660 O.2   1 <1>  -0.6500 
  3 O       -0.3400     1.7370    -1.8240 O.2   1 <1>  -0.6500 
  4 N        1.6060     1.0340    -0.3560 N.am  1 <1>  -0.8490 
  5 C       -0.6770    -0.5070    -0.4260 C.ar  1 <1>  -0.0090 
  6 C        2.3320     2.2060    -0.8500 C.3   1 <1>   0.1960 
  7 C        2.5210    -0.0640    -0.0290 C.3   1 <1>   0.1960 
  8 C       -1.1230    -1.7410    -0.8990 C.ar  1 <1>  -0.1500 
  9 C       -1.0810    -0.1000     0.8440 C.ar  1 <1>  -0.1500 
 10 C        3.3090     2.7140     0.2150 C.3   1 <1>  -0.1600 
 11 C        3.4870     0.3700     1.0750 C.3   1 <1>  -0.1600 
 12 C       -1.9420    -2.5520    -0.1300 C.ar  1 <1>  -0.1500 
 13 C       -1.9000    -0.8960     1.6280 C.ar  1 <1>  -0.1500 
 14 C        4.2920     1.6150     0.6540 C.3   1 <1>  -0.0190 
 15 C       -2.3150    -2.1120     1.1240 C.ar  1 <1>   0.1900 
 16 C        5.2300     2.1180     1.7630 C.2   1 <1>   0.5690 
 17 F       -3.0850    -2.8700     1.8560 F     1 <1>  -0.1900 
 18 O        4.8700     1.9720     2.9080 O.2   1 <1>  -0.5700 
 19 N        6.4350     2.7160     1.4710 N.am  1 <1>  -0.6600 
 20 C        6.9110     3.0790     0.1050 C.3   1 <1>   0.2840 
 21 C        7.3990     3.0770     2.5530 C.3   1 <1>   0.0600 
 22 C        8.0600     2.1830    -0.3450 C.ar  1 <1>  -0.1430 
 23 C        9.1530     2.7430    -0.9900 C.ar  1 <1>  -0.1500 
 24 C        8.0360     0.8120    -0.1290 C.ar  1 <1>  -0.1500 
 25 C       10.2050     1.9480    -1.4120 C.ar  1 <1>  -0.1500 
 26 C        9.0860     0.0150    -0.5500 C.ar  1 <1>  -0.1500 
 27 C       10.1720     0.5820    -1.1930 C.ar  1 <1>  -0.1500 
 28 H        1.6360     2.9970    -1.0780 H     1 <1>   0.0800 
 29 H        2.8610     1.9540    -1.7550 H     1 <1>   0.0800 
 30 H        3.0750    -0.3590    -0.9070 H     1 <1>   0.0800 
 31 H        1.9600    -0.9160     0.3160 H     1 <1>   0.0800 
 32 H       -0.8240    -2.0700    -1.8810 H     1 <1>   0.1500 
 33 H       -0.7480     0.8540     1.2200 H     1 <1>   0.1500 
 34 H        2.7450     3.0520     1.0680 H     1 <1>   0.0800 
 35 H        3.8470     3.5590    -0.1730 H     1 <1>   0.0800 
 36 H        4.1620    -0.4360     1.3000 H     1 <1>   0.0800 
 37 H        2.9180     0.5790     1.9650 H     1 <1>   0.0800 
 38 H       -2.2860    -3.5040    -0.4930 H     1 <1>   0.1500 
 39 H       -2.2110    -0.5830     2.6090 H     1 <1>   0.1500 
 40 H        4.8850     1.3210    -0.1910 H     1 <1>   0.0800 
 41 H        7.2410     4.1030     0.1240 H     1 <1>   0.0800 
 42 H        6.1160     3.0210    -0.6140 H     1 <1>   0.0800 
 43 H        7.0490     2.7400     3.5140 H     1 <1>   0.0800 
 44 H        7.5220     4.1450     2.5910 H     1 <1>   0.0800 
 45 H        8.3530     2.6170     2.3620 H     1 <1>   0.0800 
 46 H        9.1960     3.8030    -1.1690 H     1 <1>   0.1500 
 47 H        7.2020     0.3550     0.3760 H     1 <1>   0.1500 
 48 H       11.0490     2.3900    -1.9110 H     1 <1>   0.1500 
 49 H        9.0590    -1.0470    -0.3770 H     1 <1>   0.1500 
 50 H       10.9890    -0.0370    -1.5200 H     1 <1>   0.1500 
@<TRIPOS>BOND
  1   1   2  2   
  2   1   3  2   
  3   1   4  am  
  4   1   5  1   
  5   4   6  1   
  6   4   7  1   
  7   5   8  ar  
  8   5   9  ar  
  9   6  10  1   
 10   6  28  1   
 11   6  29  1   
 12   7  11  1   
 13   7  30  1   
 14   7  31  1   
 15   8  12  ar  
 16   8  32  1   
 17   9  13  ar  
 18   9  33  1   
 19  10  14  1   
 20  10  34  1   
 21  10  35  1   
 22  11  14  1   
 23  11  36  1   
 24  11  37  1   
 25  12  15  ar  
 26  12  38  1   
 27  13  15  ar  
 28  13  39  1   
 29  14  16  1   
 30  14  40  1   
 31  15  17  1   
 32  16  18  2   
 33  16  19  am  
 34  19  20  1   
 35  19  21  1   
 36  20  22  1   
 37  20  41  1   
 38  20  42  1   
 39  21  43  1   
 40  21  44  1   
 41  21  45  1   
 42  22  23  ar  
 43  22  24  ar  
 44  23  25  ar  
 45  23  46  1   
 46  24  26  ar  
 47  24  47  1   
 48  25  27  ar  
 49  25  48  1   
 50  26  27  ar  
 51  26  49  1   
 52  27  50  1   
@<TRIPOS>SUBSTRUCTURE
  1 ****  11 GROUP 4 **** **** 0

# MOE 2024.06 (io_trps.svl 2023.06)
