@<TRIPOS>MOLECULE
NONAME
43 44 1 0 0 
SMALL
USER_CHARGES


@<TRIPOS>ATOM
  1 CL       0.0880     0.3790    -0.1050 Cl    1 <1>  -0.1770 
  2 C       -0.9910     1.4750     0.7210 C.ar  1 <1>   0.1770 
  3 C       -2.3480     1.3990     0.4830 C.ar  1 <1>  -0.1500 
  4 C       -0.4620     2.3990     1.6030 C.ar  1 <1>  -0.1500 
  5 C       -3.2180     2.2670     1.1360 C.ar  1 <1>   0.1170 
  6 C       -1.3190     3.2650     2.2600 C.ar  1 <1>  -0.1500 
  7 N       -4.6090     2.2380     0.9510 N.am  1 <1>  -0.5470 
  8 C       -2.6820     3.1940     2.0260 C.ar  1 <1>  -0.1500 
  9 C       -5.3600     1.7690    -0.0940 C.2   1 <1>   0.5690 
 10 O       -4.8830     1.3080    -1.1010 O.2   1 <1>  -0.5700 
 11 C       -6.8750     1.8580     0.0220 C.3   1 <1>  -0.0190 
 12 C       -7.5090     0.5010    -0.3170 C.3   1 <1>   0.1960 
 13 C       -7.4460     2.9670    -0.8800 C.3   1 <1>  -0.1600 
 14 N       -8.9750     0.5710    -0.1890 N.am  1 <1>  -0.8490 
 15 C       -8.9800     2.9420    -0.8450 C.3   1 <1>  -0.1600 
 16 S       -9.6850    -0.9600    -0.3490 S.o2  1 <1>   1.3330 
 17 C       -9.5200     1.5410    -1.1480 C.3   1 <1>   0.1960 
 18 O       -8.8600    -1.9110     0.3620 O.2   1 <1>  -0.6500 
 19 O       -9.9750    -1.1630    -1.7510 O.2   1 <1>  -0.6500 
 20 C      -11.2250    -0.7830     0.5590 C.3   1 <1>  -0.0550 
 21 C      -12.0770    -2.0630     0.5890 C.3   1 <1>  -0.1600 
 22 C      -13.3760    -1.8510     1.3730 C.3   1 <1>  -0.2400 
 23 H       -2.7140     0.6620    -0.2070 H     1 <1>   0.1500 
 24 H        0.6000     2.4360     1.7680 H     1 <1>   0.1500 
 25 H       -0.9230     3.9910     2.9510 H     1 <1>   0.1500 
 26 H       -5.1410     2.6720     1.7020 H     1 <1>   0.3700 
 27 H       -3.3350     3.8750     2.5420 H     1 <1>   0.1500 
 28 H       -7.1270     2.0790     1.0430 H     1 <1>   0.0800 
 29 H       -7.1140    -0.2350     0.3640 H     1 <1>   0.0800 
 30 H       -7.2430     0.2010    -1.3190 H     1 <1>   0.0800 
 31 H       -7.1120     2.8060    -1.8930 H     1 <1>   0.0800 
 32 H       -7.0840     3.9290    -0.5610 H     1 <1>   0.0800 
 33 H       -9.3680     3.6370    -1.5690 H     1 <1>   0.0800 
 34 H       -9.3310     3.2480     0.1250 H     1 <1>   0.0800 
 35 H      -10.5940     1.5570    -1.0840 H     1 <1>   0.0800 
 36 H       -9.2500     1.2550    -2.1530 H     1 <1>   0.0800 
 37 H      -11.8040     0.0040     0.1190 H     1 <1>   0.0800 
 38 H      -10.9970    -0.4970     1.5680 H     1 <1>   0.0800 
 39 H      -11.5090    -2.8580     1.0420 H     1 <1>   0.0800 
 40 H      -12.3110    -2.3580    -0.4210 H     1 <1>   0.0800 
 41 H      -13.1620    -1.5780     2.3920 H     1 <1>   0.0800 
 42 H      -13.9520    -2.7590     1.3790 H     1 <1>   0.0800 
 43 H      -13.9690    -1.0750     0.9220 H     1 <1>   0.0800 
@<TRIPOS>BOND
  1   1   2  1   
  2   2   3  ar  
  3   2   4  ar  
  4   3   5  ar  
  5   3  23  1   
  6   4   6  ar  
  7   4  24  1   
  8   5   7  1   
  9   5   8  ar  
 10   6   8  ar  
 11   6  25  1   
 12   7   9  am  
 13   7  26  1   
 14   8  27  1   
 15   9  10  2   
 16   9  11  1   
 17  11  12  1   
 18  11  13  1   
 19  11  28  1   
 20  12  14  1   
 21  12  29  1   
 22  12  30  1   
 23  13  15  1   
 24  13  31  1   
 25  13  32  1   
 26  14  16  am  
 27  14  17  1   
 28  15  17  1   
 29  15  33  1   
 30  15  34  1   
 31  16  18  2   
 32  16  19  2   
 33  16  20  1   
 34  17  35  1   
 35  17  36  1   
 36  20  21  1   
 37  20  37  1   
 38  20  38  1   
 39  21  22  1   
 40  21  39  1   
 41  21  40  1   
 42  22  41  1   
 43  22  42  1   
 44  22  43  1   
@<TRIPOS>SUBSTRUCTURE
  1 ****  11 GROUP 4 **** **** 0

# MOE 2024.06 (io_trps.svl 2023.06)
