@<TRIPOS>MOLECULE
NONAME
38 39 1 0 0 
SMALL
USER_CHARGES


@<TRIPOS>ATOM
  1 S       -1.3930    -3.7350     0.9750 S.o2  1 <1>   1.5760 
  2 O       -0.7390    -2.9740     2.0140 O.2   1 <1>  -0.6500 
  3 O       -2.1920    -4.9000     1.2810 O.2   1 <1>  -0.6500 
  4 N       -0.3370    -4.0620    -0.3010 N.am  1 <1>  -0.8490 
  5 N       -2.4480    -2.6750     0.1850 N.am  1 <1>  -0.8490 
  6 C        0.6520    -3.0170    -0.5780 C.3   1 <1>   0.1960 
  7 C        0.1210    -5.4520    -0.4030 C.3   1 <1>   0.1960 
  8 C       -3.2180    -3.3620    -0.8680 C.3   1 <1>   0.1960 
  9 C       -3.3260    -2.0180     1.1650 C.3   1 <1>   0.1960 
 10 C        1.9400    -3.0920     0.2570 C.3   1 <1>  -0.1600 
 11 C        1.0270    -5.8820     0.7600 C.3   1 <1>  -0.1600 
 12 C       -4.1740    -2.3900    -1.5890 C.3   1 <1>   0.3430 
 13 C       -4.2940    -1.0270     0.4870 C.3   1 <1>   0.3430 
 14 C        2.8540    -4.2600    -0.1410 C.3   1 <1>  -0.1600 
 15 C        2.5220    -5.5830     0.5630 C.3   1 <1>  -0.1600 
 16 N       -5.0770    -1.6730    -0.6240 N.4   1 <1>  -0.9060 
 17 H        0.1950    -2.0540    -0.4170 H     1 <1>   0.0800 
 18 H        0.9150    -3.0650    -1.6210 H     1 <1>   0.0800 
 19 H        0.6320    -5.6000    -1.3390 H     1 <1>   0.0800 
 20 H       -0.7450    -6.0940    -0.4130 H     1 <1>   0.0800 
 21 H       -3.7870    -4.1760    -0.4490 H     1 <1>   0.0800 
 22 H       -2.5410    -3.7780    -1.5950 H     1 <1>   0.0800 
 23 H       -2.7250    -1.4720     1.8750 H     1 <1>   0.0800 
 24 H       -3.8850    -2.7580     1.7150 H     1 <1>   0.0800 
 25 H        1.7240    -3.1120     1.3100 H     1 <1>   0.0800 
 26 H        2.4830    -2.1820     0.0720 H     1 <1>   0.0800 
 27 H        0.9270    -6.9460     0.8830 H     1 <1>   0.0800 
 28 H        0.6920    -5.4410     1.6810 H     1 <1>   0.0800 
 29 H       -4.7620    -2.9380    -2.3080 H     1 <1>   0.0800 
 30 H       -3.5770    -1.6730    -2.1280 H     1 <1>   0.0800 
 31 H       -3.7120    -0.2110     0.0900 H     1 <1>   0.0800 
 32 H       -4.9660    -0.6220     1.2270 H     1 <1>   0.0800 
 33 H        3.8710    -4.0040     0.1020 H     1 <1>   0.0800 
 34 H        2.8140    -4.3980    -1.2080 H     1 <1>   0.0800 
 35 H        2.9680    -6.3820    -0.0040 H     1 <1>   0.0800 
 36 H        2.9910    -5.5870     1.5320 H     1 <1>   0.0800 
 37 H       -5.7370    -2.3490    -0.2180 H     1 <1>   0.4500 
 38 H       -5.6330    -0.9640    -1.1210 H     1 <1>   0.4500 
@<TRIPOS>BOND
  1   1   2  2   
  2   1   3  2   
  3   1   4  am  
  4   1   5  am  
  5   4   6  1   
  6   4   7  1   
  7   5   8  1   
  8   5   9  1   
  9   6  10  1   
 10   6  17  1   
 11   6  18  1   
 12   7  11  1   
 13   7  19  1   
 14   7  20  1   
 15   8  12  1   
 16   8  21  1   
 17   8  22  1   
 18   9  13  1   
 19   9  23  1   
 20   9  24  1   
 21  10  14  1   
 22  10  25  1   
 23  10  26  1   
 24  11  15  1   
 25  11  27  1   
 26  11  28  1   
 27  12  16  1   
 28  12  29  1   
 29  12  30  1   
 30  13  16  1   
 31  13  31  1   
 32  13  32  1   
 33  14  15  1   
 34  14  33  1   
 35  14  34  1   
 36  15  35  1   
 37  15  36  1   
 38  16  37  1   
 39  16  38  1   
@<TRIPOS>SUBSTRUCTURE
  1 ****   1 GROUP 4 **** **** 0

# MOE 2024.06 (io_trps.svl 2023.06)
