@<TRIPOS>MOLECULE
NONAME
43 45 1 0 0 
SMALL
USER_CHARGES


@<TRIPOS>ATOM
  1 O        3.1820    -4.8620    -0.3760 O.3   1 <1>  -0.5600 
  2 C        2.9930    -6.2370    -0.5620 C.3   1 <1>   0.1200 
  3 C        2.6600    -4.3610     0.8280 C.3   1 <1>   0.1200 
  4 C        1.4870    -6.5770    -0.6510 C.3   1 <1>   0.3430 
  5 C        1.1940    -4.8020     1.0540 C.3   1 <1>   0.3430 
  6 N        0.6280    -5.4380    -0.1820 N.4   1 <1>  -0.9590 
  7 C       -0.8350    -5.7470    -0.0710 C.3   1 <1>   0.3430 
  8 C       -1.7220    -4.5740    -0.5500 C.3   1 <1>   0.2000 
  9 O       -1.1420    -3.3550    -0.2050 O.3   1 <1>  -0.6800 
 10 C       -3.1390    -4.6330     0.0330 C.3   1 <1>   0.1200 
 11 O       -3.8310    -3.4630    -0.3500 O.3   1 <1>  -0.3630 
 12 C       -5.1310    -3.2650    -0.0240 C.ar  1 <1>   0.0820 
 13 C       -5.7570    -2.1680    -0.5540 C.ar  1 <1>  -0.1500 
 14 C       -5.8520    -4.1290     0.8230 C.ar  1 <1>  -0.1500 
 15 C       -7.1060    -1.8780    -0.2780 C.ar  1 <1>   0.0000 
 16 C       -7.1640    -3.8700     1.1070 C.ar  1 <1>  -0.1500 
 17 C       -7.8260    -2.7470     0.5690 C.ar  1 <1>   0.0000 
 18 C       -7.7690    -0.7550    -0.8160 C.ar  1 <1>  -0.1500 
 19 C       -9.1780    -2.4600     0.8460 C.ar  1 <1>  -0.1500 
 20 C       -9.0820    -0.5000    -0.5310 C.ar  1 <1>  -0.1500 
 21 C       -9.7950    -1.3630     0.3100 C.ar  1 <1>  -0.1500 
 22 H        3.4560    -6.7610     0.2560 H     1 <1>   0.0800 
 23 H        3.4940    -6.5220    -1.4710 H     1 <1>   0.0800 
 24 H        2.7150    -3.2870     0.7800 H     1 <1>   0.0800 
 25 H        3.2850    -4.6920     1.6400 H     1 <1>   0.0800 
 26 H        1.2950    -7.4570    -0.0600 H     1 <1>   0.0800 
 27 H        1.2450    -6.8140    -1.6740 H     1 <1>   0.0800 
 28 H        0.6080    -3.9410     1.3330 H     1 <1>   0.0800 
 29 H        1.1600    -5.5000     1.8730 H     1 <1>   0.0800 
 30 H        0.7230    -4.6850    -0.8870 H     1 <1>   0.4500 
 31 H       -1.0760    -5.9800     0.9530 H     1 <1>   0.0800 
 32 H       -1.0740    -6.6140    -0.6640 H     1 <1>   0.0800 
 33 H       -1.7910    -4.6030    -1.6250 H     1 <1>   0.0800 
 34 H       -1.8110    -2.6430    -0.3420 H     1 <1>   0.4000 
 35 H       -3.1070    -4.6710     1.1080 H     1 <1>   0.0800 
 36 H       -3.6750    -5.4840    -0.3510 H     1 <1>   0.0800 
 37 H       -5.2130    -1.5040    -1.2000 H     1 <1>   0.1500 
 38 H       -5.3870    -4.9930     1.2560 H     1 <1>   0.1500 
 39 H       -7.7200    -4.5250     1.7530 H     1 <1>   0.1500 
 40 H       -7.2160    -0.0960    -1.4610 H     1 <1>   0.1500 
 41 H       -9.7220    -3.1250     1.4920 H     1 <1>   0.1500 
 42 H       -9.5810     0.3580    -0.9440 H     1 <1>   0.1500 
 43 H      -10.8270    -1.1480     0.5250 H     1 <1>   0.1500 
@<TRIPOS>BOND
  1   1   2  1   
  2   1   3  1   
  3   2   4  1   
  4   2  22  1   
  5   2  23  1   
  6   3   5  1   
  7   3  24  1   
  8   3  25  1   
  9   4   6  1   
 10   4  26  1   
 11   4  27  1   
 12   5   6  1   
 13   5  28  1   
 14   5  29  1   
 15   6   7  1   
 16   6  30  1   
 17   7   8  1   
 18   7  31  1   
 19   7  32  1   
 20   8   9  1   
 21   8  10  1   
 22   8  33  1   
 23   9  34  1   
 24  10  11  1   
 25  10  35  1   
 26  10  36  1   
 27  11  12  1   
 28  12  13  ar  
 29  12  14  ar  
 30  13  15  ar  
 31  13  37  1   
 32  14  16  ar  
 33  14  38  1   
 34  15  17  ar  
 35  15  18  ar  
 36  16  17  ar  
 37  16  39  1   
 38  17  19  ar  
 39  18  20  ar  
 40  18  40  1   
 41  19  21  ar  
 42  19  41  1   
 43  20  21  ar  
 44  20  42  1   
 45  21  43  1   
@<TRIPOS>SUBSTRUCTURE
  1 ****  11 GROUP 4 **** **** 0

# MOE 2024.06 (io_trps.svl 2023.06)
