@<TRIPOS>MOLECULE
NONAME
24 25 1 0 0 
SMALL
USER_CHARGES


@<TRIPOS>ATOM
  1 F       -2.0040    -0.6130    -1.4450 F     1 <1>  -0.3400 
  2 C       -1.6560    -0.0310    -0.2980 C.3   1 <1>   1.0200 
  3 F       -0.8010    -0.8670     0.2890 F     1 <1>  -0.3400 
  4 F       -0.9410     1.0370    -0.6500 F     1 <1>  -0.3400 
  5 C       -2.8980     0.3460     0.5950 C.3   1 <1>   0.5600 
  6 O       -3.6810    -0.7850     0.9180 O.3   1 <1>  -0.2170 
  7 O       -2.5820     0.8820     1.8450 O.3   1 <1>  -0.6800 
  8 C       -3.9150     1.2750    -0.0680 C.3   1 <1>  -0.0990 
  9 N       -4.9750    -0.5550     0.8220 N.2   1 <1>  -0.5130 
 10 C       -5.2000     0.5730     0.2860 C.2   1 <1>   0.3030 
 11 C       -6.4920     1.1680     0.0140 C.ar  1 <1>   0.0860 
 12 C       -7.6650     0.5190     0.4070 C.ar  1 <1>  -0.1500 
 13 C       -6.6390     2.3960    -0.6410 C.ar  1 <1>  -0.1500 
 14 C       -8.9140     1.0600     0.1660 C.ar  1 <1>  -0.1500 
 15 C       -7.8850     2.9420    -0.8860 C.ar  1 <1>  -0.1500 
 16 C       -9.0270     2.2760    -0.4820 C.ar  1 <1>  -0.1500 
 17 H       -3.3180     0.6360     2.4410 H     1 <1>   0.4000 
 18 H       -3.7940     1.2910    -1.1360 H     1 <1>   0.0800 
 19 H       -3.8570     2.2730     0.3250 H     1 <1>   0.0800 
 20 H       -7.5950    -0.4300     0.9110 H     1 <1>   0.1500 
 21 H       -5.7750     2.9420    -0.9730 H     1 <1>   0.1500 
 22 H       -9.7990     0.5340     0.4810 H     1 <1>   0.1500 
 23 H       -7.9720     3.8890    -1.3910 H     1 <1>   0.1500 
 24 H       -9.9990     2.7000    -0.6710 H     1 <1>   0.1500 
@<TRIPOS>BOND
  1   1   2  1   
  2   2   3  1   
  3   2   4  1   
  4   2   5  1   
  5   5   6  1   
  6   5   7  1   
  7   5   8  1   
  8   6   9  1   
  9   7  17  1   
 10   8  10  1   
 11   8  18  1   
 12   8  19  1   
 13   9  10  2   
 14  10  11  1   
 15  11  12  ar  
 16  11  13  ar  
 17  12  14  ar  
 18  12  20  1   
 19  13  15  ar  
 20  13  21  1   
 21  14  16  ar  
 22  14  22  1   
 23  15  16  ar  
 24  15  23  1   
 25  16  24  1   
@<TRIPOS>SUBSTRUCTURE
  1 ****  10 GROUP 4 **** **** 0

# MOE 2024.06 (io_trps.svl 2023.06)
