@<TRIPOS>MOLECULE
NONAME
44 47 1 0 0 
SMALL
USER_CHARGES


@<TRIPOS>ATOM
  1 O       -0.7720    -1.9510     2.4090 O.2   1 <1>  -0.5700 
  2 C       -0.8600    -2.5020     1.3580 C.2   1 <1>   0.4480 
  3 C       -1.2980    -1.8180     0.0780 C.3   1 <1>  -0.0190 
  4 C       -0.5030    -3.9530     1.1560 C.3   1 <1>  -0.0190 
  5 C       -0.1460    -1.9110    -0.9490 C.3   1 <1>   0.5660 
  6 C       -2.5830    -2.4990    -0.4640 C.3   1 <1>  -0.1600 
  7 C        0.7650    -3.8520     0.2970 C.3   1 <1>   0.5660 
  8 C       -1.6990    -4.7160     0.5100 C.3   1 <1>  -0.1600 
  9 N        0.4060    -3.2880    -1.0220 N.4   1 <1>  -0.9060 
 10 C        1.0570    -0.9900    -0.7640 C.ar  1 <1>  -0.1440 
 11 C       -2.9280    -3.8230     0.2480 C.3   1 <1>  -0.1600 
 12 C        1.5620    -5.1230     0.0290 C.ar  1 <1>  -0.1440 
 13 C        1.3820    -0.3430     0.4250 C.ar  1 <1>  -0.1500 
 14 C        1.8840    -0.8010    -1.8670 C.ar  1 <1>  -0.1500 
 15 C        1.0930    -6.4110     0.2710 C.ar  1 <1>  -0.1500 
 16 C        2.8440    -4.9690    -0.4890 C.ar  1 <1>  -0.1500 
 17 C        2.5140     0.4470     0.5100 C.ar  1 <1>  -0.1500 
 18 C        3.0150    -0.0100    -1.7810 C.ar  1 <1>  -0.1500 
 19 C        1.8790    -7.5120    -0.0220 C.ar  1 <1>  -0.1500 
 20 C        3.6280    -6.0700    -0.7810 C.ar  1 <1>  -0.1500 
 21 C        3.3330     0.6120    -0.5890 C.ar  1 <1>  -0.1500 
 22 C        3.1440    -7.3430    -0.5520 C.ar  1 <1>  -0.1500 
 23 H       -1.5080    -0.7800     0.2750 H     1 <1>   0.0800 
 24 H       -0.2540    -4.3850     2.1100 H     1 <1>   0.0800 
 25 H       -0.5640    -1.6600    -1.9110 H     1 <1>   0.0800 
 26 H       -2.5080    -2.6730    -1.5240 H     1 <1>   0.0800 
 27 H       -3.4160    -1.8270    -0.3240 H     1 <1>   0.0800 
 28 H        1.4370    -3.1680     0.7950 H     1 <1>   0.0800 
 29 H       -1.4130    -5.1910    -0.4110 H     1 <1>   0.0800 
 30 H       -2.0050    -5.5050     1.1790 H     1 <1>   0.0800 
 31 H        1.2640    -3.2690    -1.5810 H     1 <1>   0.4500 
 32 H       -0.2470    -3.9290    -1.4790 H     1 <1>   0.4500 
 33 H       -3.6620    -4.3660    -0.3240 H     1 <1>   0.0800 
 34 H       -3.3880    -3.5910     1.1970 H     1 <1>   0.0800 
 35 H        0.7800    -0.4180     1.3130 H     1 <1>   0.1500 
 36 H        1.6640    -1.2580    -2.8180 H     1 <1>   0.1500 
 37 H        0.1260    -6.6030     0.6970 H     1 <1>   0.1500 
 38 H        3.2630    -3.9910    -0.6650 H     1 <1>   0.1500 
 39 H        2.7580     0.9410     1.4370 H     1 <1>   0.1500 
 40 H        3.6500     0.1300    -2.6400 H     1 <1>   0.1500 
 41 H        1.5090    -8.5060     0.1650 H     1 <1>   0.1500 
 42 H        4.6190    -5.9420    -1.1830 H     1 <1>   0.1500 
 43 H        4.2140     1.2290    -0.5190 H     1 <1>   0.1500 
 44 H        3.7530    -8.2020    -0.7790 H     1 <1>   0.1500 
@<TRIPOS>BOND
  1   1   2  2   
  2   2   3  1   
  3   2   4  1   
  4   3   5  1   
  5   3   6  1   
  6   3  23  1   
  7   4   7  1   
  8   4   8  1   
  9   4  24  1   
 10   5   9  1   
 11   5  10  1   
 12   5  25  1   
 13   6  11  1   
 14   6  26  1   
 15   6  27  1   
 16   7   9  1   
 17   7  12  1   
 18   7  28  1   
 19   8  11  1   
 20   8  29  1   
 21   8  30  1   
 22   9  31  1   
 23   9  32  1   
 24  10  13  ar  
 25  10  14  ar  
 26  11  33  1   
 27  11  34  1   
 28  12  15  ar  
 29  12  16  ar  
 30  13  17  ar  
 31  13  35  1   
 32  14  18  ar  
 33  14  36  1   
 34  15  19  ar  
 35  15  37  1   
 36  16  20  ar  
 37  16  38  1   
 38  17  21  ar  
 39  17  39  1   
 40  18  21  ar  
 41  18  40  1   
 42  19  22  ar  
 43  19  41  1   
 44  20  22  ar  
 45  20  42  1   
 46  21  43  1   
 47  22  44  1   
@<TRIPOS>SUBSTRUCTURE
  1 ****   7 GROUP 4 **** **** 0

# MOE 2024.06 (io_trps.svl 2023.06)
