@<TRIPOS>MOLECULE
NONAME
45 46 1 0 0 
SMALL
USER_CHARGES


@<TRIPOS>ATOM
  1 S        0.5380     0.0740     0.3980 S.3   1 <1>  -0.2860 
  2 C       -1.1870    -0.2760     0.7530 C.2   1 <1>   0.2420 
  3 C        1.2570     0.3130     2.0990 C.3   1 <1>   0.1310 
  4 N       -1.6630    -0.3500     1.9440 N.2   1 <1>  -0.3380 
  5 N       -2.0940    -0.4850    -0.2000 N.pl3 1 <1>   0.0480 
  6 C        2.7560     0.5630     2.0480 C.2   1 <1>   0.5690 
  7 N       -2.9610    -0.6280     1.7970 N.2   1 <1>  -0.3380 
  8 C       -3.2000    -0.7080     0.5280 C.2   1 <1>   0.0060 
  9 C       -1.8970    -0.4680    -1.6640 C.3   1 <1>   0.0160 
 10 O        3.2740     1.0690     3.0130 O.2   1 <1>  -0.5700 
 11 N        3.4430     0.2020     0.9190 N.am  1 <1>  -0.5470 
 12 C       -4.5740    -1.0170    -0.0500 C.3   1 <1>   0.0200 
 13 C        4.8000     0.2790     0.5710 C.ar  1 <1>   0.1170 
 14 C       -4.6640    -2.4230    -0.6760 C.3   1 <1>  -0.0800 
 15 C        5.1460     0.1100    -0.7630 C.ar  1 <1>  -0.1500 
 16 C        5.8190     0.5050     1.4920 C.ar  1 <1>  -0.1500 
 17 C       -6.0450    -2.6370    -1.3080 C.3   1 <1>  -0.2400 
 18 C       -4.3960    -3.5220     0.3620 C.3   1 <1>  -0.2400 
 19 C        6.4640     0.1660    -1.1800 C.ar  1 <1>   0.0830 
 20 C        7.1410     0.5650     1.0880 C.ar  1 <1>  -0.1500 
 21 O        6.6900    -0.0130    -2.5060 O.3   1 <1>  -0.3630 
 22 C        7.4700     0.3960    -0.2460 C.ar  1 <1>  -0.1500 
 23 C        7.9950     0.0390    -3.0370 C.3   1 <1>   0.0400 
 24 H        1.0460    -0.5760     2.6640 H     1 <1>   0.0800 
 25 H        0.7520     1.1510     2.5430 H     1 <1>   0.0800 
 26 H       -1.4770    -1.4080    -1.9750 H     1 <1>   0.0800 
 27 H       -1.2250     0.3290    -1.9260 H     1 <1>   0.0800 
 28 H       -2.8370    -0.3120    -2.1590 H     1 <1>   0.0800 
 29 H        2.8400    -0.1410     0.1710 H     1 <1>   0.3700 
 30 H       -4.8180    -0.2710    -0.7840 H     1 <1>   0.0800 
 31 H       -5.3020    -0.9360     0.7400 H     1 <1>   0.0800 
 32 H       -3.9250    -2.5080    -1.4540 H     1 <1>   0.0800 
 33 H        4.3860    -0.0660    -1.5000 H     1 <1>   0.1500 
 34 H        5.5880     0.6340     2.5330 H     1 <1>   0.1500 
 35 H       -6.8180    -2.5730    -0.5610 H     1 <1>   0.0800 
 36 H       -6.0980    -3.6080    -1.7690 H     1 <1>   0.0800 
 37 H       -6.2340    -1.8950    -2.0630 H     1 <1>   0.0800 
 38 H       -5.1060    -3.4630     1.1680 H     1 <1>   0.0800 
 39 H       -3.4080    -3.4230     0.7760 H     1 <1>   0.0800 
 40 H       -4.4730    -4.4950    -0.0910 H     1 <1>   0.0800 
 41 H        7.9140     0.7420     1.8150 H     1 <1>   0.1500 
 42 H        8.5020     0.4460    -0.5340 H     1 <1>   0.1500 
 43 H        7.9300    -0.1220    -4.0980 H     1 <1>   0.0800 
 44 H        8.5880    -0.7360    -2.5850 H     1 <1>   0.0800 
 45 H        8.4140     1.0110    -2.8410 H     1 <1>   0.0800 
@<TRIPOS>BOND
  1   1   2  1   
  2   1   3  1   
  3   2   4  2   
  4   2   5  1   
  5   3   6  1   
  6   3  24  1   
  7   3  25  1   
  8   4   7  1   
  9   5   8  1   
 10   5   9  1   
 11   6  10  2   
 12   6  11  am  
 13   7   8  2   
 14   8  12  1   
 15   9  26  1   
 16   9  27  1   
 17   9  28  1   
 18  11  13  1   
 19  11  29  1   
 20  12  14  1   
 21  12  30  1   
 22  12  31  1   
 23  13  15  ar  
 24  13  16  ar  
 25  14  17  1   
 26  14  18  1   
 27  14  32  1   
 28  15  19  ar  
 29  15  33  1   
 30  16  20  ar  
 31  16  34  1   
 32  17  35  1   
 33  17  36  1   
 34  17  37  1   
 35  18  38  1   
 36  18  39  1   
 37  18  40  1   
 38  19  21  1   
 39  19  22  ar  
 40  20  22  ar  
 41  20  41  1   
 42  21  23  1   
 43  22  42  1   
 44  23  43  1   
 45  23  44  1   
 46  23  45  1   
@<TRIPOS>SUBSTRUCTURE
  1 ****   1 GROUP 4 **** **** 0

# MOE 2024.06 (io_trps.svl 2023.06)
