@<TRIPOS>MOLECULE
NONAME
27 27 1 0 0 
SMALL
USER_CHARGES


@<TRIPOS>ATOM
  1 O        0.4300     0.8100    -1.3300 O.2   1 <1>  -0.5700 
  2 C        0.4110     1.8780    -0.7520 C.2   1 <1>   0.5440 
  3 N       -0.7370     2.3080    -0.1410 N.am  1 <1>  -0.7300 
  4 C        1.6130     2.6900    -0.6940 C.ar  1 <1>   0.0860 
  5 C       -2.0590     1.6720    -0.0910 C.3   1 <1>   0.3000 
  6 C        1.5970     4.0720    -0.5560 C.ar  1 <1>  -0.1500 
  7 C        2.8810     2.1310    -0.7770 C.ar  1 <1>  -0.1500 
  8 C       -2.9630     2.6200     0.6950 C.3   1 <1>  -0.2400 
  9 C       -2.6110     1.5000    -1.5070 C.3   1 <1>  -0.2400 
 10 C       -1.9640     0.3340     0.6410 C.3   1 <1>  -0.2400 
 11 C        2.7810     4.7830    -0.4960 C.ar  1 <1>   0.1600 
 12 C        4.0060     2.9290    -0.7080 C.ar  1 <1>   0.1600 
 13 N        3.9860     4.2430    -0.5640 N.ar  1 <1>  -0.6200 
 14 H       -0.6800     3.1340     0.4490 H     1 <1>   0.3700 
 15 H        0.6640     4.6010    -0.5030 H     1 <1>   0.1500 
 16 H        2.9820     1.0670    -0.8970 H     1 <1>   0.1500 
 17 H       -2.5890     2.7610     1.6940 H     1 <1>   0.0800 
 18 H       -3.9540     2.2090     0.7650 H     1 <1>   0.0800 
 19 H       -3.0320     3.5740     0.2030 H     1 <1>   0.0800 
 20 H       -2.6230     2.4420    -2.0230 H     1 <1>   0.0800 
 21 H       -3.6140     1.1160    -1.4690 H     1 <1>   0.0800 
 22 H       -2.0130     0.8040    -2.0660 H     1 <1>   0.0800 
 23 H       -2.9420    -0.0980     0.7520 H     1 <1>   0.0800 
 24 H       -1.3590    -0.3600     0.0860 H     1 <1>   0.0800 
 25 H       -1.5350     0.4660     1.6170 H     1 <1>   0.0800 
 26 H        2.7390     5.8540    -0.3890 H     1 <1>   0.1500 
 27 H        4.9750     2.4630    -0.7740 H     1 <1>   0.1500 
@<TRIPOS>BOND
  1   1   2  2   
  2   2   3  am  
  3   2   4  1   
  4   3   5  1   
  5   3  14  1   
  6   4   6  ar  
  7   4   7  ar  
  8   5   8  1   
  9   5   9  1   
 10   5  10  1   
 11   6  11  ar  
 12   6  15  1   
 13   7  12  ar  
 14   7  16  1   
 15   8  17  1   
 16   8  18  1   
 17   8  19  1   
 18   9  20  1   
 19   9  21  1   
 20   9  22  1   
 21  10  23  1   
 22  10  24  1   
 23  10  25  1   
 24  11  13  ar  
 25  11  26  1   
 26  12  13  ar  
 27  12  27  1   
@<TRIPOS>SUBSTRUCTURE
  1 ****   2 GROUP 4 **** **** 0

# MOE 2024.06 (io_trps.svl 2023.06)
