@<TRIPOS>MOLECULE
NONAME
49 51 1 0 0 
SMALL
USER_CHARGES


@<TRIPOS>ATOM
  1 CL       2.1670     0.2880    -1.4440 Cl    1 <1>  -0.1770 
  2 C        2.3660    -1.3840    -0.9820 C.ar  1 <1>   0.1770 
  3 C        3.6320    -1.8780    -0.7560 C.ar  1 <1>  -0.1500 
  4 C        1.2470    -2.1840    -0.8500 C.ar  1 <1>  -0.1500 
  5 C        3.8040    -3.2080    -0.3880 C.ar  1 <1>   0.1000 
  6 C        1.4090    -3.5100    -0.4850 C.ar  1 <1>  -0.1500 
  7 N        5.0830    -3.7100    -0.1490 N.pl3 1 <1>  -0.8380 
  8 C        2.6770    -4.0240    -0.2550 C.ar  1 <1>  -0.1440 
  9 C        6.0790    -3.6230    -1.2740 C.3   1 <1>   0.2090 
 10 C        5.6650    -3.3970     1.1930 C.3   1 <1>   0.2090 
 11 C        2.8360    -5.4850     0.1400 C.3   1 <1>  -0.0970 
 12 C        7.4700    -3.1090    -0.8560 C.3   1 <1>   0.1400 
 13 C        6.4400    -2.0660     1.1940 C.3   1 <1>   0.1400 
 14 N        7.4000    -1.9160     0.0550 N.am  1 <1>  -0.6600 
 15 C        8.2850    -0.8610     0.0800 C.2   1 <1>   0.5690 
 16 O        8.1220     0.0240     0.8940 O.2   1 <1>  -0.5700 
 17 C        9.4580    -0.7260    -0.9240 C.3   1 <1>  -0.0190 
 18 C       10.7320    -1.4920    -0.4880 C.3   1 <1>  -0.1860 
 19 C        9.8220     0.7530    -1.2470 C.3   1 <1>  -0.1600 
 20 C       10.5100    -2.9980    -0.4400 C.2   1 <1>   0.9060 
 21 C       11.3360    -0.8880     0.8030 C.3   1 <1>  -0.1600 
 22 C       11.1090     1.2630    -0.5640 C.3   1 <1>  -0.1600 
 23 O       10.4190    -3.5960     0.6370 O.co2 1 <1>  -0.9000 
 24 O       10.3840    -3.5890    -1.5200 O.co2 1 <1>  -0.9000 
 25 C       11.2990     0.6530     0.8310 C.3   1 <1>  -0.1600 
 26 H        4.4860    -1.2360    -0.8620 H     1 <1>   0.1500 
 27 H        0.2700    -1.7750    -1.0320 H     1 <1>   0.1500 
 28 H        0.5420    -4.1380    -0.3820 H     1 <1>   0.1500 
 29 H        5.6980    -2.9800    -2.0470 H     1 <1>   0.0800 
 30 H        6.1960    -4.6020    -1.7040 H     1 <1>   0.0800 
 31 H        6.3330    -4.1920     1.4790 H     1 <1>   0.0800 
 32 H        4.8790    -3.3520     1.9250 H     1 <1>   0.0800 
 33 H        3.4870    -5.9780    -0.5590 H     1 <1>   0.0800 
 34 H        1.8900    -5.9950     0.1500 H     1 <1>   0.0800 
 35 H        3.2750    -5.5490     1.1190 H     1 <1>   0.0800 
 36 H        8.0220    -2.8900    -1.7480 H     1 <1>   0.0800 
 37 H        7.9900    -3.9020    -0.3460 H     1 <1>   0.0800 
 38 H        6.9870    -1.9850     2.1180 H     1 <1>   0.0800 
 39 H        5.7390    -1.2520     1.1620 H     1 <1>   0.0800 
 40 H        9.1290    -1.1480    -1.8530 H     1 <1>   0.0800 
 41 H       11.4590    -1.3610    -1.2680 H     1 <1>   0.0800 
 42 H        9.0010     1.3950    -0.9810 H     1 <1>   0.0800 
 43 H        9.9550     0.8500    -2.3100 H     1 <1>   0.0800 
 44 H       12.3510    -1.2330     0.8950 H     1 <1>   0.0800 
 45 H       10.7960    -1.2590     1.6580 H     1 <1>   0.0800 
 46 H       11.0770     2.3360    -0.4930 H     1 <1>   0.0800 
 47 H       11.9590     1.0010    -1.1700 H     1 <1>   0.0800 
 48 H       12.2030     1.0270     1.2770 H     1 <1>   0.0800 
 49 H       10.4790     0.9680     1.4540 H     1 <1>   0.0800 
@<TRIPOS>BOND
  1   1   2  1   
  2   2   3  ar  
  3   2   4  ar  
  4   3   5  ar  
  5   3  26  1   
  6   4   6  ar  
  7   4  27  1   
  8   5   7  1   
  9   5   8  ar  
 10   6   8  ar  
 11   6  28  1   
 12   7   9  1   
 13   7  10  1   
 14   8  11  1   
 15   9  12  1   
 16   9  29  1   
 17   9  30  1   
 18  10  13  1   
 19  10  31  1   
 20  10  32  1   
 21  11  33  1   
 22  11  34  1   
 23  11  35  1   
 24  12  14  1   
 25  12  36  1   
 26  12  37  1   
 27  13  14  1   
 28  13  38  1   
 29  13  39  1   
 30  14  15  am  
 31  15  16  2   
 32  15  17  1   
 33  17  18  1   
 34  17  19  1   
 35  17  40  1   
 36  18  20  1   
 37  18  21  1   
 38  18  41  1   
 39  19  22  1   
 40  19  42  1   
 41  19  43  1   
 42  20  23  ar  
 43  20  24  ar  
 44  21  25  1   
 45  21  44  1   
 46  21  45  1   
 47  22  25  1   
 48  22  46  1   
 49  22  47  1   
 50  25  48  1   
 51  25  49  1   
@<TRIPOS>SUBSTRUCTURE
  1 ****  14 GROUP 4 **** **** 0

# MOE 2024.06 (io_trps.svl 2023.06)
