@<TRIPOS>MOLECULE
NONAME
35 36 1 0 0 
SMALL
USER_CHARGES


@<TRIPOS>ATOM
  1 S       -0.1810    -0.1790     0.3820 S.o2  1 <1>   1.4470 
  2 O       -0.7590     0.0390     1.6860 O.2   1 <1>  -0.6500 
  3 O       -0.1170    -1.5210    -0.1480 O.2   1 <1>  -0.6500 
  4 N       -1.1930     0.6490    -0.7250 N.am  1 <1>  -0.7040 
  5 C        1.3840     0.7740     0.2180 C.ar  1 <1>  -0.0090 
  6 C       -2.5380     0.5290    -0.7390 C.2   1 <1>   0.5240 
  7 C        2.6140     0.1310    -0.0140 C.ar  1 <1>  -0.1440 
  8 C        1.3800     2.1810     0.3070 C.ar  1 <1>  -0.1430 
  9 S       -3.3290    -0.9690    -0.2610 S.3   1 <1>  -0.0800 
 10 N       -3.3480     1.4550    -1.0940 N.2   1 <1>  -0.5650 
 11 C        3.7660     0.8690    -0.2730 C.ar  1 <1>  -0.1440 
 12 C        2.7210    -1.3980     0.0230 C.3   1 <1>  -0.0970 
 13 C        2.5380     2.9090     0.0450 C.ar  1 <1>  -0.1430 
 14 C        0.1370     2.9930     0.7050 C.3   1 <1>  -0.0970 
 15 C       -4.8730    -0.2300    -0.5810 C.2   1 <1>  -0.1100 
 16 C       -4.6600     1.0250    -1.0040 C.2   1 <1>   0.0770 
 17 C        3.7100     2.2460    -0.2480 C.ar  1 <1>  -0.1500 
 18 C        5.1170     0.2360    -0.5940 C.3   1 <1>  -0.0970 
 19 C        2.5890     4.4340     0.0640 C.3   1 <1>  -0.0970 
 20 H       -0.8810     1.5960    -0.8670 H     1 <1>   0.4200 
 21 H        2.1610    -1.7980     0.8480 H     1 <1>   0.0800 
 22 H        3.7250    -1.7460     0.1620 H     1 <1>   0.0800 
 23 H        2.3480    -1.8170    -0.8950 H     1 <1>   0.0800 
 24 H       -0.5960     2.4270     1.2430 H     1 <1>   0.0800 
 25 H       -0.3230     3.4250    -0.1650 H     1 <1>   0.0800 
 26 H        0.4110     3.7920     1.3700 H     1 <1>   0.0800 
 27 H       -5.7590    -0.8150    -0.4180 H     1 <1>   0.1500 
 28 H       -5.4330     1.7240    -1.2770 H     1 <1>   0.1500 
 29 H        4.6010     2.8140    -0.4520 H     1 <1>   0.1500 
 30 H        5.0100    -0.4930    -1.3770 H     1 <1>   0.0800 
 31 H        5.5190    -0.2390     0.2830 H     1 <1>   0.0800 
 32 H        5.8240     0.9730    -0.9280 H     1 <1>   0.0800 
 33 H        1.7740     4.8480    -0.5020 H     1 <1>   0.0800 
 34 H        3.5030     4.7970    -0.3710 H     1 <1>   0.0800 
 35 H        2.5360     4.7920     1.0760 H     1 <1>   0.0800 
@<TRIPOS>BOND
  1   1   2  2   
  2   1   3  2   
  3   1   4  am  
  4   1   5  1   
  5   4   6  1   
  6   4  20  1   
  7   5   7  ar  
  8   5   8  ar  
  9   6   9  1   
 10   6  10  2   
 11   7  11  ar  
 12   7  12  1   
 13   8  13  ar  
 14   8  14  1   
 15   9  15  1   
 16  10  16  1   
 17  11  17  ar  
 18  11  18  1   
 19  12  21  1   
 20  12  22  1   
 21  12  23  1   
 22  13  17  ar  
 23  13  19  1   
 24  14  24  1   
 25  14  25  1   
 26  14  26  1   
 27  15  16  2   
 28  15  27  1   
 29  16  28  1   
 30  17  29  1   
 31  18  30  1   
 32  18  31  1   
 33  18  32  1   
 34  19  33  1   
 35  19  34  1   
 36  19  35  1   
@<TRIPOS>SUBSTRUCTURE
  1 ****   5 GROUP 4 **** **** 0

# MOE 2024.06 (io_trps.svl 2023.06)
