@<TRIPOS>MOLECULE
NONAME
34 35 1 0 0 
SMALL
USER_CHARGES


@<TRIPOS>ATOM
  1 S       -0.2100     0.3660     0.3040 S.3   1 <1>  -0.0800 
  2 C        1.0570    -0.0580    -0.8050 C.2   1 <1>   0.4420 
  3 C       -1.3330    -0.2990    -0.8370 C.2   1 <1>   0.1980 
  4 N        0.6040    -0.6230    -1.8630 N.2   1 <1>  -0.3380 
  5 N        2.3800     0.2050    -0.5390 N.am  1 <1>  -0.4940 
  6 N       -0.7560    -0.7590    -1.8740 N.2   1 <1>  -0.3380 
  7 C       -2.8230    -0.2860    -0.5150 C.3   1 <1>   0.2440 
  8 C        3.0030     0.7380     0.5400 C.2   1 <1>   0.7800 
  9 C       -3.3550     1.1490    -0.4050 C.ar  1 <1>  -0.1440 
 10 C       -3.1430    -1.1640     0.7150 C.3   1 <1>  -0.1600 
 11 O        2.4440     1.0890     1.5560 O.2   1 <1>  -0.5700 
 12 O        4.3230     0.8580     0.4230 O.3   1 <1>  -0.4300 
 13 C       -4.0200     1.7110    -1.4870 C.ar  1 <1>  -0.1500 
 14 C       -3.1890     1.9120     0.7450 C.ar  1 <1>  -0.1500 
 15 C       -4.6490    -1.2800     0.9960 C.3   1 <1>  -0.2400 
 16 C        5.1050     1.3960     1.4710 C.3   1 <1>   0.0400 
 17 C       -4.5130     3.0020    -1.4220 C.ar  1 <1>  -0.1500 
 18 C       -3.6810     3.2040     0.8120 C.ar  1 <1>  -0.1500 
 19 C       -4.3450     3.7500    -0.2710 C.ar  1 <1>  -0.1500 
 20 H        3.0160    -0.0530    -1.2850 H     1 <1>   0.3700 
 21 H       -3.3120    -0.7500    -1.3530 H     1 <1>   0.0800 
 22 H       -2.6500    -0.7740     1.5870 H     1 <1>   0.0800 
 23 H       -2.7490    -2.1500     0.5400 H     1 <1>   0.0800 
 24 H       -4.1560     1.1480    -2.3940 H     1 <1>   0.1500 
 25 H       -2.6730     1.5140     1.6000 H     1 <1>   0.1500 
 26 H       -5.0720    -0.3170     1.2240 H     1 <1>   0.0800 
 27 H       -4.8170    -1.9290     1.8380 H     1 <1>   0.0800 
 28 H       -5.1630    -1.6890     0.1440 H     1 <1>   0.0800 
 29 H        6.1350     1.3990     1.1630 H     1 <1>   0.0800 
 30 H        4.9820     0.7840     2.3480 H     1 <1>   0.0800 
 31 H        4.7750     2.4010     1.6720 H     1 <1>   0.0800 
 32 H       -5.0260     3.4250    -2.2680 H     1 <1>   0.1500 
 33 H       -3.5460     3.7850     1.7080 H     1 <1>   0.1500 
 34 H       -4.7270     4.7550    -0.2190 H     1 <1>   0.1500 
@<TRIPOS>BOND
  1   1   2  1   
  2   1   3  1   
  3   2   4  2   
  4   2   5  1   
  5   3   6  2   
  6   3   7  1   
  7   4   6  1   
  8   5   8  am  
  9   5  20  1   
 10   7   9  1   
 11   7  10  1   
 12   7  21  1   
 13   8  11  2   
 14   8  12  1   
 15   9  13  ar  
 16   9  14  ar  
 17  10  15  1   
 18  10  22  1   
 19  10  23  1   
 20  12  16  1   
 21  13  17  ar  
 22  13  24  1   
 23  14  18  ar  
 24  14  25  1   
 25  15  26  1   
 26  15  27  1   
 27  15  28  1   
 28  16  29  1   
 29  16  30  1   
 30  16  31  1   
 31  17  19  ar  
 32  17  32  1   
 33  18  19  ar  
 34  18  33  1   
 35  19  34  1   
@<TRIPOS>SUBSTRUCTURE
  1 ****   1 GROUP 4 **** **** 0

# MOE 2024.06 (io_trps.svl 2023.06)
