@<TRIPOS>MOLECULE
NONAME
42 43 1 0 0 
SMALL
USER_CHARGES


@<TRIPOS>ATOM
  1 S       -0.6810     0.0530     0.2220 S.3   1 <1>  -0.2860 
  2 C        1.0180     0.6160     0.3570 C.2   1 <1>   0.2420 
  3 C       -1.3430     0.3610     1.9350 C.3   1 <1>   0.1310 
  4 N        1.5050     1.1370     1.4250 N.2   1 <1>  -0.3380 
  5 N        1.8930     0.5310    -0.6450 N.pl3 1 <1>   0.0480 
  6 C       -2.8270     0.0470     2.0250 C.2   1 <1>   0.5690 
  7 N        2.7780     1.4200     1.1380 N.2   1 <1>  -0.3380 
  8 C        2.9970     1.0530    -0.0850 C.2   1 <1>   0.0060 
  9 C        1.6780    -0.0150    -2.0020 C.3   1 <1>   0.0160 
 10 O       -3.2830    -0.2120     3.1120 O.2   1 <1>  -0.5700 
 11 N       -3.5710     0.0770     0.8760 N.am  1 <1>  -0.5470 
 12 C        4.3340     1.1980    -0.8130 C.3   1 <1>   0.1000 
 13 C       -4.9360    -0.1360     0.6260 C.ar  1 <1>   0.1170 
 14 C        5.5210     1.0970     0.1530 C.3   1 <1>  -0.2400 
 15 C        4.3810     2.5340    -1.5630 C.3   1 <1>  -0.2400 
 16 C       -5.3390    -0.3400    -0.6870 C.ar  1 <1>  -0.1500 
 17 C       -5.9080    -0.1420     1.6220 C.ar  1 <1>  -0.1500 
 18 C       -6.6680    -0.5480    -1.0090 C.ar  1 <1>   0.0820 
 19 C       -7.2400    -0.3510     1.3130 C.ar  1 <1>  -0.1500 
 20 O       -6.9530    -0.7370    -2.3230 O.3   1 <1>  -0.3620 
 21 C       -7.6270    -0.5540     0.0000 C.ar  1 <1>  -0.1500 
 22 C       -8.2730    -0.9740    -2.7570 C.3   1 <1>   0.0400 
 23 H       -1.1660     1.3950     2.1670 H     1 <1>   0.0800 
 24 H       -0.7840    -0.2620     2.6080 H     1 <1>   0.0800 
 25 H        1.8920    -1.0680    -1.9970 H     1 <1>   0.0800 
 26 H        2.3240     0.4820    -2.7020 H     1 <1>   0.0800 
 27 H        0.6570     0.1420    -2.2980 H     1 <1>   0.0800 
 28 H       -3.0120     0.2280     0.0350 H     1 <1>   0.3700 
 29 H        4.4300     0.3980    -1.5250 H     1 <1>   0.0800 
 30 H        5.4950     1.9020     0.8670 H     1 <1>   0.0800 
 31 H        6.4510     1.1420    -0.3850 H     1 <1>   0.0800 
 32 H        5.4790     0.1660     0.6910 H     1 <1>   0.0800 
 33 H        4.2910     3.3500    -0.8660 H     1 <1>   0.0800 
 34 H        3.5730     2.6000    -2.2680 H     1 <1>   0.0800 
 35 H        5.3100     2.6350    -2.0940 H     1 <1>   0.0800 
 36 H       -4.6160    -0.3410    -1.4800 H     1 <1>   0.1500 
 37 H       -5.6320     0.0190     2.6480 H     1 <1>   0.1500 
 38 H       -7.9760    -0.3540     2.0980 H     1 <1>   0.1500 
 39 H       -8.6660    -0.7140    -0.2140 H     1 <1>   0.1500 
 40 H       -8.2560    -1.0990    -3.8250 H     1 <1>   0.0800 
 41 H       -8.8840    -0.1270    -2.4980 H     1 <1>   0.0800 
 42 H       -8.6390    -1.8720    -2.2900 H     1 <1>   0.0800 
@<TRIPOS>BOND
  1   1   2  1   
  2   1   3  1   
  3   2   4  2   
  4   2   5  1   
  5   3   6  1   
  6   3  23  1   
  7   3  24  1   
  8   4   7  1   
  9   5   8  1   
 10   5   9  1   
 11   6  10  2   
 12   6  11  am  
 13   7   8  2   
 14   8  12  1   
 15   9  25  1   
 16   9  26  1   
 17   9  27  1   
 18  11  13  1   
 19  11  28  1   
 20  12  14  1   
 21  12  15  1   
 22  12  29  1   
 23  13  16  ar  
 24  13  17  ar  
 25  14  30  1   
 26  14  31  1   
 27  14  32  1   
 28  15  33  1   
 29  15  34  1   
 30  15  35  1   
 31  16  18  ar  
 32  16  36  1   
 33  17  19  ar  
 34  17  37  1   
 35  18  20  1   
 36  18  21  ar  
 37  19  21  ar  
 38  19  38  1   
 39  20  22  1   
 40  21  39  1   
 41  22  40  1   
 42  22  41  1   
 43  22  42  1   
@<TRIPOS>SUBSTRUCTURE
  1 ****   1 GROUP 4 **** **** 0

# MOE 2024.06 (io_trps.svl 2023.06)
