@<TRIPOS>MOLECULE
NONAME
51 53 1 0 0 
SMALL
USER_CHARGES


@<TRIPOS>ATOM
  1 O       -1.1930    -4.1770     0.5000 O.2   1 <1>  -0.5700 
  2 C       -1.3560    -3.0230     0.8500 C.2   1 <1>   0.6900 
  3 N       -2.4820    -2.6610     1.5360 N.am  1 <1>  -0.6600 
  4 N       -0.4350    -2.0840     0.5390 N.am  1 <1>  -0.7300 
  5 C       -2.5320    -1.6640     2.6430 C.3   1 <1>   0.2200 
  6 C       -3.7140    -3.4960     1.3500 C.3   1 <1>   0.3200 
  7 C        0.8050    -2.3020    -0.2160 C.3   1 <1>   0.2200 
  8 C       -2.6460    -0.2450     2.0840 C.3   1 <1>  -0.2400 
  9 C       -1.3400    -1.8140     3.5900 C.3   1 <1>  -0.2400 
 10 C       -4.9340    -2.6700     0.9620 C.2   1 <1>   0.2980 
 11 C        1.9840    -1.7900     0.6170 C.3   1 <1>  -0.1600 
 12 C        0.7050    -1.5640    -1.5540 C.3   1 <1>  -0.1600 
 13 O       -5.5970    -2.0570     1.9080 O.3   1 <1>  -0.0190 
 14 N       -5.3960    -2.5110    -0.2110 N.2   1 <1>  -0.5650 
 15 C        3.3020    -1.8880    -0.1670 C.3   1 <1>  -0.1600 
 16 C        2.0200    -1.6620    -2.3420 C.3   1 <1>  -0.1600 
 17 N       -6.5530    -1.4460     1.2830 N.2   1 <1>  -0.4100 
 18 C       -6.4380    -1.7100     0.0290 C.2   1 <1>   0.4620 
 19 C        3.2050    -1.1510    -1.5100 C.3   1 <1>  -0.1600 
 20 C       -7.3080    -1.2150    -1.0260 C.ar  1 <1>   0.0540 
 21 C       -8.3870    -0.3760    -0.7400 C.ar  1 <1>  -0.1500 
 22 C       -7.1050    -1.5540    -2.3660 C.ar  1 <1>  -0.1500 
 23 C       -9.2200     0.1020    -1.7360 C.ar  1 <1>  -0.1500 
 24 C       -7.9340    -1.0800    -3.3680 C.ar  1 <1>  -0.1500 
 25 C       -8.9940    -0.2510    -3.0540 C.ar  1 <1>  -0.1500 
 26 H       -0.6790    -1.1190     0.7360 H     1 <1>   0.3700 
 27 H       -3.4140    -1.8560     3.2300 H     1 <1>   0.0800 
 28 H       -3.9180    -4.0340     2.2580 H     1 <1>   0.0800 
 29 H       -3.5570    -4.2210     0.5710 H     1 <1>   0.0800 
 30 H        0.9380    -3.3560    -0.4030 H     1 <1>   0.0800 
 31 H       -1.7450     0.0600     1.5900 H     1 <1>   0.0800 
 32 H       -2.8330     0.4430     2.8890 H     1 <1>   0.0800 
 33 H       -3.4680    -0.1800     1.3940 H     1 <1>   0.0800 
 34 H       -0.4180    -1.5280     3.1190 H     1 <1>   0.0800 
 35 H       -1.2630    -2.8320     3.9270 H     1 <1>   0.0800 
 36 H       -1.4810    -1.1850     4.4500 H     1 <1>   0.0800 
 37 H        2.0610    -2.3740     1.5170 H     1 <1>   0.0800 
 38 H        1.8150    -0.7630     0.8880 H     1 <1>   0.0800 
 39 H        0.4790    -0.5270    -1.3790 H     1 <1>   0.0800 
 40 H       -0.0910    -1.9940    -2.1360 H     1 <1>   0.0800 
 41 H        3.5320    -2.9250    -0.3460 H     1 <1>   0.0800 
 42 H        4.1020    -1.4690     0.4180 H     1 <1>   0.0800 
 43 H        1.9410    -1.0880    -3.2490 H     1 <1>   0.0800 
 44 H        2.1940    -2.6890    -2.6160 H     1 <1>   0.0800 
 45 H        4.1180    -1.2890    -2.0630 H     1 <1>   0.0800 
 46 H        3.0850    -0.0960    -1.3300 H     1 <1>   0.0800 
 47 H       -8.5770    -0.0910     0.2800 H     1 <1>   0.1500 
 48 H       -6.2840    -2.1980    -2.6290 H     1 <1>   0.1500 
 49 H      -10.0440     0.7470    -1.4860 H     1 <1>   0.1500 
 50 H       -7.7530    -1.3580    -4.3920 H     1 <1>   0.1500 
 51 H       -9.6400     0.1190    -3.8310 H     1 <1>   0.1500 
@<TRIPOS>BOND
  1   1   2  2   
  2   2   3  am  
  3   2   4  am  
  4   3   5  1   
  5   3   6  1   
  6   4   7  1   
  7   4  26  1   
  8   5   8  1   
  9   5   9  1   
 10   5  27  1   
 11   6  10  1   
 12   6  28  1   
 13   6  29  1   
 14   7  11  1   
 15   7  12  1   
 16   7  30  1   
 17   8  31  1   
 18   8  32  1   
 19   8  33  1   
 20   9  34  1   
 21   9  35  1   
 22   9  36  1   
 23  10  13  1   
 24  10  14  2   
 25  11  15  1   
 26  11  37  1   
 27  11  38  1   
 28  12  16  1   
 29  12  39  1   
 30  12  40  1   
 31  13  17  1   
 32  14  18  1   
 33  15  19  1   
 34  15  41  1   
 35  15  42  1   
 36  16  19  1   
 37  16  43  1   
 38  16  44  1   
 39  17  18  2   
 40  18  20  1   
 41  19  45  1   
 42  19  46  1   
 43  20  21  ar  
 44  20  22  ar  
 45  21  23  ar  
 46  21  47  1   
 47  22  24  ar  
 48  22  48  1   
 49  23  25  ar  
 50  23  49  1   
 51  24  25  ar  
 52  24  50  1   
 53  25  51  1   
@<TRIPOS>SUBSTRUCTURE
  1 ****   3 GROUP 4 **** **** 0

# MOE 2024.06 (io_trps.svl 2023.06)
