@<TRIPOS>MOLECULE
NONAME
35 37 1 0 0 
SMALL
USER_CHARGES


@<TRIPOS>ATOM
  1 O        0.1560     0.2490    -0.6290 O.2   1 <1>  -0.5700 
  2 C        0.2870     1.4420    -0.7490 C.2   1 <1>   0.7200 
  3 O        1.4350     2.1010    -0.5310 O.3   1 <1>  -0.0870 
  4 C       -0.8780     2.3240    -1.1760 C.3   1 <1>  -0.1000 
  5 N        2.5780     1.5270    -0.1740 N.2   1 <1>  -0.5130 
  6 C       -2.1700     2.2940    -0.4260 C.3   1 <1>  -0.1520 
  7 C       -1.3080     3.5130    -0.3440 C.3   1 <1>  -0.2000 
  8 C        3.5530     2.2950     0.1050 C.2   1 <1>   0.3030 
  9 C       -3.6520     2.4120    -0.8470 C.3   1 <1>   0.0760 
 10 C       -2.6280     1.5620     0.8570 C.3   1 <1>   0.0760 
 11 C        3.5400     3.7430     0.1180 C.ar  1 <1>   0.0860 
 12 C        4.8730     1.6430     0.4750 C.3   1 <1>  -0.1790 
 13 C       -3.9930     2.2800     0.6650 C.3   1 <1>   0.0000 
 14 C        2.6240     4.4480     0.9010 C.ar  1 <1>  -0.1500 
 15 C        4.4430     4.4870    -0.6410 C.ar  1 <1>  -0.1500 
 16 C        2.6090     5.8300     0.9260 C.ar  1 <1>  -0.1500 
 17 C        4.4340     5.8700    -0.6200 C.ar  1 <1>  -0.1500 
 18 C        3.5160     6.5450     0.1640 C.ar  1 <1>  -0.1500 
 19 H       -0.9340     2.4110    -2.2450 H     1 <1>   0.1000 
 20 H       -1.6100     4.4100    -0.8580 H     1 <1>   0.1000 
 21 H       -0.7840     3.7200     0.5740 H     1 <1>   0.1000 
 22 H       -3.9190     3.3590    -1.2810 H     1 <1>   0.0000 
 23 H       -3.9840     1.5630    -1.4210 H     1 <1>   0.0000 
 24 H       -2.6970     0.4970     0.7180 H     1 <1>   0.0000 
 25 H       -2.0950     1.8490     1.7460 H     1 <1>   0.0000 
 26 H        5.2730     2.1020     1.3610 H     1 <1>   0.0800 
 27 H        5.5750     1.7500    -0.3290 H     1 <1>   0.0800 
 28 H        4.7290     0.5950     0.6670 H     1 <1>   0.0800 
 29 H       -4.8450     1.6540     0.8650 H     1 <1>   0.0000 
 30 H       -4.0330     3.2330     1.1640 H     1 <1>   0.0000 
 31 H        1.9190     3.8960     1.4980 H     1 <1>   0.1500 
 32 H        5.1580     3.9760    -1.2610 H     1 <1>   0.1500 
 33 H        1.8930     6.3520     1.5380 H     1 <1>   0.1500 
 34 H        5.1400     6.4240    -1.2150 H     1 <1>   0.1500 
 35 H        3.5070     7.6210     0.1810 H     1 <1>   0.1500 
@<TRIPOS>BOND
  1   1   2  2   
  2   2   3  1   
  3   2   4  1   
  4   3   5  1   
  5   4   6  1   
  6   4   7  1   
  7   4  19  1   
  8   5   8  2   
  9   6   7  1   
 10   6   9  1   
 11   6  10  1   
 12   7  20  1   
 13   7  21  1   
 14   8  11  1   
 15   8  12  1   
 16   9  13  1   
 17   9  22  1   
 18   9  23  1   
 19  10  13  1   
 20  10  24  1   
 21  10  25  1   
 22  11  14  ar  
 23  11  15  ar  
 24  12  26  1   
 25  12  27  1   
 26  12  28  1   
 27  13  29  1   
 28  13  30  1   
 29  14  16  ar  
 30  14  31  1   
 31  15  17  ar  
 32  15  32  1   
 33  16  18  ar  
 34  16  33  1   
 35  17  18  ar  
 36  17  34  1   
 37  18  35  1   
@<TRIPOS>SUBSTRUCTURE
  1 ****   3 GROUP 4 **** **** 0

# MOE 2024.06 (io_trps.svl 2023.06)
