@<TRIPOS>MOLECULE
NONAME
49 51 1 0 0 
SMALL
USER_CHARGES


@<TRIPOS>ATOM
  1 O        1.6400     2.2890    -2.4840 O.2   1 <1>  -0.5700 
  2 C        1.6820     2.7750    -1.3680 C.2   1 <1>   0.5440 
  3 N        0.5060     3.2050    -0.7850 N.am  1 <1>  -0.6600 
  4 C        2.9630     2.8950    -0.7020 C.ar  1 <1>   0.0860 
  5 C       -0.8230     2.8180    -1.3350 C.3   1 <1>   0.1400 
  6 C        0.4440     4.2200     0.3030 C.3   1 <1>   0.1400 
  7 C        3.1610     2.4510     0.6060 C.ar  1 <1>  -0.1500 
  8 C        4.0610     3.4550    -1.3550 C.ar  1 <1>  -0.1500 
  9 C       -1.7140     2.2890    -0.2040 C.3   1 <1>  -0.1600 
 10 C       -0.4270     3.6950     1.4500 C.3   1 <1>  -0.1600 
 11 C        4.3830     2.5800     1.2370 C.ar  1 <1>  -0.1500 
 12 C        5.2850     3.5840    -0.7270 C.ar  1 <1>  -0.1500 
 13 C       -1.8230     3.2900     0.9550 C.3   1 <1>  -0.1600 
 14 C        5.4690     3.1550     0.5820 C.ar  1 <1>   0.1170 
 15 N        6.7310     3.3120     1.1620 N.am  1 <1>  -0.5470 
 16 C        7.1850     3.1970     2.4500 C.2   1 <1>   0.5690 
 17 O        6.4800     2.9310     3.3920 O.2   1 <1>  -0.5700 
 18 C        8.6660     3.4270     2.7090 C.3   1 <1>   0.0440 
 19 C        9.4160     3.8700     1.4560 C.ar  1 <1>  -0.1430 
 20 C        9.9470     2.9260     0.5900 C.ar  1 <1>  -0.1500 
 21 C        9.5440     5.2170     1.1570 C.ar  1 <1>  -0.1500 
 22 C       10.5950     3.3180    -0.5700 C.ar  1 <1>  -0.1430 
 23 C       10.1910     5.6140     0.0000 C.ar  1 <1>  -0.1500 
 24 C       10.7130     4.6660    -0.8620 C.ar  1 <1>  -0.1500 
 25 C       11.1700     2.2780    -1.5140 C.3   1 <1>  -0.0970 
 26 H       -0.7140     2.0570    -2.0890 H     1 <1>   0.0800 
 27 H       -1.2770     3.6800    -1.7910 H     1 <1>   0.0800 
 28 H        0.0100     5.1220    -0.0930 H     1 <1>   0.0800 
 29 H        1.4260     4.4620     0.6670 H     1 <1>   0.0800 
 30 H        2.3380     1.9950     1.1280 H     1 <1>   0.1500 
 31 H        3.9390     3.7870    -2.3720 H     1 <1>   0.1500 
 32 H       -1.2980     1.3630     0.1540 H     1 <1>   0.0800 
 33 H       -2.6930     2.0780    -0.5950 H     1 <1>   0.0800 
 34 H       -0.5180     4.4570     2.2030 H     1 <1>   0.0800 
 35 H        0.0590     2.8470     1.8990 H     1 <1>   0.0800 
 36 H        4.4900     2.2230     2.2440 H     1 <1>   0.1500 
 37 H        6.1080     4.0230    -1.2620 H     1 <1>   0.1500 
 38 H       -2.3840     2.8530     1.7620 H     1 <1>   0.0800 
 39 H       -2.3510     4.1670     0.6180 H     1 <1>   0.0800 
 40 H        7.4700     3.5880     0.5100 H     1 <1>   0.3700 
 41 H        9.0910     2.5150     3.0860 H     1 <1>   0.0800 
 42 H        8.7660     4.1720     3.4770 H     1 <1>   0.0800 
 43 H        9.8530     1.8770     0.8150 H     1 <1>   0.1500 
 44 H        9.1410     5.9650     1.8190 H     1 <1>   0.1500 
 45 H       10.2890     6.6610    -0.2300 H     1 <1>   0.1500 
 46 H       11.2130     4.9840    -1.7600 H     1 <1>   0.1500 
 47 H       10.4310     1.9980    -2.2440 H     1 <1>   0.0800 
 48 H       11.4710     1.4000    -0.9710 H     1 <1>   0.0800 
 49 H       12.0310     2.6690    -2.0250 H     1 <1>   0.0800 
@<TRIPOS>BOND
  1   1   2  2   
  2   2   3  am  
  3   2   4  1   
  4   3   5  1   
  5   3   6  1   
  6   4   7  ar  
  7   4   8  ar  
  8   5   9  1   
  9   5  26  1   
 10   5  27  1   
 11   6  10  1   
 12   6  28  1   
 13   6  29  1   
 14   7  11  ar  
 15   7  30  1   
 16   8  12  ar  
 17   8  31  1   
 18   9  13  1   
 19   9  32  1   
 20   9  33  1   
 21  10  13  1   
 22  10  34  1   
 23  10  35  1   
 24  11  14  ar  
 25  11  36  1   
 26  12  14  ar  
 27  12  37  1   
 28  13  38  1   
 29  13  39  1   
 30  14  15  1   
 31  15  16  am  
 32  15  40  1   
 33  16  17  2   
 34  16  18  1   
 35  18  19  1   
 36  18  41  1   
 37  18  42  1   
 38  19  20  ar  
 39  19  21  ar  
 40  20  22  ar  
 41  20  43  1   
 42  21  23  ar  
 43  21  44  1   
 44  22  24  ar  
 45  22  25  1   
 46  23  24  ar  
 47  23  45  1   
 48  24  46  1   
 49  25  47  1   
 50  25  48  1   
 51  25  49  1   
@<TRIPOS>SUBSTRUCTURE
  1 ****  14 GROUP 4 **** **** 0

# MOE 2024.06 (io_trps.svl 2023.06)
