@<TRIPOS>MOLECULE
NONAME
26 27 1 0 0 
SMALL
USER_CHARGES


@<TRIPOS>ATOM
  1 CL      -0.3540     0.0740    -1.3570 Cl    1 <1>  -0.1770 
  2 C        0.7080     1.4080    -0.9920 C.ar  1 <1>   0.1770 
  3 C        2.0190     1.3740    -1.4250 C.ar  1 <1>  -0.1500 
  4 C        0.2260     2.4840    -0.2720 C.ar  1 <1>  -0.1500 
  5 C        2.8560     2.4360    -1.1310 C.ar  1 <1>  -0.1500 
  6 C        1.0730     3.5410     0.0150 C.ar  1 <1>  -0.1500 
  7 C        2.4070     3.5440    -0.4060 C.ar  1 <1>   0.0860 
  8 C        3.3060     4.6490    -0.1090 C.2   1 <1>   0.5140 
  9 O        2.8240     5.6860     0.5900 O.3   1 <1>  -0.4300 
 10 N        4.5250     4.7560    -0.4390 N.2   1 <1>  -0.6960 
 11 C        3.8430     6.6340     0.7650 C.3   1 <1>   0.1200 
 12 C        5.0470     6.0050     0.0530 C.3   1 <1>   0.2460 
 13 C        6.2000     5.7010     1.0090 C.3   1 <1>  -0.2400 
 14 C        5.5180     6.8340    -1.1420 C.3   1 <1>  -0.2400 
 15 H        2.3760     0.5270    -1.9840 H     1 <1>   0.1500 
 16 H       -0.7980     2.4910     0.0560 H     1 <1>   0.1500 
 17 H        3.8790     2.4140    -1.4670 H     1 <1>   0.1500 
 18 H        0.6940     4.3780     0.5760 H     1 <1>   0.1500 
 19 H        4.0140     6.7690     1.8180 H     1 <1>   0.0800 
 20 H        3.5380     7.5610     0.3140 H     1 <1>   0.0800 
 21 H        5.8600     5.0830     1.8200 H     1 <1>   0.0800 
 22 H        6.5980     6.6130     1.4150 H     1 <1>   0.0800 
 23 H        6.9860     5.1870     0.4860 H     1 <1>   0.0800 
 24 H        4.7040     7.0010    -1.8250 H     1 <1>   0.0800 
 25 H        6.3060     6.3170    -1.6610 H     1 <1>   0.0800 
 26 H        5.8920     7.7850    -0.8110 H     1 <1>   0.0800 
@<TRIPOS>BOND
  1   1   2  1   
  2   2   3  ar  
  3   2   4  ar  
  4   3   5  ar  
  5   3  15  1   
  6   4   6  ar  
  7   4  16  1   
  8   5   7  ar  
  9   5  17  1   
 10   6   7  ar  
 11   6  18  1   
 12   7   8  1   
 13   8   9  1   
 14   8  10  2   
 15   9  11  1   
 16  10  12  1   
 17  11  12  1   
 18  11  19  1   
 19  11  20  1   
 20  12  13  1   
 21  12  14  1   
 22  13  21  1   
 23  13  22  1   
 24  13  23  1   
 25  14  24  1   
 26  14  25  1   
 27  14  26  1   
@<TRIPOS>SUBSTRUCTURE
  1 ****   7 GROUP 4 **** **** 0

# MOE 2024.06 (io_trps.svl 2023.06)
