@<TRIPOS>MOLECULE
NONAME
39 41 1 0 0 
SMALL
USER_CHARGES


@<TRIPOS>ATOM
  1 O        0.5790    -0.2270    -0.9350 O.3   1 <1>  -0.5600 
  2 C        1.7120    -0.9160    -0.5470 C.3   1 <1>   0.2000 
  3 C       -0.5610    -0.7900    -0.3600 C.3   1 <1>   0.1200 
  4 C        1.4200    -1.3280     0.8920 C.3   1 <1>  -0.1600 
  5 C        2.9170     0.0200    -0.7310 C.3   1 <1>   0.3430 
  6 C       -0.0840    -1.5500     0.8750 C.3   1 <1>  -0.1600 
  7 N        4.1920    -0.5760    -0.2140 N.4   1 <1>  -0.9060 
  8 C        5.3620     0.3240    -0.3670 C.3   1 <1>   0.4230 
  9 C        6.6550    -0.4780    -0.1820 C.3   1 <1>  -0.0170 
 10 C        5.2940     1.4570     0.6610 C.3   1 <1>  -0.1600 
 11 C        7.8750     0.4260    -0.1330 C.ar  1 <1>  -0.1430 
 12 C        6.4250     2.4600     0.4060 C.3   1 <1>  -0.0170 
 13 C        7.7660     1.7830     0.1520 C.ar  1 <1>  -0.1430 
 14 C        9.1240    -0.1290    -0.3660 C.ar  1 <1>  -0.1500 
 15 C        8.9100     2.5640     0.1960 C.ar  1 <1>  -0.1500 
 16 C       10.2600     0.6570    -0.3210 C.ar  1 <1>  -0.1500 
 17 C       10.1530     2.0060    -0.0390 C.ar  1 <1>  -0.1500 
 18 H        1.7900    -1.7790    -1.1860 H     1 <1>   0.0800 
 19 H       -1.0150    -1.4500    -1.0800 H     1 <1>   0.0800 
 20 H       -1.2440     0.0040    -0.1100 H     1 <1>   0.0800 
 21 H        1.6560    -0.5230     1.5670 H     1 <1>   0.0800 
 22 H        1.9540    -2.2150     1.1830 H     1 <1>   0.0800 
 23 H        2.7060     0.9370    -0.2080 H     1 <1>   0.0800 
 24 H        3.0180     0.2440    -1.7810 H     1 <1>   0.0800 
 25 H       -0.3230    -2.5940     0.7660 H     1 <1>   0.0800 
 26 H       -0.5570    -1.1780     1.7680 H     1 <1>   0.0800 
 27 H        4.3790    -1.4510    -0.7170 H     1 <1>   0.4500 
 28 H        4.0840    -0.8110     0.7790 H     1 <1>   0.4500 
 29 H        5.3670     0.7500    -1.3580 H     1 <1>   0.0800 
 30 H        6.7670    -1.1690    -0.9990 H     1 <1>   0.0800 
 31 H        6.6210    -1.0320     0.7400 H     1 <1>   0.0800 
 32 H        5.4080     1.0580     1.6540 H     1 <1>   0.0800 
 33 H        4.3600     1.9860     0.6050 H     1 <1>   0.0800 
 34 H        6.5110     3.1210     1.2520 H     1 <1>   0.0800 
 35 H        6.1860     3.0620    -0.4540 H     1 <1>   0.0800 
 36 H        9.2280    -1.1780    -0.5830 H     1 <1>   0.1500 
 37 H        8.8440     3.6160     0.4130 H     1 <1>   0.1500 
 38 H       11.2280     0.2210    -0.5030 H     1 <1>   0.1500 
 39 H       11.0370     2.6200    -0.0020 H     1 <1>   0.1500 
@<TRIPOS>BOND
  1   1   2  1   
  2   1   3  1   
  3   2   4  1   
  4   2   5  1   
  5   2  18  1   
  6   3   6  1   
  7   3  19  1   
  8   3  20  1   
  9   4   6  1   
 10   4  21  1   
 11   4  22  1   
 12   5   7  1   
 13   5  23  1   
 14   5  24  1   
 15   6  25  1   
 16   6  26  1   
 17   7   8  1   
 18   7  27  1   
 19   7  28  1   
 20   8   9  1   
 21   8  10  1   
 22   8  29  1   
 23   9  11  1   
 24   9  30  1   
 25   9  31  1   
 26  10  12  1   
 27  10  32  1   
 28  10  33  1   
 29  11  13  ar  
 30  11  14  ar  
 31  12  13  1   
 32  12  34  1   
 33  12  35  1   
 34  13  15  ar  
 35  14  16  ar  
 36  14  36  1   
 37  15  17  ar  
 38  15  37  1   
 39  16  17  ar  
 40  16  38  1   
 41  17  39  1   
@<TRIPOS>SUBSTRUCTURE
  1 ****   8 GROUP 4 **** **** 0

# MOE 2024.06 (io_trps.svl 2023.06)
