@<TRIPOS>MOLECULE
NONAME
47 49 1 0 0 
SMALL
USER_CHARGES


@<TRIPOS>ATOM
  1 O        0.1680    -0.9650    -1.0010 O.2   1 <1>  -0.5700 
  2 C       -0.2310    -1.6590    -0.0880 C.2   1 <1>   0.6340 
  3 O        0.4510    -1.6570     1.0630 O.3   1 <1>  -0.4300 
  4 C       -1.4160    -2.4910    -0.1810 C.ar  1 <1>   0.0860 
  5 C        1.6090    -0.8640     1.2420 C.3   1 <1>   0.0400 
  6 C       -1.8250    -3.3240     0.8660 C.ar  1 <1>  -0.1500 
  7 C       -2.2050    -2.4920    -1.3360 C.ar  1 <1>  -0.1500 
  8 C       -2.9530    -4.1180     0.7650 C.ar  1 <1>  -0.1500 
  9 C       -3.3340    -3.2810    -1.4460 C.ar  1 <1>  -0.1500 
 10 C       -3.7100    -4.1080    -0.4000 C.ar  1 <1>   0.0830 
 11 O       -4.8250    -4.8640    -0.5450 O.3   1 <1>  -0.1650 
 12 C       -4.9200    -6.1660    -0.2030 C.ar  1 <1>   0.7020 
 13 N       -3.8200    -6.8540    -0.0530 N.ar  1 <1>  -0.6200 
 14 N       -6.1360    -6.6110    -0.0660 N.ar  1 <1>  -0.6200 
 15 C       -4.0120    -8.1070     0.2690 C.ar  1 <1>   0.7200 
 16 C       -6.2060    -7.8770     0.2640 C.ar  1 <1>   0.7200 
 17 N       -5.1790    -8.6670     0.4410 N.ar  1 <1>  -0.6200 
 18 N       -2.8950    -8.8930     0.4350 N.pl3 1 <1>  -0.8380 
 19 N       -7.4630    -8.4170     0.4360 N.pl3 1 <1>  -0.8380 
 20 C       -2.9260   -10.3780     0.2590 C.3   1 <1>   0.2090 
 21 C       -1.4980    -8.3560     0.4270 C.3   1 <1>   0.2090 
 22 C       -7.6840    -9.7130     1.1380 C.3   1 <1>   0.1290 
 23 C       -8.6990    -7.7190    -0.0170 C.3   1 <1>   0.1290 
 24 C       -2.0790   -10.7900    -0.9600 C.3   1 <1>   0.1200 
 25 C       -0.7390    -8.8660    -0.8100 C.3   1 <1>   0.1200 
 26 O       -0.7800   -10.2660    -0.8790 O.3   1 <1>  -0.5600 
 27 H        1.9820    -1.0230     2.2380 H     1 <1>   0.0800 
 28 H        1.3470     0.1700     1.1040 H     1 <1>   0.0800 
 29 H        2.3480    -1.1590     0.5170 H     1 <1>   0.0800 
 30 H       -1.2510    -3.3510     1.7770 H     1 <1>   0.1500 
 31 H       -1.9220    -1.8590    -2.1600 H     1 <1>   0.1500 
 32 H       -3.2450    -4.7460     1.5890 H     1 <1>   0.1500 
 33 H       -3.9260    -3.2630    -2.3440 H     1 <1>   0.1500 
 34 H       -3.9310   -10.7370     0.1200 H     1 <1>   0.0800 
 35 H       -2.5300   -10.8470     1.1420 H     1 <1>   0.0800 
 36 H       -0.9880    -8.6910     1.3130 H     1 <1>   0.0800 
 37 H       -1.4850    -7.2800     0.4360 H     1 <1>   0.0800 
 38 H       -6.8660    -9.9340     1.8010 H     1 <1>   0.0800 
 39 H       -7.7700   -10.5050     0.4140 H     1 <1>   0.0800 
 40 H       -8.5870    -9.6670     1.7220 H     1 <1>   0.0800 
 41 H       -8.4890    -7.0820    -0.8600 H     1 <1>   0.0800 
 42 H       -9.0880    -7.1170     0.7860 H     1 <1>   0.0800 
 43 H       -9.4420    -8.4370    -0.3160 H     1 <1>   0.0800 
 44 H       -2.5360   -10.4340    -1.8670 H     1 <1>   0.0800 
 45 H       -1.9980   -11.8600    -1.0100 H     1 <1>   0.0800 
 46 H        0.2930    -8.5690    -0.7610 H     1 <1>   0.0800 
 47 H       -1.1750    -8.4620    -1.7080 H     1 <1>   0.0800 
@<TRIPOS>BOND
  1   1   2  2   
  2   2   3  1   
  3   2   4  1   
  4   3   5  1   
  5   4   6  ar  
  6   4   7  ar  
  7   5  27  1   
  8   5  28  1   
  9   5  29  1   
 10   6   8  ar  
 11   6  30  1   
 12   7   9  ar  
 13   7  31  1   
 14   8  10  ar  
 15   8  32  1   
 16   9  10  ar  
 17   9  33  1   
 18  10  11  1   
 19  11  12  1   
 20  12  13  ar  
 21  12  14  ar  
 22  13  15  ar  
 23  14  16  ar  
 24  15  17  ar  
 25  15  18  1   
 26  16  17  ar  
 27  16  19  1   
 28  18  20  1   
 29  18  21  1   
 30  19  22  1   
 31  19  23  1   
 32  20  24  1   
 33  20  34  1   
 34  20  35  1   
 35  21  25  1   
 36  21  36  1   
 37  21  37  1   
 38  22  38  1   
 39  22  39  1   
 40  22  40  1   
 41  23  41  1   
 42  23  42  1   
 43  23  43  1   
 44  24  26  1   
 45  24  44  1   
 46  24  45  1   
 47  25  26  1   
 48  25  46  1   
 49  25  47  1   
@<TRIPOS>SUBSTRUCTURE
  1 ****  13 GROUP 4 **** **** 0

# MOE 2024.06 (io_trps.svl 2023.06)
