@<TRIPOS>MOLECULE
NONAME
31 31 1 0 0 
SMALL
USER_CHARGES


@<TRIPOS>ATOM
  1 I        0.5700    -0.4520    -0.6360 I     1 <1>  -0.0810 
  2 C       -1.4330    -1.0740    -0.2630 C.ar  1 <1>   0.0810 
  3 C       -1.7050    -2.4250    -0.1790 C.ar  1 <1>  -0.1500 
  4 C       -2.4100    -0.1110    -0.1140 C.ar  1 <1>  -0.1500 
  5 C       -3.0060    -2.8380     0.0650 C.ar  1 <1>  -0.1440 
  6 C       -3.7050    -0.5290     0.1250 C.ar  1 <1>  -0.1500 
  7 C       -4.0220    -1.8850     0.2190 C.ar  1 <1>   0.1170 
  8 C       -3.2780    -4.3370     0.1620 C.3   1 <1>  -0.0160 
  9 N       -5.3420    -2.3150     0.4390 N.am  1 <1>  -0.5470 
 10 C       -3.7890    -4.8880    -1.1720 C.3   1 <1>  -0.2400 
 11 C       -6.4280    -1.6920     0.9880 C.2   1 <1>   0.5690 
 12 O       -6.4150    -0.5730     1.4360 O.2   1 <1>  -0.5700 
 13 C       -7.7250    -2.4790     1.0420 C.3   1 <1>  -0.0990 
 14 C       -8.3450    -2.6820    -0.3510 C.3   1 <1>  -0.1600 
 15 C       -9.6520    -3.4750    -0.2670 C.3   1 <1>  -0.2400 
 16 H       -0.9090    -3.1380    -0.3040 H     1 <1>   0.1500 
 17 H       -2.1710     0.9350    -0.1830 H     1 <1>   0.1500 
 18 H       -4.4750     0.2120     0.2340 H     1 <1>   0.1500 
 19 H       -3.9870    -4.5390     0.9450 H     1 <1>   0.0800 
 20 H       -2.3700    -4.8520     0.4280 H     1 <1>   0.0800 
 21 H       -5.5050    -3.2780     0.1590 H     1 <1>   0.3700 
 22 H       -4.7000    -4.4000    -1.4660 H     1 <1>   0.0800 
 23 H       -3.9720    -5.9450    -1.0910 H     1 <1>   0.0800 
 24 H       -3.0540    -4.7270    -1.9410 H     1 <1>   0.0800 
 25 H       -8.4190    -1.9440     1.6670 H     1 <1>   0.0800 
 26 H       -7.5340    -3.4290     1.5050 H     1 <1>   0.0800 
 27 H       -7.6540    -3.2040    -0.9900 H     1 <1>   0.0800 
 28 H       -8.5400    -1.7190    -0.7940 H     1 <1>   0.0800 
 29 H       -9.4790    -4.4490     0.1540 H     1 <1>   0.0800 
 30 H      -10.0710    -3.5980    -1.2510 H     1 <1>   0.0800 
 31 H      -10.3690    -2.9540     0.3430 H     1 <1>   0.0800 
@<TRIPOS>BOND
  1   1   2  1   
  2   2   3  ar  
  3   2   4  ar  
  4   3   5  ar  
  5   3  16  1   
  6   4   6  ar  
  7   4  17  1   
  8   5   7  ar  
  9   5   8  1   
 10   6   7  ar  
 11   6  18  1   
 12   7   9  1   
 13   8  10  1   
 14   8  19  1   
 15   8  20  1   
 16   9  11  am  
 17   9  21  1   
 18  10  22  1   
 19  10  23  1   
 20  10  24  1   
 21  11  12  2   
 22  11  13  1   
 23  13  14  1   
 24  13  25  1   
 25  13  26  1   
 26  14  15  1   
 27  14  27  1   
 28  14  28  1   
 29  15  29  1   
 30  15  30  1   
 31  15  31  1   
@<TRIPOS>SUBSTRUCTURE
  1 ****   7 GROUP 4 **** **** 0

# MOE 2024.06 (io_trps.svl 2023.06)
