@<TRIPOS>MOLECULE
NONAME
26 26 1 0 0 
SMALL
USER_CHARGES


@<TRIPOS>ATOM
  1 CL       0.9220     1.3870    -2.6180 Cl    1 <1>  -0.1770 
  2 C        2.0930     1.7760    -1.3860 C.ar  1 <1>   0.1770 
  3 C        3.2010     0.9690    -1.2220 C.ar  1 <1>  -0.1500 
  4 C        1.8990     2.8870    -0.5890 C.ar  1 <1>  -0.1500 
  5 C        4.1290     1.2850    -0.2430 C.ar  1 <1>  -0.1500 
  6 C        2.8350     3.1910     0.3860 C.ar  1 <1>  -0.1500 
  7 C        3.9660     2.4000     0.5730 C.ar  1 <1>  -0.0090 
  8 S        5.2070     2.8230     1.8230 S.o2  1 <1>   1.2040 
  9 O        4.6890     3.8690     2.6770 O.2   1 <1>  -0.6500 
 10 O        5.7190     1.6030     2.4050 O.2   1 <1>  -0.6500 
 11 C        6.5190     3.5390     0.8340 C.3   1 <1>  -0.0550 
 12 C        6.1370     4.8740     0.1650 C.3   1 <1>  -0.0990 
 13 C        7.2710     5.4370    -0.6730 C.2   1 <1>   0.4480 
 14 O        8.2200     4.7800    -0.9680 O.2   1 <1>  -0.5700 
 15 C        7.1370     6.8720    -1.1310 C.3   1 <1>  -0.1790 
 16 H        3.3310     0.1050    -1.8510 H     1 <1>   0.1500 
 17 H        1.0260     3.4990    -0.7300 H     1 <1>   0.1500 
 18 H        4.9900     0.6490    -0.1090 H     1 <1>   0.1500 
 19 H        2.6800     4.0550     1.0130 H     1 <1>   0.1500 
 20 H        6.8190     2.8380     0.0780 H     1 <1>   0.0800 
 21 H        7.3730     3.7090     1.4630 H     1 <1>   0.0800 
 22 H        5.8800     5.5890     0.9270 H     1 <1>   0.0800 
 23 H        5.2830     4.7360    -0.4720 H     1 <1>   0.0800 
 24 H        6.2470     6.9900    -1.7200 H     1 <1>   0.0800 
 25 H        7.9880     7.1390    -1.7310 H     1 <1>   0.0800 
 26 H        7.0950     7.5270    -0.2810 H     1 <1>   0.0800 
@<TRIPOS>BOND
  1   1   2  1   
  2   2   3  ar  
  3   2   4  ar  
  4   3   5  ar  
  5   3  16  1   
  6   4   6  ar  
  7   4  17  1   
  8   5   7  ar  
  9   5  18  1   
 10   6   7  ar  
 11   6  19  1   
 12   7   8  1   
 13   8   9  2   
 14   8  10  2   
 15   8  11  1   
 16  11  12  1   
 17  11  20  1   
 18  11  21  1   
 19  12  13  1   
 20  12  22  1   
 21  12  23  1   
 22  13  14  2   
 23  13  15  1   
 24  15  24  1   
 25  15  25  1   
 26  15  26  1   
@<TRIPOS>SUBSTRUCTURE
  1 ****   7 GROUP 4 **** **** 0

# MOE 2024.06 (io_trps.svl 2023.06)
