@<TRIPOS>MOLECULE
NONAME
39 39 1 0 0 
SMALL
USER_CHARGES


@<TRIPOS>ATOM
  1 S        0.2760    -0.1550     0.0450 S.o2  1 <1>   1.3330 
  2 O       -0.0570    -1.4670     0.5380 O.2   1 <1>  -0.6500 
  3 O       -0.6900     0.9140     0.0400 O.2   1 <1>  -0.6500 
  4 N        1.6360     0.3450     0.9650 N.am  1 <1>  -0.7570 
  5 C        0.9790    -0.3180    -1.5820 C.3   1 <1>  -0.1350 
  6 C        2.3370     1.5290     0.7760 C.ar  1 <1>   0.1990 
  7 C        3.7210     1.5230     0.5210 C.ar  1 <1>   0.0860 
  8 C        1.6630     2.7450     0.8510 C.ar  1 <1>  -0.1500 
  9 C        4.4750     0.2890     0.4620 C.2   1 <1>   0.5440 
 10 C        4.3620     2.7490     0.3200 C.ar  1 <1>  -0.1500 
 11 C        2.3190     3.9430     0.6570 C.ar  1 <1>  -0.1500 
 12 O        3.9870    -0.7120    -0.0330 O.2   1 <1>  -0.5700 
 13 N        5.7420     0.2330     0.9800 N.am  1 <1>  -0.7300 
 14 C        3.6760     3.9450     0.3860 C.ar  1 <1>  -0.1500 
 15 C        6.6780    -0.9120     1.0160 C.3   1 <1>   0.2200 
 16 C        6.9940    -1.3890    -0.4110 C.3   1 <1>  -0.1600 
 17 C        6.1050    -2.0070     1.9170 C.3   1 <1>  -0.2400 
 18 C        8.1810    -2.3630    -0.4700 C.3   1 <1>  -0.1600 
 19 C        8.5070    -2.7420    -1.9170 C.3   1 <1>  -0.2400 
 20 H        2.2300    -0.4810     1.0850 H     1 <1>   0.4200 
 21 H        1.7860    -1.0250    -1.5690 H     1 <1>   0.0800 
 22 H        1.3540     0.6270    -1.9210 H     1 <1>   0.0800 
 23 H        0.2330    -0.6610    -2.2710 H     1 <1>   0.0800 
 24 H        0.6100     2.7520     1.0720 H     1 <1>   0.1500 
 25 H        5.4150     2.7660     0.0990 H     1 <1>   0.1500 
 26 H        1.7770     4.8720     0.7170 H     1 <1>   0.1500 
 27 H        6.0740     1.0440     1.5030 H     1 <1>   0.3700 
 28 H        4.1890     4.8790     0.2280 H     1 <1>   0.1500 
 29 H        7.5950    -0.5620     1.4590 H     1 <1>   0.0800 
 30 H        7.2270    -0.5290    -1.0140 H     1 <1>   0.0800 
 31 H        6.1280    -1.8680    -0.8330 H     1 <1>   0.0800 
 32 H        5.2350    -2.4520     1.4670 H     1 <1>   0.0800 
 33 H        5.8380    -1.5980     2.8740 H     1 <1>   0.0800 
 34 H        6.8340    -2.7790     2.0750 H     1 <1>   0.0800 
 35 H        7.9490    -3.2600     0.0790 H     1 <1>   0.0800 
 36 H        9.0480    -1.9100    -0.0200 H     1 <1>   0.0800 
 37 H        7.6590    -3.2150    -2.3810 H     1 <1>   0.0800 
 38 H        9.3350    -3.4280    -1.9410 H     1 <1>   0.0800 
 39 H        8.7700    -1.8680    -2.4860 H     1 <1>   0.0800 
@<TRIPOS>BOND
  1   1   2  2   
  2   1   3  2   
  3   1   4  am  
  4   1   5  1   
  5   4   6  1   
  6   4  20  1   
  7   5  21  1   
  8   5  22  1   
  9   5  23  1   
 10   6   7  ar  
 11   6   8  ar  
 12   7   9  1   
 13   7  10  ar  
 14   8  11  ar  
 15   8  24  1   
 16   9  12  2   
 17   9  13  am  
 18  10  14  ar  
 19  10  25  1   
 20  11  14  ar  
 21  11  26  1   
 22  13  15  1   
 23  13  27  1   
 24  14  28  1   
 25  15  16  1   
 26  15  17  1   
 27  15  29  1   
 28  16  18  1   
 29  16  30  1   
 30  16  31  1   
 31  17  32  1   
 32  17  33  1   
 33  17  34  1   
 34  18  19  1   
 35  18  35  1   
 36  18  36  1   
 37  19  37  1   
 38  19  38  1   
 39  19  39  1   
@<TRIPOS>SUBSTRUCTURE
  1 ****   9 GROUP 4 **** **** 0

# MOE 2024.06 (io_trps.svl 2023.06)
