@<TRIPOS>MOLECULE
NONAME
25 25 1 0 0 
SMALL
USER_CHARGES


@<TRIPOS>ATOM
  1 BR      -0.6130    -0.3500     1.9300 Br    1 <1>  -0.1110 
  2 C       -0.3490    -1.9180     0.8320 C.ar  1 <1>   0.1110 
  3 C       -1.4360    -2.4530     0.1440 C.ar  1 <1>   0.1170 
  4 C        0.9250    -2.4500     0.7740 C.ar  1 <1>  -0.1500 
  5 N       -2.7010    -1.8420     0.2650 N.am  1 <1>  -0.5470 
  6 C       -1.1880    -3.5850    -0.6280 C.ar  1 <1>  -0.1500 
  7 C        1.1390    -3.5750    -0.0040 C.ar  1 <1>  -0.1500 
  8 C       -3.9000    -2.0670    -0.3550 C.2   1 <1>   0.5690 
  9 C        0.0820    -4.1370    -0.7010 C.ar  1 <1>  -0.1500 
 10 O       -4.0690    -2.9150    -1.1970 O.2   1 <1>  -0.5700 
 11 C       -5.0810    -1.1770     0.0510 C.3   1 <1>  -0.0190 
 12 C       -6.2530    -2.0070     0.5990 C.3   1 <1>  -0.2400 
 13 C       -5.5560    -0.3060    -1.1240 C.3   1 <1>  -0.2400 
 14 H        1.7300    -1.9980     1.3240 H     1 <1>   0.1500 
 15 H       -2.7090    -1.0690     0.9280 H     1 <1>   0.3700 
 16 H       -1.9830    -4.0510    -1.1800 H     1 <1>   0.1500 
 17 H        2.1210    -4.0110    -0.0680 H     1 <1>   0.1500 
 18 H        0.2460    -5.0120    -1.3070 H     1 <1>   0.1500 
 19 H       -4.7550    -0.5180     0.8360 H     1 <1>   0.0800 
 20 H       -6.6270    -2.6710    -0.1620 H     1 <1>   0.0800 
 21 H       -7.0540    -1.3650     0.9210 H     1 <1>   0.0800 
 22 H       -5.9290    -2.5990     1.4360 H     1 <1>   0.0800 
 23 H       -5.9070    -0.9270    -1.9290 H     1 <1>   0.0800 
 24 H       -4.7440     0.2970    -1.4910 H     1 <1>   0.0800 
 25 H       -6.3550     0.3440    -0.8140 H     1 <1>   0.0800 
@<TRIPOS>BOND
  1   1   2  1   
  2   2   3  ar  
  3   2   4  ar  
  4   3   5  1   
  5   3   6  ar  
  6   4   7  ar  
  7   4  14  1   
  8   5   8  am  
  9   5  15  1   
 10   6   9  ar  
 11   6  16  1   
 12   7   9  ar  
 13   7  17  1   
 14   8  10  2   
 15   8  11  1   
 16   9  18  1   
 17  11  12  1   
 18  11  13  1   
 19  11  19  1   
 20  12  20  1   
 21  12  21  1   
 22  12  22  1   
 23  13  23  1   
 24  13  24  1   
 25  13  25  1   
@<TRIPOS>SUBSTRUCTURE
  1 ****   5 GROUP 4 **** **** 0

# MOE 2024.06 (io_trps.svl 2023.06)
