@<TRIPOS>MOLECULE
NONAME
44 46 1 0 0 
SMALL
USER_CHARGES


@<TRIPOS>ATOM
  1 O        1.2080    -0.2090     0.8320 O.co2 1 <1>  -0.9000 
  2 C        1.8400    -1.1360     1.3420 C.2   1 <1>   0.9060 
  3 O        2.6940    -0.9300     2.2150 O.co2 1 <1>  -0.9000 
  4 C        1.5630    -2.5660     0.8980 C.3   1 <1>  -0.1860 
  5 C        2.6340    -3.6090     1.3170 C.3   1 <1>  -0.0190 
  6 C        1.3080    -2.6580    -0.6150 C.3   1 <1>  -0.0220 
  7 C        4.0230    -3.4100     0.6740 C.2   1 <1>   0.5690 
  8 C        2.0530    -5.0150     1.0600 C.3   1 <1>  -0.0220 
  9 C        1.0960    -4.0990    -1.0820 C.2   1 <1>  -0.2760 
 10 O        4.5180    -4.2830    -0.0030 O.2   1 <1>  -0.5700 
 11 N        4.6820    -2.2480     0.9510 N.am  1 <1>  -0.5470 
 12 C        1.4110    -5.1600    -0.3210 C.2   1 <1>  -0.2760 
 13 C        0.5100    -4.1280    -2.4890 C.3   1 <1>  -0.1020 
 14 C        5.9250    -1.7250     0.5670 C.ar  1 <1>   0.1170 
 15 C        1.2050    -6.6280    -0.6770 C.3   1 <1>  -0.1020 
 16 C        6.9630    -2.4990     0.0560 C.ar  1 <1>  -0.1500 
 17 C        6.1260    -0.3590     0.7280 C.ar  1 <1>  -0.1500 
 18 C        8.1720    -1.9180    -0.2830 C.ar  1 <1>   0.0820 
 19 C        7.3290     0.2340     0.3850 C.ar  1 <1>  -0.1500 
 20 O        9.1720    -2.7060    -0.7600 O.3   1 <1>  -0.3620 
 21 C        8.3550    -0.5410    -0.1270 C.ar  1 <1>   0.0820 
 22 C       10.4700    -2.1450    -0.7890 C.3   1 <1>   0.1200 
 23 O        9.5260     0.0600    -0.4720 O.3   1 <1>  -0.3630 
 24 C       10.4080    -0.6930    -1.2820 C.3   1 <1>   0.1200 
 25 H        0.6460    -2.8290     1.3890 H     1 <1>   0.0800 
 26 H        2.7840    -3.5210     2.3780 H     1 <1>   0.0800 
 27 H        2.1380    -2.2280    -1.1490 H     1 <1>   0.0800 
 28 H        0.4350    -2.0690    -0.8430 H     1 <1>   0.0800 
 29 H        1.3020    -5.2220     1.8010 H     1 <1>   0.0800 
 30 H        2.8340    -5.7450     1.1840 H     1 <1>   0.0800 
 31 H        4.1000    -1.5920     1.5090 H     1 <1>   0.3700 
 32 H       -0.4750    -3.6990    -2.4810 H     1 <1>   0.0800 
 33 H        0.4460    -5.1180    -2.8930 H     1 <1>   0.0800 
 34 H        1.1320    -3.5490    -3.1480 H     1 <1>   0.0800 
 35 H        0.6590    -7.1200     0.1070 H     1 <1>   0.0800 
 36 H        2.1610    -7.1080    -0.7860 H     1 <1>   0.0800 
 37 H        0.6570    -6.7620    -1.5870 H     1 <1>   0.0800 
 38 H        6.8370    -3.5560    -0.0750 H     1 <1>   0.1500 
 39 H        5.3230     0.2410     1.1260 H     1 <1>   0.1500 
 40 H        7.4720     1.2910     0.5090 H     1 <1>   0.1500 
 41 H       11.0760    -2.7460    -1.4420 H     1 <1>   0.0800 
 42 H       10.8740    -2.1860     0.2070 H     1 <1>   0.0800 
 43 H       10.0460    -0.6580    -2.2940 H     1 <1>   0.0800 
 44 H       11.3770    -0.2310    -1.2350 H     1 <1>   0.0800 
@<TRIPOS>BOND
  1   1   2  ar  
  2   2   3  ar  
  3   2   4  1   
  4   4   5  1   
  5   4   6  1   
  6   4  25  1   
  7   5   7  1   
  8   5   8  1   
  9   5  26  1   
 10   6   9  1   
 11   6  27  1   
 12   6  28  1   
 13   7  10  2   
 14   7  11  am  
 15   8  12  1   
 16   8  29  1   
 17   8  30  1   
 18   9  12  2   
 19   9  13  1   
 20  11  14  1   
 21  11  31  1   
 22  12  15  1   
 23  13  32  1   
 24  13  33  1   
 25  13  34  1   
 26  14  16  ar  
 27  14  17  ar  
 28  15  35  1   
 29  15  36  1   
 30  15  37  1   
 31  16  18  ar  
 32  16  38  1   
 33  17  19  ar  
 34  17  39  1   
 35  18  20  1   
 36  18  21  ar  
 37  19  21  ar  
 38  19  40  1   
 39  20  22  1   
 40  21  23  1   
 41  22  24  1   
 42  22  41  1   
 43  22  42  1   
 44  23  24  1   
 45  24  43  1   
 46  24  44  1   
@<TRIPOS>SUBSTRUCTURE
  1 ****  11 GROUP 4 **** **** 0

# MOE 2024.06 (io_trps.svl 2023.06)
