@<TRIPOS>MOLECULE
NONAME
47 48 1 0 0 
SMALL
USER_CHARGES


@<TRIPOS>ATOM
  1 S        0.9070    -1.6770    -0.5650 S.o2  1 <1>   1.4470 
  2 O        0.4970    -2.9520    -0.0160 O.2   1 <1>  -0.6500 
  3 O        1.9090    -1.6270    -1.6040 O.2   1 <1>  -0.6500 
  4 N        1.5420    -0.7690     0.7720 N.am  1 <1>  -0.6930 
  5 C       -0.5580    -0.7140    -1.0280 C.ar  1 <1>  -0.0090 
  6 C        1.9510     0.5480     0.5970 C.ar  1 <1>   0.1990 
  7 C        2.1440    -1.5480     1.8770 C.3   1 <1>   0.1160 
  8 C       -1.8250    -1.0570    -0.5710 C.ar  1 <1>  -0.1500 
  9 C       -0.4440     0.4190    -1.8260 C.ar  1 <1>  -0.1500 
 10 C        1.1870     1.6140     1.0660 C.ar  1 <1>  -0.1430 
 11 C        3.1430     0.8180    -0.0610 C.ar  1 <1>  -0.1500 
 12 C       -2.9360    -0.3000    -0.8970 C.ar  1 <1>  -0.1500 
 13 C       -1.5510     1.1820    -2.1550 C.ar  1 <1>  -0.1500 
 14 C        1.6240     2.9070     0.8480 C.ar  1 <1>  -0.1500 
 15 C       -0.1300     1.3960     1.8020 C.3   1 <1>  -0.0970 
 16 C        3.6030     2.1090    -0.2810 C.ar  1 <1>  -0.0090 
 17 C       -2.8050     0.8250    -1.6920 C.ar  1 <1>  -0.1430 
 18 C        2.8130     3.1650     0.1830 C.ar  1 <1>  -0.1430 
 19 S        5.1880     2.3480    -1.1470 S.o2  1 <1>   1.4470 
 20 C       -4.0210     1.6600    -2.0500 C.3   1 <1>  -0.0970 
 21 C        3.2170     4.6200    -0.0240 C.3   1 <1>  -0.0960 
 22 O        5.0410     3.2590    -2.2600 O.2   1 <1>  -0.6500 
 23 O        5.8600     1.0840    -1.3390 O.2   1 <1>  -0.6500 
 24 N        6.1670     3.1080    -0.0120 N.am  1 <1>  -0.9140 
 25 C        7.2900     3.8290    -0.6050 C.3   1 <1>   0.1160 
 26 H        1.3890    -2.1570     2.3450 H     1 <1>   0.0800 
 27 H        2.5650    -0.8860     2.6120 H     1 <1>   0.0800 
 28 H        2.9190    -2.1870     1.4900 H     1 <1>   0.0800 
 29 H       -1.9440    -1.9300     0.0500 H     1 <1>   0.1500 
 30 H        0.5270     0.7110    -2.1910 H     1 <1>   0.1500 
 31 H        3.7210    -0.0170    -0.4190 H     1 <1>   0.1500 
 32 H       -3.9050    -0.5910    -0.5280 H     1 <1>   0.1500 
 33 H       -1.4280     2.0550    -2.7730 H     1 <1>   0.1500 
 34 H        1.0250     3.7280     1.2020 H     1 <1>   0.1500 
 35 H       -0.3760     2.2510     2.4040 H     1 <1>   0.0800 
 36 H       -0.9230     1.2390     1.0930 H     1 <1>   0.0800 
 37 H       -0.0700     0.5400     2.4490 H     1 <1>   0.0800 
 38 H       -4.8970     1.0390    -2.1140 H     1 <1>   0.0800 
 39 H       -3.8800     2.1440    -3.0000 H     1 <1>   0.0800 
 40 H       -4.1820     2.4110    -1.2980 H     1 <1>   0.0800 
 41 H        2.4720     5.2890     0.3680 H     1 <1>   0.0800 
 42 H        3.3300     4.8330    -1.0720 H     1 <1>   0.0800 
 43 H        4.1440     4.8280     0.4790 H     1 <1>   0.0800 
 44 H        6.5520     2.3250     0.5140 H     1 <1>   0.4200 
 45 H        6.9280     4.6530    -1.2000 H     1 <1>   0.0800 
 46 H        7.8680     3.1730    -1.2350 H     1 <1>   0.0800 
 47 H        7.9240     4.2200     0.1720 H     1 <1>   0.0800 
@<TRIPOS>BOND
  1   1   2  2   
  2   1   3  2   
  3   1   4  am  
  4   1   5  1   
  5   4   6  1   
  6   4   7  1   
  7   5   8  ar  
  8   5   9  ar  
  9   6  10  ar  
 10   6  11  ar  
 11   7  26  1   
 12   7  27  1   
 13   7  28  1   
 14   8  12  ar  
 15   8  29  1   
 16   9  13  ar  
 17   9  30  1   
 18  10  14  ar  
 19  10  15  1   
 20  11  16  ar  
 21  11  31  1   
 22  12  17  ar  
 23  12  32  1   
 24  13  17  ar  
 25  13  33  1   
 26  14  18  ar  
 27  14  34  1   
 28  15  35  1   
 29  15  36  1   
 30  15  37  1   
 31  16  18  ar  
 32  16  19  1   
 33  17  20  1   
 34  18  21  1   
 35  19  22  2   
 36  19  23  2   
 37  19  24  am  
 38  20  38  1   
 39  20  39  1   
 40  20  40  1   
 41  21  41  1   
 42  21  42  1   
 43  21  43  1   
 44  24  25  1   
 45  24  44  1   
 46  25  45  1   
 47  25  46  1   
 48  25  47  1   
@<TRIPOS>SUBSTRUCTURE
  1 ****   6 GROUP 4 **** **** 0

# MOE 2024.06 (io_trps.svl 2023.06)
