@<TRIPOS>MOLECULE
NONAME
42 45 1 0 0 
SMALL
USER_CHARGES


@<TRIPOS>ATOM
  1 O        0.0170     0.7520     0.6300 O.2   1 <1>  -0.5700 
  2 C        0.4300     1.8550     0.3770 C.2   1 <1>   0.5690 
  3 N        1.7410     2.2630     0.2060 N.am  1 <1>  -0.2370 
  4 C       -0.4250     3.0820     0.2660 C.3   1 <1>  -0.0190 
  5 C        2.8750     1.4350     0.3350 C.ar  1 <1>   0.1170 
  6 C        1.7500     3.5600    -0.2810 C.2   1 <1>   0.5690 
  7 C       -1.8700     3.5270     0.0040 C.3   1 <1>   0.1960 
  8 C        0.3700     3.8410    -0.8010 C.3   1 <1>  -0.0190 
  9 C        3.7040     1.1650    -0.7570 C.ar  1 <1>   0.0830 
 10 C        3.1880     0.8710     1.5660 C.ar  1 <1>  -0.1500 
 11 O        2.6660     4.3420    -0.3130 O.2   1 <1>  -0.5700 
 12 C       -1.5230     5.0120     0.0760 C.2   1 <1>  -0.2760 
 13 C       -2.2600     3.5250    -1.4670 C.2   1 <1>  -0.2880 
 14 C       -0.5540     5.0440    -1.0960 C.3   1 <1>   0.1960 
 15 O        3.4030     1.6880    -1.9730 O.3   1 <1>  -0.3630 
 16 C        4.8180     0.3520    -0.6090 C.ar  1 <1>  -0.1500 
 17 C        4.3030     0.0640     1.7130 C.ar  1 <1>  -0.1500 
 18 C       -1.9310     5.9820     0.9090 C.2   1 <1>  -0.2760 
 19 C       -1.5340     4.4510    -2.0980 C.2   1 <1>  -0.2880 
 20 C        4.3640     2.5410    -2.5550 C.3   1 <1>   0.0400 
 21 C        5.1190    -0.1950     0.6260 C.ar  1 <1>  -0.1500 
 22 C       -2.9180     5.7780     2.0500 C.3   1 <1>  -0.1020 
 23 C       -1.4620     7.4280     0.8270 C.3   1 <1>  -0.1020 
 24 H       -0.2240     3.5230     1.2330 H     1 <1>   0.0800 
 25 H       -2.6160     3.1890     0.7000 H     1 <1>   0.0800 
 26 H        0.3870     3.2660    -1.7140 H     1 <1>   0.0800 
 27 H        2.5540     1.0620     2.4140 H     1 <1>   0.1500 
 28 H       -3.0220     2.8540    -1.8260 H     1 <1>   0.1500 
 29 H       -0.0970     5.9770    -1.3760 H     1 <1>   0.0800 
 30 H        5.4440     0.1360    -1.4560 H     1 <1>   0.1500 
 31 H        4.5330    -0.3650     2.6730 H     1 <1>   0.1500 
 32 H       -1.5270     4.7690    -3.1270 H     1 <1>   0.1500 
 33 H        3.9230     3.0040    -3.4190 H     1 <1>   0.0800 
 34 H        5.2220     1.9630    -2.8470 H     1 <1>   0.0800 
 35 H        4.6410     3.2950    -1.8380 H     1 <1>   0.0800 
 36 H        5.9850    -0.8260     0.7400 H     1 <1>   0.1500 
 37 H       -2.4590     6.0410     2.9860 H     1 <1>   0.0800 
 38 H       -3.2530     4.7610     2.1160 H     1 <1>   0.0800 
 39 H       -3.7810     6.4020     1.9030 H     1 <1>   0.0800 
 40 H       -2.3030     8.0780     0.6630 H     1 <1>   0.0800 
 41 H       -0.7650     7.5800     0.0260 H     1 <1>   0.0800 
 42 H       -0.9810     7.7130     1.7460 H     1 <1>   0.0800 
@<TRIPOS>BOND
  1   1   2  2   
  2   2   3  am  
  3   2   4  1   
  4   3   5  1   
  5   3   6  am  
  6   4   7  1   
  7   4   8  1   
  8   4  24  1   
  9   5   9  ar  
 10   5  10  ar  
 11   6   8  1   
 12   6  11  2   
 13   7  12  1   
 14   7  13  1   
 15   7  25  1   
 16   8  14  1   
 17   8  26  1   
 18   9  15  1   
 19   9  16  ar  
 20  10  17  ar  
 21  10  27  1   
 22  12  14  1   
 23  12  18  2   
 24  13  19  2   
 25  13  28  1   
 26  14  19  1   
 27  14  29  1   
 28  15  20  1   
 29  16  21  ar  
 30  16  30  1   
 31  17  21  ar  
 32  17  31  1   
 33  18  22  1   
 34  18  23  1   
 35  19  32  1   
 36  20  33  1   
 37  20  34  1   
 38  20  35  1   
 39  21  36  1   
 40  22  37  1   
 41  22  38  1   
 42  22  39  1   
 43  23  40  1   
 44  23  41  1   
 45  23  42  1   
@<TRIPOS>SUBSTRUCTURE
  1 ****   6 GROUP 4 **** **** 0

# MOE 2024.06 (io_trps.svl 2023.06)
