@<TRIPOS>MOLECULE
NONAME
39 41 1 0 0 
SMALL
USER_CHARGES


@<TRIPOS>ATOM
  1 CL       0.2350    -0.4360     0.4900 Cl    1 <1>  -0.1770 
  2 C        1.7930     0.2940     0.8120 C.ar  1 <1>   0.1770 
  3 C        2.9530    -0.3270     0.3530 C.ar  1 <1>   0.1170 
  4 C        1.8220     1.4820     1.5190 C.ar  1 <1>  -0.1500 
  5 N        2.8950    -1.5540    -0.3400 N.am  1 <1>  -0.5470 
  6 C        4.1580     0.3290     0.6140 C.ar  1 <1>   0.1770 
  7 C        3.0350     2.0970     1.7810 C.ar  1 <1>  -0.1500 
  8 C        3.4480    -2.7310     0.0750 C.2   1 <1>   0.5690 
  9 CL       5.6690    -0.3200     0.0090 Cl    1 <1>  -0.1770 
 10 C        4.2070     1.5170     1.3220 C.ar  1 <1>  -0.1500 
 11 O        3.9740    -2.8350     1.1560 O.2   1 <1>  -0.5700 
 12 C        3.4110    -3.9300    -0.8630 C.3   1 <1>  -0.0190 
 13 C        2.3300    -5.0130    -0.5910 C.3   1 <1>   0.2800 
 14 C        4.7310    -4.7090    -0.8790 C.3   1 <1>  -0.0990 
 15 O        2.9600    -6.2110    -0.9750 O.3   1 <1>  -0.4300 
 16 C        1.9110    -5.2080     0.8840 C.3   1 <1>  -0.1600 
 17 C        1.0880    -4.8830    -1.4950 C.3   1 <1>  -0.1600 
 18 C        4.2600    -6.1030    -1.1430 C.2   1 <1>   0.6590 
 19 C        0.8620    -4.1950     1.3830 C.3   1 <1>  -0.1600 
 20 C        0.0950    -3.8200    -1.0060 C.3   1 <1>  -0.1600 
 21 O        4.9640    -7.0090    -1.4930 O.2   1 <1>  -0.5700 
 22 C       -0.3400    -4.1050     0.4350 C.3   1 <1>  -0.1600 
 23 H        0.9010     1.9220     1.8620 H     1 <1>   0.1500 
 24 H        2.2750    -1.5850    -1.1490 H     1 <1>   0.3700 
 25 H        3.0680     3.0210     2.3340 H     1 <1>   0.1500 
 26 H        5.1580     1.9850     1.5080 H     1 <1>   0.1500 
 27 H        3.2610    -3.5540    -1.8580 H     1 <1>   0.0800 
 28 H        5.2300    -4.6990     0.0730 H     1 <1>   0.0800 
 29 H        5.3980    -4.3700    -1.6500 H     1 <1>   0.0800 
 30 H        2.7750    -5.1730     1.5250 H     1 <1>   0.0800 
 31 H        1.4790    -6.1890     0.9800 H     1 <1>   0.0800 
 32 H        0.5750    -5.8310    -1.5000 H     1 <1>   0.0800 
 33 H        1.3790    -4.6700    -2.5080 H     1 <1>   0.0800 
 34 H        1.2990    -3.2200     1.4950 H     1 <1>   0.0800 
 35 H        0.5210    -4.4960     2.3590 H     1 <1>   0.0800 
 36 H       -0.7730    -3.8220    -1.6430 H     1 <1>   0.0800 
 37 H        0.5370    -2.8430    -1.0650 H     1 <1>   0.0800 
 38 H       -1.0050    -3.3290     0.7730 H     1 <1>   0.0800 
 39 H       -0.8820    -5.0350     0.4640 H     1 <1>   0.0800 
@<TRIPOS>BOND
  1   1   2  1   
  2   2   3  ar  
  3   2   4  ar  
  4   3   5  1   
  5   3   6  ar  
  6   4   7  ar  
  7   4  23  1   
  8   5   8  am  
  9   5  24  1   
 10   6   9  1   
 11   6  10  ar  
 12   7  10  ar  
 13   7  25  1   
 14   8  11  2   
 15   8  12  1   
 16  10  26  1   
 17  12  13  1   
 18  12  14  1   
 19  12  27  1   
 20  13  15  1   
 21  13  16  1   
 22  13  17  1   
 23  14  18  1   
 24  14  28  1   
 25  14  29  1   
 26  15  18  1   
 27  16  19  1   
 28  16  30  1   
 29  16  31  1   
 30  17  20  1   
 31  17  32  1   
 32  17  33  1   
 33  18  21  2   
 34  19  22  1   
 35  19  34  1   
 36  19  35  1   
 37  20  22  1   
 38  20  36  1   
 39  20  37  1   
 40  22  38  1   
 41  22  39  1   
@<TRIPOS>SUBSTRUCTURE
  1 ****   8 GROUP 4 **** **** 0

# MOE 2024.06 (io_trps.svl 2023.06)
