@<TRIPOS>MOLECULE
NONAME
35 37 1 0 0 
SMALL
USER_CHARGES


@<TRIPOS>ATOM
  1 BR      -0.3160    -0.2000    -1.6630 Br    1 <1>  -0.0570 
  2 C        0.0530     1.5260    -0.8460 C.2   1 <1>   0.0570 
  3 C        1.2650     1.9910    -0.4800 C.2   1 <1>  -0.0680 
  4 C       -0.8890     2.4930    -0.5230 C.2   1 <1>   0.1080 
  5 N        1.0220     3.2320     0.0180 N.pl3 1 <1>   0.3140 
  6 N        2.5490     1.4190    -0.5200 N.pl3 1 <1>  -0.8530 
  7 N       -0.3100     3.5290     0.0160 N.2   1 <1>  -0.7070 
  8 C       -2.3890     2.3820    -0.7580 C.3   1 <1>   0.3010 
  9 C        2.0660     4.0560     0.6660 C.3   1 <1>   0.1760 
 10 C        3.4950     1.9160     0.4980 C.3   1 <1>   0.4330 
 11 O       -2.8970     1.2550    -0.1200 O.3   1 <1>  -0.6800 
 12 C        1.9670     5.5110     0.1860 C.3   1 <1>   1.0200 
 13 C        3.4830     3.4480     0.4400 C.3   1 <1>  -0.1600 
 14 C        4.8870     1.3580     0.2330 C.ar  1 <1>  -0.1440 
 15 F        2.9940     6.2270     0.6330 F     1 <1>  -0.3400 
 16 F        0.8840     6.1520     0.6070 F     1 <1>  -0.3400 
 17 F        1.9980     5.6340    -1.1370 F     1 <1>  -0.3400 
 18 C        5.6390     0.8430     1.2810 C.ar  1 <1>  -0.1500 
 19 C        5.4290     1.3590    -1.0460 C.ar  1 <1>  -0.1500 
 20 C        6.9080     0.3400     1.0540 C.ar  1 <1>  -0.1500 
 21 C        6.6980     0.8570    -1.2740 C.ar  1 <1>  -0.1500 
 22 C        7.4390     0.3470    -0.2230 C.ar  1 <1>  -0.1500 
 23 H        2.5790     0.3940    -0.5950 H     1 <1>   0.4000 
 24 H       -2.5960     2.2990    -1.8100 H     1 <1>   0.0800 
 25 H       -2.8950     3.2460    -0.3620 H     1 <1>   0.0800 
 26 H        1.8540     4.0480     1.7170 H     1 <1>   0.0800 
 27 H        3.1570     1.5880     1.4680 H     1 <1>   0.0800 
 28 H       -2.3270     0.4870    -0.3140 H     1 <1>   0.4000 
 29 H        4.1630     3.8340     1.1770 H     1 <1>   0.0800 
 30 H        3.8560     3.7490    -0.5240 H     1 <1>   0.0800 
 31 H        5.2440     0.8280     2.2820 H     1 <1>   0.1500 
 32 H        4.8590     1.7500    -1.8720 H     1 <1>   0.1500 
 33 H        7.4850    -0.0580     1.8720 H     1 <1>   0.1500 
 34 H        7.1070     0.8620    -2.2690 H     1 <1>   0.1500 
 35 H        8.4260    -0.0440    -0.3990 H     1 <1>   0.1500 
@<TRIPOS>BOND
  1   1   2  1   
  2   2   3  2   
  3   2   4  1   
  4   3   5  1   
  5   3   6  1   
  6   4   7  2   
  7   4   8  1   
  8   5   7  1   
  9   5   9  1   
 10   6  10  1   
 11   6  23  1   
 12   8  11  1   
 13   8  24  1   
 14   8  25  1   
 15   9  12  1   
 16   9  13  1   
 17   9  26  1   
 18  10  13  1   
 19  10  14  1   
 20  10  27  1   
 21  11  28  1   
 22  12  15  1   
 23  12  16  1   
 24  12  17  1   
 25  13  29  1   
 26  13  30  1   
 27  14  18  ar  
 28  14  19  ar  
 29  18  20  ar  
 30  18  31  1   
 31  19  21  ar  
 32  19  32  1   
 33  20  22  ar  
 34  20  33  1   
 35  21  22  ar  
 36  21  34  1   
 37  22  35  1   
@<TRIPOS>SUBSTRUCTURE
  1 ****   6 GROUP 4 **** **** 0

# MOE 2024.06 (io_trps.svl 2023.06)
