@<TRIPOS>MOLECULE
NONAME
49 51 1 0 0 
SMALL
USER_CHARGES


@<TRIPOS>ATOM
  1 O       -0.6460     1.7980     0.2830 O.2   1 <1>  -0.5700 
  2 C       -0.2150     2.5180    -0.5970 C.2   1 <1>   0.5440 
  3 N       -1.1110     3.0150    -1.5060 N.am  1 <1>  -0.7300 
  4 C        1.2000     2.8320    -0.6900 C.ar  1 <1>   0.0860 
  5 C       -2.5550     2.6570    -1.5820 C.3   1 <1>   0.1400 
  6 C        2.1630     1.9300    -0.2390 C.ar  1 <1>  -0.1500 
  7 C        1.6540     4.0380    -1.2300 C.ar  1 <1>  -0.1500 
  8 C       -3.2960     2.9820    -0.2650 C.3   1 <1>   0.3430 
  9 C        3.5160     2.2080    -0.3300 C.ar  1 <1>   0.0820 
 10 C        3.0040     4.3230    -1.3330 C.ar  1 <1>  -0.1500 
 11 N       -4.1420     1.8490     0.2410 N.4   1 <1>  -0.9590 
 12 O        4.3930     1.2750     0.1180 O.3   1 <1>  -0.1650 
 13 C        3.9390     3.4070    -0.8890 C.ar  1 <1>  -0.1500 
 14 C       -5.0350     2.3220     1.3370 C.3   1 <1>   0.3430 
 15 C       -3.2830     0.7160     0.7120 C.3   1 <1>   0.3430 
 16 C        5.5690     1.6190     0.6990 C.ar  1 <1>   0.0820 
 17 C       -5.9640     1.1860     1.7710 C.3   1 <1>  -0.1600 
 18 C       -4.1640    -0.4610     1.1350 C.3   1 <1>  -0.1600 
 19 C        6.6980     0.8790     0.3840 C.ar  1 <1>  -0.1500 
 20 C        5.6610     2.6730     1.6010 C.ar  1 <1>  -0.1500 
 21 C       -5.1760    -0.0530     2.2140 C.3   1 <1>  -0.1600 
 22 C        7.9180     1.1990     0.9550 C.ar  1 <1>  -0.1500 
 23 C        6.8820     2.9910     2.1700 C.ar  1 <1>  -0.1500 
 24 C        8.0100     2.2550     1.8460 C.ar  1 <1>  -0.1500 
 25 H       -0.7260     3.4750    -2.3370 H     1 <1>   0.3700 
 26 H       -2.6330     1.6100    -1.8150 H     1 <1>   0.0800 
 27 H       -3.0070     3.2140    -2.3850 H     1 <1>   0.0800 
 28 H        1.8540     0.9940     0.1920 H     1 <1>   0.1500 
 29 H        0.9460     4.7720    -1.5710 H     1 <1>   0.1500 
 30 H       -3.9160     3.8470    -0.4300 H     1 <1>   0.0800 
 31 H       -2.5670     3.2370     0.4870 H     1 <1>   0.0800 
 32 H        3.3310     5.2570    -1.7580 H     1 <1>   0.1500 
 33 H       -4.7370     1.4940    -0.5160 H     1 <1>   0.4500 
 34 H        4.9900     3.6240    -0.9800 H     1 <1>   0.1500 
 35 H       -5.6250     3.1590     1.0010 H     1 <1>   0.0800 
 36 H       -4.4400     2.6400     2.1780 H     1 <1>   0.0800 
 37 H       -2.6800     1.0380     1.5460 H     1 <1>   0.0800 
 38 H       -2.6140     0.4000    -0.0720 H     1 <1>   0.0800 
 39 H       -6.6240     0.9320     0.9600 H     1 <1>   0.0800 
 40 H       -6.5770     1.5270     2.5890 H     1 <1>   0.0800 
 41 H       -3.5350    -1.2470     1.5160 H     1 <1>   0.0800 
 42 H       -4.6790    -0.8500     0.2740 H     1 <1>   0.0800 
 43 H        6.6180     0.0590    -0.3070 H     1 <1>   0.1500 
 44 H        4.7840     3.2380     1.8620 H     1 <1>   0.1500 
 45 H       -5.8520    -0.8690     2.4110 H     1 <1>   0.0800 
 46 H       -4.6510     0.1650     3.1300 H     1 <1>   0.0800 
 47 H        8.7950     0.6260     0.7070 H     1 <1>   0.1500 
 48 H        6.9540     3.8080     2.8670 H     1 <1>   0.1500 
 49 H        8.9590     2.5040     2.2890 H     1 <1>   0.1500 
@<TRIPOS>BOND
  1   1   2  2   
  2   2   3  am  
  3   2   4  1   
  4   3   5  1   
  5   3  25  1   
  6   4   6  ar  
  7   4   7  ar  
  8   5   8  1   
  9   5  26  1   
 10   5  27  1   
 11   6   9  ar  
 12   6  28  1   
 13   7  10  ar  
 14   7  29  1   
 15   8  11  1   
 16   8  30  1   
 17   8  31  1   
 18   9  12  1   
 19   9  13  ar  
 20  10  13  ar  
 21  10  32  1   
 22  11  14  1   
 23  11  15  1   
 24  11  33  1   
 25  12  16  1   
 26  13  34  1   
 27  14  17  1   
 28  14  35  1   
 29  14  36  1   
 30  15  18  1   
 31  15  37  1   
 32  15  38  1   
 33  16  19  ar  
 34  16  20  ar  
 35  17  21  1   
 36  17  39  1   
 37  17  40  1   
 38  18  21  1   
 39  18  41  1   
 40  18  42  1   
 41  19  22  ar  
 42  19  43  1   
 43  20  23  ar  
 44  20  44  1   
 45  21  45  1   
 46  21  46  1   
 47  22  24  ar  
 48  22  47  1   
 49  23  24  ar  
 50  23  48  1   
 51  24  49  1   
@<TRIPOS>SUBSTRUCTURE
  1 ****   4 GROUP 4 **** **** 0

# MOE 2024.06 (io_trps.svl 2023.06)
