@<TRIPOS>MOLECULE
NONAME
48 50 1 0 0 
SMALL
USER_CHARGES


@<TRIPOS>ATOM
  1 F        0.0490     0.0730     0.3960 F     1 <1>  -0.1900 
  2 C       -1.0530    -0.6100     0.1940 C.ar  1 <1>   0.1900 
  3 C       -1.0130    -2.0070     0.2740 C.ar  1 <1>   0.1170 
  4 C       -2.2110     0.0940    -0.0660 C.ar  1 <1>  -0.1500 
  5 N        0.1760    -2.7120     0.5330 N.am  1 <1>  -0.5470 
  6 C       -2.2060    -2.7040     0.0940 C.ar  1 <1>  -0.1500 
  7 C       -3.3660    -0.6410    -0.2430 C.ar  1 <1>   0.1900 
  8 C        1.3140    -2.6310    -0.2240 C.2   1 <1>   0.5690 
  9 C       -3.3860    -2.0240    -0.1660 C.ar  1 <1>  -0.1500 
 10 F       -4.4830    -0.0090    -0.4890 F     1 <1>  -0.1900 
 11 O        1.3200    -2.1600    -1.3360 O.2   1 <1>  -0.5700 
 12 C        2.6670    -3.0970     0.3360 C.3   1 <1>   0.4040 
 13 N        3.8110    -2.2300    -0.1390 N.4   1 <1>  -0.9590 
 14 C        5.1460    -2.8380     0.1130 C.3   1 <1>   0.3430 
 15 C        3.6980    -0.8350     0.3840 C.3   1 <1>   0.3430 
 16 C        6.2320    -1.9840    -0.5430 C.3   1 <1>  -0.1600 
 17 C        4.7660     0.0430    -0.2620 C.3   1 <1>  -0.1600 
 18 C        6.1830    -0.5250    -0.0580 C.3   1 <1>  -0.0800 
 19 C        7.2510     0.3250    -0.7710 C.3   1 <1>  -0.0170 
 20 C        7.2600     1.7570    -0.2560 C.ar  1 <1>  -0.1430 
 21 C        6.6920     2.7780    -1.0030 C.ar  1 <1>  -0.1500 
 22 C        7.8340     2.0520     0.9710 C.ar  1 <1>  -0.1500 
 23 C        6.6890     4.0770    -0.5240 C.ar  1 <1>  -0.1500 
 24 C        7.8330     3.3500     1.4500 C.ar  1 <1>  -0.1500 
 25 C        7.2590     4.3630     0.7040 C.ar  1 <1>  -0.1500 
 26 H       -2.2190     1.1670    -0.1270 H     1 <1>   0.1500 
 27 H        0.1620    -3.2910     1.3750 H     1 <1>   0.3700 
 28 H       -2.2140    -3.7780     0.1480 H     1 <1>   0.1500 
 29 H       -4.3120    -2.5520    -0.3110 H     1 <1>   0.1500 
 30 H        2.8250    -4.1090     0.0080 H     1 <1>   0.0800 
 31 H        2.6270    -3.0890     1.4110 H     1 <1>   0.0800 
 32 H        3.6740    -2.1440    -1.1610 H     1 <1>   0.4500 
 33 H        5.1830    -3.8360    -0.2940 H     1 <1>   0.0800 
 34 H        5.3280    -2.8940     1.1750 H     1 <1>   0.0800 
 35 H        3.8300    -0.8310     1.4540 H     1 <1>   0.0800 
 36 H        2.7230    -0.4300     0.1580 H     1 <1>   0.0800 
 37 H        6.1160    -2.0240    -1.6130 H     1 <1>   0.0800 
 38 H        7.1930    -2.4070    -0.3080 H     1 <1>   0.0800 
 39 H        4.7010     1.0240     0.1770 H     1 <1>   0.0800 
 40 H        4.5520     0.1490    -1.3120 H     1 <1>   0.0800 
 41 H        6.4020    -0.5120     0.9970 H     1 <1>   0.0800 
 42 H        7.0760     0.3250    -1.8330 H     1 <1>   0.0800 
 43 H        8.2250    -0.1030    -0.6080 H     1 <1>   0.0800 
 44 H        6.2480     2.5710    -1.9610 H     1 <1>   0.1500 
 45 H        8.2870     1.2740     1.5600 H     1 <1>   0.1500 
 46 H        6.2460     4.8650    -1.1080 H     1 <1>   0.1500 
 47 H        8.2800     3.5740     2.4030 H     1 <1>   0.1500 
 48 H        7.2580     5.3730     1.0760 H     1 <1>   0.1500 
@<TRIPOS>BOND
  1   1   2  1   
  2   2   3  ar  
  3   2   4  ar  
  4   3   5  1   
  5   3   6  ar  
  6   4   7  ar  
  7   4  26  1   
  8   5   8  am  
  9   5  27  1   
 10   6   9  ar  
 11   6  28  1   
 12   7   9  ar  
 13   7  10  1   
 14   8  11  2   
 15   8  12  1   
 16   9  29  1   
 17  12  13  1   
 18  12  30  1   
 19  12  31  1   
 20  13  14  1   
 21  13  15  1   
 22  13  32  1   
 23  14  16  1   
 24  14  33  1   
 25  14  34  1   
 26  15  17  1   
 27  15  35  1   
 28  15  36  1   
 29  16  18  1   
 30  16  37  1   
 31  16  38  1   
 32  17  18  1   
 33  17  39  1   
 34  17  40  1   
 35  18  19  1   
 36  18  41  1   
 37  19  20  1   
 38  19  42  1   
 39  19  43  1   
 40  20  21  ar  
 41  20  22  ar  
 42  21  23  ar  
 43  21  44  1   
 44  22  24  ar  
 45  22  45  1   
 46  23  25  ar  
 47  23  46  1   
 48  24  25  ar  
 49  24  47  1   
 50  25  48  1   
@<TRIPOS>SUBSTRUCTURE
  1 ****  15 GROUP 4 **** **** 0

# MOE 2024.06 (io_trps.svl 2023.06)
