@<TRIPOS>MOLECULE
NONAME
41 42 1 0 0 
SMALL
USER_CHARGES


@<TRIPOS>ATOM
  1 O       -5.4940     1.3530    -0.8680 O.3   1 <1>  -0.3630 
  2 C       -6.2190     1.0750     0.2410 C.ar  1 <1>   0.0830 
  3 C       -4.2770     2.0600    -0.7910 C.3   1 <1>   0.1200 
  4 C       -7.3750     0.3390     0.0500 C.ar  1 <1>  -0.1500 
  5 C       -5.8700     1.4820     1.5250 C.ar  1 <1>  -0.1500 
  6 C       -3.7150     2.1850    -2.2040 C.3   1 <1>  -0.2400 
  7 C       -8.1920     0.0110     1.1200 C.ar  1 <1>  -0.1430 
  8 C       -6.6790     1.1510     2.5970 C.ar  1 <1>  -0.1500 
  9 C       -7.8370     0.4180     2.3990 C.ar  1 <1>  -0.1500 
 10 C       -9.4600    -0.7720     0.8840 C.3   1 <1>   0.4860 
 11 N      -10.4840     0.2100     0.4860 N.4   1 <1>  -0.9060 
 12 C      -11.7930    -0.3650     0.1330 C.3   1 <1>   0.4860 
 13 C      -12.6840     0.7990    -0.2270 C.ar  1 <1>  -0.1430 
 14 C      -13.4700     1.4040     0.7430 C.ar  1 <1>  -0.1500 
 15 C      -12.7150     1.2800    -1.5280 C.ar  1 <1>  -0.1500 
 16 C      -14.2710     2.4830     0.4150 C.ar  1 <1>  -0.1500 
 17 C      -13.5180     2.3590    -1.8500 C.ar  1 <1>  -0.1500 
 18 C      -14.2970     2.9670    -0.8810 C.ar  1 <1>  -0.1430 
 19 C      -15.1810     4.1500    -1.2390 C.3   1 <1>  -0.0970 
 20 H       -3.6000     1.5100    -0.1600 H     1 <1>   0.0800 
 21 H       -4.4710     3.0330    -0.3730 H     1 <1>   0.0800 
 22 H       -7.6090     0.0330    -0.9550 H     1 <1>   0.1500 
 23 H       -4.9780     2.0530     1.7080 H     1 <1>   0.1500 
 24 H       -3.5360     1.2090    -2.6190 H     1 <1>   0.0800 
 25 H       -2.7840     2.7220    -2.1790 H     1 <1>   0.0800 
 26 H       -4.4040     2.7220    -2.8310 H     1 <1>   0.0800 
 27 H       -6.4030     1.4650     3.5900 H     1 <1>   0.1500 
 28 H       -8.4450     0.1720     3.2530 H     1 <1>   0.1500 
 29 H       -9.7530    -1.2870     1.7840 H     1 <1>   0.0800 
 30 H       -9.3010    -1.4950     0.0990 H     1 <1>   0.0800 
 31 H      -10.1330     0.7580    -0.3070 H     1 <1>   0.4500 
 32 H      -10.6090     0.8990     1.2360 H     1 <1>   0.4500 
 33 H      -12.2120    -0.9040     0.9680 H     1 <1>   0.0800 
 34 H      -11.7030    -1.0330    -0.7080 H     1 <1>   0.0800 
 35 H      -13.4760     1.0490     1.7600 H     1 <1>   0.1500 
 36 H      -12.1250     0.8270    -2.3070 H     1 <1>   0.1500 
 37 H      -14.8810     2.9460     1.1730 H     1 <1>   0.1500 
 38 H      -13.5390     2.7260    -2.8630 H     1 <1>   0.1500 
 39 H      -16.1510     3.8010    -1.5450 H     1 <1>   0.0800 
 40 H      -14.7470     4.7150    -2.0450 H     1 <1>   0.0800 
 41 H      -15.2990     4.8030    -0.3940 H     1 <1>   0.0800 
@<TRIPOS>BOND
  1   1   2  1   
  2   1   3  1   
  3   2   4  ar  
  4   2   5  ar  
  5   3   6  1   
  6   3  20  1   
  7   3  21  1   
  8   4   7  ar  
  9   4  22  1   
 10   5   8  ar  
 11   5  23  1   
 12   6  24  1   
 13   6  25  1   
 14   6  26  1   
 15   7   9  ar  
 16   7  10  1   
 17   8   9  ar  
 18   8  27  1   
 19   9  28  1   
 20  10  11  1   
 21  10  29  1   
 22  10  30  1   
 23  11  12  1   
 24  11  31  1   
 25  11  32  1   
 26  12  13  1   
 27  12  33  1   
 28  12  34  1   
 29  13  14  ar  
 30  13  15  ar  
 31  14  16  ar  
 32  14  35  1   
 33  15  17  ar  
 34  15  36  1   
 35  16  18  ar  
 36  16  37  1   
 37  17  18  ar  
 38  17  38  1   
 39  18  19  1   
 40  19  39  1   
 41  19  40  1   
 42  19  41  1   
@<TRIPOS>SUBSTRUCTURE
  1 ****  11 GROUP 4 **** **** 0

# MOE 2024.06 (io_trps.svl 2023.06)
