@<TRIPOS>MOLECULE
NONAME
35 36 1 0 0 
SMALL
USER_CHARGES


@<TRIPOS>ATOM
  1 O       -0.2910     1.7790     1.6360 O.2   1 <1>  -0.5700 
  2 C       -0.2220     2.8310     1.0350 C.2   1 <1>   0.5690 
  3 N       -1.3240     3.6580     0.9600 N.am  1 <1>  -0.6600 
  4 C        1.1360     3.2240     0.3890 C.3   1 <1>   0.2610 
  5 C       -2.5690     3.3170     1.7110 C.3   1 <1>   0.2840 
  6 C       -1.3520     4.9410     0.2010 C.3   1 <1>   0.1400 
  7 O        1.0320     3.3580    -1.0020 O.3   1 <1>  -0.5600 
  8 C        2.2620     2.1990     0.5410 C.3   1 <1>  -0.1600 
  9 C       -3.6090     2.6810     0.8000 C.ar  1 <1>  -0.1440 
 10 C       -1.9560     4.7360    -1.1870 C.3   1 <1>  -0.2400 
 11 C        1.1920     2.1150    -1.6090 C.3   1 <1>   0.1200 
 12 C        2.0850     1.3010    -0.6750 C.3   1 <1>  -0.1600 
 13 C       -3.3560     1.5070     0.1210 C.ar  1 <1>  -0.1500 
 14 C       -4.8590     3.2370     0.6070 C.ar  1 <1>  -0.1500 
 15 C       -4.3300     0.9630    -0.6990 C.ar  1 <1>   0.1600 
 16 C       -5.7630     2.6110    -0.2360 C.ar  1 <1>   0.1600 
 17 N       -5.5290     1.4880    -0.8950 N.ar  1 <1>  -0.6200 
 18 H        1.4440     4.1700     0.7930 H     1 <1>   0.0800 
 19 H       -2.9680     4.2100     2.1600 H     1 <1>   0.0800 
 20 H       -2.3460     2.6330     2.5120 H     1 <1>   0.0800 
 21 H       -0.3560     5.3320     0.0930 H     1 <1>   0.0800 
 22 H       -1.9270     5.6720     0.7430 H     1 <1>   0.0800 
 23 H        2.2190     1.6590     1.4700 H     1 <1>   0.0800 
 24 H        3.2050     2.7130     0.4820 H     1 <1>   0.0800 
 25 H       -1.4370     3.9540    -1.7110 H     1 <1>   0.0800 
 26 H       -1.8650     5.6420    -1.7570 H     1 <1>   0.0800 
 27 H       -2.9980     4.4850    -1.1230 H     1 <1>   0.0800 
 28 H        1.6380     2.2600    -2.5780 H     1 <1>   0.0800 
 29 H        0.2200     1.6640    -1.7110 H     1 <1>   0.0800 
 30 H        1.5850     0.3860    -0.4070 H     1 <1>   0.0800 
 31 H        3.0270     1.0670    -1.1380 H     1 <1>   0.0800 
 32 H       -2.4050     1.0140     0.2240 H     1 <1>   0.1500 
 33 H       -5.1390     4.1490     1.0990 H     1 <1>   0.1500 
 34 H       -4.1090     0.0480    -1.2200 H     1 <1>   0.1500 
 35 H       -6.7320     3.0590    -0.3760 H     1 <1>   0.1500 
@<TRIPOS>BOND
  1   1   2  2   
  2   2   3  am  
  3   2   4  1   
  4   3   5  1   
  5   3   6  1   
  6   4   7  1   
  7   4   8  1   
  8   4  18  1   
  9   5   9  1   
 10   5  19  1   
 11   5  20  1   
 12   6  10  1   
 13   6  21  1   
 14   6  22  1   
 15   7  11  1   
 16   8  12  1   
 17   8  23  1   
 18   8  24  1   
 19   9  13  ar  
 20   9  14  ar  
 21  10  25  1   
 22  10  26  1   
 23  10  27  1   
 24  11  12  1   
 25  11  28  1   
 26  11  29  1   
 27  12  30  1   
 28  12  31  1   
 29  13  15  ar  
 30  13  32  1   
 31  14  16  ar  
 32  14  33  1   
 33  15  17  ar  
 34  15  34  1   
 35  16  17  ar  
 36  16  35  1   
@<TRIPOS>SUBSTRUCTURE
  1 ****   3 GROUP 4 **** **** 0

# MOE 2024.06 (io_trps.svl 2023.06)
