@<TRIPOS>MOLECULE
NONAME
46 49 1 0 0 
SMALL
USER_CHARGES


@<TRIPOS>ATOM
  1 O       -1.3950    -0.0390    -1.8680 O.2   1 <1>  -0.5700 
  2 C       -1.3270     0.8440    -1.0500 C.2   1 <1>   0.5690 
  3 N       -2.2700     1.8170    -1.0510 N.am  1 <1>  -0.7300 
  4 C       -0.1870     0.8190    -0.0390 C.3   1 <1>   0.0440 
  5 C       -2.3390     3.0500    -0.2380 C.3   1 <1>   0.2200 
  6 C        0.7480     2.0290    -0.1420 C.ar  1 <1>  -0.1440 
  7 C       -3.7560     3.2330     0.3450 C.3   1 <1>  -0.0800 
  8 C       -1.9690     4.2820    -1.0910 C.3   1 <1>  -0.0800 
  9 C        1.1320     2.7910     0.9620 C.ar  1 <1>  -0.1430 
 10 C        1.2250     2.3710    -1.4000 C.ar  1 <1>  -0.1500 
 11 C       -3.7480     4.4750     1.2600 C.3   1 <1>  -0.1600 
 12 C       -4.7900     3.4580    -0.7820 C.3   1 <1>  -0.1600 
 13 C       -1.9610     5.5220    -0.1740 C.3   1 <1>  -0.1600 
 14 C       -3.0060     4.5030    -2.2150 C.3   1 <1>  -0.1600 
 15 C        1.9600     3.8890     0.7770 C.ar  1 <1>  -0.1500 
 16 C        0.6830     2.4630     2.3800 C.3   1 <1>  -0.0970 
 17 C        2.0530     3.4650    -1.5740 C.ar  1 <1>  -0.1500 
 18 C       -3.3570     5.7260     0.4480 C.3   1 <1>  -0.0800 
 19 C       -4.4080     4.7010    -1.6080 C.3   1 <1>  -0.0800 
 20 C        2.4180     4.2280    -0.4820 C.ar  1 <1>  -0.1500 
 21 C       -4.3850     5.9320    -0.6820 C.3   1 <1>  -0.1600 
 22 H       -2.9660     1.7610    -1.7930 H     1 <1>   0.3700 
 23 H        0.3930    -0.0700    -0.2030 H     1 <1>   0.0800 
 24 H       -0.6270     0.7350     0.9340 H     1 <1>   0.0800 
 25 H       -1.6440     2.9750     0.5770 H     1 <1>   0.0800 
 26 H       -4.0210     2.3650     0.9240 H     1 <1>   0.0800 
 27 H       -0.9880     4.1490    -1.5110 H     1 <1>   0.0800 
 28 H        0.9500     1.7850    -2.2610 H     1 <1>   0.1500 
 29 H       -3.0480     4.3320     2.0650 H     1 <1>   0.0800 
 30 H       -4.7220     4.6140     1.6960 H     1 <1>   0.0800 
 31 H       -4.8420     2.5940    -1.4210 H     1 <1>   0.0800 
 32 H       -5.7680     3.5960    -0.3530 H     1 <1>   0.0800 
 33 H       -1.6820     6.3920    -0.7420 H     1 <1>   0.0800 
 34 H       -1.2270     5.3930     0.6030 H     1 <1>   0.0800 
 35 H       -3.0100     3.6640    -2.8880 H     1 <1>   0.0800 
 36 H       -2.7340     5.3720    -2.7900 H     1 <1>   0.0800 
 37 H        2.2600     4.4900     1.6170 H     1 <1>   0.1500 
 38 H        0.9390     1.4470     2.6210 H     1 <1>   0.0800 
 39 H       -0.3790     2.5930     2.4770 H     1 <1>   0.0800 
 40 H        1.1660     3.1030     3.0960 H     1 <1>   0.0800 
 41 H        2.4110     3.7190    -2.5560 H     1 <1>   0.1500 
 42 H       -3.3460     6.5900     1.0910 H     1 <1>   0.0800 
 43 H       -5.1280     4.8520    -2.3950 H     1 <1>   0.0800 
 44 H        3.0600     5.0810    -0.6120 H     1 <1>   0.1500 
 45 H       -4.1300     6.8100    -1.2500 H     1 <1>   0.0800 
 46 H       -5.3620     6.0900    -0.2610 H     1 <1>   0.0800 
@<TRIPOS>BOND
  1   1   2  2   
  2   2   3  am  
  3   2   4  1   
  4   3   5  1   
  5   3  22  1   
  6   4   6  1   
  7   4  23  1   
  8   4  24  1   
  9   5   7  1   
 10   5   8  1   
 11   5  25  1   
 12   6   9  ar  
 13   6  10  ar  
 14   7  11  1   
 15   7  12  1   
 16   7  26  1   
 17   8  13  1   
 18   8  14  1   
 19   8  27  1   
 20   9  15  ar  
 21   9  16  1   
 22  10  17  ar  
 23  10  28  1   
 24  11  18  1   
 25  11  29  1   
 26  11  30  1   
 27  12  19  1   
 28  12  31  1   
 29  12  32  1   
 30  13  18  1   
 31  13  33  1   
 32  13  34  1   
 33  14  19  1   
 34  14  35  1   
 35  14  36  1   
 36  15  20  ar  
 37  15  37  1   
 38  16  38  1   
 39  16  39  1   
 40  16  40  1   
 41  17  20  ar  
 42  17  41  1   
 43  18  21  1   
 44  18  42  1   
 45  19  21  1   
 46  19  43  1   
 47  20  44  1   
 48  21  45  1   
 49  21  46  1   
@<TRIPOS>SUBSTRUCTURE
  1 ****   5 GROUP 4 **** **** 0

# MOE 2024.06 (io_trps.svl 2023.06)
