@<TRIPOS>MOLECULE
NONAME
43 45 1 0 0 
SMALL
USER_CHARGES


@<TRIPOS>ATOM
  1 BR      -1.3240     0.3280     1.9190 Br    1 <1>  -0.1110 
  2 C       -1.7650     2.0840     1.2630 C.ar  1 <1>   0.1110 
  3 C       -1.6850     2.3290    -0.0940 C.ar  1 <1>  -0.1500 
  4 C       -2.1480     3.0570     2.1660 C.ar  1 <1>  -0.1500 
  5 C       -2.0040     3.5940    -0.5580 C.ar  1 <1>  -0.1500 
  6 C       -2.4630     4.3160     1.6860 C.ar  1 <1>  -0.1500 
  7 C       -2.3980     4.6020     0.3220 C.ar  1 <1>   0.1170 
  8 N       -2.7270     5.8920    -0.1560 N.am  1 <1>  -0.2370 
  9 C       -3.5690     6.1670    -1.2000 C.2   1 <1>   0.5690 
 10 C       -2.2460     7.0690     0.3470 C.2   1 <1>   0.5690 
 11 O       -4.0020     5.3620    -1.9880 O.2   1 <1>  -0.5700 
 12 C       -3.8530     7.6780    -1.3070 C.3   1 <1>   0.2510 
 13 O       -1.5540     7.2080     1.3210 O.2   1 <1>  -0.5700 
 14 C       -2.7030     8.2520    -0.4650 C.3   1 <1>  -0.0990 
 15 N       -5.1660     8.1600    -0.7410 N.3   1 <1>  -0.8100 
 16 C       -5.4000     9.6030    -1.0520 C.3   1 <1>   0.1100 
 17 C       -6.3370     7.3630    -1.1850 C.3   1 <1>   0.1100 
 18 C       -6.5470    10.2280    -0.2260 C.3   1 <1>   0.3430 
 19 C       -7.2750     7.1180     0.0020 C.3   1 <1>  -0.1600 
 20 N       -6.8720     9.3600     0.9440 N.4   1 <1>  -0.9590 
 21 C       -7.9210     8.3700     0.5990 C.3   1 <1>   0.3430 
 22 C       -7.1860    10.1320     2.1810 C.3   1 <1>   0.2630 
 23 H       -1.3840     1.5480    -0.7690 H     1 <1>   0.1500 
 24 H       -2.1950     2.8330     3.2160 H     1 <1>   0.1500 
 25 H       -1.9480     3.7950    -1.6130 H     1 <1>   0.1500 
 26 H       -2.7560     5.0850     2.3800 H     1 <1>   0.1500 
 27 H       -3.7640     7.9770    -2.3380 H     1 <1>   0.0800 
 28 H       -1.8910     8.5660    -1.0940 H     1 <1>   0.0800 
 29 H       -2.9890     9.0510     0.1920 H     1 <1>   0.0800 
 30 H       -5.6050     9.7300    -2.1020 H     1 <1>   0.0800 
 31 H       -4.5140    10.1760    -0.8430 H     1 <1>   0.0800 
 32 H       -6.0500     6.4000    -1.5610 H     1 <1>   0.0800 
 33 H       -6.8620     7.8570    -1.9870 H     1 <1>   0.0800 
 34 H       -7.4180    10.3520    -0.8480 H     1 <1>   0.0800 
 35 H       -6.2390    11.2060     0.1060 H     1 <1>   0.0800 
 36 H       -6.7390     6.5880     0.7690 H     1 <1>   0.0800 
 37 H       -8.0640     6.4660    -0.3270 H     1 <1>   0.0800 
 38 H       -6.0100     8.7930     1.0630 H     1 <1>   0.4500 
 39 H       -8.4650     8.0850     1.4860 H     1 <1>   0.0800 
 40 H       -8.6200     8.7980    -0.1010 H     1 <1>   0.0800 
 41 H       -8.0770    10.7230     2.0390 H     1 <1>   0.0800 
 42 H       -6.3690    10.7910     2.4280 H     1 <1>   0.0800 
 43 H       -7.3450     9.4600     3.0090 H     1 <1>   0.0800 
@<TRIPOS>BOND
  1   1   2  1   
  2   2   3  ar  
  3   2   4  ar  
  4   3   5  ar  
  5   3  23  1   
  6   4   6  ar  
  7   4  24  1   
  8   5   7  ar  
  9   5  25  1   
 10   6   7  ar  
 11   6  26  1   
 12   7   8  1   
 13   8   9  am  
 14   8  10  am  
 15   9  11  2   
 16   9  12  1   
 17  10  13  2   
 18  10  14  1   
 19  12  14  1   
 20  12  15  1   
 21  12  27  1   
 22  14  28  1   
 23  14  29  1   
 24  15  16  1   
 25  15  17  1   
 26  16  18  1   
 27  16  30  1   
 28  16  31  1   
 29  17  19  1   
 30  17  32  1   
 31  17  33  1   
 32  18  20  1   
 33  18  34  1   
 34  18  35  1   
 35  19  21  1   
 36  19  36  1   
 37  19  37  1   
 38  20  21  1   
 39  20  22  1   
 40  20  38  1   
 41  21  39  1   
 42  21  40  1   
 43  22  41  1   
 44  22  42  1   
 45  22  43  1   
@<TRIPOS>SUBSTRUCTURE
  1 ****   8 GROUP 4 **** **** 0

# MOE 2024.06 (io_trps.svl 2023.06)
