@<TRIPOS>MOLECULE
NONAME
41 42 1 0 0 
SMALL
USER_CHARGES


@<TRIPOS>ATOM
  1 O        0.0400    -1.1000    -0.5310 O.3   1 <1>  -0.3630 
  2 C       -1.3080    -1.0800    -0.3490 C.ar  1 <1>   0.0830 
  3 C        0.9030    -0.3040     0.2450 C.3   1 <1>   0.1200 
  4 C       -2.0800    -1.8910    -1.1750 C.ar  1 <1>  -0.1440 
  5 C       -1.9310    -0.2910     0.6170 C.ar  1 <1>  -0.1500 
  6 C        2.3350    -0.5580    -0.2260 C.3   1 <1>  -0.1600 
  7 C       -3.4570    -1.9030    -1.0280 C.ar  1 <1>  -0.1500 
  8 C       -1.4250    -2.7630    -2.2370 C.3   1 <1>  -0.0970 
  9 C       -3.3080    -0.3090     0.7610 C.ar  1 <1>  -0.1430 
 10 C        3.3390     0.2840     0.5670 C.3   1 <1>   0.0210 
 11 C       -4.0680    -1.1170    -0.0670 C.ar  1 <1>  -0.1500 
 12 C       -3.9860     0.5520     1.8120 C.3   1 <1>  -0.0970 
 13 C        4.7530     0.0190     0.0810 C.2   1 <1>  -0.1810 
 14 C        5.4210     0.6890    -0.9430 C.2   1 <1>   0.1080 
 15 C        5.6390    -0.8990     0.5260 C.2   1 <1>  -0.3320 
 16 N        6.6210     0.2400    -1.1240 N.2   1 <1>  -0.7070 
 17 C        4.8590     1.8180    -1.7770 C.3   1 <1>  -0.0590 
 18 N        6.7560    -0.7420    -0.2160 N.pl3 1 <1>   0.3000 
 19 C        5.5120    -1.9430     1.6220 C.3   1 <1>  -0.0600 
 20 H        0.7850    -0.5850     1.2770 H     1 <1>   0.0800 
 21 H        0.6320     0.7270     0.1020 H     1 <1>   0.0800 
 22 H       -1.3580     0.3420     1.2650 H     1 <1>   0.1500 
 23 H        2.4130    -0.3160    -1.2710 H     1 <1>   0.0800 
 24 H        2.5720    -1.6000    -0.0980 H     1 <1>   0.0800 
 25 H       -4.0650    -2.5250    -1.6610 H     1 <1>   0.1500 
 26 H       -0.7380    -3.4470    -1.7720 H     1 <1>   0.0800 
 27 H       -0.8800    -2.1440    -2.9270 H     1 <1>   0.0800 
 28 H       -2.1570    -3.3280    -2.7840 H     1 <1>   0.0800 
 29 H        3.2720     0.0430     1.6130 H     1 <1>   0.0800 
 30 H        3.1140     1.3300     0.4580 H     1 <1>   0.0800 
 31 H       -5.1390    -1.1380     0.0320 H     1 <1>   0.1500 
 32 H       -3.3130     0.7610     2.6240 H     1 <1>   0.0800 
 33 H       -4.8470     0.0460     2.2100 H     1 <1>   0.0800 
 34 H       -4.3010     1.4810     1.3730 H     1 <1>   0.0800 
 35 H        3.8800     1.5610    -2.1360 H     1 <1>   0.0800 
 36 H        5.5000     2.0010    -2.6200 H     1 <1>   0.0800 
 37 H        4.8020     2.7110    -1.1840 H     1 <1>   0.0800 
 38 H        7.6210    -1.2870    -0.1300 H     1 <1>   0.2700 
 39 H        4.5260    -1.9300     2.0470 H     1 <1>   0.0800 
 40 H        6.2250    -1.7480     2.4030 H     1 <1>   0.0800 
 41 H        5.6930    -2.9240     1.2190 H     1 <1>   0.0800 
@<TRIPOS>BOND
  1   1   2  1   
  2   1   3  1   
  3   2   4  ar  
  4   2   5  ar  
  5   3   6  1   
  6   3  20  1   
  7   3  21  1   
  8   4   7  ar  
  9   4   8  1   
 10   5   9  ar  
 11   5  22  1   
 12   6  10  1   
 13   6  23  1   
 14   6  24  1   
 15   7  11  ar  
 16   7  25  1   
 17   8  26  1   
 18   8  27  1   
 19   8  28  1   
 20   9  11  ar  
 21   9  12  1   
 22  10  13  1   
 23  10  29  1   
 24  10  30  1   
 25  11  31  1   
 26  12  32  1   
 27  12  33  1   
 28  12  34  1   
 29  13  14  1   
 30  13  15  2   
 31  14  16  2   
 32  14  17  1   
 33  15  18  1   
 34  15  19  1   
 35  16  18  1   
 36  17  35  1   
 37  17  36  1   
 38  17  37  1   
 39  18  38  1   
 40  19  39  1   
 41  19  40  1   
 42  19  41  1   
@<TRIPOS>SUBSTRUCTURE
  1 ****   3 GROUP 4 **** **** 0

# MOE 2024.06 (io_trps.svl 2023.06)
