@<TRIPOS>MOLECULE
NONAME
45 47 1 0 0 
SMALL
USER_CHARGES


@<TRIPOS>ATOM
  1 F       -2.8270     0.5730     2.7700 F     1 <1>  -0.3400 
  2 C       -3.7620    -0.2390     2.2920 C.3   1 <1>   1.1640 
  3 F       -4.8060    -0.1180     3.1050 F     1 <1>  -0.3400 
  4 F       -3.3040    -1.4730     2.4560 F     1 <1>  -0.3400 
  5 C       -4.1070     0.0560     0.8240 C.ar  1 <1>  -0.1440 
  6 C       -5.4150    -0.0320     0.3610 C.ar  1 <1>  -0.1500 
  7 C       -3.1070     0.4100    -0.0750 C.ar  1 <1>  -0.1500 
  8 C       -5.7410     0.2320    -0.9640 C.ar  1 <1>   0.1170 
  9 C       -3.4140     0.6730    -1.3990 C.ar  1 <1>  -0.1500 
 10 N       -7.0840     0.1250    -1.3500 N.am  1 <1>  -0.5470 
 11 C       -4.7210     0.5840    -1.8390 C.ar  1 <1>  -0.1500 
 12 C       -7.7700     0.4870    -2.4740 C.2   1 <1>   0.5690 
 13 O       -7.2770     1.0120    -3.4430 O.2   1 <1>  -0.5700 
 14 C       -9.2730     0.1980    -2.4600 C.3   1 <1>   0.1710 
 15 N       -9.8430     0.0820    -1.0830 N.3   1 <1>  -0.8100 
 16 C       -9.9760     1.4220    -0.4540 C.3   1 <1>   0.1100 
 17 C      -11.1560    -0.6000    -1.1130 C.3   1 <1>   0.1100 
 18 C      -10.5640     1.3380     0.9670 C.3   1 <1>   0.1400 
 19 C      -11.7400    -0.7430     0.3020 C.3   1 <1>   0.1400 
 20 N      -11.8580     0.5970     0.9430 N.am  1 <1>  -0.6600 
 21 C      -13.0340     1.1700     1.3880 C.2   1 <1>   0.7150 
 22 O      -12.9520     2.0900     2.1840 O.2   1 <1>  -0.5700 
 23 C      -14.3520     0.7410     0.9570 C.2   1 <1>   0.0550 
 24 O      -14.5680     0.1340    -0.2100 O.3   1 <1>  -0.2800 
 25 C      -15.5520     0.8900     1.5850 C.2   1 <1>  -0.1500 
 26 C      -15.8530    -0.1100    -0.3320 C.2   1 <1>  -0.0100 
 27 C      -16.5230     0.3350     0.7510 C.2   1 <1>  -0.1500 
 28 H       -6.2060    -0.3100     1.0350 H     1 <1>   0.1500 
 29 H       -2.0810     0.4830     0.2480 H     1 <1>   0.1500 
 30 H       -2.6350     0.9460    -2.0900 H     1 <1>   0.1500 
 31 H       -7.7320    -0.2350    -0.6430 H     1 <1>   0.3700 
 32 H       -4.9390     0.7890    -2.8710 H     1 <1>   0.1500 
 33 H       -9.4150    -0.7300    -2.9850 H     1 <1>   0.0800 
 34 H       -9.7840     0.9690    -3.0100 H     1 <1>   0.0800 
 35 H      -10.6180     2.0450    -1.0540 H     1 <1>   0.0800 
 36 H       -9.0130     1.8990    -0.3990 H     1 <1>   0.0800 
 37 H      -11.0410    -1.5820    -1.5400 H     1 <1>   0.0800 
 38 H      -11.8500    -0.0460    -1.7250 H     1 <1>   0.0800 
 39 H      -10.7030     2.3340     1.3500 H     1 <1>   0.0800 
 40 H       -9.8730     0.8270     1.6140 H     1 <1>   0.0800 
 41 H      -11.0790    -1.3550     0.8900 H     1 <1>   0.0800 
 42 H      -12.6880    -1.2460     0.2630 H     1 <1>   0.0800 
 43 H      -15.7310     1.3530     2.5400 H     1 <1>   0.1500 
 44 H      -16.2140    -0.6020    -1.2200 H     1 <1>   0.1500 
 45 H      -17.5780     0.2890     0.9570 H     1 <1>   0.1500 
@<TRIPOS>BOND
  1   1   2  1   
  2   2   3  1   
  3   2   4  1   
  4   2   5  1   
  5   5   6  ar  
  6   5   7  ar  
  7   6   8  ar  
  8   6  28  1   
  9   7   9  ar  
 10   7  29  1   
 11   8  10  1   
 12   8  11  ar  
 13   9  11  ar  
 14   9  30  1   
 15  10  12  am  
 16  10  31  1   
 17  11  32  1   
 18  12  13  2   
 19  12  14  1   
 20  14  15  1   
 21  14  33  1   
 22  14  34  1   
 23  15  16  1   
 24  15  17  1   
 25  16  18  1   
 26  16  35  1   
 27  16  36  1   
 28  17  19  1   
 29  17  37  1   
 30  17  38  1   
 31  18  20  1   
 32  18  39  1   
 33  18  40  1   
 34  19  20  1   
 35  19  41  1   
 36  19  42  1   
 37  20  21  am  
 38  21  22  2   
 39  21  23  1   
 40  23  24  1   
 41  23  25  2   
 42  24  26  1   
 43  25  27  1   
 44  25  43  1   
 45  26  27  2   
 46  26  44  1   
 47  27  45  1   
@<TRIPOS>SUBSTRUCTURE
  1 ****  15 GROUP 4 **** **** 0

# MOE 2024.06 (io_trps.svl 2023.06)
