@<TRIPOS>MOLECULE
NONAME
50 51 1 0 0 
SMALL
USER_CHARGES


@<TRIPOS>ATOM
  1 O        0.0310    -0.0610     0.9970 O.2   1 <1>  -0.5700 
  2 C        0.1750    -1.1250     0.4290 C.2   1 <1>   0.5440 
  3 N        1.3530    -1.4110    -0.2220 N.am  1 <1>  -0.5470 
  4 C       -0.8940    -2.1060     0.4290 C.ar  1 <1>   0.0860 
  5 C        2.5320    -0.6630    -0.3730 C.ar  1 <1>   0.1170 
  6 C       -0.6360    -3.4760     0.4440 C.ar  1 <1>  -0.1500 
  7 C       -2.2300    -1.7100     0.4110 C.ar  1 <1>  -0.1500 
  8 C        3.7360    -1.3360    -0.5310 C.ar  1 <1>  -0.1500 
  9 C        2.5430     0.7270    -0.3950 C.ar  1 <1>  -0.1500 
 10 C       -1.6560    -4.4110     0.4200 C.ar  1 <1>   0.0830 
 11 C       -3.2650    -2.6280     0.3890 C.ar  1 <1>   0.0830 
 12 C        4.9360    -0.6600    -0.7040 C.ar  1 <1>   0.1170 
 13 C        3.7280     1.4200    -0.5650 C.ar  1 <1>  -0.1500 
 14 O       -1.2780    -5.7130     0.4280 O.3   1 <1>  -0.3630 
 15 C       -2.9800    -3.9890     0.3910 C.ar  1 <1>  -0.1500 
 16 O       -4.5230    -2.1220     0.3660 O.3   1 <1>  -0.3630 
 17 N        6.1200    -1.4040    -0.8360 N.am  1 <1>  -0.5470 
 18 C        4.9160     0.7310    -0.7180 C.ar  1 <1>  -0.1500 
 19 C       -2.2260    -6.7570     0.4540 C.3   1 <1>   0.0400 
 20 C       -5.6590    -2.9570     0.3870 C.3   1 <1>   0.0400 
 21 C        7.3160    -1.0830    -1.4150 C.2   1 <1>   0.5690 
 22 O        7.5340    -0.0420    -1.9810 O.2   1 <1>  -0.5700 
 23 C        8.4250    -2.1170    -1.3470 C.3   1 <1>  -0.0990 
 24 C        9.0020    -2.2600     0.0720 C.3   1 <1>  -0.1600 
 25 C       10.1240    -3.3040     0.1140 C.3   1 <1>  -0.1600 
 26 C       10.6930    -3.4400     1.5290 C.3   1 <1>  -0.2400 
 27 H        1.3710    -2.3230    -0.6730 H     1 <1>   0.3700 
 28 H        0.3750    -3.8370     0.4860 H     1 <1>   0.1500 
 29 H       -2.4670    -0.6600     0.4130 H     1 <1>   0.1500 
 30 H        3.7380    -2.4090    -0.5170 H     1 <1>   0.1500 
 31 H        1.6250     1.2750    -0.2820 H     1 <1>   0.1500 
 32 H        3.7250     2.4960    -0.5790 H     1 <1>   0.1500 
 33 H       -3.7740    -4.7050     0.3710 H     1 <1>   0.1500 
 34 H        6.0780    -2.3410    -0.4440 H     1 <1>   0.3700 
 35 H        5.8300     1.2830    -0.8440 H     1 <1>   0.1500 
 36 H       -1.6940    -7.6920     0.4760 H     1 <1>   0.0800 
 37 H       -2.8310    -6.7030    -0.4340 H     1 <1>   0.0800 
 38 H       -2.8290    -6.6610     1.3400 H     1 <1>   0.0800 
 39 H       -6.5330    -2.3310     0.3820 H     1 <1>   0.0800 
 40 H       -5.6410    -3.5500     1.2850 H     1 <1>   0.0800 
 41 H       -5.6520    -3.5800    -0.4900 H     1 <1>   0.0800 
 42 H        9.2080    -1.8180    -2.0210 H     1 <1>   0.0800 
 43 H        8.0420    -3.0610    -1.6890 H     1 <1>   0.0800 
 44 H        8.2220    -2.5450     0.7560 H     1 <1>   0.0800 
 45 H        9.3880    -1.3050     0.3900 H     1 <1>   0.0800 
 46 H       10.9150    -3.0130    -0.5570 H     1 <1>   0.0800 
 47 H        9.7460    -4.2600    -0.2080 H     1 <1>   0.0800 
 48 H       11.0980    -2.5020     1.8640 H     1 <1>   0.0800 
 49 H       11.4800    -4.1740     1.5390 H     1 <1>   0.0800 
 50 H        9.9270    -3.7520     2.2160 H     1 <1>   0.0800 
@<TRIPOS>BOND
  1   1   2  2   
  2   2   3  am  
  3   2   4  1   
  4   3   5  1   
  5   3  27  1   
  6   4   6  ar  
  7   4   7  ar  
  8   5   8  ar  
  9   5   9  ar  
 10   6  10  ar  
 11   6  28  1   
 12   7  11  ar  
 13   7  29  1   
 14   8  12  ar  
 15   8  30  1   
 16   9  13  ar  
 17   9  31  1   
 18  10  14  1   
 19  10  15  ar  
 20  11  15  ar  
 21  11  16  1   
 22  12  17  1   
 23  12  18  ar  
 24  13  18  ar  
 25  13  32  1   
 26  14  19  1   
 27  15  33  1   
 28  16  20  1   
 29  17  21  am  
 30  17  34  1   
 31  18  35  1   
 32  19  36  1   
 33  19  37  1   
 34  19  38  1   
 35  20  39  1   
 36  20  40  1   
 37  20  41  1   
 38  21  22  2   
 39  21  23  1   
 40  23  24  1   
 41  23  42  1   
 42  23  43  1   
 43  24  25  1   
 44  24  44  1   
 45  24  45  1   
 46  25  26  1   
 47  25  46  1   
 48  25  47  1   
 49  26  48  1   
 50  26  49  1   
 51  26  50  1   
@<TRIPOS>SUBSTRUCTURE
  1 ****   3 GROUP 4 **** **** 0

# MOE 2024.06 (io_trps.svl 2023.06)
