@<TRIPOS>MOLECULE
NONAME
55 56 1 0 0 
SMALL
USER_CHARGES


@<TRIPOS>ATOM
  1 O        1.6960     4.1680     0.1530 O.3   1 <1>  -0.5600 
  2 C        1.2960     5.3030    -0.5650 C.3   1 <1>   0.2000 
  3 C        1.0730     2.9430    -0.1450 C.3   1 <1>   0.2000 
  4 C       -0.2190     5.5760    -0.3640 C.3   1 <1>   0.3430 
  5 C        1.7050     5.1500    -2.0360 C.3   1 <1>  -0.2400 
  6 C       -0.4330     3.1150    -0.4790 C.3   1 <1>   0.3430 
  7 C        1.2770     2.0600     1.0850 C.3   1 <1>  -0.2400 
  8 N       -0.9760     4.3710     0.1220 N.4   1 <1>  -0.9590 
  9 C       -2.4610     4.5040     0.0340 C.3   1 <1>   0.3430 
 10 C       -3.0100     5.3900     1.1750 C.3   1 <1>   0.2000 
 11 O       -2.2740     5.1450     2.3390 O.3   1 <1>  -0.6800 
 12 C       -4.4890     5.0900     1.4280 C.3   1 <1>   0.1200 
 13 O       -5.1540     5.1330     0.1850 O.3   1 <1>  -0.3630 
 14 C       -6.4700     4.8230     0.0830 C.ar  1 <1>   0.0830 
 15 C       -7.2690     4.4620     1.1610 C.ar  1 <1>  -0.1500 
 16 C       -7.0300     4.8730    -1.1810 C.ar  1 <1>  -0.1500 
 17 C       -8.6040     4.1520     0.9650 C.ar  1 <1>  -0.1500 
 18 C       -8.3640     4.5630    -1.3690 C.ar  1 <1>  -0.1500 
 19 C       -9.1800     4.1950    -0.3030 C.ar  1 <1>  -0.1430 
 20 C      -10.6640     3.8560    -0.5660 C.3   1 <1>   0.1430 
 21 C      -11.3700     5.0760    -1.1770 C.3   1 <1>  -0.2400 
 22 C      -10.7560     2.6730    -1.5410 C.3   1 <1>  -0.2400 
 23 C      -11.4330     3.4660     0.7080 C.3   1 <1>  -0.2400 
 24 H        1.8470     6.1340    -0.1560 H     1 <1>   0.0800 
 25 H        1.5840     2.5020    -0.9840 H     1 <1>   0.0800 
 26 H       -0.6300     5.9180    -1.2990 H     1 <1>   0.0800 
 27 H       -0.3320     6.3760     0.3480 H     1 <1>   0.0800 
 28 H        1.1430     4.3830    -2.5360 H     1 <1>   0.0800 
 29 H        2.7540     4.9190    -2.0980 H     1 <1>   0.0800 
 30 H        1.5410     6.0760    -2.5570 H     1 <1>   0.0800 
 31 H       -0.9760     2.2580    -0.1150 H     1 <1>   0.0800 
 32 H       -0.5510     3.1470    -1.5490 H     1 <1>   0.0800 
 33 H        0.8030     2.4920     1.9480 H     1 <1>   0.0800 
 34 H        2.3300     1.9520     1.2820 H     1 <1>   0.0800 
 35 H        0.8670     1.0810     0.9170 H     1 <1>   0.0800 
 36 H       -0.7780     4.3190     1.1400 H     1 <1>   0.4500 
 37 H       -2.9120     3.5300     0.1320 H     1 <1>   0.0800 
 38 H       -2.7600     4.9040    -0.9210 H     1 <1>   0.0800 
 39 H       -2.8930     6.4300     0.9230 H     1 <1>   0.0800 
 40 H       -2.5940     5.6980     3.0850 H     1 <1>   0.4000 
 41 H       -4.9310     5.8290     2.0730 H     1 <1>   0.0800 
 42 H       -4.6090     4.1020     1.8370 H     1 <1>   0.0800 
 43 H       -6.8820     4.4140     2.1600 H     1 <1>   0.1500 
 44 H       -6.4220     5.1570    -2.0200 H     1 <1>   0.1500 
 45 H       -9.1790     3.8780     1.8280 H     1 <1>   0.1500 
 46 H       -8.7640     4.6130    -2.3650 H     1 <1>   0.1500 
 47 H      -10.9370     5.3420    -2.1230 H     1 <1>   0.0800 
 48 H      -11.2810     5.9200    -0.5160 H     1 <1>   0.0800 
 49 H      -12.4140     4.8720    -1.3340 H     1 <1>   0.0800 
 50 H      -10.3180     2.9170    -2.4910 H     1 <1>   0.0800 
 51 H      -11.7810     2.3970    -1.7090 H     1 <1>   0.0800 
 52 H      -10.2340     1.8230    -1.1380 H     1 <1>   0.0800 
 53 H      -11.4250     4.2750     1.4160 H     1 <1>   0.0800 
 54 H      -10.9940     2.5960     1.1630 H     1 <1>   0.0800 
 55 H      -12.4580     3.2390     0.4760 H     1 <1>   0.0800 
@<TRIPOS>BOND
  1   1   2  1   
  2   1   3  1   
  3   2   4  1   
  4   2   5  1   
  5   2  24  1   
  6   3   6  1   
  7   3   7  1   
  8   3  25  1   
  9   4   8  1   
 10   4  26  1   
 11   4  27  1   
 12   5  28  1   
 13   5  29  1   
 14   5  30  1   
 15   6   8  1   
 16   6  31  1   
 17   6  32  1   
 18   7  33  1   
 19   7  34  1   
 20   7  35  1   
 21   8   9  1   
 22   8  36  1   
 23   9  10  1   
 24   9  37  1   
 25   9  38  1   
 26  10  11  1   
 27  10  12  1   
 28  10  39  1   
 29  11  40  1   
 30  12  13  1   
 31  12  41  1   
 32  12  42  1   
 33  13  14  1   
 34  14  15  ar  
 35  14  16  ar  
 36  15  17  ar  
 37  15  43  1   
 38  16  18  ar  
 39  16  44  1   
 40  17  19  ar  
 41  17  45  1   
 42  18  19  ar  
 43  18  46  1   
 44  19  20  1   
 45  20  21  1   
 46  20  22  1   
 47  20  23  1   
 48  21  47  1   
 49  21  48  1   
 50  21  49  1   
 51  22  50  1   
 52  22  51  1   
 53  22  52  1   
 54  23  53  1   
 55  23  54  1   
 56  23  55  1   
@<TRIPOS>SUBSTRUCTURE
  1 ****  13 GROUP 4 **** **** 0

# MOE 2024.06 (io_trps.svl 2023.06)
