@<TRIPOS>MOLECULE
NONAME
50 54 1 0 0 
SMALL
USER_CHARGES


@<TRIPOS>ATOM
  1 CL      -4.0910     1.3420     3.6890 Cl    1 <1>  -0.1240 
  2 C       -3.7210     1.6280     2.0130 C.2   1 <1>   0.1640 
  3 S       -4.0360     3.2330     1.4030 S.3   1 <1>  -0.0800 
  4 C       -3.2230     0.8190     1.0620 C.2   1 <1>  -0.1500 
  5 C       -3.4770     2.7770    -0.2180 C.2   1 <1>  -0.0450 
  6 C       -3.0800     1.4760    -0.1960 C.2   1 <1>  -0.1500 
  7 C       -3.4580     3.7610    -1.2720 C.2   1 <1>   0.7150 
  8 O       -2.5490     3.7550    -2.0770 O.2   1 <1>  -0.5700 
  9 N       -4.4290     4.7360    -1.4110 N.am  1 <1>  -0.6600 
 10 C       -5.8460     4.5870    -0.9790 C.3   1 <1>   0.1400 
 11 C       -4.1430     6.0140    -2.1230 C.3   1 <1>   0.1400 
 12 C       -6.2660     5.7880    -0.1110 C.3   1 <1>   0.3430 
 13 C       -4.5830     7.2140    -1.2640 C.3   1 <1>   0.3430 
 14 N       -6.0230     7.1170    -0.7970 N.4   1 <1>  -0.9590 
 15 C       -6.4760     8.3020     0.0070 C.3   1 <1>   0.5030 
 16 C       -7.9840     8.1630     0.3310 C.3   1 <1>  -0.1600 
 17 C       -6.2860     9.5960    -0.8210 C.3   1 <1>  -0.1600 
 18 C       -5.6890     8.4350     1.3310 C.3   1 <1>  -0.1600 
 19 C       -8.4870     9.3830     1.1230 C.3   1 <1>  -0.0800 
 20 C       -6.7800    10.8250    -0.0360 C.3   1 <1>  -0.0800 
 21 C       -6.1850     9.6610     2.1250 C.3   1 <1>  -0.0800 
 22 C       -8.2740    10.6550     0.2860 C.3   1 <1>  -0.1600 
 23 C       -7.6850     9.4970     2.4330 C.3   1 <1>  -0.1600 
 24 C       -5.9860    10.9320     1.2790 C.3   1 <1>  -0.1600 
 25 H       -2.9500    -0.2120     1.2030 H     1 <1>   0.1500 
 26 H       -2.6750     0.9550    -1.0480 H     1 <1>   0.1500 
 27 H       -5.9890     3.6710    -0.4330 H     1 <1>   0.0800 
 28 H       -6.4760     4.5370    -1.8500 H     1 <1>   0.0800 
 29 H       -4.6600     6.0220    -3.0670 H     1 <1>   0.0800 
 30 H       -3.0890     6.1010    -2.3280 H     1 <1>   0.0800 
 31 H       -5.7110     5.7490     0.8120 H     1 <1>   0.0800 
 32 H       -7.3100     5.6800     0.1290 H     1 <1>   0.0800 
 33 H       -4.4400     8.1100    -1.8440 H     1 <1>   0.0800 
 34 H       -3.9290     7.2690    -0.4090 H     1 <1>   0.0800 
 35 H       -6.6060     7.1290    -1.6400 H     1 <1>   0.4500 
 36 H       -8.1740     7.2960     0.9370 H     1 <1>   0.0800 
 37 H       -8.5540     8.0770    -0.5760 H     1 <1>   0.0800 
 38 H       -5.2500     9.7650    -1.0490 H     1 <1>   0.0800 
 39 H       -6.8320     9.5310    -1.7460 H     1 <1>   0.0800 
 40 H       -4.6390     8.5600     1.1410 H     1 <1>   0.0800 
 41 H       -5.8210     7.5620     1.9430 H     1 <1>   0.0800 
 42 H       -9.5350     9.2710     1.3490 H     1 <1>   0.0800 
 43 H       -6.6360    11.7200    -0.6200 H     1 <1>   0.0800 
 44 H       -5.6340     9.7490     3.0470 H     1 <1>   0.0800 
 45 H       -8.6270    11.5130     0.8340 H     1 <1>   0.0800 
 46 H       -8.8460    10.6000    -0.6250 H     1 <1>   0.0800 
 47 H       -8.0330    10.3460     2.9970 H     1 <1>   0.0800 
 48 H       -7.8440     8.6230     3.0430 H     1 <1>   0.0800 
 49 H       -6.3210    11.7920     1.8350 H     1 <1>   0.0800 
 50 H       -4.9400    11.0770     1.0700 H     1 <1>   0.0800 
@<TRIPOS>BOND
  1   1   2  1   
  2   2   3  1   
  3   2   4  2   
  4   3   5  1   
  5   4   6  1   
  6   4  25  1   
  7   5   6  2   
  8   5   7  1   
  9   6  26  1   
 10   7   8  2   
 11   7   9  am  
 12   9  10  1   
 13   9  11  1   
 14  10  12  1   
 15  10  27  1   
 16  10  28  1   
 17  11  13  1   
 18  11  29  1   
 19  11  30  1   
 20  12  14  1   
 21  12  31  1   
 22  12  32  1   
 23  13  14  1   
 24  13  33  1   
 25  13  34  1   
 26  14  15  1   
 27  14  35  1   
 28  15  16  1   
 29  15  17  1   
 30  15  18  1   
 31  16  19  1   
 32  16  36  1   
 33  16  37  1   
 34  17  20  1   
 35  17  38  1   
 36  17  39  1   
 37  18  21  1   
 38  18  40  1   
 39  18  41  1   
 40  19  22  1   
 41  19  23  1   
 42  19  42  1   
 43  20  22  1   
 44  20  24  1   
 45  20  43  1   
 46  21  23  1   
 47  21  24  1   
 48  21  44  1   
 49  22  45  1   
 50  22  46  1   
 51  23  47  1   
 52  23  48  1   
 53  24  49  1   
 54  24  50  1   
@<TRIPOS>SUBSTRUCTURE
  1 ****  12 GROUP 4 **** **** 0

# MOE 2024.06 (io_trps.svl 2023.06)
