@<TRIPOS>MOLECULE
NONAME
38 39 1 0 0 
SMALL
USER_CHARGES


@<TRIPOS>ATOM
  1 O        0.2410    -0.6120    -0.4200 O.2   1 <1>  -0.5700 
  2 C       -0.2120    -1.5740     0.1620 C.2   1 <1>   0.6340 
  3 O        0.4320    -2.0430     1.2360 O.3   1 <1>  -0.4300 
  4 C       -1.4330    -2.2470    -0.2480 C.ar  1 <1>   0.0860 
  5 C        1.6280    -1.4490     1.7050 C.3   1 <1>   0.0400 
  6 C       -1.9550    -3.3380     0.4500 C.ar  1 <1>  -0.1500 
  7 C       -2.1430    -1.8220    -1.3730 C.ar  1 <1>  -0.1500 
  8 C       -3.1210    -3.9670     0.0540 C.ar  1 <1>  -0.1500 
  9 C       -3.3090    -2.4440    -1.7770 C.ar  1 <1>  -0.1500 
 10 C       -3.8130    -3.5190    -1.0610 C.ar  1 <1>  -0.1440 
 11 C       -5.1030    -4.1930    -1.4920 C.3   1 <1>   0.4860 
 12 N       -6.1900    -3.7800    -0.5630 N.4   1 <1>  -0.9590 
 13 C       -7.4300    -4.6000    -0.7930 C.3   1 <1>   0.3430 
 14 C       -6.4650    -2.3140    -0.6530 C.3   1 <1>   0.3430 
 15 C       -8.5700    -4.2170     0.1700 C.3   1 <1>   0.2000 
 16 C       -7.5380    -1.9210     0.3660 C.3   1 <1>  -0.1600 
 17 O       -9.7120    -4.8590    -0.2570 O.3   1 <1>  -0.6800 
 18 C       -8.8420    -2.7100     0.1640 C.3   1 <1>  -0.1600 
 19 H        1.9620    -1.9910     2.5710 H     1 <1>   0.0800 
 20 H        1.4290    -0.4230     1.9620 H     1 <1>   0.0800 
 21 H        2.3690    -1.4990     0.9260 H     1 <1>   0.0800 
 22 H       -1.4330    -3.7030     1.3200 H     1 <1>   0.1500 
 23 H       -1.7630    -0.9870    -1.9400 H     1 <1>   0.1500 
 24 H       -3.4740    -4.8100     0.6250 H     1 <1>   0.1500 
 25 H       -3.8120    -2.0780    -2.6580 H     1 <1>   0.1500 
 26 H       -4.9710    -5.2620    -1.4590 H     1 <1>   0.0800 
 27 H       -5.3480    -3.9110    -2.5040 H     1 <1>   0.0800 
 28 H       -5.8450    -3.9620     0.3870 H     1 <1>   0.4500 
 29 H       -7.2090    -5.6470    -0.6680 H     1 <1>   0.0800 
 30 H       -7.7780    -4.4420    -1.8000 H     1 <1>   0.0800 
 31 H       -6.8050    -2.0650    -1.6460 H     1 <1>   0.0800 
 32 H       -5.5630    -1.7550    -0.4540 H     1 <1>   0.0800 
 33 H       -8.3470    -4.5650     1.1650 H     1 <1>   0.0800 
 34 H       -7.7440    -0.8690     0.2650 H     1 <1>   0.0800 
 35 H       -7.1610    -2.0770     1.3620 H     1 <1>   0.0800 
 36 H      -10.4730    -4.6580     0.3270 H     1 <1>   0.4000 
 37 H       -9.5380    -2.4600     0.9470 H     1 <1>   0.0800 
 38 H       -9.2780    -2.4270    -0.7810 H     1 <1>   0.0800 
@<TRIPOS>BOND
  1   1   2  2   
  2   2   3  1   
  3   2   4  1   
  4   3   5  1   
  5   4   6  ar  
  6   4   7  ar  
  7   5  19  1   
  8   5  20  1   
  9   5  21  1   
 10   6   8  ar  
 11   6  22  1   
 12   7   9  ar  
 13   7  23  1   
 14   8  10  ar  
 15   8  24  1   
 16   9  10  ar  
 17   9  25  1   
 18  10  11  1   
 19  11  12  1   
 20  11  26  1   
 21  11  27  1   
 22  12  13  1   
 23  12  14  1   
 24  12  28  1   
 25  13  15  1   
 26  13  29  1   
 27  13  30  1   
 28  14  16  1   
 29  14  31  1   
 30  14  32  1   
 31  15  17  1   
 32  15  18  1   
 33  15  33  1   
 34  16  18  1   
 35  16  34  1   
 36  16  35  1   
 37  17  36  1   
 38  18  37  1   
 39  18  38  1   
@<TRIPOS>SUBSTRUCTURE
  1 ****  10 GROUP 4 **** **** 0

# MOE 2024.06 (io_trps.svl 2023.06)
