@<TRIPOS>MOLECULE
NONAME
28 28 1 0 0 
SMALL
USER_CHARGES


@<TRIPOS>ATOM
  1 BR       0.3560    -4.0940    -2.9410 Br    1 <1>  -0.1110 
  2 C        1.6440    -2.8820    -2.1710 C.ar  1 <1>   0.1110 
  3 C        1.6050    -2.5510    -0.8180 C.ar  1 <1>   0.0820 
  4 C        2.5940    -2.3500    -3.0220 C.ar  1 <1>  -0.1500 
  5 O        0.7010    -3.0690     0.0520 O.3   1 <1>  -0.2330 
  6 C        2.5300    -1.6400    -0.3310 C.ar  1 <1>  -0.1500 
  7 C        3.5220    -1.4550    -2.5160 C.ar  1 <1>  -0.1500 
  8 C        0.4190    -4.3640     0.2420 C.2   1 <1>   0.8700 
  9 C        3.4860    -1.0990    -1.1760 C.ar  1 <1>  -0.1500 
 10 O       -0.6950    -4.6880     0.5780 O.2   1 <1>  -0.5700 
 11 O        1.3620    -5.3010     0.1000 O.3   1 <1>  -0.4300 
 12 C        2.7590    -5.0930     0.1560 C.3   1 <1>   0.1200 
 13 C        3.4580    -6.4270     0.4530 C.3   1 <1>  -0.0800 
 14 C        4.9700    -6.2080     0.5930 C.3   1 <1>  -0.2400 
 15 C        3.1860    -7.4680    -0.6430 C.3   1 <1>  -0.2400 
 16 H        2.6050    -2.6280    -4.0620 H     1 <1>   0.1500 
 17 H        2.5030    -1.3550     0.7070 H     1 <1>   0.1500 
 18 H        4.2690    -1.0300    -3.1660 H     1 <1>   0.1500 
 19 H        4.2050    -0.3950    -0.7920 H     1 <1>   0.1500 
 20 H        2.9670    -4.3780     0.9330 H     1 <1>   0.0800 
 21 H        3.0900    -4.7110    -0.7940 H     1 <1>   0.0800 
 22 H        3.0850    -6.8020     1.3920 H     1 <1>   0.0800 
 23 H        5.3870    -5.8320    -0.3250 H     1 <1>   0.0800 
 24 H        5.4590    -7.1350     0.8360 H     1 <1>   0.0800 
 25 H        5.1760    -5.5040     1.3800 H     1 <1>   0.0800 
 26 H        3.5310    -7.1140    -1.5980 H     1 <1>   0.0800 
 27 H        2.1310    -7.6700    -0.7140 H     1 <1>   0.0800 
 28 H        3.6870    -8.3910    -0.4150 H     1 <1>   0.0800 
@<TRIPOS>BOND
  1   1   2  1   
  2   2   3  ar  
  3   2   4  ar  
  4   3   5  1   
  5   3   6  ar  
  6   4   7  ar  
  7   4  16  1   
  8   5   8  1   
  9   6   9  ar  
 10   6  17  1   
 11   7   9  ar  
 12   7  18  1   
 13   8  10  2   
 14   8  11  1   
 15   9  19  1   
 16  11  12  1   
 17  12  13  1   
 18  12  20  1   
 19  12  21  1   
 20  13  14  1   
 21  13  15  1   
 22  13  22  1   
 23  14  23  1   
 24  14  24  1   
 25  14  25  1   
 26  15  26  1   
 27  15  27  1   
 28  15  28  1   
@<TRIPOS>SUBSTRUCTURE
  1 ****   3 GROUP 4 **** **** 0

# MOE 2024.06 (io_trps.svl 2023.06)
