@<TRIPOS>MOLECULE
NONAME
37 38 1 0 0 
SMALL
USER_CHARGES


@<TRIPOS>ATOM
  1 CL      -0.3980    -0.6130     0.1850 Cl    1 <1>  -0.1770 
  2 C       -1.7310     0.5210     0.1490 C.ar  1 <1>   0.1770 
  3 C       -1.5050     1.8860     0.1010 C.ar  1 <1>   0.1900 
  4 C       -3.0250     0.0370     0.1700 C.ar  1 <1>  -0.1500 
  5 F       -0.2790     2.3480     0.0820 F     1 <1>  -0.1900 
  6 C       -2.5540     2.7840     0.0760 C.ar  1 <1>  -0.1500 
  7 C       -4.1020     0.9190     0.1410 C.ar  1 <1>   0.1170 
  8 C       -3.8490     2.2920     0.0980 C.ar  1 <1>  -0.1500 
  9 N       -5.4000     0.3880     0.1740 N.am  1 <1>  -0.5470 
 10 C       -6.5890     0.8730    -0.2970 C.2   1 <1>   0.6900 
 11 O       -6.6440     1.9480    -0.8630 O.2   1 <1>  -0.5700 
 12 N       -7.7270     0.1240    -0.1240 N.am  1 <1>  -0.6600 
 13 C       -7.7210    -1.3160     0.2840 C.3   1 <1>   0.1400 
 14 C       -9.0590     0.7330    -0.4290 C.3   1 <1>   0.1400 
 15 C       -8.9310    -2.0590    -0.3020 C.3   1 <1>  -0.0800 
 16 C      -10.1640     0.0810     0.4170 C.3   1 <1>  -0.0800 
 17 C      -10.2640    -1.4360     0.1570 C.3   1 <1>  -0.1600 
 18 C       -8.8850    -3.5540     0.0440 C.3   1 <1>  -0.2400 
 19 C      -11.5180     0.7630     0.1800 C.3   1 <1>  -0.2400 
 20 H       -3.1880    -1.0230     0.2030 H     1 <1>   0.1500 
 21 H       -2.3610     3.8420     0.0390 H     1 <1>   0.1500 
 22 H       -4.6700     2.9860     0.0850 H     1 <1>   0.1500 
 23 H       -5.4920    -0.5290     0.5910 H     1 <1>   0.3700 
 24 H       -7.7470    -1.3750     1.3590 H     1 <1>   0.0800 
 25 H       -6.8220    -1.7900    -0.0680 H     1 <1>   0.0800 
 26 H       -9.2710     0.6050    -1.4760 H     1 <1>   0.0800 
 27 H       -9.0270     1.7900    -0.2210 H     1 <1>   0.0800 
 28 H       -8.8670    -1.9710    -1.3750 H     1 <1>   0.0800 
 29 H       -9.8990     0.2340     1.4500 H     1 <1>   0.0800 
 30 H      -10.6040    -1.9060     1.0640 H     1 <1>   0.0800 
 31 H      -11.0020    -1.6350    -0.6020 H     1 <1>   0.0800 
 32 H       -8.9180    -3.7000     1.1090 H     1 <1>   0.0800 
 33 H       -7.9840    -4.0000    -0.3370 H     1 <1>   0.0800 
 34 H       -9.7250    -4.0620    -0.3980 H     1 <1>   0.0800 
 35 H      -11.8160     0.6690    -0.8490 H     1 <1>   0.0800 
 36 H      -11.4550     1.8090     0.4250 H     1 <1>   0.0800 
 37 H      -12.2740     0.3160     0.8010 H     1 <1>   0.0800 
@<TRIPOS>BOND
  1   1   2  1   
  2   2   3  ar  
  3   2   4  ar  
  4   3   5  1   
  5   3   6  ar  
  6   4   7  ar  
  7   4  20  1   
  8   6   8  ar  
  9   6  21  1   
 10   7   8  ar  
 11   7   9  1   
 12   8  22  1   
 13   9  10  am  
 14   9  23  1   
 15  10  11  2   
 16  10  12  am  
 17  12  13  1   
 18  12  14  1   
 19  13  15  1   
 20  13  24  1   
 21  13  25  1   
 22  14  16  1   
 23  14  26  1   
 24  14  27  1   
 25  15  17  1   
 26  15  18  1   
 27  15  28  1   
 28  16  17  1   
 29  16  19  1   
 30  16  29  1   
 31  17  30  1   
 32  17  31  1   
 33  18  32  1   
 34  18  33  1   
 35  18  34  1   
 36  19  35  1   
 37  19  36  1   
 38  19  37  1   
@<TRIPOS>SUBSTRUCTURE
  1 ****   9 GROUP 4 **** **** 0

# MOE 2024.06 (io_trps.svl 2023.06)
