@<TRIPOS>MOLECULE
NONAME
30 30 1 0 0 
SMALL
USER_CHARGES


@<TRIPOS>ATOM
  1 O       -0.7380    -0.7930    -2.2430 O.3   1 <1>  -0.6500 
  2 N       -0.7840    -1.8650    -1.6900 N.2   1 <1>  -0.8000 
  3 C       -1.8610    -2.0730    -0.9540 C.2   1 <1>   0.3030 
  4 C       -2.9640    -1.1880    -0.7310 C.ar  1 <1>   0.0860 
  5 C       -1.7970    -3.4270    -0.1970 C.3   1 <1>   0.5640 
  6 C       -2.7550     0.1580    -0.3940 C.ar  1 <1>  -0.1500 
  7 C       -4.3070    -1.6000    -0.8010 C.ar  1 <1>  -0.1500 
  8 N       -0.3580    -3.7190     0.0080 N.4   1 <1>  -0.9060 
  9 C       -2.3040    -4.5710    -1.0800 C.3   1 <1>  -0.2400 
 10 C       -2.5130    -3.4610     1.1630 C.3   1 <1>  -0.2400 
 11 C       -3.7930     1.0170    -0.0970 C.ar  1 <1>  -0.1500 
 12 C       -5.3520    -0.7480    -0.5030 C.ar  1 <1>  -0.1500 
 13 C        0.3480    -2.9260     1.0490 C.3   1 <1>   0.2630 
 14 C       -5.1000     0.5640    -0.1410 C.ar  1 <1>  -0.1500 
 15 H       -1.7390     0.5180    -0.3860 H     1 <1>   0.1500 
 16 H       -4.5350    -2.6010    -1.1080 H     1 <1>   0.1500 
 17 H       -0.1460    -4.7120    -0.0320 H     1 <1>   0.4500 
 18 H       -0.0230    -3.2800    -0.8880 H     1 <1>   0.4500 
 19 H       -3.3530    -4.4570    -1.2770 H     1 <1>   0.0800 
 20 H       -2.1570    -5.5240    -0.6070 H     1 <1>   0.0800 
 21 H       -1.7960    -4.5550    -2.0290 H     1 <1>   0.0800 
 22 H       -2.2600    -2.5950     1.7480 H     1 <1>   0.0800 
 23 H       -2.2580    -4.3520     1.7070 H     1 <1>   0.0800 
 24 H       -3.5780    -3.4550     1.0250 H     1 <1>   0.0800 
 25 H       -3.5850     2.0410     0.1590 H     1 <1>   0.1500 
 26 H       -6.3690    -1.0970    -0.5610 H     1 <1>   0.1500 
 27 H        0.0140    -3.2060     2.0340 H     1 <1>   0.0800 
 28 H        0.1530    -1.8750     0.8920 H     1 <1>   0.0800 
 29 H        1.4110    -3.0850     0.9770 H     1 <1>   0.0800 
 30 H       -5.9120     1.2310     0.0900 H     1 <1>   0.1500 
@<TRIPOS>BOND
  1   1   2  1   
  2   2   3  2   
  3   3   4  1   
  4   3   5  1   
  5   4   6  ar  
  6   4   7  ar  
  7   5   8  1   
  8   5   9  1   
  9   5  10  1   
 10   6  11  ar  
 11   6  15  1   
 12   7  12  ar  
 13   7  16  1   
 14   8  13  1   
 15   8  17  1   
 16   8  18  1   
 17   9  19  1   
 18   9  20  1   
 19   9  21  1   
 20  10  22  1   
 21  10  23  1   
 22  10  24  1   
 23  11  14  ar  
 24  11  25  1   
 25  12  14  ar  
 26  12  26  1   
 27  13  27  1   
 28  13  28  1   
 29  13  29  1   
 30  14  30  1   
@<TRIPOS>SUBSTRUCTURE
  1 ****   4 GROUP 4 **** **** 0

# MOE 2024.06 (io_trps.svl 2023.06)
