@<TRIPOS>MOLECULE
NONAME
39 40 1 0 0 
SMALL
USER_CHARGES


@<TRIPOS>ATOM
  1 O        1.5950    -1.6150    -1.2220 O.2   1 <1>  -0.5700 
  2 C        1.0400    -2.1160    -0.2670 C.2   1 <1>   0.5690 
  3 N       -0.3180    -1.9980    -0.0810 N.am  1 <1>  -0.6600 
  4 C        1.9020    -2.9030     0.7330 C.3   1 <1>   0.2010 
  5 C       -1.1680    -1.2530    -1.0540 C.3   1 <1>   0.1400 
  6 C       -1.0850    -2.5950     1.0500 C.3   1 <1>   0.1400 
  7 N        3.3670    -2.7790     0.4880 N.am  1 <1>  -0.7300 
  8 C       -2.2410    -2.1880    -1.6230 C.3   1 <1>  -0.1600 
  9 C       -2.1530    -3.5470     0.5010 C.3   1 <1>  -0.1600 
 10 C        4.3320    -2.8600     1.4350 C.2   1 <1>   0.5690 
 11 C       -3.0700    -2.8450    -0.5100 C.3   1 <1>  -0.1600 
 12 O        4.0670    -3.1420     2.5780 O.2   1 <1>  -0.5700 
 13 C        5.7800    -2.5760     1.0680 C.3   1 <1>   0.0440 
 14 C        6.0220    -2.4880    -0.4370 C.ar  1 <1>  -0.1440 
 15 C        6.4580    -3.5990    -1.1430 C.ar  1 <1>  -0.1500 
 16 C        5.7930    -1.2990    -1.1130 C.ar  1 <1>  -0.1500 
 17 C        6.6620    -3.5220    -2.5100 C.ar  1 <1>  -0.1500 
 18 C        5.9960    -1.2220    -2.4800 C.ar  1 <1>  -0.1500 
 19 C        6.4310    -2.3340    -3.1790 C.ar  1 <1>  -0.1500 
 20 H        1.6310    -3.9410     0.6720 H     1 <1>   0.0800 
 21 H        1.6900    -2.5520     1.7260 H     1 <1>   0.0800 
 22 H       -0.5740    -0.8580    -1.8600 H     1 <1>   0.0800 
 23 H       -1.6340    -0.4240    -0.5490 H     1 <1>   0.0800 
 24 H       -1.5590    -1.8020     1.6050 H     1 <1>   0.0800 
 25 H       -0.4440    -3.1320     1.7250 H     1 <1>   0.0800 
 26 H        3.6100    -2.4880    -0.4690 H     1 <1>   0.3700 
 27 H       -1.7570    -2.9470    -2.2140 H     1 <1>   0.0800 
 28 H       -2.8880    -1.6290    -2.2750 H     1 <1>   0.0800 
 29 H       -2.7420    -3.9300     1.3160 H     1 <1>   0.0800 
 30 H       -1.6650    -4.3830     0.0290 H     1 <1>   0.0800 
 31 H       -3.7540    -3.5580    -0.9380 H     1 <1>   0.0800 
 32 H       -3.6480    -2.0910    -0.0040 H     1 <1>   0.0800 
 33 H        6.3920    -3.3510     1.4900 H     1 <1>   0.0800 
 34 H        6.0670    -1.6520     1.5330 H     1 <1>   0.0800 
 35 H        6.6360    -4.5310    -0.6340 H     1 <1>   0.1500 
 36 H        5.4500    -0.4280    -0.5810 H     1 <1>   0.1500 
 37 H        7.0000    -4.3880    -3.0530 H     1 <1>   0.1500 
 38 H        5.8120    -0.2980    -2.9990 H     1 <1>   0.1500 
 39 H        6.5880    -2.2740    -4.2420 H     1 <1>   0.1500 
@<TRIPOS>BOND
  1   1   2  2   
  2   2   3  am  
  3   2   4  1   
  4   3   5  1   
  5   3   6  1   
  6   4   7  1   
  7   4  20  1   
  8   4  21  1   
  9   5   8  1   
 10   5  22  1   
 11   5  23  1   
 12   6   9  1   
 13   6  24  1   
 14   6  25  1   
 15   7  10  am  
 16   7  26  1   
 17   8  11  1   
 18   8  27  1   
 19   8  28  1   
 20   9  11  1   
 21   9  29  1   
 22   9  30  1   
 23  10  12  2   
 24  10  13  1   
 25  11  31  1   
 26  11  32  1   
 27  13  14  1   
 28  13  33  1   
 29  13  34  1   
 30  14  15  ar  
 31  14  16  ar  
 32  15  17  ar  
 33  15  35  1   
 34  16  18  ar  
 35  16  36  1   
 36  17  19  ar  
 37  17  37  1   
 38  18  19  ar  
 39  18  38  1   
 40  19  39  1   
@<TRIPOS>SUBSTRUCTURE
  1 ****   7 GROUP 4 **** **** 0

# MOE 2024.06 (io_trps.svl 2023.06)
