@<TRIPOS>MOLECULE
NONAME
32 33 1 0 0 
SMALL
USER_CHARGES


@<TRIPOS>ATOM
  1 F        2.2710    -0.7430    -0.6020 F     1 <1>  -0.3400 
  2 C        1.1350    -1.4310    -0.5590 C.3   1 <1>   1.1580 
  3 F        0.5640    -1.2980    -1.7490 F     1 <1>  -0.3400 
  4 F        0.3470    -0.8080     0.3090 F     1 <1>  -0.3400 
  5 C        1.3510    -2.9390    -0.1750 C.2   1 <1>  -0.0380 
  6 N        2.6120    -3.4150     0.0120 N.pl3 1 <1>  -0.8690 
  7 C        0.2070    -3.7100    -0.0750 C.2   1 <1>  -0.1360 
  8 C        3.1080    -4.7890     0.2660 C.3   1 <1>   0.2090 
  9 C        0.0010    -5.0330     0.3130 C.2   1 <1>   0.2990 
 10 C        2.2860    -5.5120     1.3330 C.3   1 <1>   0.1860 
 11 N        0.9130    -5.8350     0.8760 N.2   1 <1>  -0.1460 
 12 C       -1.3050    -5.6030     0.1240 C.ar  1 <1>   0.0860 
 13 C       -1.7530    -5.9570    -1.1480 C.ar  1 <1>  -0.1500 
 14 C       -2.1570    -5.8310     1.2040 C.ar  1 <1>  -0.1500 
 15 C       -2.9980    -6.5280    -1.3310 C.ar  1 <1>  -0.1500 
 16 C       -3.4010    -6.4030     1.0210 C.ar  1 <1>  -0.1500 
 17 C       -3.8290    -6.7560    -0.2480 C.ar  1 <1>  -0.1430 
 18 C       -5.1970    -7.3840    -0.4490 C.3   1 <1>  -0.0970 
 19 H        3.4000    -2.7480    -0.1070 H     1 <1>   0.4000 
 20 H       -0.7060    -3.2050    -0.3500 H     1 <1>   0.1500 
 21 H        4.1270    -4.7200     0.6110 H     1 <1>   0.0800 
 22 H        3.1150    -5.3500    -0.6540 H     1 <1>   0.0800 
 23 H        2.2370    -4.9030     2.2200 H     1 <1>   0.0800 
 24 H        2.7870    -6.4300     1.5870 H     1 <1>   0.0800 
 25 H        0.6300    -6.7950     1.1020 H     1 <1>   0.4000 
 26 H       -1.1280    -5.7860    -2.0080 H     1 <1>   0.1500 
 27 H       -1.8570    -5.5550     2.2010 H     1 <1>   0.1500 
 28 H       -3.3240    -6.7960    -2.3230 H     1 <1>   0.1500 
 29 H       -4.0460    -6.5730     1.8680 H     1 <1>   0.1500 
 30 H       -5.1240    -8.4540    -0.3670 H     1 <1>   0.0800 
 31 H       -5.5870    -7.1380    -1.4210 H     1 <1>   0.0800 
 32 H       -5.8900    -7.0260     0.2910 H     1 <1>   0.0800 
@<TRIPOS>BOND
  1   1   2  1   
  2   2   3  1   
  3   2   4  1   
  4   2   5  1   
  5   5   6  1   
  6   5   7  2   
  7   6   8  1   
  8   6  19  1   
  9   7   9  1   
 10   7  20  1   
 11   8  10  1   
 12   8  21  1   
 13   8  22  1   
 14   9  11  2   
 15   9  12  1   
 16  10  11  1   
 17  10  23  1   
 18  10  24  1   
 19  11  25  1   
 20  12  13  ar  
 21  12  14  ar  
 22  13  15  ar  
 23  13  26  1   
 24  14  16  ar  
 25  14  27  1   
 26  15  17  ar  
 27  15  28  1   
 28  16  17  ar  
 29  16  29  1   
 30  17  18  1   
 31  18  30  1   
 32  18  31  1   
 33  18  32  1   
@<TRIPOS>SUBSTRUCTURE
  1 ****   9 GROUP 4 **** **** 0

# MOE 2024.06 (io_trps.svl 2023.06)
