@<TRIPOS>MOLECULE
NONAME
40 41 1 0 0 
SMALL
USER_CHARGES


@<TRIPOS>ATOM
  1 O       -0.1630     1.2200    -0.7580 O.2   1 <1>  -0.5700 
  2 C       -0.8660     1.8050     0.0430 C.2   1 <1>   0.5440 
  3 N       -0.2600     2.4970     1.0550 N.am  1 <1>  -0.7300 
  4 C       -2.3120     1.7640    -0.0660 C.ar  1 <1>   0.0860 
  5 C        1.2140     2.5850     1.2660 C.3   1 <1>   0.1400 
  6 C       -3.1210     2.8030     0.4030 C.ar  1 <1>  -0.1500 
  7 C       -2.9560     0.6720    -0.6510 C.ar  1 <1>  -0.1500 
  8 C        1.9080     3.4070     0.1690 C.3   1 <1>   0.2000 
  9 C       -4.5000     2.7520     0.3060 C.ar  1 <1>  -0.1500 
 10 C       -4.3330     0.6130    -0.7520 C.ar  1 <1>  -0.1500 
 11 O        3.2190     3.6670     0.5500 O.3   1 <1>  -0.5600 
 12 C        1.3190     4.7920    -0.0770 C.3   1 <1>  -0.1600 
 13 C       -5.1180     1.6480    -0.2730 C.ar  1 <1>   0.0830 
 14 C        3.7200     4.7300    -0.1930 C.3   1 <1>   0.1200 
 15 C        2.5170     5.5990    -0.5540 C.3   1 <1>  -0.1600 
 16 O       -6.4560     1.5150    -0.4070 O.3   1 <1>  -0.3630 
 17 C       -7.3510     2.5130     0.0280 C.3   1 <1>   0.1200 
 18 C       -8.7740     2.0460    -0.2810 C.3   1 <1>  -0.1600 
 19 C       -9.8110     3.0830     0.1640 C.3   1 <1>  -0.2400 
 20 H       -0.8340     2.8820     1.8050 H     1 <1>   0.3700 
 21 H        1.6290     1.5920     1.2690 H     1 <1>   0.0800 
 22 H        1.4040     3.0420     2.2210 H     1 <1>   0.0800 
 23 H       -2.6630     3.6710     0.8420 H     1 <1>   0.1500 
 24 H       -2.3590    -0.1400    -1.0320 H     1 <1>   0.1500 
 25 H        1.9430     2.8430    -0.7490 H     1 <1>   0.0800 
 26 H       -5.0770     3.5760     0.6820 H     1 <1>   0.1500 
 27 H       -4.8100    -0.2380    -1.2050 H     1 <1>   0.1500 
 28 H        0.9420     5.1960     0.8460 H     1 <1>   0.0800 
 29 H        0.5260     4.7560    -0.8020 H     1 <1>   0.0800 
 30 H        4.1910     4.3290    -1.0740 H     1 <1>   0.0800 
 31 H        4.4430     5.2580     0.4060 H     1 <1>   0.0800 
 32 H        2.5690     6.5540    -0.0610 H     1 <1>   0.0800 
 33 H        2.4860     5.7530    -1.6180 H     1 <1>   0.0800 
 34 H       -7.1270     3.4240    -0.5000 H     1 <1>   0.0800 
 35 H       -7.2180     2.6510     1.0870 H     1 <1>   0.0800 
 36 H       -8.9590     1.1170     0.2300 H     1 <1>   0.0800 
 37 H       -8.8690     1.8810    -1.3400 H     1 <1>   0.0800 
 38 H       -9.7460     3.2510     1.2250 H     1 <1>   0.0800 
 39 H      -10.8020     2.7310    -0.0640 H     1 <1>   0.0800 
 40 H       -9.6560     4.0170    -0.3470 H     1 <1>   0.0800 
@<TRIPOS>BOND
  1   1   2  2   
  2   2   3  am  
  3   2   4  1   
  4   3   5  1   
  5   3  20  1   
  6   4   6  ar  
  7   4   7  ar  
  8   5   8  1   
  9   5  21  1   
 10   5  22  1   
 11   6   9  ar  
 12   6  23  1   
 13   7  10  ar  
 14   7  24  1   
 15   8  11  1   
 16   8  12  1   
 17   8  25  1   
 18   9  13  ar  
 19   9  26  1   
 20  10  13  ar  
 21  10  27  1   
 22  11  14  1   
 23  12  15  1   
 24  12  28  1   
 25  12  29  1   
 26  13  16  1   
 27  14  15  1   
 28  14  30  1   
 29  14  31  1   
 30  15  32  1   
 31  15  33  1   
 32  16  17  1   
 33  17  18  1   
 34  17  34  1   
 35  17  35  1   
 36  18  19  1   
 37  18  36  1   
 38  18  37  1   
 39  19  38  1   
 40  19  39  1   
 41  19  40  1   
@<TRIPOS>SUBSTRUCTURE
  1 ****   4 GROUP 4 **** **** 0

# MOE 2024.06 (io_trps.svl 2023.06)
