@<TRIPOS>MOLECULE
NONAME
43 44 1 0 0 
SMALL
USER_CHARGES


@<TRIPOS>ATOM
  1 O       -1.6550     1.0210    -0.6620 O.3   1 <1>  -0.6800 
  2 C       -2.1920     1.8770     0.2710 C.3   1 <1>   0.4800 
  3 C       -1.1040     2.8430     0.5940 C.1   1 <1>  -0.2000 
  4 C       -2.6090     1.0460     1.5000 C.3   1 <1>  -0.1600 
  5 C       -3.4000     2.5600    -0.3820 C.3   1 <1>  -0.1600 
  6 C       -0.1590     3.5440     0.7630 C.1   1 <1>  -0.2000 
  7 C       -4.0600     0.5180     1.4580 C.3   1 <1>  -0.1600 
  8 C       -4.5040     1.5710    -0.8220 C.3   1 <1>  -0.1600 
  9 C        1.1280     4.2800     0.8250 C.3   1 <1>   0.5430 
 10 C       -4.5640     0.2870     0.0280 C.3   1 <1>  -0.1600 
 11 N        2.1590     3.3670     0.2750 N.4   1 <1>  -0.9590 
 12 C        3.5390     3.8310     0.5580 C.3   1 <1>   0.3430 
 13 C        1.9620     3.1140    -1.1790 C.3   1 <1>   0.3430 
 14 C        4.5150     2.6520     0.6150 C.3   1 <1>  -0.1600 
 15 C        2.1060     1.6210    -1.4760 C.3   1 <1>  -0.1600 
 16 C        4.5430     1.7300    -0.6190 C.3   1 <1>  -0.1600 
 17 C        3.2650     0.8920    -0.7720 C.3   1 <1>  -0.1600 
 18 H       -2.3690     0.4160    -0.9350 H     1 <1>   0.4000 
 19 H       -2.5220     1.6590     2.3800 H     1 <1>   0.0800 
 20 H       -1.9210     0.2280     1.6230 H     1 <1>   0.0800 
 21 H       -3.0800     3.1530    -1.2200 H     1 <1>   0.0800 
 22 H       -3.8180     3.2380     0.3420 H     1 <1>   0.0800 
 23 H       -4.7080     1.2370     1.9300 H     1 <1>   0.0800 
 24 H       -4.1290    -0.3960     2.0240 H     1 <1>   0.0800 
 25 H       -4.3530     1.2970    -1.8530 H     1 <1>   0.0800 
 26 H       -5.4530     2.0780    -0.7670 H     1 <1>   0.0800 
 27 H        1.3500     4.5250     1.8510 H     1 <1>   0.0800 
 28 H        1.0720     5.1870     0.2470 H     1 <1>   0.0800 
 29 H       -5.5790    -0.0740     0.0560 H     1 <1>   0.0800 
 30 H       -3.9690    -0.4850    -0.4310 H     1 <1>   0.0800 
 31 H        2.0090     2.4620     0.7380 H     1 <1>   0.4500 
 32 H        3.5660     4.3390     1.5090 H     1 <1>   0.0800 
 33 H        3.8540     4.5280    -0.2010 H     1 <1>   0.0800 
 34 H        2.6900     3.6670    -1.7490 H     1 <1>   0.0800 
 35 H        0.9790     3.4320    -1.4920 H     1 <1>   0.0800 
 36 H        4.3110     2.0680     1.4950 H     1 <1>   0.0800 
 37 H        5.5030     3.0610     0.7450 H     1 <1>   0.0800 
 38 H        2.2310     1.5200    -2.5400 H     1 <1>   0.0800 
 39 H        1.1800     1.1270    -1.2320 H     1 <1>   0.0800 
 40 H        5.3670     1.0470    -0.4920 H     1 <1>   0.0800 
 41 H        4.7410     2.2910    -1.5170 H     1 <1>   0.0800 
 42 H        3.4970     0.0120    -1.3500 H     1 <1>   0.0800 
 43 H        2.9450     0.5410     0.1950 H     1 <1>   0.0800 
@<TRIPOS>BOND
  1   1   2  1   
  2   1  18  1   
  3   2   3  1   
  4   2   4  1   
  5   2   5  1   
  6   3   6  3   
  7   4   7  1   
  8   4  19  1   
  9   4  20  1   
 10   5   8  1   
 11   5  21  1   
 12   5  22  1   
 13   6   9  1   
 14   7  10  1   
 15   7  23  1   
 16   7  24  1   
 17   8  10  1   
 18   8  25  1   
 19   8  26  1   
 20   9  11  1   
 21   9  27  1   
 22   9  28  1   
 23  10  29  1   
 24  10  30  1   
 25  11  12  1   
 26  11  13  1   
 27  11  31  1   
 28  12  14  1   
 29  12  32  1   
 30  12  33  1   
 31  13  15  1   
 32  13  34  1   
 33  13  35  1   
 34  14  16  1   
 35  14  36  1   
 36  14  37  1   
 37  15  17  1   
 38  15  38  1   
 39  15  39  1   
 40  16  17  1   
 41  16  40  1   
 42  16  41  1   
 43  17  42  1   
 44  17  43  1   
@<TRIPOS>SUBSTRUCTURE
  1 ****   3 GROUP 4 **** **** 0

# MOE 2024.06 (io_trps.svl 2023.06)
