@<TRIPOS>MOLECULE
NONAME
25 25 1 0 0 
SMALL
USER_CHARGES


@<TRIPOS>ATOM
  1 O       -1.9770     1.6840     0.1650 O.3   1 <1>  -0.6800 
  2 C       -3.1520     2.3840    -0.0860 C.3   1 <1>   0.1200 
  3 C       -4.3830     1.5540     0.3350 C.3   1 <1>  -0.0800 
  4 C       -4.4500     0.1570    -0.3270 C.3   1 <1>   0.4230 
  5 C       -5.6490     2.3690     0.0010 C.3   1 <1>  -0.1600 
  6 N       -3.3270    -0.6700     0.1300 N.4   1 <1>  -0.8530 
  7 C       -5.7470    -0.5890     0.0050 C.3   1 <1>  -0.1600 
  8 C       -6.9340     1.6090     0.3510 C.3   1 <1>  -0.1600 
  9 C       -6.9820     0.2470    -0.3470 C.3   1 <1>  -0.1600 
 10 H       -1.2040     2.2900     0.0800 H     1 <1>   0.4000 
 11 H       -3.1170     3.3040     0.4740 H     1 <1>   0.0800 
 12 H       -3.1830     2.6190    -1.1380 H     1 <1>   0.0800 
 13 H       -4.3610     1.4330     1.4050 H     1 <1>   0.0800 
 14 H       -4.3870     0.2900    -1.3960 H     1 <1>   0.0800 
 15 H       -5.6380     3.2990     0.5440 H     1 <1>   0.0800 
 16 H       -5.6650     2.6090    -1.0500 H     1 <1>   0.0800 
 17 H       -3.4690    -0.9780     1.0940 H     1 <1>   0.4500 
 18 H       -2.4950    -0.0490     0.1300 H     1 <1>   0.4500 
 19 H       -3.1550    -1.4710    -0.4800 H     1 <1>   0.4500 
 20 H       -5.7900    -1.5140    -0.5450 H     1 <1>   0.0800 
 21 H       -5.7830    -0.8150     1.0580 H     1 <1>   0.0800 
 22 H       -6.9960     1.4720     1.4180 H     1 <1>   0.0800 
 23 H       -7.7890     2.1940     0.0520 H     1 <1>   0.0800 
 24 H       -7.0370     0.3920    -1.4140 H     1 <1>   0.0800 
 25 H       -7.8740    -0.2780    -0.0460 H     1 <1>   0.0800 
@<TRIPOS>BOND
  1   1   2  1   
  2   1  10  1   
  3   2   3  1   
  4   2  11  1   
  5   2  12  1   
  6   3   4  1   
  7   3   5  1   
  8   3  13  1   
  9   4   6  1   
 10   4   7  1   
 11   4  14  1   
 12   5   8  1   
 13   5  15  1   
 14   5  16  1   
 15   6  17  1   
 16   6  18  1   
 17   6  19  1   
 18   7   9  1   
 19   7  20  1   
 20   7  21  1   
 21   8   9  1   
 22   8  22  1   
 23   8  23  1   
 24   9  24  1   
 25   9  25  1   
@<TRIPOS>SUBSTRUCTURE
  1 ****   3 GROUP 4 **** **** 0

# MOE 2024.06 (io_trps.svl 2023.06)
