@<TRIPOS>MOLECULE
NONAME
44 44 1 0 0 
SMALL
USER_CHARGES


@<TRIPOS>ATOM
  1 CL      -0.0580     0.1690     1.6870 Cl    1 <1>  -0.1770 
  2 C        1.4410     0.7110     0.9730 C.ar  1 <1>   0.1770 
  3 C        2.1840    -0.1710     0.2120 C.ar  1 <1>  -0.1500 
  4 C        1.8550     2.0130     1.1800 C.ar  1 <1>  -0.1500 
  5 C        3.3750     0.2500    -0.3560 C.ar  1 <1>  -0.1440 
  6 C        3.0440     2.4510     0.6200 C.ar  1 <1>  -0.1440 
  7 C        3.8080     1.5580    -0.1340 C.ar  1 <1>   0.0830 
  8 C        4.1780    -0.7210    -1.2120 C.3   1 <1>  -0.0960 
  9 C        3.4830     3.8920     0.8340 C.3   1 <1>  -0.0960 
 10 O        4.9790     1.9710    -0.6680 O.3   1 <1>  -0.3630 
 11 C        6.1200     1.7860     0.1380 C.3   1 <1>   0.1200 
 12 C        7.3320     2.3030    -0.6310 C.3   1 <1>   0.1200 
 13 O        8.4740     2.1260     0.1540 O.3   1 <1>  -0.5600 
 14 C        9.6500     2.5610    -0.4380 C.3   1 <1>   0.1200 
 15 C       10.7840     2.2880     0.5550 C.3   1 <1>   0.3430 
 16 N       12.1100     2.7290     0.0230 N.4   1 <1>  -0.9060 
 17 C       13.2170     2.5060     0.9640 C.3   1 <1>   0.4230 
 18 C       14.4110     3.3030     0.4590 C.3   1 <1>  -0.2400 
 19 C       13.5440     1.0160     1.0160 C.3   1 <1>  -0.2400 
 20 H        1.8220    -1.1720     0.0690 H     1 <1>   0.1500 
 21 H        1.2440     2.6690     1.7720 H     1 <1>   0.1500 
 22 H        3.5590    -1.5340    -1.5470 H     1 <1>   0.0800 
 23 H        4.9960    -1.1220    -0.6420 H     1 <1>   0.0800 
 24 H        4.5680    -0.2170    -2.0780 H     1 <1>   0.0800 
 25 H        2.6490     4.5060     1.1250 H     1 <1>   0.0800 
 26 H        3.8940     4.2950    -0.0740 H     1 <1>   0.0800 
 27 H        4.2290     3.9380     1.6060 H     1 <1>   0.0800 
 28 H        6.2220     0.7360     0.3480 H     1 <1>   0.0800 
 29 H        5.9850     2.3370     1.0510 H     1 <1>   0.0800 
 30 H        7.2110     3.3530    -0.8400 H     1 <1>   0.0800 
 31 H        7.4480     1.7480    -1.5470 H     1 <1>   0.0800 
 32 H        9.5590     3.6150    -0.6400 H     1 <1>   0.0800 
 33 H        9.7950     2.0090    -1.3510 H     1 <1>   0.0800 
 34 H       10.8070     1.2300     0.7620 H     1 <1>   0.0800 
 35 H       10.5690     2.8110     1.4730 H     1 <1>   0.0800 
 36 H       12.0790     3.7310    -0.1960 H     1 <1>   0.4500 
 37 H       12.3300     2.2330    -0.8480 H     1 <1>   0.4500 
 38 H       12.9450     2.8570     1.9490 H     1 <1>   0.0800 
 39 H       14.7140     2.9800    -0.5210 H     1 <1>   0.0800 
 40 H       15.2440     3.1630     1.1260 H     1 <1>   0.0800 
 41 H       14.1880     4.3550     0.4390 H     1 <1>   0.0800 
 42 H       13.8000     0.6360     0.0430 H     1 <1>   0.0800 
 43 H       12.7250     0.4500     1.4200 H     1 <1>   0.0800 
 44 H       14.3890     0.8590     1.6640 H     1 <1>   0.0800 
@<TRIPOS>BOND
  1   1   2  1   
  2   2   3  ar  
  3   2   4  ar  
  4   3   5  ar  
  5   3  20  1   
  6   4   6  ar  
  7   4  21  1   
  8   5   7  ar  
  9   5   8  1   
 10   6   7  ar  
 11   6   9  1   
 12   7  10  1   
 13   8  22  1   
 14   8  23  1   
 15   8  24  1   
 16   9  25  1   
 17   9  26  1   
 18   9  27  1   
 19  10  11  1   
 20  11  12  1   
 21  11  28  1   
 22  11  29  1   
 23  12  13  1   
 24  12  30  1   
 25  12  31  1   
 26  13  14  1   
 27  14  15  1   
 28  14  32  1   
 29  14  33  1   
 30  15  16  1   
 31  15  34  1   
 32  15  35  1   
 33  16  17  1   
 34  16  36  1   
 35  16  37  1   
 36  17  18  1   
 37  17  19  1   
 38  17  38  1   
 39  18  39  1   
 40  18  40  1   
 41  18  41  1   
 42  19  42  1   
 43  19  43  1   
 44  19  44  1   
@<TRIPOS>SUBSTRUCTURE
  1 ****  11 GROUP 4 **** **** 0

# MOE 2024.06 (io_trps.svl 2023.06)
