@<TRIPOS>MOLECULE
NONAME
29 29 1 0 0 
SMALL
USER_CHARGES


@<TRIPOS>ATOM
  1 CL       2.9080     1.7080    -3.7840 Cl    1 <1>  -0.1770 
  2 C        3.0010     1.5730    -2.0470 C.ar  1 <1>   0.1770 
  3 C        4.0470     0.8780    -1.4760 C.ar  1 <1>  -0.1500 
  4 C        2.0200     2.1660    -1.2740 C.ar  1 <1>  -0.1500 
  5 C        4.1230     0.7630    -0.0930 C.ar  1 <1>   0.1990 
  6 C        2.0920     2.0600     0.1050 C.ar  1 <1>  -0.1500 
  7 N        5.1540     0.0690     0.5270 N.am  1 <1>  -0.6930 
  8 C        3.1380     1.3630     0.6860 C.ar  1 <1>  -0.1500 
  9 S        5.3570    -1.6330     0.2870 S.o2  1 <1>   1.3330 
 10 C        6.4310     0.8180     0.7470 C.3   1 <1>   0.2570 
 11 O        5.5390    -1.8520    -1.1260 O.2   1 <1>  -0.6500 
 12 O        6.3470    -2.0580     1.2450 O.2   1 <1>  -0.6500 
 13 C        3.7790    -2.2790     0.7990 C.3   1 <1>  -0.1350 
 14 C        7.3600     0.8410    -0.4680 C.2   1 <1>   0.6590 
 15 O        7.3100     1.7250    -1.2860 O.2   1 <1>  -0.5700 
 16 O        8.2240    -0.1630    -0.5700 O.3   1 <1>  -0.4300 
 17 C        9.0610    -0.3160    -1.6950 C.3   1 <1>   0.0400 
 18 H        4.7990     0.4350    -2.1040 H     1 <1>   0.1500 
 19 H        1.2160     2.7020    -1.7480 H     1 <1>   0.1500 
 20 H        1.3370     2.5190     0.7210 H     1 <1>   0.1500 
 21 H        3.1980     1.2810     1.7560 H     1 <1>   0.1500 
 22 H        6.9610     0.3860     1.5760 H     1 <1>   0.0800 
 23 H        6.1980     1.8360     1.0030 H     1 <1>   0.0800 
 24 H        2.9990    -1.8960     0.1710 H     1 <1>   0.0800 
 25 H        3.5780    -2.0020     1.8140 H     1 <1>   0.0800 
 26 H        3.7830    -3.3490     0.7270 H     1 <1>   0.0800 
 27 H        9.6650    -1.1940    -1.5520 H     1 <1>   0.0800 
 28 H        9.6850     0.5560    -1.7890 H     1 <1>   0.0800 
 29 H        8.4440    -0.4310    -2.5700 H     1 <1>   0.0800 
@<TRIPOS>BOND
  1   1   2  1   
  2   2   3  ar  
  3   2   4  ar  
  4   3   5  ar  
  5   3  18  1   
  6   4   6  ar  
  7   4  19  1   
  8   5   7  1   
  9   5   8  ar  
 10   6   8  ar  
 11   6  20  1   
 12   7   9  am  
 13   7  10  1   
 14   8  21  1   
 15   9  11  2   
 16   9  12  2   
 17   9  13  1   
 18  10  14  1   
 19  10  22  1   
 20  10  23  1   
 21  13  24  1   
 22  13  25  1   
 23  13  26  1   
 24  14  15  2   
 25  14  16  1   
 26  16  17  1   
 27  17  27  1   
 28  17  28  1   
 29  17  29  1   
@<TRIPOS>SUBSTRUCTURE
  1 ****   7 GROUP 4 **** **** 0

# MOE 2024.06 (io_trps.svl 2023.06)
