@<TRIPOS>MOLECULE
NONAME
28 28 1 0 0 
SMALL
USER_CHARGES


@<TRIPOS>ATOM
  1 S        0.1690     0.0440    -0.8900 S.o2  1 <1>   1.4470 
  2 O       -0.0890     0.9790    -1.9660 O.2   1 <1>  -0.6500 
  3 O        1.2710    -0.8890    -1.0000 O.2   1 <1>  -0.6500 
  4 N        0.4460     0.9140     0.5490 N.am  1 <1>  -0.6310 
  5 C       -1.3610    -0.8520    -0.5080 C.ar  1 <1>  -0.0090 
  6 N        1.2410     2.1450     0.5840 N.3   1 <1>  -0.4670 
  7 C       -2.5430    -0.1660    -0.2590 C.ar  1 <1>  -0.1500 
  8 C       -1.3930    -2.2410    -0.4460 C.ar  1 <1>  -0.1500 
  9 C        2.4690     2.0440    -0.2090 C.3   1 <1>   0.0300 
 10 C        0.4170     3.2930     0.2150 C.3   1 <1>   0.0300 
 11 C       -3.7140    -0.8370     0.0450 C.ar  1 <1>  -0.1500 
 12 C       -2.5610    -2.9190    -0.1420 C.ar  1 <1>  -0.1500 
 13 C       -3.7290    -2.2200     0.1070 C.ar  1 <1>  -0.1430 
 14 C       -5.0120    -2.9600     0.4390 C.3   1 <1>  -0.0970 
 15 H        0.8400     0.2520     1.2170 H     1 <1>   0.4200 
 16 H       -2.5460     0.9110    -0.3050 H     1 <1>   0.1500 
 17 H       -0.4930    -2.8020    -0.6380 H     1 <1>   0.1500 
 18 H        3.0170     1.1620     0.0740 H     1 <1>   0.0800 
 19 H        3.0860     2.9060    -0.0270 H     1 <1>   0.0800 
 20 H        2.2410     1.9970    -1.2600 H     1 <1>   0.0800 
 21 H       -0.4570     3.3230     0.8410 H     1 <1>   0.0800 
 22 H        0.1110     3.2220    -0.8140 H     1 <1>   0.0800 
 23 H        0.9750     4.2010     0.3550 H     1 <1>   0.0800 
 24 H       -4.6150    -0.2780     0.2320 H     1 <1>   0.1500 
 25 H       -2.5560    -3.9950    -0.1020 H     1 <1>   0.1500 
 26 H       -5.6350    -2.3640     1.0810 H     1 <1>   0.0800 
 27 H       -4.7930    -3.8850     0.9420 H     1 <1>   0.0800 
 28 H       -5.5510    -3.1760    -0.4660 H     1 <1>   0.0800 
@<TRIPOS>BOND
  1   1   2  2   
  2   1   3  2   
  3   1   4  am  
  4   1   5  1   
  5   4   6  1   
  6   4  15  1   
  7   5   7  ar  
  8   5   8  ar  
  9   6   9  1   
 10   6  10  1   
 11   7  11  ar  
 12   7  16  1   
 13   8  12  ar  
 14   8  17  1   
 15   9  18  1   
 16   9  19  1   
 17   9  20  1   
 18  10  21  1   
 19  10  22  1   
 20  10  23  1   
 21  11  13  ar  
 22  11  24  1   
 23  12  13  ar  
 24  12  25  1   
 25  13  14  1   
 26  14  26  1   
 27  14  27  1   
 28  14  28  1   
@<TRIPOS>SUBSTRUCTURE
  1 ****   5 GROUP 4 **** **** 0

# MOE 2024.06 (io_trps.svl 2023.06)
