@<TRIPOS>MOLECULE
NONAME
44 46 1 0 0 
SMALL
USER_CHARGES


@<TRIPOS>ATOM
  1 O       -0.7940     2.1450    -2.5080 O.2   1 <1>  -0.5700 
  2 C       -0.1120     2.0480    -1.5160 C.2   1 <1>   0.5690 
  3 N       -0.5610     1.6220    -0.2990 N.am  1 <1>  -0.5470 
  4 C        1.3700     2.4220    -1.5910 C.3   1 <1>   0.1710 
  5 C       -1.8070     1.1920     0.1790 C.ar  1 <1>   0.1170 
  6 N        2.2010     1.8070    -0.5110 N.3   1 <1>  -0.8100 
  7 C       -2.9730     1.2270    -0.5800 C.ar  1 <1>  -0.1500 
  8 C       -1.8850     0.7060     1.4790 C.ar  1 <1>  -0.1500 
  9 C        3.5020     2.5020    -0.3900 C.3   1 <1>   0.1100 
 10 C        2.4470     0.3680    -0.7890 C.3   1 <1>   0.1100 
 11 C       -4.1750     0.7880    -0.0560 C.ar  1 <1>  -0.1500 
 12 C       -3.0860     0.2670     2.0060 C.ar  1 <1>  -0.1500 
 13 C        4.3830     1.9060     0.7240 C.3   1 <1>   0.2090 
 14 C        3.2940    -0.3070     0.3070 C.3   1 <1>   0.2090 
 15 C       -4.2400     0.3030     1.2400 C.ar  1 <1>  -0.1430 
 16 N        4.5750     0.4330     0.5360 N.pl3 1 <1>  -0.8380 
 17 C       -5.5600    -0.1770     1.8140 C.3   1 <1>  -0.0970 
 18 C        5.7770    -0.2040     0.7750 C.ar  1 <1>   0.7200 
 19 N        6.8370     0.5670     1.0230 N.ar  1 <1>  -0.6200 
 20 N        5.7790    -1.5370     0.7400 N.ar  1 <1>  -0.6200 
 21 C        7.9700    -0.0510     1.2490 C.ar  1 <1>   0.1600 
 22 C        6.9260    -2.1270     0.9690 C.ar  1 <1>   0.1600 
 23 C        8.0710    -1.4190     1.2340 C.ar  1 <1>  -0.1500 
 24 H        0.2140     1.5770     0.3700 H     1 <1>   0.3700 
 25 H        1.4240     3.4930    -1.5140 H     1 <1>   0.0800 
 26 H        1.7530     2.1430    -2.5570 H     1 <1>   0.0800 
 27 H       -2.9510     1.6000    -1.5870 H     1 <1>   0.1500 
 28 H       -1.0000     0.6720     2.0860 H     1 <1>   0.1500 
 29 H        3.3340     3.5410    -0.1710 H     1 <1>   0.0800 
 30 H        4.0400     2.4390    -1.3210 H     1 <1>   0.0800 
 31 H        2.9620     0.2600    -1.7280 H     1 <1>   0.0800 
 32 H        1.5100    -0.1550    -0.8650 H     1 <1>   0.0800 
 33 H       -5.0620     0.8270    -0.6640 H     1 <1>   0.1500 
 34 H       -3.1210    -0.1040     3.0150 H     1 <1>   0.1500 
 35 H        3.9130     2.0770     1.6760 H     1 <1>   0.0800 
 36 H        5.3240     2.4250     0.7240 H     1 <1>   0.0800 
 37 H        3.4810    -1.3230     0.0080 H     1 <1>   0.0800 
 38 H        2.7350    -0.3310     1.2250 H     1 <1>   0.0800 
 39 H       -5.3950    -0.9320     2.5620 H     1 <1>   0.0800 
 40 H       -6.1750    -0.5980     1.0380 H     1 <1>   0.0800 
 41 H       -6.0830     0.6490     2.2620 H     1 <1>   0.0800 
 42 H        8.8400     0.5510     1.4520 H     1 <1>   0.1500 
 43 H        6.9530    -3.2040     0.9460 H     1 <1>   0.1500 
 44 H        9.0050    -1.9140     1.4200 H     1 <1>   0.1500 
@<TRIPOS>BOND
  1   1   2  2   
  2   2   3  am  
  3   2   4  1   
  4   3   5  1   
  5   3  24  1   
  6   4   6  1   
  7   4  25  1   
  8   4  26  1   
  9   5   7  ar  
 10   5   8  ar  
 11   6   9  1   
 12   6  10  1   
 13   7  11  ar  
 14   7  27  1   
 15   8  12  ar  
 16   8  28  1   
 17   9  13  1   
 18   9  29  1   
 19   9  30  1   
 20  10  14  1   
 21  10  31  1   
 22  10  32  1   
 23  11  15  ar  
 24  11  33  1   
 25  12  15  ar  
 26  12  34  1   
 27  13  16  1   
 28  13  35  1   
 29  13  36  1   
 30  14  16  1   
 31  14  37  1   
 32  14  38  1   
 33  15  17  1   
 34  16  18  1   
 35  17  39  1   
 36  17  40  1   
 37  17  41  1   
 38  18  19  ar  
 39  18  20  ar  
 40  19  21  ar  
 41  20  22  ar  
 42  21  23  ar  
 43  21  42  1   
 44  22  23  ar  
 45  22  43  1   
 46  23  44  1   
@<TRIPOS>SUBSTRUCTURE
  1 ****  10 GROUP 4 **** **** 0

# MOE 2024.06 (io_trps.svl 2023.06)
