@<TRIPOS>MOLECULE
9761
34 35 1 0 0 
SMALL
USER_CHARGES


@<TRIPOS>ATOM
  1 S       -1.1950    -0.8380     0.4710 S.3   1 <1>  -0.0800 
  2 C       -0.6390    -2.4830     0.1520 C.2   1 <1>   0.1040 
  3 C        0.4210    -0.1960     0.2570 C.2   1 <1>  -0.1400 
  4 N       -1.5480    -3.5430     0.2130 N.am  1 <1>  -0.4940 
  5 C        0.7020    -2.4850    -0.0860 C.2   1 <1>   0.0190 
  6 C        1.2910    -1.1740    -0.0370 C.2   1 <1>  -0.1810 
  7 C        0.6900     1.2850     0.4050 C.3   1 <1>   0.0200 
  8 C       -2.9110    -3.6180     0.1500 C.2   1 <1>   0.6160 
  9 C        1.4750    -3.6570    -0.3570 C.1   1 <1>   0.5380 
 10 C        2.7640    -0.8720    -0.2780 C.3   1 <1>   0.0210 
 11 C        2.2100     1.5130     0.4910 C.3   1 <1>  -0.1600 
 12 O       -3.3890    -4.6650     0.5280 O.2   1 <1>  -0.5700 
 13 C       -3.7270    -2.5560    -0.3980 C.2   1 <1>  -0.1360 
 14 N        2.0880    -4.5960    -0.5670 N.1   1 <1>  -0.5570 
 15 C        2.9860     0.6370    -0.5160 C.3   1 <1>  -0.1600 
 16 C       -5.0100    -2.2020    -0.1730 C.2   1 <1>  -0.2760 
 17 C       -5.6650    -1.0380    -0.9010 C.3   1 <1>  -0.1020 
 18 C       -5.9590    -2.8790     0.8090 C.3   1 <1>  -0.1020 
 19 H       -1.1620    -4.4660     0.4140 H     1 <1>   0.3700 
 20 H        0.2850     1.8000    -0.4490 H     1 <1>   0.0800 
 21 H        0.2120     1.6630     1.2920 H     1 <1>   0.0800 
 22 H        3.3290    -1.1880     0.5820 H     1 <1>   0.0800 
 23 H        3.1220    -1.4170    -1.1340 H     1 <1>   0.0800 
 24 H        2.4270     2.5520     0.3170 H     1 <1>   0.0800 
 25 H        2.5420     1.2690     1.4860 H     1 <1>   0.0800 
 26 H       -3.1710    -1.9810    -1.1120 H     1 <1>   0.1500 
 27 H        4.0380     0.8560    -0.4550 H     1 <1>   0.0800 
 28 H        2.6580     0.8830    -1.5120 H     1 <1>   0.0800 
 29 H       -6.5210    -1.3820    -1.4540 H     1 <1>   0.0800 
 30 H       -4.9800    -0.5770    -1.5900 H     1 <1>   0.0800 
 31 H       -5.9860    -0.2930    -0.1950 H     1 <1>   0.0800 
 32 H       -6.3500    -2.1570     1.5030 H     1 <1>   0.0800 
 33 H       -5.4700    -3.6470     1.3780 H     1 <1>   0.0800 
 34 H       -6.7790    -3.3280     0.2780 H     1 <1>   0.0800 
@<TRIPOS>BOND
  1   1   2  1   
  2   1   3  1   
  3   2   4  1   
  4   2   5  2   
  5   3   6  2   
  6   3   7  1   
  7   4   8  am  
  8   4  19  1   
  9   5   6  1   
 10   5   9  1   
 11   6  10  1   
 12   7  11  1   
 13   7  20  1   
 14   7  21  1   
 15   8  12  2   
 16   8  13  1   
 17   9  14  3   
 18  10  15  1   
 19  10  22  1   
 20  10  23  1   
 21  11  15  1   
 22  11  24  1   
 23  11  25  1   
 24  13  16  2   
 25  13  26  1   
 26  15  27  1   
 27  15  28  1   
 28  16  17  1   
 29  16  18  1   
 30  17  29  1   
 31  17  30  1   
 32  17  31  1   
 33  18  32  1   
 34  18  33  1   
 35  18  34  1   
@<TRIPOS>SUBSTRUCTURE
  1 ****   2 GROUP 4 **** **** 0

# MOE 2024.06 (io_trps.svl 2023.06)
