@<TRIPOS>MOLECULE
NONAME
38 39 1 0 0 
SMALL
USER_CHARGES


@<TRIPOS>ATOM
  1 P        0.0970     0.5230    -0.0410 P.3   1 <1>   0.9000 
  2 O        0.6000    -0.5060    -0.9940 O.co2 1 <1>  -0.9500 
  3 O        0.4490     0.4230     1.4060 O.co2 1 <1>  -0.9500 
  4 C        0.9290     2.0590    -0.5160 C.3   1 <1>   0.3430 
  5 C       -1.6620     0.7860    -0.2590 C.3   1 <1>  -0.1600 
  6 N        2.3230     2.0730     0.0540 N.4   1 <1>  -0.9590 
  7 C       -2.2650     1.8040     0.7170 C.3   1 <1>  -0.0170 
  8 C        2.9970     3.4020     0.1330 C.3   1 <1>   0.3430 
  9 C        3.1680     0.9870    -0.5420 C.3   1 <1>   0.3430 
 10 C       -3.7480     1.9990     0.4460 C.ar  1 <1>  -0.1430 
 11 C        4.5360     3.2810     0.1390 C.3   1 <1>   0.1200 
 12 C        4.5540     0.9100     0.1390 C.3   1 <1>   0.1200 
 13 C       -4.6760     1.1430     1.0180 C.ar  1 <1>  -0.1500 
 14 C       -4.1880     3.0280    -0.3740 C.ar  1 <1>  -0.1500 
 15 O        4.9360     2.1060     0.7810 O.3   1 <1>  -0.5600 
 16 C       -6.0280     1.3130     0.7770 C.ar  1 <1>  -0.1500 
 17 C       -5.5400     3.1990    -0.6170 C.ar  1 <1>  -0.1500 
 18 C       -6.4610     2.3420    -0.0410 C.ar  1 <1>  -0.1500 
 19 H        0.4040     2.9020    -0.1070 H     1 <1>   0.0800 
 20 H        0.9720     2.1780    -1.5830 H     1 <1>   0.0800 
 21 H       -2.1770    -0.1440    -0.1050 H     1 <1>   0.0800 
 22 H       -1.8850     1.0910    -1.2630 H     1 <1>   0.0800 
 23 H        2.1480     1.7060     1.0180 H     1 <1>   0.4500 
 24 H       -1.7580     2.7480     0.6320 H     1 <1>   0.0800 
 25 H       -2.1230     1.4520     1.7250 H     1 <1>   0.0800 
 26 H        2.6820     3.9040     1.0330 H     1 <1>   0.0800 
 27 H        2.7050     4.0140    -0.7030 H     1 <1>   0.0800 
 28 H        3.2980     1.1650    -1.5950 H     1 <1>   0.0800 
 29 H        2.6820     0.0290    -0.4380 H     1 <1>   0.0800 
 30 H        4.9730     4.1130     0.6630 H     1 <1>   0.0800 
 31 H        4.9230     3.2700    -0.8650 H     1 <1>   0.0800 
 32 H        5.3070     0.6570    -0.5860 H     1 <1>   0.0800 
 33 H        4.5390     0.1380     0.8880 H     1 <1>   0.0800 
 34 H       -4.3450     0.3400     1.6540 H     1 <1>   0.1500 
 35 H       -3.4820     3.6990    -0.8280 H     1 <1>   0.1500 
 36 H       -6.7410     0.6440     1.2250 H     1 <1>   0.1500 
 37 H       -5.8750     3.9990    -1.2530 H     1 <1>   0.1500 
 38 H       -7.5120     2.4740    -0.2290 H     1 <1>   0.1500 
@<TRIPOS>BOND
  1   1   2  ar  
  2   1   3  ar  
  3   1   4  1   
  4   1   5  1   
  5   4   6  1   
  6   4  19  1   
  7   4  20  1   
  8   5   7  1   
  9   5  21  1   
 10   5  22  1   
 11   6   8  1   
 12   6   9  1   
 13   6  23  1   
 14   7  10  1   
 15   7  24  1   
 16   7  25  1   
 17   8  11  1   
 18   8  26  1   
 19   8  27  1   
 20   9  12  1   
 21   9  28  1   
 22   9  29  1   
 23  10  13  ar  
 24  10  14  ar  
 25  11  15  1   
 26  11  30  1   
 27  11  31  1   
 28  12  15  1   
 29  12  32  1   
 30  12  33  1   
 31  13  16  ar  
 32  13  34  1   
 33  14  17  ar  
 34  14  35  1   
 35  16  18  ar  
 36  16  36  1   
 37  17  18  ar  
 38  17  37  1   
 39  18  38  1   
@<TRIPOS>SUBSTRUCTURE
  1 ****   1 GROUP 4 **** **** 0

# MOE 2024.06 (io_trps.svl 2023.06)
