@<TRIPOS>MOLECULE
NONAME
36 37 1 0 0 
SMALL
USER_CHARGES


@<TRIPOS>ATOM
  1 BR      -0.0860     0.3010     0.7340 Br    1 <1>  -0.1110 
  2 C        1.8030     0.1150     0.3870 C.ar  1 <1>   0.1110 
  3 C        2.5240     1.1690    -0.1450 C.ar  1 <1>   0.1770 
  4 C        2.4120    -1.0910     0.6800 C.ar  1 <1>  -0.1500 
  5 CL       1.7510     2.6930    -0.5170 Cl    1 <1>  -0.1770 
  6 C        3.8760     1.0260    -0.3890 C.ar  1 <1>  -0.1500 
  7 C        3.7680    -1.2270     0.4310 C.ar  1 <1>  -0.1500 
  8 C        4.5170    -0.1760    -0.1010 C.ar  1 <1>   0.1170 
  9 N        5.8900    -0.2850    -0.3730 N.am  1 <1>  -0.5470 
 10 C        6.8450    -1.0910     0.1860 C.2   1 <1>   0.5690 
 11 O        6.6130    -1.8620     1.0850 O.2   1 <1>  -0.5700 
 12 C        8.2700    -0.9750    -0.3580 C.3   1 <1>  -0.0190 
 13 C        9.0510    -2.3020    -0.2680 C.3   1 <1>  -0.1600 
 14 C        9.0470     0.1400     0.3670 C.3   1 <1>  -0.1600 
 15 C       10.4830    -2.1540    -0.7880 C.3   1 <1>   0.1400 
 16 C       10.4810     0.2650    -0.1550 C.3   1 <1>   0.1400 
 17 N       11.1650    -1.0530    -0.0520 N.am  1 <1>  -0.6600 
 18 C       12.3090    -1.1930     0.6930 C.2   1 <1>   0.5690 
 19 O       12.8370    -0.2580     1.2460 O.2   1 <1>  -0.5700 
 20 C       12.9650    -2.5440     0.8550 C.3   1 <1>  -0.1790 
 21 H        1.8390    -1.9030     1.0920 H     1 <1>   0.1500 
 22 H        4.4230     1.8550    -0.7990 H     1 <1>   0.1500 
 23 H        4.2430    -2.1660     0.6530 H     1 <1>   0.1500 
 24 H        6.2410     0.3820    -1.0570 H     1 <1>   0.3700 
 25 H        8.2020    -0.7130    -1.3990 H     1 <1>   0.0800 
 26 H        8.5420    -3.0610    -0.8350 H     1 <1>   0.0800 
 27 H        9.0910    -2.6350     0.7560 H     1 <1>   0.0800 
 28 H        9.0820    -0.0720     1.4230 H     1 <1>   0.0800 
 29 H        8.5440     1.0830     0.2430 H     1 <1>   0.0800 
 30 H       10.4690    -1.9140    -1.8370 H     1 <1>   0.0800 
 31 H       11.0030    -3.0870    -0.6700 H     1 <1>   0.0800 
 32 H       11.0050     1.0140     0.4160 H     1 <1>   0.0800 
 33 H       10.4780     0.5790    -1.1840 H     1 <1>   0.0800 
 34 H       12.2750    -3.2330     1.3050 H     1 <1>   0.0800 
 35 H       13.8250    -2.4540     1.4930 H     1 <1>   0.0800 
 36 H       13.2840    -2.9120    -0.1010 H     1 <1>   0.0800 
@<TRIPOS>BOND
  1   1   2  1   
  2   2   3  ar  
  3   2   4  ar  
  4   3   5  1   
  5   3   6  ar  
  6   4   7  ar  
  7   4  21  1   
  8   6   8  ar  
  9   6  22  1   
 10   7   8  ar  
 11   7  23  1   
 12   8   9  1   
 13   9  10  am  
 14   9  24  1   
 15  10  11  2   
 16  10  12  1   
 17  12  13  1   
 18  12  14  1   
 19  12  25  1   
 20  13  15  1   
 21  13  26  1   
 22  13  27  1   
 23  14  16  1   
 24  14  28  1   
 25  14  29  1   
 26  15  17  1   
 27  15  30  1   
 28  15  31  1   
 29  16  17  1   
 30  16  32  1   
 31  16  33  1   
 32  17  18  am  
 33  18  19  2   
 34  18  20  1   
 35  20  34  1   
 36  20  35  1   
 37  20  36  1   
@<TRIPOS>SUBSTRUCTURE
  1 ****  10 GROUP 4 **** **** 0

# MOE 2024.06 (io_trps.svl 2023.06)
