@<TRIPOS>MOLECULE
NONAME
30 30 1 0 0 
SMALL
USER_CHARGES


@<TRIPOS>ATOM
  1 CL      -0.2160     0.0150     0.2240 Cl    1 <1>  -0.1770 
  2 C       -0.1760    -1.7330     0.1180 C.ar  1 <1>   0.1770 
  3 C       -1.3590    -2.4590     0.0560 C.ar  1 <1>   0.0820 
  4 C        1.0640    -2.3350     0.1010 C.ar  1 <1>  -0.1500 
  5 O       -2.5090    -1.7220     0.0790 O.3   1 <1>  -0.3630 
  6 C       -1.2620    -3.8600    -0.0210 C.ar  1 <1>   0.0830 
  7 C        1.1820    -3.7190     0.0120 C.ar  1 <1>   0.0860 
  8 C       -3.8080    -2.2570    -0.0260 C.3   1 <1>   0.1200 
  9 O       -2.3920    -4.6240    -0.0710 O.3   1 <1>  -0.3620 
 10 C       -0.0020    -4.4540    -0.0440 C.ar  1 <1>  -0.1500 
 11 C        2.4740    -4.3850    -0.0200 C.2   1 <1>   0.5440 
 12 C       -4.7970    -1.0960    -0.0090 C.3   1 <1>  -0.2400 
 13 C       -2.3660    -6.0310     0.0120 C.3   1 <1>   0.1200 
 14 O        2.5880    -5.5630     0.2350 O.2   1 <1>  -0.5700 
 15 N        3.6160    -3.7380    -0.3490 N.am  1 <1>  -0.8000 
 16 C       -3.8090    -6.5240     0.0340 C.3   1 <1>  -0.2400 
 17 H        1.9380    -1.7130     0.1630 H     1 <1>   0.1500 
 18 H       -3.9750    -2.9120     0.8110 H     1 <1>   0.0800 
 19 H       -3.8780    -2.8040    -0.9510 H     1 <1>   0.0800 
 20 H        0.1010    -5.5210    -0.1090 H     1 <1>   0.1500 
 21 H       -4.7060    -0.5480     0.9120 H     1 <1>   0.0800 
 22 H       -5.8010    -1.4720    -0.0880 H     1 <1>   0.0800 
 23 H       -4.6090    -0.4390    -0.8390 H     1 <1>   0.0800 
 24 H       -1.8550    -6.3130     0.9170 H     1 <1>   0.0800 
 25 H       -1.8470    -6.4170    -0.8490 H     1 <1>   0.0800 
 26 H        4.4850    -4.2750    -0.3760 H     1 <1>   0.3700 
 27 H        3.6590    -2.7830    -0.6990 H     1 <1>   0.3700 
 28 H       -4.3240    -6.1230     0.8880 H     1 <1>   0.0800 
 29 H       -3.8250    -7.5970     0.0960 H     1 <1>   0.0800 
 30 H       -4.3160    -6.2250    -0.8660 H     1 <1>   0.0800 
@<TRIPOS>BOND
  1   1   2  1   
  2   2   3  ar  
  3   2   4  ar  
  4   3   5  1   
  5   3   6  ar  
  6   4   7  ar  
  7   4  17  1   
  8   5   8  1   
  9   6   9  1   
 10   6  10  ar  
 11   7  10  ar  
 12   7  11  1   
 13   8  12  1   
 14   8  18  1   
 15   8  19  1   
 16   9  13  1   
 17  10  20  1   
 18  11  14  2   
 19  11  15  am  
 20  12  21  1   
 21  12  22  1   
 22  12  23  1   
 23  13  16  1   
 24  13  24  1   
 25  13  25  1   
 26  15  26  1   
 27  15  27  1   
 28  16  28  1   
 29  16  29  1   
 30  16  30  1   
@<TRIPOS>SUBSTRUCTURE
  1 ****   6 GROUP 4 **** **** 0

# MOE 2024.06 (io_trps.svl 2023.06)
