@<TRIPOS>MOLECULE
NONAME
33 33 1 0 0 
SMALL
USER_CHARGES


@<TRIPOS>ATOM
  1 S       -0.4470    -0.0620     0.5510 S.o2  1 <1>   1.4470 
  2 O       -1.4940    -0.2450    -0.4300 O.2   1 <1>  -0.6500 
  3 O       -0.7730    -0.1610     1.9550 O.2   1 <1>  -0.6500 
  4 N        0.5850    -1.3720     0.3160 N.am  1 <1>  -0.9140 
  5 C        0.5840     1.3950     0.2280 C.ar  1 <1>  -0.0090 
  6 C        0.7190    -1.8150    -1.0710 C.3   1 <1>   0.1160 
  7 C       -0.0080     2.6360     0.0130 C.ar  1 <1>   0.0830 
  8 C        1.9740     1.3210     0.2130 C.ar  1 <1>  -0.1500 
  9 O       -1.3610     2.6990     0.0660 O.3   1 <1>  -0.3630 
 10 C        0.7800     3.7570    -0.2390 C.ar  1 <1>  -0.1500 
 11 C        2.7700     2.4290    -0.0340 C.ar  1 <1>  -0.1430 
 12 C       -2.0740     3.8970    -0.1530 C.3   1 <1>   0.0400 
 13 C        2.1560     3.6500    -0.2640 C.ar  1 <1>  -0.1500 
 14 C        4.2910     2.2900    -0.0460 C.3   1 <1>   0.0630 
 15 C        4.9260     3.1520     1.0500 C.3   1 <1>  -0.2400 
 16 C        4.8630     2.6490    -1.4210 C.3   1 <1>  -0.2400 
 17 H        0.1350    -2.1090     0.8590 H     1 <1>   0.4200 
 18 H        1.0810    -1.0070    -1.6850 H     1 <1>   0.0800 
 19 H       -0.2320    -2.1470    -1.4570 H     1 <1>   0.0800 
 20 H        1.4180    -2.6310    -1.1250 H     1 <1>   0.0800 
 21 H        2.4470     0.3730     0.4030 H     1 <1>   0.1500 
 22 H        0.3410     4.7200    -0.4150 H     1 <1>   0.1500 
 23 H       -3.1230     3.6790    -0.0650 H     1 <1>   0.0800 
 24 H       -1.8580     4.2560    -1.1440 H     1 <1>   0.0800 
 25 H       -1.7860     4.6160     0.5920 H     1 <1>   0.0800 
 26 H        2.7500     4.5250    -0.4600 H     1 <1>   0.1500 
 27 H        4.5470     1.2640     0.1570 H     1 <1>   0.0800 
 28 H        4.7460     4.1960     0.8710 H     1 <1>   0.0800 
 29 H        5.9880     2.9870     1.0850 H     1 <1>   0.0800 
 30 H        4.5090     2.8910     2.0070 H     1 <1>   0.0800 
 31 H        4.6810     3.6830    -1.6540 H     1 <1>   0.0800 
 32 H        4.4020     2.0410    -2.1780 H     1 <1>   0.0800 
 33 H        5.9240     2.4750    -1.4400 H     1 <1>   0.0800 
@<TRIPOS>BOND
  1   1   2  2   
  2   1   3  2   
  3   1   4  am  
  4   1   5  1   
  5   4   6  1   
  6   4  17  1   
  7   5   7  ar  
  8   5   8  ar  
  9   6  18  1   
 10   6  19  1   
 11   6  20  1   
 12   7   9  1   
 13   7  10  ar  
 14   8  11  ar  
 15   8  21  1   
 16   9  12  1   
 17  10  13  ar  
 18  10  22  1   
 19  11  13  ar  
 20  11  14  1   
 21  12  23  1   
 22  12  24  1   
 23  12  25  1   
 24  13  26  1   
 25  14  15  1   
 26  14  16  1   
 27  14  27  1   
 28  15  28  1   
 29  15  29  1   
 30  15  30  1   
 31  16  31  1   
 32  16  32  1   
 33  16  33  1   
@<TRIPOS>SUBSTRUCTURE
  1 ****   5 GROUP 4 **** **** 0

# MOE 2024.06 (io_trps.svl 2023.06)
