@<TRIPOS>MOLECULE
NONAME
29 28 1 0 0 
SMALL
USER_CHARGES


@<TRIPOS>ATOM
  1 S       -0.4420     0.4150     0.0230 S.o2  1 <1>   1.0900 
  2 O       -1.0820     0.8230     1.2520 O.2   1 <1>  -0.6500 
  3 O       -1.0430     0.7390    -1.2500 O.2   1 <1>  -0.6500 
  4 C        1.2130     1.0840     0.0260 C.3   1 <1>  -0.0550 
  5 C       -0.1620    -1.3570     0.0870 C.3   1 <1>  -0.0550 
  6 C        1.1910     2.6090    -0.0260 C.3   1 <1>   0.0700 
  7 C       -1.4620    -2.1760     0.0950 C.3   1 <1>  -0.1600 
  8 S        2.9440     3.1920    -0.0190 S.3   1 <1>  -0.3710 
  9 C       -1.1730    -3.6810     0.1500 C.3   1 <1>  -0.1600 
 10 C        2.7890     4.9580    -0.0800 C.2   1 <1>   0.6500 
 11 C       -2.4740    -4.4880     0.1570 C.3   1 <1>  -0.2400 
 12 O        1.7090     5.4680    -0.1140 O.2   1 <1>  -0.5700 
 13 C        4.0930     5.7140    -0.0850 C.3   1 <1>  -0.1790 
 14 H        1.7550     0.7200    -0.8260 H     1 <1>   0.0800 
 15 H        1.7280     0.7780     0.9160 H     1 <1>   0.0800 
 16 H        0.3960    -1.5960     0.9720 H     1 <1>   0.0800 
 17 H        0.4230    -1.6550    -0.7630 H     1 <1>   0.0800 
 18 H        0.7010     3.0320     0.8350 H     1 <1>   0.0800 
 19 H        0.7280     2.9730    -0.9270 H     1 <1>   0.0800 
 20 H       -2.0290    -1.9480    -0.7930 H     1 <1>   0.0800 
 21 H       -2.0550    -1.8890     0.9470 H     1 <1>   0.0800 
 22 H       -0.6110    -3.9120     1.0390 H     1 <1>   0.0800 
 23 H       -0.5840    -3.9710    -0.7050 H     1 <1>   0.0800 
 24 H       -3.0710    -4.2320     1.0150 H     1 <1>   0.0800 
 25 H       -2.2550    -5.5400     0.1960 H     1 <1>   0.0800 
 26 H       -3.0450    -4.2910    -0.7340 H     1 <1>   0.0800 
 27 H        4.6710     5.4300    -0.9440 H     1 <1>   0.0800 
 28 H        4.6440     5.4880     0.8080 H     1 <1>   0.0800 
 29 H        3.8970     6.7690    -0.1230 H     1 <1>   0.0800 
@<TRIPOS>BOND
  1   1   2  2   
  2   1   3  2   
  3   1   4  1   
  4   1   5  1   
  5   4   6  1   
  6   4  14  1   
  7   4  15  1   
  8   5   7  1   
  9   5  16  1   
 10   5  17  1   
 11   6   8  1   
 12   6  18  1   
 13   6  19  1   
 14   7   9  1   
 15   7  20  1   
 16   7  21  1   
 17   8  10  1   
 18   9  11  1   
 19   9  22  1   
 20   9  23  1   
 21  10  12  2   
 22  10  13  1   
 23  11  24  1   
 24  11  25  1   
 25  11  26  1   
 26  13  27  1   
 27  13  28  1   
 28  13  29  1   
@<TRIPOS>SUBSTRUCTURE
  1 ****   4 GROUP 4 **** **** 0

# MOE 2024.06 (io_trps.svl 2023.06)
