@<TRIPOS>MOLECULE
NONAME
32 32 1 0 0 
SMALL
USER_CHARGES


@<TRIPOS>ATOM
  1 S       -0.1700     0.5070     1.2020 S.o2  1 <1>   1.0900 
  2 O       -0.0650    -0.8020     1.8110 O.2   1 <1>  -0.6500 
  3 O       -0.9070     1.5600     1.8620 O.2   1 <1>  -0.6500 
  4 C       -0.7790     0.3380    -0.4840 C.3   1 <1>   0.0890 
  5 C        1.4950     1.1280     0.9850 C.3   1 <1>  -0.0550 
  6 C       -2.2090    -0.1740    -0.5780 C.ar  1 <1>  -0.1440 
  7 C        2.4400     0.0980     0.3650 C.3   1 <1>   0.2000 
  8 C       -2.4670    -1.4630    -1.0210 C.ar  1 <1>  -0.1500 
  9 C       -3.2680     0.6470    -0.2200 C.ar  1 <1>  -0.1500 
 10 O        2.6350    -0.9260     1.2800 O.3   1 <1>  -0.6800 
 11 C        3.8010     0.7100    -0.0010 C.3   1 <1>   0.1200 
 12 C       -3.7690    -1.9230    -1.1120 C.ar  1 <1>  -0.1500 
 13 C       -4.5700     0.1870    -0.3110 C.ar  1 <1>  -0.1500 
 14 O        4.3740    -0.0340    -1.0320 O.3   1 <1>  -0.5600 
 15 C       -4.8220    -1.0980    -0.7590 C.ar  1 <1>  -0.1500 
 16 C        5.7070     0.2750    -1.2820 C.3   1 <1>   0.0400 
 17 H       -0.1470    -0.3330    -1.0310 H     1 <1>   0.0800 
 18 H       -0.7370     1.2910    -0.9750 H     1 <1>   0.0800 
 19 H        1.8960     1.4290     1.9340 H     1 <1>   0.0800 
 20 H        1.4640     1.9990     0.3600 H     1 <1>   0.0800 
 21 H        2.0040    -0.3260    -0.5220 H     1 <1>   0.0800 
 22 H       -1.6600    -2.1210    -1.2940 H     1 <1>   0.1500 
 23 H       -3.0880     1.6460     0.1390 H     1 <1>   0.1500 
 24 H        1.7710    -1.2860     1.5990 H     1 <1>   0.4000 
 25 H        4.4530     0.7070     0.8560 H     1 <1>   0.0800 
 26 H        3.6820     1.7160    -0.3630 H     1 <1>   0.0800 
 27 H       -3.9630    -2.9240    -1.4560 H     1 <1>   0.1500 
 28 H       -5.3870     0.8280    -0.0300 H     1 <1>   0.1500 
 29 H       -5.8340    -1.4550    -0.8290 H     1 <1>   0.1500 
 30 H        6.0430    -0.3360    -2.1010 H     1 <1>   0.0800 
 31 H        6.2920     0.0550    -0.4050 H     1 <1>   0.0800 
 32 H        5.7900     1.3150    -1.5460 H     1 <1>   0.0800 
@<TRIPOS>BOND
  1   1   2  2   
  2   1   3  2   
  3   1   4  1   
  4   1   5  1   
  5   4   6  1   
  6   4  17  1   
  7   4  18  1   
  8   5   7  1   
  9   5  19  1   
 10   5  20  1   
 11   6   8  ar  
 12   6   9  ar  
 13   7  10  1   
 14   7  11  1   
 15   7  21  1   
 16   8  12  ar  
 17   8  22  1   
 18   9  13  ar  
 19   9  23  1   
 20  10  24  1   
 21  11  14  1   
 22  11  25  1   
 23  11  26  1   
 24  12  15  ar  
 25  12  27  1   
 26  13  15  ar  
 27  13  28  1   
 28  14  16  1   
 29  15  29  1   
 30  16  30  1   
 31  16  31  1   
 32  16  32  1   
@<TRIPOS>SUBSTRUCTURE
  1 ****   4 GROUP 4 **** **** 0

# MOE 2024.06 (io_trps.svl 2023.06)
