@<TRIPOS>MOLECULE
NONAME
51 54 1 0 0 
SMALL
USER_CHARGES


@<TRIPOS>ATOM
  1 O        0.5000     1.5430    -3.0090 O.2   1 <1>  -0.5700 
  2 C        0.3580     1.9810    -1.8910 C.2   1 <1>   0.5690 
  3 N        1.1270     1.5350    -0.8440 N.am  1 <1>  -0.6600 
  4 C       -0.6860     3.0710    -1.7120 C.3   1 <1>   0.1570 
  5 C        2.1950     0.5190    -1.0720 C.3   1 <1>   0.2840 
  6 C        0.9430     1.8960     0.5890 C.3   1 <1>   0.1400 
  7 N       -1.8650     2.6370    -0.9190 N.pl3 1 <1>   0.0480 
  8 C        3.4350     0.7740    -0.2150 C.ar  1 <1>  -0.1440 
  9 C        2.2190     2.5530     1.1150 C.3   1 <1>  -0.0170 
 10 C       -2.6590     3.4210    -0.0950 C.ar  1 <1>  -0.1520 
 11 C       -2.2210     1.3450    -0.7250 C.2   1 <1>  -0.3020 
 12 C        3.4500     1.7130     0.8110 C.ar  1 <1>  -0.1430 
 13 C        4.5790     0.0320    -0.4730 C.ar  1 <1>  -0.1500 
 14 C       -2.7620     4.8190     0.0720 C.ar  1 <1>  -0.1440 
 15 C       -3.4560     2.5540     0.6600 C.ar  1 <1>   0.0000 
 16 C       -3.1990     1.2240     0.2190 C.2   1 <1>  -0.0860 
 17 C        4.6010     1.8980     1.5620 C.ar  1 <1>  -0.1500 
 18 C        5.7260     0.2190     0.2790 C.ar  1 <1>  -0.1500 
 19 C       -3.5990     5.2910     1.0640 C.ar  1 <1>  -0.1500 
 20 C       -1.9880     5.7920    -0.8240 C.3   1 <1>  -0.0170 
 21 C       -4.2830     3.0720     1.6630 C.ar  1 <1>  -0.1500 
 22 C       -3.8060    -0.0090     0.6400 C.2   1 <1>   0.5950 
 23 C        5.7360     1.1530     1.2980 C.ar  1 <1>  -0.1500 
 24 C       -4.3480     4.4260     1.8610 C.ar  1 <1>  -0.1500 
 25 C       -2.5470     7.2190    -0.8920 C.3   1 <1>  -0.2400 
 26 O       -3.2750    -1.0820     0.4890 O.2   1 <1>  -0.5700 
 27 C       -5.1780    -0.0280     1.2750 C.3   1 <1>  -0.1790 
 28 H       -1.0240     3.3950    -2.6770 H     1 <1>   0.0800 
 29 H       -0.2080     3.8900    -1.2160 H     1 <1>   0.0800 
 30 H        2.4860     0.5180    -2.1080 H     1 <1>   0.0800 
 31 H        1.7990    -0.4530    -0.8380 H     1 <1>   0.0800 
 32 H        0.7450     0.9980     1.1500 H     1 <1>   0.0800 
 33 H        0.1130     2.5620     0.7330 H     1 <1>   0.0800 
 34 H        2.1250     2.6940     2.1770 H     1 <1>   0.0800 
 35 H        2.3320     3.5210     0.6600 H     1 <1>   0.0800 
 36 H       -1.7640     0.5280    -1.2620 H     1 <1>   0.1500 
 37 H        4.5830    -0.6980    -1.2630 H     1 <1>   0.1500 
 38 H        4.6200     2.6250     2.3540 H     1 <1>   0.1500 
 39 H        6.6080    -0.3610     0.0710 H     1 <1>   0.1500 
 40 H       -3.7060     6.3420     1.2580 H     1 <1>   0.1500 
 41 H       -2.0010     5.4110    -1.8290 H     1 <1>   0.0800 
 42 H       -0.9680     5.8420    -0.4890 H     1 <1>   0.0800 
 43 H       -4.8640     2.4200     2.2850 H     1 <1>   0.1500 
 44 H        6.6270     1.3010     1.8840 H     1 <1>   0.1500 
 45 H       -4.9800     4.8360     2.6290 H     1 <1>   0.1500 
 46 H       -3.5910     7.1990    -1.1520 H     1 <1>   0.0800 
 47 H       -2.0210     7.7830    -1.6410 H     1 <1>   0.0800 
 48 H       -2.4250     7.7230     0.0500 H     1 <1>   0.0800 
 49 H       -5.7870     0.7590     0.8720 H     1 <1>   0.0800 
 50 H       -5.0860     0.0810     2.3380 H     1 <1>   0.0800 
 51 H       -5.6560    -0.9680     1.0650 H     1 <1>   0.0800 
@<TRIPOS>BOND
  1   1   2  2   
  2   2   3  am  
  3   2   4  1   
  4   3   5  1   
  5   3   6  1   
  6   4   7  1   
  7   4  28  1   
  8   4  29  1   
  9   5   8  1   
 10   5  30  1   
 11   5  31  1   
 12   6   9  1   
 13   6  32  1   
 14   6  33  1   
 15   7  10  1   
 16   7  11  1   
 17   8  12  ar  
 18   8  13  ar  
 19   9  12  1   
 20   9  34  1   
 21   9  35  1   
 22  10  14  ar  
 23  10  15  ar  
 24  11  16  2   
 25  11  36  1   
 26  12  17  ar  
 27  13  18  ar  
 28  13  37  1   
 29  14  19  ar  
 30  14  20  1   
 31  15  16  1   
 32  15  21  ar  
 33  16  22  1   
 34  17  23  ar  
 35  17  38  1   
 36  18  23  ar  
 37  18  39  1   
 38  19  24  ar  
 39  19  40  1   
 40  20  25  1   
 41  20  41  1   
 42  20  42  1   
 43  21  24  ar  
 44  21  43  1   
 45  22  26  2   
 46  22  27  1   
 47  23  44  1   
 48  24  45  1   
 49  25  46  1   
 50  25  47  1   
 51  25  48  1   
 52  27  49  1   
 53  27  50  1   
 54  27  51  1   
@<TRIPOS>SUBSTRUCTURE
  1 ****   6 GROUP 4 **** **** 0

# MOE 2024.06 (io_trps.svl 2023.06)
