@<TRIPOS>MOLECULE
NONAME
51 53 1 0 0 
SMALL
USER_CHARGES


@<TRIPOS>ATOM
  1 O        0.4260    -0.0030    -1.0480 O.2   1 <1>  -0.5700 
  2 C        0.8740    -0.7560    -0.2040 C.2   1 <1>   0.6900 
  3 N        2.1620    -0.6010     0.2410 N.am  1 <1>  -0.6600 
  4 N        0.1180    -1.7800     0.2920 N.am  1 <1>  -0.5470 
  5 C        3.0990     0.3660    -0.4170 C.3   1 <1>   0.1400 
  6 C        2.7330    -1.2020     1.4890 C.3   1 <1>   0.1400 
  7 C       -1.2390    -2.0940     0.1260 C.ar  1 <1>   0.1170 
  8 C        4.4800    -0.2670    -0.6620 C.3   1 <1>   0.2090 
  9 C        4.1110    -1.8360     1.2270 C.3   1 <1>   0.2090 
 10 C       -1.6500    -3.4120     0.2900 C.ar  1 <1>  -0.1500 
 11 C       -2.2020    -1.1350    -0.1760 C.ar  1 <1>  -0.1500 
 12 N        5.0410    -0.8580     0.5920 N.pl3 1 <1>  -0.8380 
 13 C       -2.9810    -3.7620     0.1530 C.ar  1 <1>  -0.1500 
 14 C       -3.5350    -1.4800    -0.3160 C.ar  1 <1>  -0.1500 
 15 C        6.3730    -1.2520     0.5290 C.ar  1 <1>   0.1000 
 16 C       -3.9320    -2.8030    -0.1510 C.ar  1 <1>   0.0830 
 17 C        6.7860    -2.3040    -0.2790 C.ar  1 <1>  -0.1500 
 18 C        7.3210    -0.5840     1.2920 C.ar  1 <1>  -0.1500 
 19 O       -5.2170    -3.2320    -0.2690 O.3   1 <1>  -0.3630 
 20 C        8.1140    -2.6870    -0.3270 C.ar  1 <1>   0.0830 
 21 C        8.6520    -0.9570     1.2520 C.ar  1 <1>  -0.1500 
 22 C       -6.2450    -2.3370    -0.6190 C.3   1 <1>   0.1200 
 23 O        8.4200    -3.7280    -1.1450 O.3   1 <1>  -0.3630 
 24 C        9.0540    -2.0080     0.4450 C.ar  1 <1>  -0.1500 
 25 C       -7.5500    -3.1240    -0.6930 C.3   1 <1>  -0.2400 
 26 C        9.7450    -4.1960    -1.2650 C.3   1 <1>   0.0400 
 27 H        0.6720    -2.4850     0.7610 H     1 <1>   0.3700 
 28 H        3.2160     1.2280     0.2150 H     1 <1>   0.0800 
 29 H        2.6990     0.6990    -1.3590 H     1 <1>   0.0800 
 30 H        2.0740    -1.9430     1.9020 H     1 <1>   0.0800 
 31 H        2.8500    -0.4250     2.2240 H     1 <1>   0.0800 
 32 H        5.1560     0.4840    -1.0320 H     1 <1>   0.0800 
 33 H        4.3890    -1.0320    -1.4130 H     1 <1>   0.0800 
 34 H        3.9950    -2.6910     0.5850 H     1 <1>   0.0800 
 35 H        4.5350    -2.1700     2.1580 H     1 <1>   0.0800 
 36 H       -0.9280    -4.1720     0.5230 H     1 <1>   0.1500 
 37 H       -1.9090    -0.1080    -0.3010 H     1 <1>   0.1500 
 38 H       -3.2940    -4.7830     0.2790 H     1 <1>   0.1500 
 39 H       -4.2400    -0.7070    -0.5510 H     1 <1>   0.1500 
 40 H        6.0690    -2.8300    -0.8770 H     1 <1>   0.1500 
 41 H        6.9990     0.2300     1.9140 H     1 <1>   0.1500 
 42 H        9.3750    -0.4290     1.8500 H     1 <1>   0.1500 
 43 H       -6.0080    -1.9020    -1.5750 H     1 <1>   0.0800 
 44 H       -6.3040    -1.5730     0.1370 H     1 <1>   0.0800 
 45 H       10.0920    -2.2790     0.4320 H     1 <1>   0.1500 
 46 H       -7.4740    -3.8950    -1.4390 H     1 <1>   0.0800 
 47 H       -8.3570    -2.4660    -0.9590 H     1 <1>   0.0800 
 48 H       -7.7680    -3.5680     0.2610 H     1 <1>   0.0800 
 49 H        9.7470    -5.0170    -1.9590 H     1 <1>   0.0800 
 50 H       10.0850    -4.5320    -0.3010 H     1 <1>   0.0800 
 51 H       10.3640    -3.4000    -1.6380 H     1 <1>   0.0800 
@<TRIPOS>BOND
  1   1   2  2   
  2   2   3  am  
  3   2   4  am  
  4   3   5  1   
  5   3   6  1   
  6   4   7  1   
  7   4  27  1   
  8   5   8  1   
  9   5  28  1   
 10   5  29  1   
 11   6   9  1   
 12   6  30  1   
 13   6  31  1   
 14   7  10  ar  
 15   7  11  ar  
 16   8  12  1   
 17   8  32  1   
 18   8  33  1   
 19   9  12  1   
 20   9  34  1   
 21   9  35  1   
 22  10  13  ar  
 23  10  36  1   
 24  11  14  ar  
 25  11  37  1   
 26  12  15  1   
 27  13  16  ar  
 28  13  38  1   
 29  14  16  ar  
 30  14  39  1   
 31  15  17  ar  
 32  15  18  ar  
 33  16  19  1   
 34  17  20  ar  
 35  17  40  1   
 36  18  21  ar  
 37  18  41  1   
 38  19  22  1   
 39  20  23  1   
 40  20  24  ar  
 41  21  24  ar  
 42  21  42  1   
 43  22  25  1   
 44  22  43  1   
 45  22  44  1   
 46  23  26  1   
 47  24  45  1   
 48  25  46  1   
 49  25  47  1   
 50  25  48  1   
 51  26  49  1   
 52  26  50  1   
 53  26  51  1   
@<TRIPOS>SUBSTRUCTURE
  1 ****   3 GROUP 4 **** **** 0

# MOE 2024.06 (io_trps.svl 2023.06)
