@<TRIPOS>MOLECULE
NONAME
44 46 1 0 0 
SMALL
USER_CHARGES


@<TRIPOS>ATOM
  1 O       -0.4400    -0.4820     1.5380 O.3   1 <1>  -0.0190 
  2 N       -1.6870    -0.5130     1.1900 N.2   1 <1>  -0.4100 
  3 C        0.0960    -1.4960     0.9080 C.2   1 <1>   0.2980 
  4 C       -1.8500    -1.5090     0.3940 C.2   1 <1>   0.4620 
  5 N       -0.7070    -2.1700     0.1900 N.2   1 <1>  -0.5650 
  6 C        1.5910    -1.7460     1.1040 C.3   1 <1>   0.1000 
  7 C       -3.0990    -1.9000    -0.2280 C.ar  1 <1>   0.0540 
  8 C        2.4180    -0.6410     0.4250 C.3   1 <1>  -0.1600 
  9 C        2.0310    -3.1290     0.5870 C.3   1 <1>  -0.1600 
 10 C       -4.2750    -1.1860     0.0110 C.ar  1 <1>   0.1600 
 11 C       -3.1960    -2.9920    -1.0830 C.ar  1 <1>  -0.1500 
 12 C        3.9280    -0.8610     0.6040 C.3   1 <1>  -0.1600 
 13 C        3.5380    -3.3520     0.7820 C.3   1 <1>  -0.1600 
 14 N       -5.4670    -1.4530    -0.5010 N.ar  1 <1>  -0.6200 
 15 C       -4.4260    -3.2890    -1.6270 C.ar  1 <1>  -0.1500 
 16 C        4.3690    -2.2500     0.1020 C.3   1 <1>  -0.0800 
 17 C       -5.5160    -2.4990    -1.3090 C.ar  1 <1>   0.1600 
 18 C        5.8680    -2.5100     0.3480 C.3   1 <1>  -0.1600 
 19 C        6.7920    -1.5680    -0.4400 C.3   1 <1>  -0.1600 
 20 C        8.2620    -1.9630    -0.2620 C.3   1 <1>  -0.1600 
 21 C        9.1840    -1.0210    -1.0410 C.3   1 <1>  -0.2400 
 22 H        1.7840    -1.7120     2.1620 H     1 <1>   0.0800 
 23 H        2.1490     0.3160     0.8350 H     1 <1>   0.0800 
 24 H        2.1860    -0.6240    -0.6270 H     1 <1>   0.0800 
 25 H        1.7950    -3.2110    -0.4600 H     1 <1>   0.0800 
 26 H        1.4850    -3.8960     1.1070 H     1 <1>   0.0800 
 27 H       -4.2230    -0.3360     0.6700 H     1 <1>   0.1500 
 28 H       -2.3310    -3.5900    -1.3130 H     1 <1>   0.1500 
 29 H        4.1810    -0.7600     1.6460 H     1 <1>   0.0800 
 30 H        4.4480    -0.0910     0.0630 H     1 <1>   0.0800 
 31 H        3.8050    -4.3110     0.3720 H     1 <1>   0.0800 
 32 H        3.7600    -3.3730     1.8350 H     1 <1>   0.0800 
 33 H       -4.5430    -4.1250    -2.2920 H     1 <1>   0.1500 
 34 H        4.1860    -2.3020    -0.9590 H     1 <1>   0.0800 
 35 H       -6.4740    -2.7380    -1.7390 H     1 <1>   0.1500 
 36 H        6.0910    -3.5220     0.0550 H     1 <1>   0.0800 
 37 H        6.0820    -2.4230     1.3990 H     1 <1>   0.0800 
 38 H        6.6610    -0.5560    -0.0990 H     1 <1>   0.0800 
 39 H        6.5370    -1.6070    -1.4850 H     1 <1>   0.0800 
 40 H        8.4120    -2.9710    -0.6100 H     1 <1>   0.0800 
 41 H        8.5230    -1.9290     0.7820 H     1 <1>   0.0800 
 42 H        8.9550    -1.0550    -2.0920 H     1 <1>   0.0800 
 43 H       10.2100    -1.3140    -0.9050 H     1 <1>   0.0800 
 44 H        9.0690    -0.0090    -0.6940 H     1 <1>   0.0800 
@<TRIPOS>BOND
  1   1   2  1   
  2   1   3  1   
  3   2   4  2   
  4   3   5  2   
  5   3   6  1   
  6   4   5  1   
  7   4   7  1   
  8   6   8  1   
  9   6   9  1   
 10   6  22  1   
 11   7  10  ar  
 12   7  11  ar  
 13   8  12  1   
 14   8  23  1   
 15   8  24  1   
 16   9  13  1   
 17   9  25  1   
 18   9  26  1   
 19  10  14  ar  
 20  10  27  1   
 21  11  15  ar  
 22  11  28  1   
 23  12  16  1   
 24  12  29  1   
 25  12  30  1   
 26  13  16  1   
 27  13  31  1   
 28  13  32  1   
 29  14  17  ar  
 30  15  17  ar  
 31  15  33  1   
 32  16  18  1   
 33  16  34  1   
 34  17  35  1   
 35  18  19  1   
 36  18  36  1   
 37  18  37  1   
 38  19  20  1   
 39  19  38  1   
 40  19  39  1   
 41  20  21  1   
 42  20  40  1   
 43  20  41  1   
 44  21  42  1   
 45  21  43  1   
 46  21  44  1   
@<TRIPOS>SUBSTRUCTURE
  1 ****   3 GROUP 4 **** **** 0

# MOE 2024.06 (io_trps.svl 2023.06)
