@<TRIPOS>MOLECULE
NONAME
53 55 1 0 0 
SMALL
USER_CHARGES


@<TRIPOS>ATOM
  1 O       -0.3630    -0.2560     0.0120 O.3   1 <1>  -0.3630 
  2 C       -1.4640    -1.0310    -0.2470 C.ar  1 <1>   0.0830 
  3 C       -0.3930     1.1410    -0.1700 C.3   1 <1>   0.1200 
  4 C       -1.3390    -2.4280    -0.1280 C.ar  1 <1>   0.1000 
  5 C       -2.6870    -0.4810    -0.6180 C.ar  1 <1>  -0.1500 
  6 C        0.9960     1.6860     0.1460 C.3   1 <1>  -0.2400 
  7 N       -0.1520    -3.0780     0.2420 N.pl3 1 <1>  -0.8380 
  8 C       -2.4450    -3.2230    -0.3890 C.ar  1 <1>  -0.1500 
  9 C       -3.7770    -1.2960    -0.8730 C.ar  1 <1>  -0.1500 
 10 C        0.2730    -2.8150     1.6490 C.3   1 <1>   0.2090 
 11 C        0.9490    -2.9550    -0.7620 C.3   1 <1>   0.2090 
 12 C       -3.6560    -2.6680    -0.7590 C.ar  1 <1>  -0.1500 
 13 C        1.5040    -3.6610     2.0310 C.3   1 <1>   0.3430 
 14 C        2.1720    -3.7980    -0.3550 C.3   1 <1>   0.3430 
 15 N        2.6330    -3.4960     1.0500 N.4   1 <1>  -0.9590 
 16 C        3.8340    -4.2900     1.4200 C.3   1 <1>   0.4860 
 17 C        4.9510    -3.9350     0.4570 C.ar  1 <1>  -0.1430 
 18 C        5.4080    -4.8400    -0.4980 C.ar  1 <1>  -0.1430 
 19 C        5.5140    -2.6670     0.5310 C.ar  1 <1>  -0.1500 
 20 C        6.4060    -4.4470    -1.3750 C.ar  1 <1>  -0.1500 
 21 C        4.8600    -6.2580    -0.6100 C.3   1 <1>  -0.0970 
 22 C        6.5080    -2.2810    -0.3500 C.ar  1 <1>  -0.1430 
 23 C        6.9500    -3.1780    -1.3050 C.ar  1 <1>  -0.1500 
 24 C        7.1190    -0.8930    -0.2660 C.3   1 <1>  -0.0970 
 25 H       -1.1260     1.5580     0.4990 H     1 <1>   0.0800 
 26 H       -0.6590     1.3480    -1.1930 H     1 <1>   0.0800 
 27 H       -2.8240     0.5790    -0.7170 H     1 <1>   0.1500 
 28 H        1.2580     1.4660     1.1650 H     1 <1>   0.0800 
 29 H        1.0030     2.7530     0.0150 H     1 <1>   0.0800 
 30 H        1.7240     1.2570    -0.5190 H     1 <1>   0.0800 
 31 H       -2.3510    -4.2890    -0.3000 H     1 <1>   0.1500 
 32 H       -4.7200    -0.8620    -1.1600 H     1 <1>   0.1500 
 33 H       -0.5430    -3.0530     2.3100 H     1 <1>   0.0800 
 34 H        0.5020    -1.7720     1.7760 H     1 <1>   0.0800 
 35 H        1.2430    -1.9260    -0.8650 H     1 <1>   0.0800 
 36 H        0.5880    -3.2900    -1.7200 H     1 <1>   0.0800 
 37 H       -4.5030    -3.3030    -0.9570 H     1 <1>   0.1500 
 38 H        1.2010    -4.6950     2.0620 H     1 <1>   0.0800 
 39 H        1.8280    -3.3800     3.0190 H     1 <1>   0.0800 
 40 H        2.9720    -3.6100    -1.0540 H     1 <1>   0.0800 
 41 H        1.9030    -4.8380    -0.4320 H     1 <1>   0.0800 
 42 H        2.9160    -2.5090     1.0460 H     1 <1>   0.4500 
 43 H        3.6140    -5.3430     1.3720 H     1 <1>   0.0800 
 44 H        4.1440    -4.0510     2.4240 H     1 <1>   0.0800 
 45 H        5.1890    -1.9640     1.2770 H     1 <1>   0.1500 
 46 H        6.7770    -5.1270    -2.1230 H     1 <1>   0.1500 
 47 H        3.8100    -6.2460    -0.8360 H     1 <1>   0.0800 
 48 H        5.0220    -6.7930     0.3090 H     1 <1>   0.0800 
 49 H        5.3590    -6.7990    -1.3950 H     1 <1>   0.0800 
 50 H        7.7250    -2.8950    -1.9960 H     1 <1>   0.1500 
 51 H        7.9370    -0.8980     0.4320 H     1 <1>   0.0800 
 52 H        6.3890    -0.1750     0.0600 H     1 <1>   0.0800 
 53 H        7.4900    -0.5850    -1.2270 H     1 <1>   0.0800 
@<TRIPOS>BOND
  1   1   2  1   
  2   1   3  1   
  3   2   4  ar  
  4   2   5  ar  
  5   3   6  1   
  6   3  25  1   
  7   3  26  1   
  8   4   7  1   
  9   4   8  ar  
 10   5   9  ar  
 11   5  27  1   
 12   6  28  1   
 13   6  29  1   
 14   6  30  1   
 15   7  10  1   
 16   7  11  1   
 17   8  12  ar  
 18   8  31  1   
 19   9  12  ar  
 20   9  32  1   
 21  10  13  1   
 22  10  33  1   
 23  10  34  1   
 24  11  14  1   
 25  11  35  1   
 26  11  36  1   
 27  12  37  1   
 28  13  15  1   
 29  13  38  1   
 30  13  39  1   
 31  14  15  1   
 32  14  40  1   
 33  14  41  1   
 34  15  16  1   
 35  15  42  1   
 36  16  17  1   
 37  16  43  1   
 38  16  44  1   
 39  17  18  ar  
 40  17  19  ar  
 41  18  20  ar  
 42  18  21  1   
 43  19  22  ar  
 44  19  45  1   
 45  20  23  ar  
 46  20  46  1   
 47  21  47  1   
 48  21  48  1   
 49  21  49  1   
 50  22  23  ar  
 51  22  24  1   
 52  23  50  1   
 53  24  51  1   
 54  24  52  1   
 55  24  53  1   
@<TRIPOS>SUBSTRUCTURE
  1 ****  11 GROUP 4 **** **** 0

# MOE 2024.06 (io_trps.svl 2023.06)
