@<TRIPOS>MOLECULE
Structure2550
32 33 1 0 0 
SMALL
USER_CHARGES


@<TRIPOS>ATOM
  1 F       -0.9370     0.4920    -0.3520 F     1 <1>  -0.3400 
  2 C       -0.8510     1.7240     0.1340 C.3   1 <1>   1.1640 
  3 F       -1.6120     1.7500     1.2230 F     1 <1>  -0.3400 
  4 F       -1.4450     2.5160    -0.7510 F     1 <1>  -0.3400 
  5 C        0.6070     2.1290     0.4070 C.ar  1 <1>  -0.1440 
  6 C        1.1740     1.9630     1.6680 C.ar  1 <1>  -0.1500 
  7 C        1.3960     2.6660    -0.6070 C.ar  1 <1>  -0.1500 
  8 C        2.4870     2.3250     1.9050 C.ar  1 <1>  -0.1500 
  9 C        2.7110     3.0300    -0.3720 C.ar  1 <1>  -0.1500 
 10 C        3.2670     2.8550     0.8910 C.ar  1 <1>   0.0820 
 11 O        4.5460     3.1720     1.2140 O.3   1 <1>  -0.3630 
 12 C        5.5470     3.4220     0.2580 C.3   1 <1>   0.2000 
 13 C        5.9620     2.0900    -0.3790 C.3   1 <1>  -0.1600 
 14 C        6.7160     4.0650     1.0060 C.3   1 <1>  -0.1600 
 15 C        7.2090     2.2520    -1.2450 C.3   1 <1>   0.3430 
 16 C        7.9450     4.1960     0.1120 C.3   1 <1>   0.3430 
 17 N        8.3010     2.8600    -0.4380 N.4   1 <1>  -0.9060 
 18 H        0.5950     1.5490     2.4780 H     1 <1>   0.1500 
 19 H        0.9830     2.8070    -1.5930 H     1 <1>   0.1500 
 20 H        2.9150     2.1960     2.8830 H     1 <1>   0.1500 
 21 H        3.2730     3.4490    -1.1830 H     1 <1>   0.1500 
 22 H        5.1670     4.1140    -0.4740 H     1 <1>   0.0800 
 23 H        5.1630     1.7150    -0.9930 H     1 <1>   0.0800 
 24 H        6.1550     1.3620     0.3900 H     1 <1>   0.0800 
 25 H        6.9660     3.4780     1.8730 H     1 <1>   0.0800 
 26 H        6.4220     5.0440     1.3440 H     1 <1>   0.0800 
 27 H        6.9820     2.8840    -2.0890 H     1 <1>   0.0800 
 28 H        7.5170     1.2870    -1.6190 H     1 <1>   0.0800 
 29 H        8.7680     4.5930     0.6860 H     1 <1>   0.0800 
 30 H        7.7340     4.8810    -0.6940 H     1 <1>   0.0800 
 31 H        9.1540     2.9350    -1.0080 H     1 <1>   0.4500 
 32 H        8.5240     2.2300     0.3440 H     1 <1>   0.4500 
@<TRIPOS>BOND
  1   1   2  1   
  2   2   3  1   
  3   2   4  1   
  4   2   5  1   
  5   5   6  ar  
  6   5   7  ar  
  7   6   8  ar  
  8   6  18  1   
  9   7   9  ar  
 10   7  19  1   
 11   8  10  ar  
 12   8  20  1   
 13   9  10  ar  
 14   9  21  1   
 15  10  11  1   
 16  11  12  1   
 17  12  13  1   
 18  12  14  1   
 19  12  22  1   
 20  13  15  1   
 21  13  23  1   
 22  13  24  1   
 23  14  16  1   
 24  14  25  1   
 25  14  26  1   
 26  15  17  1   
 27  15  27  1   
 28  15  28  1   
 29  16  17  1   
 30  16  29  1   
 31  16  30  1   
 32  17  31  1   
 33  17  32  1   
@<TRIPOS>SUBSTRUCTURE
  1 ****  10 GROUP 4 **** **** 0

# MOE 2024.06 (io_trps.svl 2023.06)
