@<TRIPOS>MOLECULE
NONAME
33 33 1 0 0 
SMALL
USER_CHARGES


@<TRIPOS>ATOM
  1 BR       0.1270     0.0640     1.5280 Br    1 <1>  -0.1110 
  2 C        1.7680    -0.7970     0.9980 C.ar  1 <1>   0.1110 
  3 C        2.2400    -1.8710     1.7250 C.ar  1 <1>   0.1600 
  4 C        2.4460    -0.3270    -0.1030 C.ar  1 <1>  -0.1500 
  5 N        3.3550    -2.5200     1.4290 N.ar  1 <1>  -0.6200 
  6 C        3.6140    -0.9880    -0.4230 C.ar  1 <1>  -0.1430 
  7 C        4.0400    -2.0640     0.3780 C.ar  1 <1>   0.4270 
  8 C        4.4050    -0.5210    -1.6400 C.3   1 <1>  -0.0960 
  9 N        5.2170    -2.7620     0.0970 N.am  1 <1>  -0.4770 
 10 C        6.4520    -2.1940     0.3810 C.2   1 <1>   0.5690 
 11 C        4.9920    -4.1440    -0.4050 C.3   1 <1>   0.0600 
 12 O        6.5050    -1.0320     0.7180 O.2   1 <1>  -0.5700 
 13 C        7.8150    -2.9660     0.3090 C.3   1 <1>   0.0610 
 14 C        7.9500    -3.9410     1.4970 C.3   1 <1>  -0.2400 
 15 C        9.0050    -1.9820     0.4210 C.3   1 <1>  -0.2400 
 16 C        8.0350    -3.7340    -1.0140 C.3   1 <1>  -0.2400 
 17 H        1.6780    -2.2080     2.5770 H     1 <1>   0.1500 
 18 H        2.0730     0.5080    -0.6680 H     1 <1>   0.1500 
 19 H        3.7930     0.0780    -2.2900 H     1 <1>   0.0800 
 20 H        4.7680    -1.3620    -2.2020 H     1 <1>   0.0800 
 21 H        5.2450     0.0710    -1.3220 H     1 <1>   0.0800 
 22 H        3.9430    -4.3870    -0.3690 H     1 <1>   0.0800 
 23 H        5.5130    -4.8580     0.2010 H     1 <1>   0.0800 
 24 H        5.3140    -4.2170    -1.4280 H     1 <1>   0.0800 
 25 H        7.8540    -3.4010     2.4230 H     1 <1>   0.0800 
 26 H        8.9090    -4.4270     1.4840 H     1 <1>   0.0800 
 27 H        7.1910    -4.6980     1.4780 H     1 <1>   0.0800 
 28 H        9.9490    -2.4970     0.3880 H     1 <1>   0.0800 
 29 H        8.9580    -1.4360     1.3480 H     1 <1>   0.0800 
 30 H        8.9760    -1.2690    -0.3850 H     1 <1>   0.0800 
 31 H        9.0670    -4.0190    -1.1210 H     1 <1>   0.0800 
 32 H        7.7710    -3.1120    -1.8510 H     1 <1>   0.0800 
 33 H        7.4640    -4.6390    -1.0530 H     1 <1>   0.0800 
@<TRIPOS>BOND
  1   1   2  1   
  2   2   3  ar  
  3   2   4  ar  
  4   3   5  ar  
  5   3  17  1   
  6   4   6  ar  
  7   4  18  1   
  8   5   7  ar  
  9   6   7  ar  
 10   6   8  1   
 11   7   9  1   
 12   8  19  1   
 13   8  20  1   
 14   8  21  1   
 15   9  10  am  
 16   9  11  1   
 17  10  12  2   
 18  10  13  1   
 19  11  22  1   
 20  11  23  1   
 21  11  24  1   
 22  13  14  1   
 23  13  15  1   
 24  13  16  1   
 25  14  25  1   
 26  14  26  1   
 27  14  27  1   
 28  15  28  1   
 29  15  29  1   
 30  15  30  1   
 31  16  31  1   
 32  16  32  1   
 33  16  33  1   
@<TRIPOS>SUBSTRUCTURE
  1 ****   7 GROUP 4 **** **** 0

# MOE 2024.06 (io_trps.svl 2023.06)
