@<TRIPOS>MOLECULE
NONAME
45 45 1 0 0 
SMALL
USER_CHARGES


@<TRIPOS>ATOM
  1 N       -0.1070    -0.2090    -0.5450 N.4   1 <1>  -0.9590 
  2 C       -1.2260     0.7000    -0.1770 C.3   1 <1>   0.3430 
  3 C       -0.1220    -1.4840     0.2220 C.3   1 <1>   0.3430 
  4 C        1.2080     0.4900    -0.3550 C.3   1 <1>   0.2630 
  5 C       -2.5730    -0.0010    -0.3870 C.3   1 <1>  -0.1600 
  6 C       -1.4530    -2.2080     0.0080 C.3   1 <1>  -0.1600 
  7 C       -2.6590    -1.3290     0.3870 C.3   1 <1>   0.4230 
  8 N       -3.9490    -2.0680     0.1000 N.4   1 <1>  -0.9590 
  9 C       -5.2070    -1.2110     0.2020 C.3   1 <1>   0.3430 
 10 C       -4.0720    -3.2840     0.9720 C.3   1 <1>   0.3430 
 11 C       -6.5370    -1.9220    -0.2060 C.3   1 <1>   0.3430 
 12 C       -4.2360    -4.5050     0.0770 C.3   1 <1>  -0.2400 
 13 N       -7.7650    -1.0420    -0.1750 N.4   1 <1>  -0.9590 
 14 C       -8.1380    -0.5600     1.2010 C.3   1 <1>   0.2630 
 15 C       -8.9420    -1.7780    -0.7550 C.3   1 <1>   0.2630 
 16 H       -0.1730    -0.4280    -1.5530 H     1 <1>   0.4500 
 17 H       -1.1860     1.5940    -0.7820 H     1 <1>   0.0800 
 18 H       -1.1260     0.9960     0.8570 H     1 <1>   0.0800 
 19 H        0.0200    -1.2790     1.2720 H     1 <1>   0.0800 
 20 H        0.6900    -2.1170    -0.1040 H     1 <1>   0.0800 
 21 H        1.3540     0.7530     0.6810 H     1 <1>   0.0800 
 22 H        1.2450     1.3920    -0.9460 H     1 <1>   0.0800 
 23 H        2.0220    -0.1480    -0.6640 H     1 <1>   0.0800 
 24 H       -2.7140    -0.1670    -1.4410 H     1 <1>   0.0800 
 25 H       -3.3280     0.6820    -0.0440 H     1 <1>   0.0800 
 26 H       -1.4210    -3.0960     0.6130 H     1 <1>   0.0800 
 27 H       -1.5150    -2.5110    -1.0220 H     1 <1>   0.0800 
 28 H       -2.6070    -1.1090     1.4440 H     1 <1>   0.0800 
 29 H       -3.8660    -2.4200    -0.8670 H     1 <1>   0.4500 
 30 H       -5.0950    -0.3530    -0.4390 H     1 <1>   0.0800 
 31 H       -5.3040    -0.8590     1.2160 H     1 <1>   0.0800 
 32 H       -4.9180    -3.1990     1.6360 H     1 <1>   0.0800 
 33 H       -3.1940    -3.4100     1.5850 H     1 <1>   0.0800 
 34 H       -6.7000    -2.7610     0.4500 H     1 <1>   0.0800 
 35 H       -6.4190    -2.3040    -1.2070 H     1 <1>   0.0800 
 36 H       -5.1230    -4.4450    -0.5270 H     1 <1>   0.0800 
 37 H       -4.3220    -5.3830     0.6940 H     1 <1>   0.0800 
 38 H       -3.3760    -4.6410    -0.5560 H     1 <1>   0.0800 
 39 H       -7.6320    -0.2100    -0.7780 H     1 <1>   0.4500 
 40 H       -8.3270    -1.3950     1.8560 H     1 <1>   0.0800 
 41 H       -9.0330     0.0410     1.1540 H     1 <1>   0.0800 
 42 H       -7.3520     0.0440     1.6240 H     1 <1>   0.0800 
 43 H       -9.1710    -2.6520    -0.1670 H     1 <1>   0.0800 
 44 H       -8.7350    -2.0880    -1.7670 H     1 <1>   0.0800 
 45 H       -9.8130    -1.1410    -0.7690 H     1 <1>   0.0800 
@<TRIPOS>BOND
  1   1   2  1   
  2   1   3  1   
  3   1   4  1   
  4   1  16  1   
  5   2   5  1   
  6   2  17  1   
  7   2  18  1   
  8   3   6  1   
  9   3  19  1   
 10   3  20  1   
 11   4  21  1   
 12   4  22  1   
 13   4  23  1   
 14   5   7  1   
 15   5  24  1   
 16   5  25  1   
 17   6   7  1   
 18   6  26  1   
 19   6  27  1   
 20   7   8  1   
 21   7  28  1   
 22   8   9  1   
 23   8  10  1   
 24   8  29  1   
 25   9  11  1   
 26   9  30  1   
 27   9  31  1   
 28  10  12  1   
 29  10  32  1   
 30  10  33  1   
 31  11  13  1   
 32  11  34  1   
 33  11  35  1   
 34  12  36  1   
 35  12  37  1   
 36  12  38  1   
 37  13  14  1   
 38  13  15  1   
 39  13  39  1   
 40  14  40  1   
 41  14  41  1   
 42  14  42  1   
 43  15  43  1   
 44  15  44  1   
 45  15  45  1   
@<TRIPOS>SUBSTRUCTURE
  1 ****   8 GROUP 4 **** **** 0

# MOE 2024.06 (io_trps.svl 2023.06)
