@<TRIPOS>MOLECULE
NONAME
44 45 1 0 0 
SMALL
USER_CHARGES


@<TRIPOS>ATOM
  1 CL      -2.5770    -2.0410    -2.1230 Cl    1 <1>  -0.1770 
  2 C       -1.2340    -2.2520    -1.0230 C.ar  1 <1>   0.1770 
  3 C       -1.3950    -2.1020     0.3500 C.ar  1 <1>  -0.0090 
  4 C       -0.0120    -2.5780    -1.5910 C.ar  1 <1>  -0.1500 
  5 S       -2.9940    -1.6810     1.0770 S.o2  1 <1>   1.4470 
  6 C       -0.2720    -2.2890     1.1520 C.ar  1 <1>  -0.1500 
  7 C        1.0930    -2.7630    -0.7790 C.ar  1 <1>  -0.1500 
  8 O       -3.4830    -0.4590     0.4780 O.2   1 <1>  -0.6500 
  9 O       -2.8930    -1.7580     2.5180 O.2   1 <1>  -0.6500 
 10 N       -4.0020    -2.9570     0.5930 N.am  1 <1>  -0.8490 
 11 C        0.9470    -2.6150     0.5870 C.ar  1 <1>   0.1770 
 12 C       -5.4210    -2.5690     0.5890 C.3   1 <1>   0.1960 
 13 C       -3.7960    -4.1720     1.3870 C.3   1 <1>   0.1960 
 14 CL       2.3310    -2.8470     1.6220 Cl    1 <1>  -0.1770 
 15 C       -6.2720    -3.6670    -0.0610 C.3   1 <1>  -0.0190 
 16 C       -4.5740    -5.3380     0.7680 C.3   1 <1>  -0.1600 
 17 C       -7.7330    -3.2470    -0.0680 C.2   1 <1>   0.5690 
 18 C       -6.0700    -5.0140     0.6580 C.3   1 <1>  -0.1600 
 19 O       -8.2700    -2.9580     0.9730 O.2   1 <1>  -0.5700 
 20 N       -8.4030    -3.2190    -1.2490 N.am  1 <1>  -0.7300 
 21 C       -9.8130    -2.7750    -1.4070 C.3   1 <1>   0.1400 
 22 C      -10.7770    -3.8720    -0.9550 C.3   1 <1>   0.1200 
 23 O      -12.0700    -3.5020    -1.3180 O.3   1 <1>  -0.5600 
 24 C      -13.0510    -4.3850    -0.8800 C.3   1 <1>   0.0400 
 25 H        0.0680    -2.6840    -2.6590 H     1 <1>   0.1500 
 26 H       -0.3420    -2.1810     2.2210 H     1 <1>   0.1500 
 27 H        2.0530    -3.0160    -1.1940 H     1 <1>   0.1500 
 28 H       -5.5520    -1.6610     0.0230 H     1 <1>   0.0800 
 29 H       -5.7550    -2.3830     1.5980 H     1 <1>   0.0800 
 30 H       -4.1260    -4.0100     2.4020 H     1 <1>   0.0800 
 31 H       -2.7480    -4.4220     1.4100 H     1 <1>   0.0800 
 32 H       -5.9420    -3.7670    -1.0800 H     1 <1>   0.0800 
 33 H       -4.4390    -6.2180     1.3720 H     1 <1>   0.0800 
 34 H       -4.1710    -5.5450    -0.2090 H     1 <1>   0.0800 
 35 H       -6.5800    -5.7970     0.1240 H     1 <1>   0.0800 
 36 H       -6.4940    -4.9550     1.6470 H     1 <1>   0.0800 
 37 H       -7.9230    -3.4750    -2.1140 H     1 <1>   0.3700 
 38 H       -9.9960    -2.5380    -2.4400 H     1 <1>   0.0800 
 39 H       -9.9780    -1.8940    -0.8110 H     1 <1>   0.0800 
 40 H      -10.7310    -3.9820     0.1160 H     1 <1>   0.0800 
 41 H      -10.5430    -4.8030    -1.4390 H     1 <1>   0.0800 
 42 H      -14.0060    -4.0160    -1.2120 H     1 <1>   0.0800 
 43 H      -13.0340    -4.4290     0.1960 H     1 <1>   0.0800 
 44 H      -12.8700    -5.3570    -1.3030 H     1 <1>   0.0800 
@<TRIPOS>BOND
  1   1   2  1   
  2   2   3  ar  
  3   2   4  ar  
  4   3   5  1   
  5   3   6  ar  
  6   4   7  ar  
  7   4  25  1   
  8   5   8  2   
  9   5   9  2   
 10   5  10  am  
 11   6  11  ar  
 12   6  26  1   
 13   7  11  ar  
 14   7  27  1   
 15  10  12  1   
 16  10  13  1   
 17  11  14  1   
 18  12  15  1   
 19  12  28  1   
 20  12  29  1   
 21  13  16  1   
 22  13  30  1   
 23  13  31  1   
 24  15  17  1   
 25  15  18  1   
 26  15  32  1   
 27  16  18  1   
 28  16  33  1   
 29  16  34  1   
 30  17  19  2   
 31  17  20  am  
 32  18  35  1   
 33  18  36  1   
 34  20  21  1   
 35  20  37  1   
 36  21  22  1   
 37  21  38  1   
 38  21  39  1   
 39  22  23  1   
 40  22  40  1   
 41  22  41  1   
 42  23  24  1   
 43  24  42  1   
 44  24  43  1   
 45  24  44  1   
@<TRIPOS>SUBSTRUCTURE
  1 ****  10 GROUP 4 **** **** 0

# MOE 2024.06 (io_trps.svl 2023.06)
