@<TRIPOS>MOLECULE
NONAME
36 37 1 0 0 
SMALL
USER_CHARGES


@<TRIPOS>ATOM
  1 BR      -3.5540    -1.3770     4.1630 Br    1 <1>  -0.1110 
  2 C       -3.4240    -1.6050     2.2580 C.ar  1 <1>   0.1110 
  3 C       -3.2020    -2.8740     1.7570 C.ar  1 <1>  -0.1500 
  4 C       -3.5560    -0.4990     1.4430 C.ar  1 <1>  -0.1500 
  5 C       -3.1120    -3.0440     0.3820 C.ar  1 <1>  -0.1440 
  6 C       -3.4580    -0.6730     0.0730 C.ar  1 <1>  -0.1500 
  7 C       -3.2360    -1.9370    -0.4520 C.ar  1 <1>  -0.1500 
  8 C       -2.8870    -4.4230    -0.2090 C.3   1 <1>   0.4870 
  9 N       -4.1250    -5.2320    -0.0360 N.4   1 <1>  -0.9590 
 10 C       -3.9820    -6.6620    -0.4830 C.3   1 <1>   0.3430 
 11 C       -5.3620    -4.5960    -0.6180 C.3   1 <1>   0.3430 
 12 C       -5.2860    -7.4770    -0.2710 C.3   1 <1>   0.1960 
 13 C       -6.6400    -5.3930    -0.2490 C.3   1 <1>   0.1960 
 14 N       -6.3210    -6.6760     0.4060 N.am  1 <1>  -0.8490 
 15 S       -7.6230    -7.5250     1.0830 S.o2  1 <1>   1.3330 
 16 O       -8.4210    -6.5440     1.7750 O.2   1 <1>  -0.6500 
 17 O       -7.0470    -8.6550     1.7690 O.2   1 <1>  -0.6500 
 18 C       -8.5480    -8.1230    -0.3180 C.3   1 <1>  -0.1350 
 19 H       -3.1020    -3.6940     2.4460 H     1 <1>   0.1500 
 20 H       -3.7270     0.4740     1.8710 H     1 <1>   0.1500 
 21 H       -3.5510     0.1790    -0.5810 H     1 <1>   0.1500 
 22 H       -3.1590    -2.0410    -1.5220 H     1 <1>   0.1500 
 23 H       -2.0610    -4.8970     0.2960 H     1 <1>   0.0800 
 24 H       -2.6430    -4.3360    -1.2550 H     1 <1>   0.0800 
 25 H       -4.3310    -5.2840     0.9740 H     1 <1>   0.4500 
 26 H       -3.1890    -7.1380     0.0710 H     1 <1>   0.0800 
 27 H       -3.7150    -6.6980    -1.5260 H     1 <1>   0.0800 
 28 H       -5.2760    -4.5440    -1.6900 H     1 <1>   0.0800 
 29 H       -5.4690    -3.5870    -0.2520 H     1 <1>   0.0800 
 30 H       -5.0480    -8.3440     0.3240 H     1 <1>   0.0800 
 31 H       -5.6520    -7.8270    -1.2210 H     1 <1>   0.0800 
 32 H       -7.2280    -5.5590    -1.1350 H     1 <1>   0.0800 
 33 H       -7.2310    -4.7900     0.4220 H     1 <1>   0.0800 
 34 H       -8.9010    -7.3060    -0.9150 H     1 <1>   0.0800 
 35 H       -9.3980    -8.6800     0.0250 H     1 <1>   0.0800 
 36 H       -7.9440    -8.7700    -0.9220 H     1 <1>   0.0800 
@<TRIPOS>BOND
  1   1   2  1   
  2   2   3  ar  
  3   2   4  ar  
  4   3   5  ar  
  5   3  19  1   
  6   4   6  ar  
  7   4  20  1   
  8   5   7  ar  
  9   5   8  1   
 10   6   7  ar  
 11   6  21  1   
 12   7  22  1   
 13   8   9  1   
 14   8  23  1   
 15   8  24  1   
 16   9  10  1   
 17   9  11  1   
 18   9  25  1   
 19  10  12  1   
 20  10  26  1   
 21  10  27  1   
 22  11  13  1   
 23  11  28  1   
 24  11  29  1   
 25  12  14  1   
 26  12  30  1   
 27  12  31  1   
 28  13  14  1   
 29  13  32  1   
 30  13  33  1   
 31  14  15  am  
 32  15  16  2   
 33  15  17  2   
 34  15  18  1   
 35  18  34  1   
 36  18  35  1   
 37  18  36  1   
@<TRIPOS>SUBSTRUCTURE
  1 ****   9 GROUP 4 **** **** 0

# MOE 2024.06 (io_trps.svl 2023.06)
