@<TRIPOS>MOLECULE
NONAME
43 45 1 0 0 
SMALL
USER_CHARGES


@<TRIPOS>ATOM
  1 O        1.3570    -0.3750     1.7200 O.3   1 <1>  -0.5600 
  2 C        0.6440    -1.2380     0.8750 C.3   1 <1>   0.1200 
  3 C        1.9470     0.7160     1.0640 C.3   1 <1>   0.1200 
  4 C        1.5680    -1.8450    -0.2070 C.3   1 <1>   0.3430 
  5 C        2.8770     0.2520    -0.0810 C.3   1 <1>   0.3430 
  6 N        2.9440    -1.2480    -0.1530 N.4   1 <1>  -0.9590 
  7 C        3.8620    -1.7570    -1.2050 C.3   1 <1>   0.4860 
  8 C        5.2490    -1.1990    -0.9500 C.ar  1 <1>  -0.1440 
  9 C        5.7500    -0.1850    -1.7540 C.ar  1 <1>  -0.1500 
 10 C        6.0260    -1.6880     0.0920 C.ar  1 <1>  -0.1500 
 11 C        7.0050     0.3420    -1.5070 C.ar  1 <1>  -0.1500 
 12 C        7.2820    -1.1620     0.3380 C.ar  1 <1>  -0.1500 
 13 C        7.7770    -0.1370    -0.4630 C.ar  1 <1>   0.0820 
 14 O        8.9900     0.4410    -0.2930 O.3   1 <1>  -0.3620 
 15 C        9.9030    -0.0220     0.6790 C.3   1 <1>   0.2630 
 16 C       11.1680     0.8190     0.6130 C.ar  1 <1>  -0.1440 
 17 C       11.1160     2.1760     0.8930 C.ar  1 <1>  -0.1500 
 18 C       12.3840     0.2410     0.2790 C.ar  1 <1>  -0.1500 
 19 C       12.2660     2.9460     0.8470 C.ar  1 <1>  -0.1500 
 20 C       13.5350     1.0100     0.2320 C.ar  1 <1>  -0.1500 
 21 C       13.4760     2.3630     0.5170 C.ar  1 <1>  -0.1500 
 22 H       -0.1640    -0.6870     0.4240 H     1 <1>   0.0800 
 23 H        0.2200    -2.0180     1.4830 H     1 <1>   0.0800 
 24 H        2.5100     1.2700     1.7960 H     1 <1>   0.0800 
 25 H        1.1670     1.3560     0.6880 H     1 <1>   0.0800 
 26 H        1.1270    -1.6750    -1.1750 H     1 <1>   0.0800 
 27 H        1.6240    -2.9110    -0.0580 H     1 <1>   0.0800 
 28 H        3.8620     0.6610     0.0830 H     1 <1>   0.0800 
 29 H        2.5130     0.6520    -1.0130 H     1 <1>   0.0800 
 30 H        3.3300    -1.5210     0.7620 H     1 <1>   0.4500 
 31 H        3.5190    -1.4520    -2.1800 H     1 <1>   0.0800 
 32 H        3.9010    -2.8340    -1.1770 H     1 <1>   0.0800 
 33 H        5.1790     0.2070    -2.5790 H     1 <1>   0.1500 
 34 H        5.6680    -2.4840     0.7230 H     1 <1>   0.1500 
 35 H        7.4010     1.1290    -2.1260 H     1 <1>   0.1500 
 36 H        7.8590    -1.5600     1.1520 H     1 <1>   0.1500 
 37 H       10.1180    -1.0560     0.4740 H     1 <1>   0.0800 
 38 H        9.4470     0.0760     1.6480 H     1 <1>   0.0800 
 39 H       10.1770     2.6370     1.1450 H     1 <1>   0.1500 
 40 H       12.4440    -0.8090     0.0520 H     1 <1>   0.1500 
 41 H       12.2160     3.9980     1.0660 H     1 <1>   0.1500 
 42 H       14.4750     0.5560    -0.0270 H     1 <1>   0.1500 
 43 H       14.3700     2.9600     0.4810 H     1 <1>   0.1500 
@<TRIPOS>BOND
  1   1   2  1   
  2   1   3  1   
  3   2   4  1   
  4   2  22  1   
  5   2  23  1   
  6   3   5  1   
  7   3  24  1   
  8   3  25  1   
  9   4   6  1   
 10   4  26  1   
 11   4  27  1   
 12   5   6  1   
 13   5  28  1   
 14   5  29  1   
 15   6   7  1   
 16   6  30  1   
 17   7   8  1   
 18   7  31  1   
 19   7  32  1   
 20   8   9  ar  
 21   8  10  ar  
 22   9  11  ar  
 23   9  33  1   
 24  10  12  ar  
 25  10  34  1   
 26  11  13  ar  
 27  11  35  1   
 28  12  13  ar  
 29  12  36  1   
 30  13  14  1   
 31  14  15  1   
 32  15  16  1   
 33  15  37  1   
 34  15  38  1   
 35  16  17  ar  
 36  16  18  ar  
 37  17  19  ar  
 38  17  39  1   
 39  18  20  ar  
 40  18  40  1   
 41  19  21  ar  
 42  19  41  1   
 43  20  21  ar  
 44  20  42  1   
 45  21  43  1   
@<TRIPOS>SUBSTRUCTURE
  1 ****  13 GROUP 4 **** **** 0

# MOE 2024.06 (io_trps.svl 2023.06)
