@<TRIPOS>MOLECULE
NONAME
45 47 1 0 0 
SMALL
USER_CHARGES


@<TRIPOS>ATOM
  1 S       -0.0530    -1.5220    -0.9870 S.o2  1 <1>   1.4470 
  2 O        0.6400    -2.6060    -1.6500 O.2   1 <1>  -0.6500 
  3 O        0.1220    -0.1800    -1.5000 O.2   1 <1>  -0.6500 
  4 N        0.4680    -1.5130     0.6310 N.am  1 <1>  -0.8490 
  5 C       -1.8310    -1.9080    -0.8510 C.ar  1 <1>  -0.0090 
  6 C        0.0270    -0.3420     1.4170 C.3   1 <1>   0.1960 
  7 C        1.9200    -1.7100     0.7890 C.3   1 <1>   0.1960 
  8 C       -2.3180    -3.1370    -0.3940 C.ar  1 <1>  -0.1440 
  9 C       -2.7610    -0.9360    -1.2020 C.ar  1 <1>  -0.1500 
 10 C        0.9190     0.9080     1.2290 C.3   1 <1>   0.1200 
 11 C        2.7170    -0.4160     0.5390 C.3   1 <1>   0.1200 
 12 C       -3.6850    -3.3560    -0.3100 C.ar  1 <1>  -0.1500 
 13 C       -1.3860    -4.2720     0.0140 C.3   1 <1>  -0.0960 
 14 C       -4.1370    -1.1270    -1.1100 C.ar  1 <1>   0.0860 
 15 O        2.2700     0.5890     1.4020 O.3   1 <1>  -0.5600 
 16 C       -4.5790    -2.3670    -0.6650 C.ar  1 <1>  -0.1500 
 17 C       -5.0600    -0.0670    -1.4740 C.2   1 <1>   0.5440 
 18 O       -4.9150     0.5170    -2.5300 O.2   1 <1>  -0.5700 
 19 N       -6.0910     0.3120    -0.6450 N.am  1 <1>  -0.6600 
 20 C       -6.2000    -0.0220     0.7930 C.3   1 <1>   0.1400 
 21 C       -7.0260     1.4010    -1.0060 C.3   1 <1>   0.1400 
 22 C       -7.0060     1.1230     1.3930 C.3   1 <1>  -0.1600 
 23 C       -7.8730     1.6250     0.2420 C.3   1 <1>  -0.1600 
 24 H        0.0500    -0.6070     2.4600 H     1 <1>   0.0800 
 25 H       -0.9920    -0.0960     1.1740 H     1 <1>   0.0800 
 26 H        2.2710    -2.4860     0.1310 H     1 <1>   0.0800 
 27 H        2.1190    -2.0350     1.7950 H     1 <1>   0.0800 
 28 H       -2.4160     0.0170    -1.5680 H     1 <1>   0.1500 
 29 H        0.6650     1.6520     1.9630 H     1 <1>   0.0800 
 30 H        0.7920     1.3440     0.2550 H     1 <1>   0.0800 
 31 H        2.6080    -0.0800    -0.4780 H     1 <1>   0.0800 
 32 H        3.7610    -0.5780     0.7390 H     1 <1>   0.0800 
 33 H       -4.0630    -4.3050     0.0310 H     1 <1>   0.1500 
 34 H       -0.7010    -3.9470     0.7750 H     1 <1>   0.0800 
 35 H       -0.8240    -4.6150    -0.8370 H     1 <1>   0.0800 
 36 H       -1.9380    -5.1080     0.4040 H     1 <1>   0.0800 
 37 H       -5.6370    -2.5560    -0.6070 H     1 <1>   0.1500 
 38 H       -5.2300    -0.1040     1.2520 H     1 <1>   0.0800 
 39 H       -6.7370    -0.9480     0.8990 H     1 <1>   0.0800 
 40 H       -7.6270     1.1200    -1.8540 H     1 <1>   0.0800 
 41 H       -6.4600     2.2850    -1.2450 H     1 <1>   0.0800 
 42 H       -6.3300     1.9000     1.7060 H     1 <1>   0.0800 
 43 H       -7.5900     0.8040     2.2380 H     1 <1>   0.0800 
 44 H       -8.7660     1.0280     0.1680 H     1 <1>   0.0800 
 45 H       -8.1500     2.6580     0.3550 H     1 <1>   0.0800 
@<TRIPOS>BOND
  1   1   2  2   
  2   1   3  2   
  3   1   4  am  
  4   1   5  1   
  5   4   6  1   
  6   4   7  1   
  7   5   8  ar  
  8   5   9  ar  
  9   6  10  1   
 10   6  24  1   
 11   6  25  1   
 12   7  11  1   
 13   7  26  1   
 14   7  27  1   
 15   8  12  ar  
 16   8  13  1   
 17   9  14  ar  
 18   9  28  1   
 19  10  15  1   
 20  10  29  1   
 21  10  30  1   
 22  11  15  1   
 23  11  31  1   
 24  11  32  1   
 25  12  16  ar  
 26  12  33  1   
 27  13  34  1   
 28  13  35  1   
 29  13  36  1   
 30  14  16  ar  
 31  14  17  1   
 32  16  37  1   
 33  17  18  2   
 34  17  19  am  
 35  19  20  1   
 36  19  21  1   
 37  20  22  1   
 38  20  38  1   
 39  20  39  1   
 40  21  23  1   
 41  21  40  1   
 42  21  41  1   
 43  22  23  1   
 44  22  42  1   
 45  22  43  1   
 46  23  44  1   
 47  23  45  1   
@<TRIPOS>SUBSTRUCTURE
  1 ****   9 GROUP 4 **** **** 0

# MOE 2024.06 (io_trps.svl 2023.06)
