@<TRIPOS>MOLECULE
NONAME
34 34 1 0 0 
SMALL
USER_CHARGES


@<TRIPOS>ATOM
  1 S       -0.1070    -0.1910    -0.9850 S.o2  1 <1>   1.4470 
  2 O       -1.3810    -0.8790    -0.9020 O.2   1 <1>  -0.6500 
  3 O        0.5650    -0.1940    -2.2690 O.2   1 <1>  -0.6500 
  4 N        0.9010    -0.9700     0.1360 N.am  1 <1>  -0.8490 
  5 C       -0.2000     1.5480    -0.3830 C.ar  1 <1>  -0.0090 
  6 C        1.5120    -2.2310    -0.4090 C.3   1 <1>   0.0900 
  7 C        0.2470    -1.2460     1.4180 C.3   1 <1>   0.1160 
  8 C        0.9660     2.2570    -0.0520 C.ar  1 <1>  -0.1440 
  9 C       -1.4200     2.2330    -0.2560 C.ar  1 <1>  -0.1440 
 10 C        2.4400    -3.0600     0.4990 C.2   1 <1>   0.9060 
 11 C        0.9020     3.5570     0.4250 C.ar  1 <1>  -0.1500 
 12 C        2.3680     1.6650    -0.1920 C.3   1 <1>  -0.0970 
 13 C       -1.4610     3.5350     0.2210 C.ar  1 <1>  -0.1500 
 14 C       -2.7620     1.6160    -0.6340 C.3   1 <1>  -0.0970 
 15 O        1.9350    -3.8090     1.3490 O.co2 1 <1>  -0.9000 
 16 O        3.6660    -2.9860     0.3440 O.co2 1 <1>  -0.9000 
 17 C       -0.3070     4.2030     0.5710 C.ar  1 <1>  -0.1440 
 18 C       -0.3670     5.6270     1.0940 C.3   1 <1>  -0.0970 
 19 H        2.0890    -1.9830    -1.2810 H     1 <1>   0.0800 
 20 H        0.7240    -2.8910    -0.7220 H     1 <1>   0.0800 
 21 H       -0.2270    -0.3560     1.7930 H     1 <1>   0.0800 
 22 H        0.9740    -1.5700     2.1430 H     1 <1>   0.0800 
 23 H       -0.4930    -2.0200     1.3030 H     1 <1>   0.0800 
 24 H        1.8060     4.0780     0.6850 H     1 <1>   0.1500 
 25 H        3.1160     2.4360    -0.2050 H     1 <1>   0.0800 
 26 H        2.5800     1.0110     0.6360 H     1 <1>   0.0800 
 27 H        2.4690     1.1080    -1.1060 H     1 <1>   0.0800 
 28 H       -2.4040     4.0430     0.3210 H     1 <1>   0.1500 
 29 H       -3.0210     0.8370     0.0610 H     1 <1>   0.0800 
 30 H       -2.7200     1.2060    -1.6270 H     1 <1>   0.0800 
 31 H       -3.5490     2.3480    -0.6190 H     1 <1>   0.0800 
 32 H        0.4600     5.8210     1.7530 H     1 <1>   0.0800 
 33 H       -1.2790     5.7890     1.6380 H     1 <1>   0.0800 
 34 H       -0.3250     6.3170     0.2710 H     1 <1>   0.0800 
@<TRIPOS>BOND
  1   1   2  2   
  2   1   3  2   
  3   1   4  am  
  4   1   5  1   
  5   4   6  1   
  6   4   7  1   
  7   5   8  ar  
  8   5   9  ar  
  9   6  10  1   
 10   6  19  1   
 11   6  20  1   
 12   7  21  1   
 13   7  22  1   
 14   7  23  1   
 15   8  11  ar  
 16   8  12  1   
 17   9  13  ar  
 18   9  14  1   
 19  10  15  ar  
 20  10  16  ar  
 21  11  17  ar  
 22  11  24  1   
 23  12  25  1   
 24  12  26  1   
 25  12  27  1   
 26  13  17  ar  
 27  13  28  1   
 28  14  29  1   
 29  14  30  1   
 30  14  31  1   
 31  17  18  1   
 32  18  32  1   
 33  18  33  1   
 34  18  34  1   
@<TRIPOS>SUBSTRUCTURE
  1 ****   5 GROUP 4 **** **** 0

# MOE 2024.06 (io_trps.svl 2023.06)
