@<TRIPOS>MOLECULE
NONAME
43 44 1 0 0 
SMALL
USER_CHARGES


@<TRIPOS>ATOM
  1 O        0.7570     0.2510    -0.2030 O.2   1 <1>  -0.5700 
  2 C        0.4560     1.4150    -0.1550 C.2   1 <1>   0.6590 
  3 O       -0.7840     1.8250     0.0560 O.3   1 <1>  -0.4300 
  4 C        1.4930     2.5100    -0.3390 C.3   1 <1>  -0.0190 
  5 C       -1.8420     0.9140     0.2500 C.3   1 <1>   0.1200 
  6 C        2.7610     1.9110    -0.9770 C.3   1 <1>   0.3430 
  7 C        1.8050     3.2380     0.9840 C.3   1 <1>  -0.1600 
  8 C       -3.1210     1.7150     0.4710 C.3   1 <1>  -0.2400 
  9 N        4.0180     2.6040    -0.5390 N.4   1 <1>  -0.9590 
 10 C        2.8610     4.3430     0.7760 C.3   1 <1>  -0.1600 
 11 C        3.8460     4.0730    -0.3700 C.3   1 <1>   0.3430 
 12 C        5.1750     2.2550    -1.4040 C.3   1 <1>   0.4860 
 13 C        6.4420     2.6950    -0.6960 C.ar  1 <1>  -0.1440 
 14 C        6.9610     1.9870     0.3860 C.ar  1 <1>  -0.1440 
 15 C        7.0860     3.8410    -1.1420 C.ar  1 <1>  -0.1500 
 16 C        8.1050     2.4560     1.0140 C.ar  1 <1>  -0.1500 
 17 C        6.3320     0.7010     0.9130 C.3   1 <1>  -0.0970 
 18 C        8.2270     4.2970    -0.5100 C.ar  1 <1>  -0.1500 
 19 C        8.7340     3.6050     0.5730 C.ar  1 <1>  -0.1500 
 20 H        1.0750     3.2190    -1.0300 H     1 <1>   0.0800 
 21 H       -1.6160     0.3030     1.1080 H     1 <1>   0.0800 
 22 H       -1.9230     0.2910    -0.6250 H     1 <1>   0.0800 
 23 H        2.6610     1.9650    -2.0490 H     1 <1>   0.0800 
 24 H        2.8380     0.8680    -0.7120 H     1 <1>   0.0800 
 25 H        2.1720     2.5210     1.7000 H     1 <1>   0.0800 
 26 H        0.9050     3.6680     1.3950 H     1 <1>   0.0800 
 27 H       -3.0250     2.3380     1.3420 H     1 <1>   0.0800 
 28 H       -3.9460     1.0430     0.6220 H     1 <1>   0.0800 
 29 H       -3.3320     2.3260    -0.3880 H     1 <1>   0.0800 
 30 H        4.2700     2.2530     0.3940 H     1 <1>   0.4500 
 31 H        3.4110     4.4830     1.6900 H     1 <1>   0.0800 
 32 H        2.3660     5.2760     0.5700 H     1 <1>   0.0800 
 33 H        3.4640     4.4970    -1.2850 H     1 <1>   0.0800 
 34 H        4.7900     4.5450    -0.1460 H     1 <1>   0.0800 
 35 H        5.0920     2.7460    -2.3600 H     1 <1>   0.0800 
 36 H        5.2120     1.1910    -1.5700 H     1 <1>   0.0800 
 37 H        6.7120     4.3950    -1.9870 H     1 <1>   0.1500 
 38 H        8.5220     1.9290     1.8550 H     1 <1>   0.1500 
 39 H        5.4770     0.9230     1.5250 H     1 <1>   0.0800 
 40 H        7.0390     0.1590     1.5180 H     1 <1>   0.0800 
 41 H        6.0400     0.0530     0.1070 H     1 <1>   0.0800 
 42 H        8.7250     5.1870    -0.8570 H     1 <1>   0.1500 
 43 H        9.6230     3.9570     1.0690 H     1 <1>   0.1500 
@<TRIPOS>BOND
  1   1   2  2   
  2   2   3  1   
  3   2   4  1   
  4   3   5  1   
  5   4   6  1   
  6   4   7  1   
  7   4  20  1   
  8   5   8  1   
  9   5  21  1   
 10   5  22  1   
 11   6   9  1   
 12   6  23  1   
 13   6  24  1   
 14   7  10  1   
 15   7  25  1   
 16   7  26  1   
 17   8  27  1   
 18   8  28  1   
 19   8  29  1   
 20   9  11  1   
 21   9  12  1   
 22   9  30  1   
 23  10  11  1   
 24  10  31  1   
 25  10  32  1   
 26  11  33  1   
 27  11  34  1   
 28  12  13  1   
 29  12  35  1   
 30  12  36  1   
 31  13  14  ar  
 32  13  15  ar  
 33  14  16  ar  
 34  14  17  1   
 35  15  18  ar  
 36  15  37  1   
 37  16  19  ar  
 38  16  38  1   
 39  17  39  1   
 40  17  40  1   
 41  17  41  1   
 42  18  19  ar  
 43  18  42  1   
 44  19  43  1   
@<TRIPOS>SUBSTRUCTURE
  1 ****   9 GROUP 4 **** **** 0

# MOE 2024.06 (io_trps.svl 2023.06)
