@<TRIPOS>MOLECULE
NONAME
37 38 1 0 0 
SMALL
USER_CHARGES


@<TRIPOS>ATOM
  1 CL       1.1020     0.0410    -2.2430 Cl    1 <1>  -0.1770 
  2 C        2.4960     0.7170    -1.4350 C.ar  1 <1>   0.1770 
  3 C        3.7460     0.6490    -2.0260 C.ar  1 <1>   0.1600 
  4 C        2.3470     1.3210    -0.2060 C.ar  1 <1>  -0.1500 
  5 N        4.8550     1.1340    -1.4850 N.ar  1 <1>  -0.6200 
  6 C        3.4940     1.8280     0.3640 C.ar  1 <1>  -0.1500 
  7 C        4.7190     1.7140    -0.2990 C.ar  1 <1>   0.4270 
  8 N        5.9040     2.1950     0.2060 N.am  1 <1>  -0.5470 
  9 C        6.2980     2.6390     1.4310 C.2   1 <1>   0.5690 
 10 O        5.5590     2.7450     2.3810 O.2   1 <1>  -0.5700 
 11 C        7.7750     3.0100     1.5850 C.3   1 <1>   0.1710 
 12 N        8.6570     2.4150     0.5360 N.3   1 <1>  -0.8100 
 13 C        8.8650     0.9740     0.7580 C.3   1 <1>   0.1100 
 14 C        9.9340     3.1350     0.4430 C.3   1 <1>   0.1100 
 15 C        9.6240     0.3770    -0.4290 C.3   1 <1>  -0.1600 
 16 C       10.7360     2.6070    -0.7490 C.3   1 <1>  -0.1600 
 17 C       10.9700     1.0880    -0.6460 C.3   1 <1>  -0.0190 
 18 C       11.7090     0.5160    -1.8560 C.2   1 <1>   0.5690 
 19 O       11.6070     1.0160    -2.9460 O.2   1 <1>  -0.5700 
 20 N       12.4850    -0.5720    -1.6980 N.am  1 <1>  -0.8000 
 21 H        3.8310     0.1720    -2.9870 H     1 <1>   0.1500 
 22 H        1.3860     1.3870     0.2720 H     1 <1>   0.1500 
 23 H        3.4410     2.3140     1.3190 H     1 <1>   0.1500 
 24 H        6.6870     2.1060    -0.4490 H     1 <1>   0.3700 
 25 H        8.1120     2.7120     2.5620 H     1 <1>   0.0800 
 26 H        7.8310     4.0830     1.5300 H     1 <1>   0.0800 
 27 H        7.9170     0.4710     0.8530 H     1 <1>   0.0800 
 28 H        9.4210     0.8190     1.6680 H     1 <1>   0.0800 
 29 H       10.4960     3.0100     1.3540 H     1 <1>   0.0800 
 30 H        9.7480     4.1860     0.2980 H     1 <1>   0.0800 
 31 H        9.0170     0.4720    -1.3140 H     1 <1>   0.0800 
 32 H        9.7880    -0.6720    -0.2550 H     1 <1>   0.0800 
 33 H       11.6820     3.1170    -0.8010 H     1 <1>   0.0800 
 34 H       10.1950     2.8330    -1.6530 H     1 <1>   0.0800 
 35 H       11.5840     0.9140     0.2190 H     1 <1>   0.0800 
 36 H       12.9670    -0.9540    -2.5140 H     1 <1>   0.3700 
 37 H       12.6140    -1.0650    -0.8170 H     1 <1>   0.3700 
@<TRIPOS>BOND
  1   1   2  1   
  2   2   3  ar  
  3   2   4  ar  
  4   3   5  ar  
  5   3  21  1   
  6   4   6  ar  
  7   4  22  1   
  8   5   7  ar  
  9   6   7  ar  
 10   6  23  1   
 11   7   8  1   
 12   8   9  am  
 13   8  24  1   
 14   9  10  2   
 15   9  11  1   
 16  11  12  1   
 17  11  25  1   
 18  11  26  1   
 19  12  13  1   
 20  12  14  1   
 21  13  15  1   
 22  13  27  1   
 23  13  28  1   
 24  14  16  1   
 25  14  29  1   
 26  14  30  1   
 27  15  17  1   
 28  15  31  1   
 29  15  32  1   
 30  16  17  1   
 31  16  33  1   
 32  16  34  1   
 33  17  18  1   
 34  17  35  1   
 35  18  19  2   
 36  18  20  am  
 37  20  36  1   
 38  20  37  1   
@<TRIPOS>SUBSTRUCTURE
  1 ****   8 GROUP 4 **** **** 0

# MOE 2024.06 (io_trps.svl 2023.06)
