@<TRIPOS>MOLECULE
NONAME
38 39 1 0 0 
SMALL
USER_CHARGES


@<TRIPOS>ATOM
  1 O        0.2120     1.2860     2.6590 O.2   1 <1>  -0.5700 
  2 C        0.2470     1.5900     1.4910 C.2   1 <1>   0.5770 
  3 N        1.4210     1.6640     0.8160 N.am  1 <1>  -0.7300 
  4 C       -1.0620     1.8990     0.7720 C.3   1 <1>   0.0530 
  5 C        2.7490     1.5130     1.4110 C.3   1 <1>   0.3640 
  6 C       -1.2810     1.1620    -0.5780 C.3   1 <1>   0.0000 
  7 C       -1.0940     3.2260    -0.0340 C.3   1 <1>   0.0000 
  8 C        3.7440     2.3490     0.6000 C.ar  1 <1>  -0.1440 
  9 C        3.1150     0.0340     1.5190 C.3   1 <1>  -0.2400 
 10 C       -1.9390     2.4690    -1.0920 C.3   1 <1>   0.0000 
 11 C        4.0890     2.1250    -0.7380 C.ar  1 <1>  -0.1430 
 12 C        4.3270     3.4200     1.2680 C.ar  1 <1>  -0.1500 
 13 C        5.0040     2.9680    -1.3520 C.ar  1 <1>  -0.1500 
 14 C        3.5360     0.9900    -1.5940 C.3   1 <1>  -0.0970 
 15 C        5.2370     4.2570     0.6490 C.ar  1 <1>  -0.1430 
 16 C        5.5740     4.0260    -0.6700 C.ar  1 <1>  -0.1500 
 17 C        5.8520     5.4170     1.4110 C.3   1 <1>  -0.0970 
 18 H        1.4520     2.0320    -0.1340 H     1 <1>   0.3700 
 19 H       -1.9240     1.8080     1.4130 H     1 <1>   0.0000 
 20 H        2.7060     1.9020     2.4160 H     1 <1>   0.0800 
 21 H       -1.9610     0.3310    -0.5140 H     1 <1>   0.0000 
 22 H       -0.3700     0.9310    -1.1030 H     1 <1>   0.0000 
 23 H       -0.1350     3.5270    -0.4190 H     1 <1>   0.0000 
 24 H       -1.6270     4.0200     0.4580 H     1 <1>   0.0000 
 25 H        3.0020    -0.4770     0.5840 H     1 <1>   0.0800 
 26 H        2.4810    -0.4380     2.2480 H     1 <1>   0.0800 
 27 H        4.1340    -0.0600     1.8460 H     1 <1>   0.0800 
 28 H       -2.9960     2.5110    -0.8870 H     1 <1>   0.0000 
 29 H       -1.6860     2.7140    -2.1080 H     1 <1>   0.0000 
 30 H        4.0690     3.6140     2.2950 H     1 <1>   0.1500 
 31 H        5.2860     2.8060    -2.3770 H     1 <1>   0.1500 
 32 H        2.5040     0.7900    -1.3810 H     1 <1>   0.0800 
 33 H        4.1090     0.0980    -1.4230 H     1 <1>   0.0800 
 34 H        3.6050     1.2370    -2.6380 H     1 <1>   0.0800 
 35 H        6.2780     4.6640    -1.1720 H     1 <1>   0.1500 
 36 H        5.1740     6.2520     1.4100 H     1 <1>   0.0800 
 37 H        6.7780     5.7210     0.9570 H     1 <1>   0.0800 
 38 H        6.0510     5.1310     2.4280 H     1 <1>   0.0800 
@<TRIPOS>BOND
  1   1   2  2   
  2   2   3  am  
  3   2   4  1   
  4   3   5  1   
  5   3  18  1   
  6   4   6  1   
  7   4   7  1   
  8   4  19  1   
  9   5   8  1   
 10   5   9  1   
 11   5  20  1   
 12   6  10  1   
 13   6  21  1   
 14   6  22  1   
 15   7  10  1   
 16   7  23  1   
 17   7  24  1   
 18   8  11  ar  
 19   8  12  ar  
 20   9  25  1   
 21   9  26  1   
 22   9  27  1   
 23  10  28  1   
 24  10  29  1   
 25  11  13  ar  
 26  11  14  1   
 27  12  15  ar  
 28  12  30  1   
 29  13  16  ar  
 30  13  31  1   
 31  14  32  1   
 32  14  33  1   
 33  14  34  1   
 34  15  16  ar  
 35  15  17  1   
 36  16  35  1   
 37  17  36  1   
 38  17  37  1   
 39  17  38  1   
@<TRIPOS>SUBSTRUCTURE
  1 ****   3 GROUP 4 **** **** 0

# MOE 2024.06 (io_trps.svl 2023.06)
