@<TRIPOS>MOLECULE
NONAME
34 34 1 0 0 
SMALL
USER_CHARGES


@<TRIPOS>ATOM
  1 S       -0.9890     0.2470    -0.4550 S.o2  1 <1>   1.4470 
  2 O       -1.7680     0.8090    -1.5320 O.2   1 <1>  -0.6500 
  3 O       -1.1170    -1.1580    -0.1430 O.2   1 <1>  -0.6500 
  4 N       -1.5020     1.0790     0.9110 N.am  1 <1>  -0.9140 
  5 C        0.7530     0.7280    -0.6210 C.ar  1 <1>  -0.0090 
  6 C       -1.1320     0.4700     2.1890 C.3   1 <1>   0.1160 
  7 C        1.7560     0.0360     0.0390 C.ar  1 <1>  -0.1500 
  8 C        1.1270     1.8220    -1.3880 C.ar  1 <1>  -0.1500 
  9 C        3.1080     0.3870    -0.0250 C.ar  1 <1>   0.0860 
 10 C        2.4500     2.2010    -1.4910 C.ar  1 <1>  -0.1500 
 11 C        3.4470     1.4980    -0.8170 C.ar  1 <1>   0.0830 
 12 C        4.0660    -0.4070     0.7320 C.2   1 <1>   0.5440 
 13 O        4.7480     1.8740    -0.9080 O.3   1 <1>  -0.3630 
 14 O        3.6960    -1.0660     1.6870 O.2   1 <1>  -0.5700 
 15 N        5.3880    -0.4560     0.3990 N.am  1 <1>  -0.7300 
 16 C        5.1740     3.0340    -1.5920 C.3   1 <1>   0.0400 
 17 C        6.4330    -1.2350     1.0860 C.3   1 <1>   0.1400 
 18 C        7.4150    -1.7530     0.0430 C.3   1 <1>  -0.2400 
 19 H       -2.5180     1.0710     0.8230 H     1 <1>   0.4200 
 20 H       -0.0600     0.4170     2.2810 H     1 <1>   0.0800 
 21 H       -1.5420    -0.5240     2.2700 H     1 <1>   0.0800 
 22 H       -1.5140     1.0690     2.9990 H     1 <1>   0.0800 
 23 H        1.4780    -0.8190     0.6340 H     1 <1>   0.1500 
 24 H        0.3670     2.3820    -1.9110 H     1 <1>   0.1500 
 25 H        2.6810     3.0520    -2.1030 H     1 <1>   0.1500 
 26 H        5.7100     0.2220    -0.3000 H     1 <1>   0.3700 
 27 H        6.2390     3.1240    -1.4680 H     1 <1>   0.0800 
 28 H        4.6860     3.8920    -1.1640 H     1 <1>   0.0800 
 29 H        4.9360     2.9340    -2.6360 H     1 <1>   0.0800 
 30 H        5.9850    -2.0600     1.6160 H     1 <1>   0.0800 
 31 H        6.9380    -0.6040     1.7970 H     1 <1>   0.0800 
 32 H        6.9040    -2.3820    -0.6650 H     1 <1>   0.0800 
 33 H        8.1780    -2.3350     0.5260 H     1 <1>   0.0800 
 34 H        7.8840    -0.9350    -0.4730 H     1 <1>   0.0800 
@<TRIPOS>BOND
  1   1   2  2   
  2   1   3  2   
  3   1   4  am  
  4   1   5  1   
  5   4   6  1   
  6   4  19  1   
  7   5   7  ar  
  8   5   8  ar  
  9   6  20  1   
 10   6  21  1   
 11   6  22  1   
 12   7   9  ar  
 13   7  23  1   
 14   8  10  ar  
 15   8  24  1   
 16   9  11  ar  
 17   9  12  1   
 18  10  11  ar  
 19  10  25  1   
 20  11  13  1   
 21  12  14  2   
 22  12  15  am  
 23  13  16  1   
 24  15  17  1   
 25  15  26  1   
 26  16  27  1   
 27  16  28  1   
 28  16  29  1   
 29  17  18  1   
 30  17  30  1   
 31  17  31  1   
 32  18  32  1   
 33  18  33  1   
 34  18  34  1   
@<TRIPOS>SUBSTRUCTURE
  1 ****   9 GROUP 4 **** **** 0

# MOE 2024.06 (io_trps.svl 2023.06)
