@<TRIPOS>MOLECULE
NONAME
43 44 1 0 0 
SMALL
USER_CHARGES


@<TRIPOS>ATOM
  1 F        2.5820     1.8630    -1.4700 F     1 <1>  -0.3400 
  2 C        2.4380     0.5450    -1.5620 C.3   1 <1>   1.1640 
  3 F        2.6650     0.2350    -2.8310 F     1 <1>  -0.3400 
  4 F        1.1510     0.2990    -1.3420 F     1 <1>  -0.3400 
  5 C        3.3710    -0.2170    -0.6090 C.ar  1 <1>  -0.1440 
  6 C        4.6500     0.2630    -0.3400 C.ar  1 <1>  -0.1500 
  7 C        2.9620    -1.4030    -0.0050 C.ar  1 <1>  -0.1500 
  8 C        5.5030    -0.4210     0.5220 C.ar  1 <1>   0.0830 
  9 C        3.8070    -2.0880     0.8510 C.ar  1 <1>  -0.1500 
 10 O        6.7600    -0.0170     0.8370 O.3   1 <1>  -0.3630 
 11 C        5.0710    -1.5970     1.1120 C.ar  1 <1>  -0.1500 
 12 C        7.3410     1.1940     0.3620 C.3   1 <1>   0.2610 
 13 C        8.8720     1.1010     0.4310 C.2   1 <1>   0.5690 
 14 C        6.8070     2.3540     1.2150 C.3   1 <1>  -0.2400 
 15 O        9.5320     1.8180    -0.2850 O.2   1 <1>  -0.5700 
 16 N        9.4520     0.2200     1.2900 N.am  1 <1>  -0.7300 
 17 C       10.9050     0.0240     1.4850 C.3   1 <1>   0.2200 
 18 C       11.3930    -1.2210     0.7110 C.3   1 <1>   0.2000 
 19 C       11.1480    -0.0850     2.9910 C.3   1 <1>  -0.2400 
 20 O       12.7560    -1.4410     0.9360 O.3   1 <1>  -0.5600 
 21 C       11.2420    -1.1240    -0.8030 C.3   1 <1>  -0.1600 
 22 C       13.4150    -1.8670    -0.2180 C.3   1 <1>   0.1200 
 23 C       12.3540    -2.0220    -1.2990 C.3   1 <1>  -0.1600 
 24 H        4.9660     1.1750    -0.8100 H     1 <1>   0.1500 
 25 H        1.9810    -1.8060    -0.1960 H     1 <1>   0.1500 
 26 H        3.4790    -3.0040     1.3130 H     1 <1>   0.1500 
 27 H        5.7300    -2.1260     1.7770 H     1 <1>   0.1500 
 28 H        7.0790     1.3200    -0.6720 H     1 <1>   0.0800 
 29 H        7.0870     2.2140     2.2440 H     1 <1>   0.0800 
 30 H        5.7380     2.4270     1.1430 H     1 <1>   0.0800 
 31 H        7.2350     3.2780     0.8710 H     1 <1>   0.0800 
 32 H        8.8380    -0.3960     1.8280 H     1 <1>   0.3700 
 33 H       11.4280     0.8860     1.1050 H     1 <1>   0.0800 
 34 H       10.8810    -2.0970     1.0720 H     1 <1>   0.0800 
 35 H       10.6590    -0.9530     3.3930 H     1 <1>   0.0800 
 36 H       10.7900     0.7970     3.4890 H     1 <1>   0.0800 
 37 H       12.2030    -0.1730     3.1800 H     1 <1>   0.0800 
 38 H       11.4100    -0.1090    -1.1220 H     1 <1>   0.0800 
 39 H       10.2680    -1.4400    -1.1320 H     1 <1>   0.0800 
 40 H       13.9260    -2.7910    -0.0110 H     1 <1>   0.0800 
 41 H       14.1270    -1.1050    -0.4840 H     1 <1>   0.0800 
 42 H       12.7190    -1.7350    -2.2690 H     1 <1>   0.0800 
 43 H       12.0250    -3.0460    -1.3300 H     1 <1>   0.0800 
@<TRIPOS>BOND
  1   1   2  1   
  2   2   3  1   
  3   2   4  1   
  4   2   5  1   
  5   5   6  ar  
  6   5   7  ar  
  7   6   8  ar  
  8   6  24  1   
  9   7   9  ar  
 10   7  25  1   
 11   8  10  1   
 12   8  11  ar  
 13   9  11  ar  
 14   9  26  1   
 15  10  12  1   
 16  11  27  1   
 17  12  13  1   
 18  12  14  1   
 19  12  28  1   
 20  13  15  2   
 21  13  16  am  
 22  14  29  1   
 23  14  30  1   
 24  14  31  1   
 25  16  17  1   
 26  16  32  1   
 27  17  18  1   
 28  17  19  1   
 29  17  33  1   
 30  18  20  1   
 31  18  21  1   
 32  18  34  1   
 33  19  35  1   
 34  19  36  1   
 35  19  37  1   
 36  20  22  1   
 37  21  23  1   
 38  21  38  1   
 39  21  39  1   
 40  22  23  1   
 41  22  40  1   
 42  22  41  1   
 43  23  42  1   
 44  23  43  1   
@<TRIPOS>SUBSTRUCTURE
  1 ****  10 GROUP 4 **** **** 0

# MOE 2024.06 (io_trps.svl 2023.06)
