@<TRIPOS>MOLECULE
NONAME
41 43 1 0 0 
SMALL
USER_CHARGES


@<TRIPOS>ATOM
  1 CL      -0.1840     0.3080    -0.5140 Cl    1 <1>  -0.1770 
  2 C        1.5040     0.2940    -0.0410 C.ar  1 <1>   0.1770 
  3 C        2.1860    -0.9140     0.0710 C.ar  1 <1>   0.0820 
  4 C        2.1250     1.5020     0.2140 C.ar  1 <1>  -0.1500 
  5 O        1.5090    -2.0690    -0.1940 O.3   1 <1>  -0.3630 
  6 C        3.5240    -0.8880     0.4550 C.ar  1 <1>  -0.1500 
  7 C        3.4610     1.5330     0.5830 C.ar  1 <1>   0.1170 
  8 C        2.1260    -3.3290    -0.0490 C.3   1 <1>   0.0400 
  9 C        4.1540     0.3220     0.7060 C.ar  1 <1>   0.0830 
 10 N        4.0440     2.7850     0.8280 N.am  1 <1>  -0.5470 
 11 O        5.4500     0.3090     1.1080 O.3   1 <1>  -0.3630 
 12 C        5.0310     3.4140     0.1290 C.2   1 <1>   0.5690 
 13 C        6.3960    -0.0780     0.1380 C.3   1 <1>   0.0400 
 14 O        5.6080     2.8550    -0.7790 O.2   1 <1>  -0.5700 
 15 C        5.5040     4.8100     0.5680 C.3   1 <1>  -0.0190 
 16 C        4.4690     5.9270     0.8880 C.3   1 <1>  -0.1860 
 17 C        6.2980     5.5070    -0.5520 C.3   1 <1>   0.2000 
 18 C        3.0040     5.5610     0.9730 C.2   1 <1>   0.9060 
 19 C        4.7820     6.9590    -0.2040 C.3   1 <1>   0.2000 
 20 O        5.2970     6.1770    -1.2170 O.3   1 <1>  -0.5600 
 21 C        7.1210     6.6880    -0.0160 C.3   1 <1>  -0.1600 
 22 O        2.6710     4.8340     1.9160 O.co2 1 <1>  -0.9000 
 23 O        2.1770     6.0000     0.1740 O.co2 1 <1>  -0.9000 
 24 C        6.0340     7.7510     0.1800 C.3   1 <1>  -0.1600 
 25 H        1.5770     2.4250     0.1250 H     1 <1>   0.1500 
 26 H        4.0920    -1.7880     0.5730 H     1 <1>   0.1500 
 27 H        1.4020    -4.0840    -0.2950 H     1 <1>   0.0800 
 28 H        2.4450    -3.4460     0.9710 H     1 <1>   0.0800 
 29 H        2.9600    -3.3890    -0.7260 H     1 <1>   0.0800 
 30 H        3.4740     3.4170     1.4240 H     1 <1>   0.3700 
 31 H        7.3720     0.2020     0.4910 H     1 <1>   0.0800 
 32 H        6.1830     0.4330    -0.7850 H     1 <1>   0.0800 
 33 H        6.3420    -1.1410    -0.0010 H     1 <1>   0.0800 
 34 H        6.1430     4.6540     1.4160 H     1 <1>   0.0800 
 35 H        4.6930     6.3530     1.8460 H     1 <1>   0.0800 
 36 H        6.8420     4.8610    -1.2190 H     1 <1>   0.0800 
 37 H        3.9480     7.5520    -0.5450 H     1 <1>   0.0800 
 38 H        7.8360     7.0010    -0.7560 H     1 <1>   0.0800 
 39 H        7.6310     6.4380     0.8970 H     1 <1>   0.0800 
 40 H        5.9870     8.1290     1.1850 H     1 <1>   0.0800 
 41 H        6.1650     8.5680    -0.5060 H     1 <1>   0.0800 
@<TRIPOS>BOND
  1   1   2  1   
  2   2   3  ar  
  3   2   4  ar  
  4   3   5  1   
  5   3   6  ar  
  6   4   7  ar  
  7   4  25  1   
  8   5   8  1   
  9   6   9  ar  
 10   6  26  1   
 11   7   9  ar  
 12   7  10  1   
 13   8  27  1   
 14   8  28  1   
 15   8  29  1   
 16   9  11  1   
 17  10  12  am  
 18  10  30  1   
 19  11  13  1   
 20  12  14  2   
 21  12  15  1   
 22  13  31  1   
 23  13  32  1   
 24  13  33  1   
 25  15  16  1   
 26  15  17  1   
 27  15  34  1   
 28  16  18  1   
 29  16  19  1   
 30  16  35  1   
 31  17  20  1   
 32  17  21  1   
 33  17  36  1   
 34  18  22  ar  
 35  18  23  ar  
 36  19  20  1   
 37  19  24  1   
 38  19  37  1   
 39  21  24  1   
 40  21  38  1   
 41  21  39  1   
 42  24  40  1   
 43  24  41  1   
@<TRIPOS>SUBSTRUCTURE
  1 ****  10 GROUP 4 **** **** 0

# MOE 2024.06 (io_trps.svl 2023.06)
