@<TRIPOS>MOLECULE
NONAME
40 42 1 0 0 
SMALL
USER_CHARGES


@<TRIPOS>ATOM
  1 CL      -0.4640    -0.2650     1.9320 Cl    1 <1>  -0.1770 
  2 C       -1.8640    -0.9350     1.1370 C.ar  1 <1>   0.1770 
  3 C       -2.2080    -0.4860    -0.1230 C.ar  1 <1>  -0.1500 
  4 C       -2.6090    -1.9060     1.7790 C.ar  1 <1>  -0.1500 
  5 C       -3.3230    -1.0160    -0.7510 C.ar  1 <1>  -0.1500 
  6 C       -3.7230    -2.4350     1.1490 C.ar  1 <1>  -0.1500 
  7 C       -4.0890    -1.9880    -0.1160 C.ar  1 <1>  -0.1430 
  8 C       -5.3180    -2.5560    -0.8020 C.3   1 <1>   0.4870 
  9 N       -6.5310    -1.9760    -0.1650 N.4   1 <1>  -0.9590 
 10 C       -7.7930    -2.6390    -0.6660 C.3   1 <1>   0.3430 
 11 C       -6.5960    -0.4750    -0.3480 C.3   1 <1>   0.3430 
 12 C       -9.0720    -2.0300    -0.0500 C.3   1 <1>   0.2090 
 13 C       -7.8670     0.1480     0.2680 C.3   1 <1>   0.2090 
 14 N       -9.0880    -0.5500    -0.2300 N.pl3 1 <1>  -0.8380 
 15 C      -10.3010     0.0870     0.0050 C.ar  1 <1>   0.1000 
 16 C      -11.0010     0.6330    -1.0670 C.ar  1 <1>  -0.1500 
 17 C      -10.8300     0.1900     1.2910 C.ar  1 <1>  -0.1500 
 18 C      -12.2120     1.2740    -0.8680 C.ar  1 <1>  -0.1500 
 19 C      -12.0400     0.8270     1.5060 C.ar  1 <1>  -0.1500 
 20 C      -12.7090     1.3580     0.4190 C.ar  1 <1>   0.1900 
 21 F      -13.8530     1.9620     0.6160 F     1 <1>  -0.1900 
 22 H       -1.6040     0.2660    -0.6000 H     1 <1>   0.1500 
 23 H       -2.3100    -2.2400     2.7580 H     1 <1>   0.1500 
 24 H       -3.5770    -0.6630    -1.7370 H     1 <1>   0.1500 
 25 H       -4.2890    -3.1980     1.6570 H     1 <1>   0.1500 
 26 H       -5.3180    -3.6280    -0.6960 H     1 <1>   0.0800 
 27 H       -5.2970    -2.3160    -1.8530 H     1 <1>   0.0800 
 28 H       -6.4530    -2.1470     0.8450 H     1 <1>   0.4500 
 29 H       -7.7690    -3.6930    -0.4460 H     1 <1>   0.0800 
 30 H       -7.8580    -2.5250    -1.7350 H     1 <1>   0.0800 
 31 H       -6.5880    -0.2400    -1.3990 H     1 <1>   0.0800 
 32 H       -5.7310    -0.0120     0.0990 H     1 <1>   0.0800 
 33 H       -9.1270    -2.2690     0.9980 H     1 <1>   0.0800 
 34 H       -9.9370    -2.4530    -0.5320 H     1 <1>   0.0800 
 35 H       -7.9200     1.1900    -0.0010 H     1 <1>   0.0800 
 36 H       -7.8240     0.0860     1.3410 H     1 <1>   0.0800 
 37 H      -10.5900     0.5530    -2.0560 H     1 <1>   0.1500 
 38 H      -10.2960    -0.2280     2.1230 H     1 <1>   0.1500 
 39 H      -12.7630     1.6990    -1.6870 H     1 <1>   0.1500 
 40 H      -12.4620     0.9150     2.4910 H     1 <1>   0.1500 
@<TRIPOS>BOND
  1   1   2  1   
  2   2   3  ar  
  3   2   4  ar  
  4   3   5  ar  
  5   3  22  1   
  6   4   6  ar  
  7   4  23  1   
  8   5   7  ar  
  9   5  24  1   
 10   6   7  ar  
 11   6  25  1   
 12   7   8  1   
 13   8   9  1   
 14   8  26  1   
 15   8  27  1   
 16   9  10  1   
 17   9  11  1   
 18   9  28  1   
 19  10  12  1   
 20  10  29  1   
 21  10  30  1   
 22  11  13  1   
 23  11  31  1   
 24  11  32  1   
 25  12  14  1   
 26  12  33  1   
 27  12  34  1   
 28  13  14  1   
 29  13  35  1   
 30  13  36  1   
 31  14  15  1   
 32  15  16  ar  
 33  15  17  ar  
 34  16  18  ar  
 35  16  37  1   
 36  17  19  ar  
 37  17  38  1   
 38  18  20  ar  
 39  18  39  1   
 40  19  20  ar  
 41  19  40  1   
 42  20  21  1   
@<TRIPOS>SUBSTRUCTURE
  1 ****  11 GROUP 4 **** **** 0

# MOE 2024.06 (io_trps.svl 2023.06)
