@<TRIPOS>MOLECULE
NONAME
42 45 1 0 0 
SMALL
USER_CHARGES


@<TRIPOS>ATOM
  1 O        0.2520    -1.0790    -0.1140 O.3   1 <1>  -0.5600 
  2 C        0.7410     0.1250    -0.6210 C.3   1 <1>   0.1200 
  3 C        1.0340    -1.6320     0.9000 C.3   1 <1>   0.1200 
  4 C        2.1360    -0.1020    -1.2260 C.3   1 <1>   0.1100 
  5 C        2.4400    -1.9310     0.3570 C.3   1 <1>   0.1100 
  6 N        3.0440    -0.7180    -0.2370 N.3   1 <1>  -0.3020 
  7 N        4.3720    -0.9960    -0.8330 N.4   1 <1>  -0.6410 
  8 C        5.4630    -1.0580     0.1740 C.3   1 <1>   0.4230 
  9 C        5.7130     0.3330     0.8020 C.3   1 <1>  -0.0800 
 10 C        6.7590    -1.5580    -0.5020 C.3   1 <1>  -0.0800 
 11 C        6.8080     0.1910     1.8790 C.3   1 <1>  -0.1600 
 12 C        6.2010     1.3410    -0.2650 C.3   1 <1>  -0.1600 
 13 C        7.8510    -1.6940     0.5790 C.3   1 <1>  -0.1600 
 14 C        7.2490    -0.5510    -1.5710 C.3   1 <1>  -0.1600 
 15 C        8.1110    -0.3280     1.2420 C.3   1 <1>  -0.0800 
 16 C        7.4970     0.8250    -0.9220 C.3   1 <1>  -0.0800 
 17 C        8.5760     0.6720     0.1660 C.3   1 <1>  -0.1600 
 18 H        0.7720     0.8520     0.1730 H     1 <1>   0.0800 
 19 H        0.0540     0.4670    -1.3760 H     1 <1>   0.0800 
 20 H        0.5550    -2.5390     1.2260 H     1 <1>   0.0800 
 21 H        1.0720    -0.9430     1.7270 H     1 <1>   0.0800 
 22 H        2.5370     0.8440    -1.5440 H     1 <1>   0.0800 
 23 H        2.0370    -0.7410    -2.0860 H     1 <1>   0.0800 
 24 H        2.3630    -2.7070    -0.3840 H     1 <1>   0.0800 
 25 H        3.0550    -2.2870     1.1640 H     1 <1>   0.0800 
 26 H        4.6430    -0.2400    -1.4740 H     1 <1>   0.4500 
 27 H        4.3650    -1.8670    -1.3800 H     1 <1>   0.4500 
 28 H        5.1890    -1.7530     0.9500 H     1 <1>   0.0800 
 29 H        4.8150     0.6960     1.2730 H     1 <1>   0.0800 
 30 H        6.5970    -2.5240    -0.9470 H     1 <1>   0.0800 
 31 H        6.9890     1.1450     2.3450 H     1 <1>   0.0800 
 32 H        6.4850    -0.4870     2.6520 H     1 <1>   0.0800 
 33 H        6.3970     2.2910     0.2040 H     1 <1>   0.0800 
 34 H        5.4480     1.5140    -1.0120 H     1 <1>   0.0800 
 35 H        8.7630    -2.0590     0.1370 H     1 <1>   0.0800 
 36 H        7.5500    -2.4090     1.3270 H     1 <1>   0.0800 
 37 H        8.1700    -0.9080    -2.0030 H     1 <1>   0.0800 
 38 H        6.5440    -0.4570    -2.3770 H     1 <1>   0.0800 
 39 H        8.8730    -0.4270     1.9970 H     1 <1>   0.0800 
 40 H        7.8360     1.5270    -1.6660 H     1 <1>   0.0800 
 41 H        9.4970     0.3290    -0.2760 H     1 <1>   0.0800 
 42 H        8.7770     1.6280     0.6200 H     1 <1>   0.0800 
@<TRIPOS>BOND
  1   1   2  1   
  2   1   3  1   
  3   2   4  1   
  4   2  18  1   
  5   2  19  1   
  6   3   5  1   
  7   3  20  1   
  8   3  21  1   
  9   4   6  1   
 10   4  22  1   
 11   4  23  1   
 12   5   6  1   
 13   5  24  1   
 14   5  25  1   
 15   6   7  1   
 16   7   8  1   
 17   7  26  1   
 18   7  27  1   
 19   8   9  1   
 20   8  10  1   
 21   8  28  1   
 22   9  11  1   
 23   9  12  1   
 24   9  29  1   
 25  10  13  1   
 26  10  14  1   
 27  10  30  1   
 28  11  15  1   
 29  11  31  1   
 30  11  32  1   
 31  12  16  1   
 32  12  33  1   
 33  12  34  1   
 34  13  15  1   
 35  13  35  1   
 36  13  36  1   
 37  14  16  1   
 38  14  37  1   
 39  14  38  1   
 40  15  17  1   
 41  15  39  1   
 42  16  17  1   
 43  16  40  1   
 44  17  41  1   
 45  17  42  1   
@<TRIPOS>SUBSTRUCTURE
  1 ****   8 GROUP 4 **** **** 0

# MOE 2024.06 (io_trps.svl 2023.06)
