@<TRIPOS>MOLECULE
NONAME
49 51 1 0 0 
SMALL
USER_CHARGES


@<TRIPOS>ATOM
  1 N        0.0970     0.1750    -0.1680 N.3   1 <1>  -0.8100 
  2 C        1.2290     0.9240    -0.7800 C.3   1 <1>   0.1900 
  3 C       -1.2270     0.8520    -0.3350 C.3   1 <1>   0.1100 
  4 C       -0.0200    -1.2370    -0.6560 C.3   1 <1>   0.1100 
  5 C        2.5500     0.1520    -0.5930 C.3   1 <1>  -0.1600 
  6 C        1.3580     2.3130    -0.1240 C.3   1 <1>  -0.1600 
  7 C       -2.3980     0.1070     0.3550 C.3   1 <1>   0.3430 
  8 C       -1.2440    -2.0020    -0.0920 C.3   1 <1>   0.3430 
  9 C        3.7810     0.9550    -1.0060 C.3   1 <1>   0.3430 
 10 C        2.6190     3.0650    -0.5440 C.3   1 <1>   0.3430 
 11 N       -1.9460    -1.1910     0.9480 N.4   1 <1>  -0.9590 
 12 N        3.8140     2.2380    -0.2570 N.4   1 <1>  -0.9590 
 13 C       -3.0400    -1.9330     1.6390 C.3   1 <1>   0.2630 
 14 C        5.0770     2.9880    -0.5050 C.3   1 <1>   0.4860 
 15 C        6.2370     2.1630     0.0130 C.ar  1 <1>  -0.1440 
 16 C        6.4490     2.0320     1.3790 C.ar  1 <1>  -0.1500 
 17 C        7.0920     1.5250    -0.8750 C.ar  1 <1>  -0.1500 
 18 C        7.4970     1.2600     1.8500 C.ar  1 <1>  -0.1500 
 19 C        8.1400     0.7540    -0.4020 C.ar  1 <1>  -0.1500 
 20 C        8.3410     0.6200     0.9600 C.ar  1 <1>  -0.1500 
 21 H        1.0450     1.0490    -1.8360 H     1 <1>   0.0800 
 22 H       -1.4510     0.9580    -1.3840 H     1 <1>   0.0800 
 23 H       -1.2030     1.8390     0.0880 H     1 <1>   0.0800 
 24 H        0.8510    -1.7960    -0.3620 H     1 <1>   0.0800 
 25 H       -0.0670    -1.2520    -1.7320 H     1 <1>   0.0800 
 26 H        2.5490    -0.7340    -1.2000 H     1 <1>   0.0800 
 27 H        2.6590    -0.1440     0.4360 H     1 <1>   0.0800 
 28 H        1.3520     2.2120     0.9470 H     1 <1>   0.0800 
 29 H        0.5290     2.9340    -0.4080 H     1 <1>   0.0800 
 30 H       -3.1790    -0.0680    -0.3650 H     1 <1>   0.0800 
 31 H       -2.8040     0.7370     1.1290 H     1 <1>   0.0800 
 32 H       -0.9120    -2.9370     0.3290 H     1 <1>   0.0800 
 33 H       -1.9230    -2.2290    -0.8980 H     1 <1>   0.0800 
 34 H        3.7520     1.1480    -2.0660 H     1 <1>   0.0800 
 35 H        4.6670     0.3770    -0.7920 H     1 <1>   0.0800 
 36 H        2.6750     3.9970    -0.0040 H     1 <1>   0.0800 
 37 H        2.5730     3.2880    -1.5990 H     1 <1>   0.0800 
 38 H       -1.2050    -0.9280     1.6190 H     1 <1>   0.4500 
 39 H        3.8210     1.9970     0.7430 H     1 <1>   0.4500 
 40 H       -3.8110    -2.2060     0.9360 H     1 <1>   0.0800 
 41 H       -3.4770    -1.3210     2.4110 H     1 <1>   0.0800 
 42 H       -2.6530    -2.8320     2.0930 H     1 <1>   0.0800 
 43 H        5.0570     3.9330     0.0130 H     1 <1>   0.0800 
 44 H        5.2010     3.1780    -1.5590 H     1 <1>   0.0800 
 45 H        5.8130     2.5260     2.0930 H     1 <1>   0.1500 
 46 H        6.9610     1.6190    -1.9400 H     1 <1>   0.1500 
 47 H        7.6620     1.1570     2.9090 H     1 <1>   0.1500 
 48 H        8.8040     0.2590    -1.0900 H     1 <1>   0.1500 
 49 H        9.1570     0.0210     1.3280 H     1 <1>   0.1500 
@<TRIPOS>BOND
  1   1   2  1   
  2   1   3  1   
  3   1   4  1   
  4   2   5  1   
  5   2   6  1   
  6   2  21  1   
  7   3   7  1   
  8   3  22  1   
  9   3  23  1   
 10   4   8  1   
 11   4  24  1   
 12   4  25  1   
 13   5   9  1   
 14   5  26  1   
 15   5  27  1   
 16   6  10  1   
 17   6  28  1   
 18   6  29  1   
 19   7  11  1   
 20   7  30  1   
 21   7  31  1   
 22   8  11  1   
 23   8  32  1   
 24   8  33  1   
 25   9  12  1   
 26   9  34  1   
 27   9  35  1   
 28  10  12  1   
 29  10  36  1   
 30  10  37  1   
 31  11  13  1   
 32  11  38  1   
 33  12  14  1   
 34  12  39  1   
 35  13  40  1   
 36  13  41  1   
 37  13  42  1   
 38  14  15  1   
 39  14  43  1   
 40  14  44  1   
 41  15  16  ar  
 42  15  17  ar  
 43  16  18  ar  
 44  16  45  1   
 45  17  19  ar  
 46  17  46  1   
 47  18  20  ar  
 48  18  47  1   
 49  19  20  ar  
 50  19  48  1   
 51  20  49  1   
@<TRIPOS>SUBSTRUCTURE
  1 ****   5 GROUP 4 **** **** 0

# MOE 2024.06 (io_trps.svl 2023.06)
