@<TRIPOS>MOLECULE
NONAME
34 37 1 0 0 
SMALL
USER_CHARGES


@<TRIPOS>ATOM
  1 CL      -0.4840     0.3350    -0.7940 Cl    1 <1>  -0.1770 
  2 C       -0.8610    -1.3220    -0.3710 C.ar  1 <1>   0.1770 
  3 C       -1.9930    -1.9490    -0.9020 C.ar  1 <1>   0.1170 
  4 C        0.0060    -1.9810     0.4790 C.ar  1 <1>  -0.1500 
  5 N       -2.9020    -1.2940    -1.7470 N.am  1 <1>  -0.5470 
  6 C       -2.2170    -3.2830    -0.5730 C.ar  1 <1>  -0.1500 
  7 C       -0.2560    -3.2990     0.7970 C.ar  1 <1>   0.1770 
  8 C       -3.7560    -0.2730    -1.4670 C.2   1 <1>   0.6300 
  9 C       -1.3550    -3.9580     0.2760 C.ar  1 <1>  -0.1500 
 10 CL       0.8230    -4.1510     1.8710 Cl    1 <1>  -0.1770 
 11 O       -4.4280     0.1930    -2.3520 O.2   1 <1>  -0.5700 
 12 C       -3.8280     0.3120    -0.0590 C.3   1 <1>  -0.1000 
 13 C       -4.1160    -0.4810     1.1830 C.3   1 <1>  -0.1950 
 14 C       -5.0590     0.6200     0.7460 C.3   1 <1>  -0.1950 
 15 C       -5.0620    -1.6610     1.4950 C.3   1 <1>   0.0150 
 16 C       -6.4540    -0.0270     0.8760 C.3   1 <1>   0.0150 
 17 C       -6.2370    -0.9080     2.0970 C.3   1 <1>  -0.1600 
 18 C       -5.7140    -2.2180     0.2170 C.3   1 <1>  -0.1600 
 19 C       -6.6710    -1.0890    -0.2100 C.3   1 <1>  -0.1600 
 20 H        0.8680    -1.4810     0.8820 H     1 <1>   0.1500 
 21 H       -2.9620    -1.6040    -2.7160 H     1 <1>   0.3700 
 22 H       -3.0720    -3.7930    -0.9800 H     1 <1>   0.1500 
 23 H       -1.5310    -4.9870     0.5370 H     1 <1>   0.1500 
 24 H       -3.0610     1.0590     0.0240 H     1 <1>   0.1000 
 25 H       -3.4750    -0.2730     2.0230 H     1 <1>   0.1000 
 26 H       -5.0230     1.5450     1.2960 H     1 <1>   0.1000 
 27 H       -4.6310    -2.4100     2.1360 H     1 <1>   0.0800 
 28 H       -7.2580     0.6820     0.9680 H     1 <1>   0.0800 
 29 H       -5.9650    -0.3430     2.9730 H     1 <1>   0.0800 
 30 H       -7.0790    -1.5430     2.3110 H     1 <1>   0.0800 
 31 H       -6.2770    -3.1060     0.4500 H     1 <1>   0.0800 
 32 H       -4.9990    -2.4580    -0.5420 H     1 <1>   0.0800 
 33 H       -6.4660    -0.7070    -1.1920 H     1 <1>   0.0800 
 34 H       -7.6890    -1.4380    -0.1850 H     1 <1>   0.0800 
@<TRIPOS>BOND
  1   1   2  1   
  2   2   3  ar  
  3   2   4  ar  
  4   3   5  1   
  5   3   6  ar  
  6   4   7  ar  
  7   4  20  1   
  8   5   8  am  
  9   5  21  1   
 10   6   9  ar  
 11   6  22  1   
 12   7   9  ar  
 13   7  10  1   
 14   8  11  2   
 15   8  12  1   
 16   9  23  1   
 17  12  13  1   
 18  12  14  1   
 19  12  24  1   
 20  13  14  1   
 21  13  15  1   
 22  13  25  1   
 23  14  16  1   
 24  14  26  1   
 25  15  17  1   
 26  15  18  1   
 27  15  27  1   
 28  16  17  1   
 29  16  19  1   
 30  16  28  1   
 31  17  29  1   
 32  17  30  1   
 33  18  19  1   
 34  18  31  1   
 35  18  32  1   
 36  19  33  1   
 37  19  34  1   
@<TRIPOS>SUBSTRUCTURE
  1 ****   3 GROUP 4 **** **** 0

# MOE 2024.06 (io_trps.svl 2023.06)
