@<TRIPOS>MOLECULE
NONAME
26 26 1 0 0 
SMALL
USER_CHARGES


@<TRIPOS>ATOM
  1 O        1.3930     3.4820    -2.2850 O.2   1 <1>  -0.5700 
  2 C        0.6300     3.4390    -1.3680 C.2   1 <1>   0.4480 
  3 C        0.8340     2.4890    -0.1510 C.3   1 <1>   0.5640 
  4 C       -0.6220     4.3040    -1.3870 C.3   1 <1>  -0.0990 
  5 N       -0.4160     1.8300     0.3250 N.4   1 <1>  -0.9060 
  6 C        1.7950     1.3430    -0.4840 C.3   1 <1>  -0.2400 
  7 C        1.3930     3.2690     1.0410 C.3   1 <1>  -0.2400 
  8 C       -1.7340     3.7880    -0.4500 C.3   1 <1>  -0.0800 
  9 C       -1.6850     2.2580    -0.3380 C.3   1 <1>   0.3430 
 10 C       -3.1100     4.2580    -0.9420 C.3   1 <1>  -0.2400 
 11 H       -0.9770     4.3240    -2.4040 H     1 <1>   0.0800 
 12 H       -0.3590     5.3130    -1.1230 H     1 <1>   0.0800 
 13 H       -0.4830     1.9950     1.3340 H     1 <1>   0.4500 
 14 H       -0.2950     0.8190     0.2020 H     1 <1>   0.4500 
 15 H        1.4310     0.7720    -1.3200 H     1 <1>   0.0800 
 16 H        1.9500     0.6920     0.3590 H     1 <1>   0.0800 
 17 H        2.7530     1.7450    -0.7670 H     1 <1>   0.0800 
 18 H        0.7270     4.0580     1.3410 H     1 <1>   0.0800 
 19 H        2.3270     3.7270     0.7600 H     1 <1>   0.0800 
 20 H        1.5860     2.6250     1.8800 H     1 <1>   0.0800 
 21 H       -1.5900     4.2040     0.5330 H     1 <1>   0.0800 
 22 H       -2.5320     1.9070     0.2300 H     1 <1>   0.0800 
 23 H       -1.7460     1.8310    -1.3280 H     1 <1>   0.0800 
 24 H       -3.3330     3.8600    -1.9180 H     1 <1>   0.0800 
 25 H       -3.1380     5.3330    -1.0040 H     1 <1>   0.0800 
 26 H       -3.8850     3.9470    -0.2620 H     1 <1>   0.0800 
@<TRIPOS>BOND
  1   1   2  2   
  2   2   3  1   
  3   2   4  1   
  4   3   5  1   
  5   3   6  1   
  6   3   7  1   
  7   4   8  1   
  8   4  11  1   
  9   4  12  1   
 10   5   9  1   
 11   5  13  1   
 12   5  14  1   
 13   6  15  1   
 14   6  16  1   
 15   6  17  1   
 16   7  18  1   
 17   7  19  1   
 18   7  20  1   
 19   8   9  1   
 20   8  10  1   
 21   8  21  1   
 22   9  22  1   
 23   9  23  1   
 24  10  24  1   
 25  10  25  1   
 26  10  26  1   
@<TRIPOS>SUBSTRUCTURE
  1 ****   2 GROUP 4 **** **** 0

# MOE 2024.06 (io_trps.svl 2023.06)
