@<TRIPOS>MOLECULE
NONAME
32 33 1 0 0 
SMALL
USER_CHARGES


@<TRIPOS>ATOM
  1 F        1.1370     0.1740     1.5340 F     1 <1>  -0.1900 
  2 C        0.8450    -0.8810     0.8140 C.ar  1 <1>   0.1900 
  3 C        1.8690    -1.6410     0.2560 C.ar  1 <1>   0.0830 
  4 C       -0.4900    -1.1930     0.6430 C.ar  1 <1>  -0.1500 
  5 O        3.1590    -1.2630     0.4730 O.3   1 <1>  -0.3630 
  6 C        1.5120    -2.7560    -0.5010 C.ar  1 <1>  -0.1500 
  7 C       -0.8240    -2.3050    -0.1120 C.ar  1 <1>  -0.1500 
  8 C        4.2460    -2.0110    -0.0350 C.3   1 <1>   0.1200 
  9 C        0.1750    -3.0800    -0.6800 C.ar  1 <1>  -0.1500 
 10 C        5.5600    -1.3240     0.3430 C.3   1 <1>   0.1200 
 11 O        5.6550    -0.1030    -0.3250 O.3   1 <1>  -0.5600 
 12 C        6.7020     0.7030     0.1060 C.3   1 <1>   0.1200 
 13 C        6.6490     1.9980    -0.6980 C.3   1 <1>   0.0960 
 14 N        7.6610     2.9410    -0.1970 N.pl3 1 <1>   0.3140 
 15 N        8.9630     2.6840    -0.2120 N.2   1 <1>  -0.7070 
 16 C        7.4730     4.1520     0.3370 C.2   1 <1>   0.0360 
 17 C        9.4630     3.7560     0.3100 C.2   1 <1>   0.3660 
 18 N        8.5850     4.7000     0.6710 N.2   1 <1>  -0.5650 
 19 H       -1.2480    -0.5770     1.0930 H     1 <1>   0.1500 
 20 H        2.2550    -3.3810    -0.9580 H     1 <1>   0.1500 
 21 H       -1.8590    -2.5660    -0.2580 H     1 <1>   0.1500 
 22 H        4.1570    -2.0730    -1.1050 H     1 <1>   0.0800 
 23 H        4.2040    -2.9940     0.3980 H     1 <1>   0.0800 
 24 H       -0.0910    -3.9430    -1.2660 H     1 <1>   0.1500 
 25 H        6.3960    -1.9330     0.0490 H     1 <1>   0.0800 
 26 H        5.5890    -1.1560     1.4060 H     1 <1>   0.0800 
 27 H        7.6330     0.1880    -0.0660 H     1 <1>   0.0800 
 28 H        6.5710     0.9050     1.1550 H     1 <1>   0.0800 
 29 H        5.6770     2.4450    -0.6040 H     1 <1>   0.0800 
 30 H        6.8550     1.7940    -1.7320 H     1 <1>   0.0800 
 31 H        6.5010     4.5940     0.4620 H     1 <1>   0.1500 
 32 H       10.5220     3.9040     0.4570 H     1 <1>   0.1500 
@<TRIPOS>BOND
  1   1   2  1   
  2   2   3  ar  
  3   2   4  ar  
  4   3   5  1   
  5   3   6  ar  
  6   4   7  ar  
  7   4  19  1   
  8   5   8  1   
  9   6   9  ar  
 10   6  20  1   
 11   7   9  ar  
 12   7  21  1   
 13   8  10  1   
 14   8  22  1   
 15   8  23  1   
 16   9  24  1   
 17  10  11  1   
 18  10  25  1   
 19  10  26  1   
 20  11  12  1   
 21  12  13  1   
 22  12  27  1   
 23  12  28  1   
 24  13  14  1   
 25  13  29  1   
 26  13  30  1   
 27  14  15  1   
 28  14  16  1   
 29  15  17  2   
 30  16  18  2   
 31  16  31  1   
 32  17  18  1   
 33  17  32  1   
@<TRIPOS>SUBSTRUCTURE
  1 ****  11 GROUP 4 **** **** 0

# MOE 2024.06 (io_trps.svl 2023.06)
