@<TRIPOS>MOLECULE
NONAME
44 46 1 0 0 
SMALL
USER_CHARGES


@<TRIPOS>ATOM
  1 O        1.2070    -0.3130    -1.0250 O.2   1 <1>  -0.5750 
  2 C        2.0650     0.5050    -0.7650 C.2   1 <1>   0.6860 
  3 N        1.7870     1.8650    -0.8750 N.am  1 <1>  -0.4260 
  4 N        3.3250     0.0780    -0.3610 N.am  1 <1>  -0.4420 
  5 C        2.7490     2.8220    -0.5750 C.2   1 <1>   0.6990 
  6 C        0.4170     2.2920    -1.2980 C.3   1 <1>   0.0510 
  7 C        4.2840     1.0350    -0.0950 C.2   1 <1>   0.4200 
  8 C        3.6320    -1.3790    -0.2420 C.3   1 <1>   0.0510 
  9 O        2.4970     4.0140    -0.6440 O.2   1 <1>  -0.5750 
 10 C        4.0410     2.3660    -0.1850 C.2   1 <1>   0.2700 
 11 N        5.5830     0.8360     0.2790 N.pl3 1 <1>  -0.7040 
 12 N        5.2420     3.0080     0.1540 N.pl3 1 <1>  -0.6340 
 13 C        6.1230     2.0530     0.4160 C.cat 1 <1>   1.0690 
 14 C        5.9020     4.2130     0.2960 C.2   1 <1>   0.2210 
 15 N        7.3200     2.5580     0.7300 N.pl3 1 <1>  -0.5720 
 16 C        7.1780     3.9360     0.6490 C.2   1 <1>   0.1570 
 17 C        8.5420     1.7840     1.0450 C.3   1 <1>   0.1590 
 18 C        8.3250     4.8910     0.9230 C.3   1 <1>  -0.1100 
 19 C        9.1840     1.3020    -0.2590 C.3   1 <1>  -0.1680 
 20 C       10.4380     0.4450    -0.0240 C.3   1 <1>  -0.0890 
 21 C       11.1080     0.1390    -1.3670 C.3   1 <1>  -0.2480 
 22 C       10.1110    -0.8730     0.6920 C.3   1 <1>  -0.2480 
 23 H        0.0440     1.6360    -2.0670 H     1 <1>   0.0710 
 24 H        0.4260     3.2950    -1.6890 H     1 <1>   0.0710 
 25 H       -0.2500     2.2500    -0.4540 H     1 <1>   0.0710 
 26 H        2.7310    -1.9400    -0.0560 H     1 <1>   0.0710 
 27 H        4.3070    -1.5580     0.5750 H     1 <1>   0.0710 
 28 H        4.0720    -1.7330    -1.1580 H     1 <1>   0.0710 
 29 H        6.0820    -0.0420     0.3980 H     1 <1>   0.4440 
 30 H        5.4160     5.1640     0.1340 H     1 <1>   0.1420 
 31 H        8.2750     0.9470     1.6670 H     1 <1>   0.0710 
 32 H        9.2380     2.3960     1.5940 H     1 <1>   0.0710 
 33 H        9.1410     4.6940     0.2510 H     1 <1>   0.0710 
 34 H        8.6710     4.7770     1.9350 H     1 <1>   0.0710 
 35 H        8.0070     5.9090     0.7840 H     1 <1>   0.0710 
 36 H        9.4650     2.1650    -0.8380 H     1 <1>   0.0710 
 37 H        8.4770     0.7290    -0.8320 H     1 <1>   0.0710 
 38 H       11.1400     1.0000     0.5780 H     1 <1>   0.0710 
 39 H       10.4500    -0.4260    -2.0050 H     1 <1>   0.0710 
 40 H       12.0060    -0.4340    -1.2140 H     1 <1>   0.0710 
 41 H       11.3780     1.0500    -1.8710 H     1 <1>   0.0710 
 42 H        9.3740    -1.4340     0.1440 H     1 <1>   0.0710 
 43 H        9.7540    -0.7000     1.6900 H     1 <1>   0.0710 
 44 H       11.0000    -1.4760     0.7690 H     1 <1>   0.0710 
@<TRIPOS>BOND
  1   1   2  2   
  2   2   3  am  
  3   2   4  am  
  4   3   5  am  
  5   3   6  1   
  6   4   7  1   
  7   4   8  1   
  8   5   9  2   
  9   5  10  1   
 10   6  23  1   
 11   6  24  1   
 12   6  25  1   
 13   7  10  2   
 14   7  11  1   
 15   8  26  1   
 16   8  27  1   
 17   8  28  1   
 18  10  12  1   
 19  11  13  ar  
 20  11  29  1   
 21  12  13  ar  
 22  12  14  1   
 23  13  15  ar  
 24  14  16  2   
 25  14  30  1   
 26  15  16  1   
 27  15  17  1   
 28  16  18  1   
 29  17  19  1   
 30  17  31  1   
 31  17  32  1   
 32  18  33  1   
 33  18  34  1   
 34  18  35  1   
 35  19  20  1   
 36  19  36  1   
 37  19  37  1   
 38  20  21  1   
 39  20  22  1   
 40  20  38  1   
 41  21  39  1   
 42  21  40  1   
 43  21  41  1   
 44  22  42  1   
 45  22  43  1   
 46  22  44  1   
@<TRIPOS>SUBSTRUCTURE
  1 ****  13 GROUP 4 **** **** 0

# MOE 2024.06 (io_trps.svl 2023.06)
