@<TRIPOS>MOLECULE
NONAME
41 42 1 0 0 
SMALL
USER_CHARGES


@<TRIPOS>ATOM
  1 S       -0.1590     0.1880    -1.1590 S.o2  1 <1>   1.5000 
  2 O       -0.4480     0.5690    -2.5250 O.2   1 <1>  -0.6500 
  3 O        0.3690    -1.1320    -0.8960 O.2   1 <1>  -0.6500 
  4 N       -1.6190     0.3190    -0.3070 N.am  1 <1>  -0.8490 
  5 C        0.9090     1.4360    -0.4000 C.2   1 <1>  -0.0220 
  6 C       -2.4790    -0.8560    -0.5230 C.3   1 <1>   0.1960 
  7 C       -2.3620     1.5480    -0.6380 C.3   1 <1>   0.1960 
  8 S        0.8400     1.6440     1.3510 S.3   1 <1>  -0.0800 
  9 C        1.8230     2.2880    -0.9120 C.2   1 <1>  -0.1500 
 10 C       -3.8040    -0.7530     0.2570 C.3   1 <1>   0.1960 
 11 C       -3.6680     1.6470     0.1720 C.3   1 <1>   0.1960 
 12 C        2.0600     2.9030     1.3150 C.2   1 <1>  -0.1100 
 13 C        2.4720     3.1220     0.0540 C.2   1 <1>  -0.1500 
 14 N       -4.5420     0.4830    -0.0680 N.am  1 <1>  -0.8490 
 15 S       -6.0090     0.5780     0.7730 S.o2  1 <1>   1.3330 
 16 O       -6.5570    -0.7580     0.8550 O.2   1 <1>  -0.6500 
 17 O       -5.7720     1.3340     1.9820 O.2   1 <1>  -0.6500 
 18 C       -7.0370     1.5380    -0.3420 C.3   1 <1>  -0.0550 
 19 C       -8.4630     1.7770     0.1810 C.3   1 <1>  -0.1600 
 20 C       -9.2890     2.6020    -0.8120 C.3   1 <1>  -0.1600 
 21 C      -10.7070     2.8340    -0.2850 C.3   1 <1>  -0.2400 
 22 H       -1.9620    -1.7450    -0.2000 H     1 <1>   0.0800 
 23 H       -2.6960    -0.9640    -1.5730 H     1 <1>   0.0800 
 24 H       -2.6030     1.5670    -1.6880 H     1 <1>   0.0800 
 25 H       -1.7520     2.4070    -0.4190 H     1 <1>   0.0800 
 26 H        2.0720     2.3640    -1.9570 H     1 <1>   0.1500 
 27 H       -3.5970    -0.7890     1.3140 H     1 <1>   0.0800 
 28 H       -4.4080    -1.6100     0.0100 H     1 <1>   0.0800 
 29 H       -4.1840     2.5500    -0.1070 H     1 <1>   0.0800 
 30 H       -3.4190     1.7160     1.2180 H     1 <1>   0.0800 
 31 H        2.3430     3.3490     2.2520 H     1 <1>   0.1500 
 32 H        3.2160     3.8400    -0.2450 H     1 <1>   0.1500 
 33 H       -7.0950     1.0250    -1.2830 H     1 <1>   0.0800 
 34 H       -6.5710     2.4880    -0.5160 H     1 <1>   0.0800 
 35 H       -8.4120     2.2920     1.1260 H     1 <1>   0.0800 
 36 H       -8.9410     0.8260     0.3480 H     1 <1>   0.0800 
 37 H       -9.3450     2.0860    -1.7560 H     1 <1>   0.0800 
 38 H       -8.8150     3.5550    -0.9780 H     1 <1>   0.0800 
 39 H      -11.2110     1.8950    -0.1320 H     1 <1>   0.0800 
 40 H      -11.2740     3.4130    -0.9920 H     1 <1>   0.0800 
 41 H      -10.6800     3.3680     0.6490 H     1 <1>   0.0800 
@<TRIPOS>BOND
  1   1   2  2   
  2   1   3  2   
  3   1   4  am  
  4   1   5  1   
  5   4   6  1   
  6   4   7  1   
  7   5   8  1   
  8   5   9  2   
  9   6  10  1   
 10   6  22  1   
 11   6  23  1   
 12   7  11  1   
 13   7  24  1   
 14   7  25  1   
 15   8  12  1   
 16   9  13  1   
 17   9  26  1   
 18  10  14  1   
 19  10  27  1   
 20  10  28  1   
 21  11  14  1   
 22  11  29  1   
 23  11  30  1   
 24  12  13  2   
 25  12  31  1   
 26  13  32  1   
 27  14  15  am  
 28  15  16  2   
 29  15  17  2   
 30  15  18  1   
 31  18  19  1   
 32  18  33  1   
 33  18  34  1   
 34  19  20  1   
 35  19  35  1   
 36  19  36  1   
 37  20  21  1   
 38  20  37  1   
 39  20  38  1   
 40  21  39  1   
 41  21  40  1   
 42  21  41  1   
@<TRIPOS>SUBSTRUCTURE
  1 ****  11 GROUP 4 **** **** 0

# MOE 2024.06 (io_trps.svl 2023.06)
