@<TRIPOS>MOLECULE
NONAME
49 50 1 0 0 
SMALL
USER_CHARGES


@<TRIPOS>ATOM
  1 O       -1.6130    -7.9450     1.0560 O.3   1 <1>  -0.5600 
  2 C       -1.0680    -9.2140     0.8150 C.3   1 <1>   0.1200 
  3 C       -1.5570    -7.0780    -0.0450 C.3   1 <1>   0.1200 
  4 C        0.3970    -9.1160     0.3260 C.3   1 <1>   0.3430 
  5 C       -0.0960    -6.8470    -0.4970 C.3   1 <1>   0.3430 
  6 N        0.8690    -7.6900     0.2920 N.4   1 <1>  -0.9590 
  7 C        2.2880    -7.5720    -0.1420 C.3   1 <1>   0.3430 
  8 C        2.8380    -6.1810     0.1840 C.3   1 <1>  -0.1600 
  9 C        4.3280    -6.0960    -0.1750 C.3   1 <1>  -0.1600 
 10 C        4.9180    -4.7220     0.1510 C.3   1 <1>   0.1200 
 11 O        6.2720    -4.7450    -0.2240 O.3   1 <1>  -0.3630 
 12 C        7.0940    -3.6820    -0.0180 C.ar  1 <1>   0.0820 
 13 C        8.4410    -3.8250    -0.3450 C.ar  1 <1>  -0.1440 
 14 C        6.6420    -2.4730     0.5060 C.ar  1 <1>  -0.1500 
 15 C        9.3110    -2.7660    -0.1330 C.ar  1 <1>  -0.1500 
 16 C        8.9900    -5.1220    -0.9280 C.3   1 <1>   0.1220 
 17 C        7.5210    -1.4240     0.7060 C.ar  1 <1>  -0.1500 
 18 C        8.8610    -1.5660     0.3910 C.ar  1 <1>  -0.1440 
 19 C        9.5200    -6.0170     0.1790 C.2   1 <1>  -0.2880 
 20 C        9.8300    -0.4190     0.6130 C.3   1 <1>  -0.0970 
 21 C       10.7660    -6.4940     0.2620 C.2   1 <1>  -0.3000 
 22 H       -1.6800    -9.7210     0.0880 H     1 <1>   0.0800 
 23 H       -1.1150    -9.7690     1.7360 H     1 <1>   0.0800 
 24 H       -2.0080    -6.1450     0.2470 H     1 <1>   0.0800 
 25 H       -2.1430    -7.4980    -0.8450 H     1 <1>   0.0800 
 26 H        0.4650    -9.5500    -0.6580 H     1 <1>   0.0800 
 27 H        1.0230    -9.6990     0.9810 H     1 <1>   0.0800 
 28 H        0.1420    -5.8030    -0.3750 H     1 <1>   0.0800 
 29 H       -0.0160    -7.0760    -1.5470 H     1 <1>   0.0800 
 30 H        0.7790    -7.3620     1.2660 H     1 <1>   0.4500 
 31 H        2.3700    -7.7590    -1.2010 H     1 <1>   0.0800 
 32 H        2.8840    -8.3070     0.3750 H     1 <1>   0.0800 
 33 H        2.7220    -5.9840     1.2370 H     1 <1>   0.0800 
 34 H        2.3070    -5.4300    -0.3740 H     1 <1>   0.0800 
 35 H        4.4600    -6.2820    -1.2280 H     1 <1>   0.0800 
 36 H        4.8790    -6.8400     0.3760 H     1 <1>   0.0800 
 37 H        4.8640    -4.5170     1.2070 H     1 <1>   0.0800 
 38 H        4.4260    -3.9450    -0.4090 H     1 <1>   0.0800 
 39 H        5.6120    -2.3230     0.7640 H     1 <1>   0.1500 
 40 H       10.3530    -2.8810    -0.3760 H     1 <1>   0.1500 
 41 H        9.7780    -4.8970    -1.6240 H     1 <1>   0.0800 
 42 H        8.2260    -5.6440    -1.4750 H     1 <1>   0.0800 
 43 H        7.1580    -0.4960     1.1100 H     1 <1>   0.1500 
 44 H        8.7650    -6.2320     0.9170 H     1 <1>   0.1500 
 45 H       10.7940    -0.7970     0.9060 H     1 <1>   0.0800 
 46 H        9.4730     0.2330     1.3890 H     1 <1>   0.0800 
 47 H        9.9390     0.1460    -0.2950 H     1 <1>   0.0800 
 48 H       11.1130    -7.1250     1.0620 H     1 <1>   0.1500 
 49 H       11.5420    -6.2960    -0.4570 H     1 <1>   0.1500 
@<TRIPOS>BOND
  1   1   2  1   
  2   1   3  1   
  3   2   4  1   
  4   2  22  1   
  5   2  23  1   
  6   3   5  1   
  7   3  24  1   
  8   3  25  1   
  9   4   6  1   
 10   4  26  1   
 11   4  27  1   
 12   5   6  1   
 13   5  28  1   
 14   5  29  1   
 15   6   7  1   
 16   6  30  1   
 17   7   8  1   
 18   7  31  1   
 19   7  32  1   
 20   8   9  1   
 21   8  33  1   
 22   8  34  1   
 23   9  10  1   
 24   9  35  1   
 25   9  36  1   
 26  10  11  1   
 27  10  37  1   
 28  10  38  1   
 29  11  12  1   
 30  12  13  ar  
 31  12  14  ar  
 32  13  15  ar  
 33  13  16  1   
 34  14  17  ar  
 35  14  39  1   
 36  15  18  ar  
 37  15  40  1   
 38  16  19  1   
 39  16  41  1   
 40  16  42  1   
 41  17  18  ar  
 42  17  43  1   
 43  18  20  1   
 44  19  21  2   
 45  19  44  1   
 46  20  45  1   
 47  20  46  1   
 48  20  47  1   
 49  21  48  1   
 50  21  49  1   
@<TRIPOS>SUBSTRUCTURE
  1 ****  10 GROUP 4 **** **** 0

# MOE 2024.06 (io_trps.svl 2023.06)
