@<TRIPOS>MOLECULE
NONAME
32 33 1 0 0 
SMALL
USER_CHARGES


@<TRIPOS>ATOM
  1 S        2.5570    -0.9330     0.9900 S.3   1 <1>  -0.0800 
  2 C        3.3800    -2.4220     0.5480 C.2   1 <1>  -0.1400 
  3 C        3.9470     0.0250     0.5260 C.2   1 <1>  -0.1100 
  4 C        4.6200    -2.1620     0.0880 C.2   1 <1>  -0.1810 
  5 C        2.5950    -3.6960     0.7450 C.3   1 <1>   0.5230 
  6 C        4.9380    -0.7650     0.0770 C.2   1 <1>  -0.1500 
  7 C        5.6600    -3.1610    -0.3930 C.3   1 <1>  -0.0590 
  8 N        1.4450    -3.6310    -0.1700 N.4   1 <1>  -0.9060 
  9 C        0.4990    -4.7780    -0.1110 C.3   1 <1>   0.3430 
 10 C       -0.8930    -4.3030    -0.5680 C.3   1 <1>   0.2000 
 11 O       -1.0770    -2.9830    -0.1530 O.3   1 <1>  -0.5600 
 12 C       -2.0590    -5.0590     0.0510 C.3   1 <1>  -0.1600 
 13 C       -2.4390    -2.6830    -0.0820 C.3   1 <1>   0.1200 
 14 C       -3.1680    -4.0190     0.0510 C.3   1 <1>  -0.1600 
 15 H        3.8770     1.0930     0.6410 H     1 <1>   0.1500 
 16 H        2.2630    -3.7650     1.7680 H     1 <1>   0.0800 
 17 H        3.2130    -4.5480     0.5140 H     1 <1>   0.0800 
 18 H        5.8970    -0.4150    -0.2660 H     1 <1>   0.1500 
 19 H        5.2950    -4.1690    -0.3310 H     1 <1>   0.0800 
 20 H        6.5470    -3.0810     0.2110 H     1 <1>   0.0800 
 21 H        5.9240    -2.9510    -1.4140 H     1 <1>   0.0800 
 22 H        1.7680    -3.4330    -1.1220 H     1 <1>   0.4500 
 23 H        0.8740    -2.8030     0.0840 H     1 <1>   0.4500 
 24 H        0.4160    -5.1240     0.9050 H     1 <1>   0.0800 
 25 H        0.8380    -5.5980    -0.7220 H     1 <1>   0.0800 
 26 H       -0.9690    -4.3180    -1.6430 H     1 <1>   0.0800 
 27 H       -1.8280    -5.3430     1.0640 H     1 <1>   0.0800 
 28 H       -2.3220    -5.9360    -0.5140 H     1 <1>   0.0800 
 29 H       -2.7240    -2.1690    -0.9850 H     1 <1>   0.0800 
 30 H       -2.6060    -2.0460     0.7700 H     1 <1>   0.0800 
 31 H       -3.7540    -4.0570     0.9540 H     1 <1>   0.0800 
 32 H       -3.8250    -4.1540    -0.7910 H     1 <1>   0.0800 
@<TRIPOS>BOND
  1   1   2  1   
  2   1   3  1   
  3   2   4  2   
  4   2   5  1   
  5   3   6  2   
  6   3  15  1   
  7   4   6  1   
  8   4   7  1   
  9   5   8  1   
 10   5  16  1   
 11   5  17  1   
 12   6  18  1   
 13   7  19  1   
 14   7  20  1   
 15   7  21  1   
 16   8   9  1   
 17   8  22  1   
 18   8  23  1   
 19   9  10  1   
 20   9  24  1   
 21   9  25  1   
 22  10  11  1   
 23  10  12  1   
 24  10  26  1   
 25  11  13  1   
 26  12  14  1   
 27  12  27  1   
 28  12  28  1   
 29  13  14  1   
 30  13  29  1   
 31  13  30  1   
 32  14  31  1   
 33  14  32  1   
@<TRIPOS>SUBSTRUCTURE
  1 ****   8 GROUP 4 **** **** 0

# MOE 2024.06 (io_trps.svl 2023.06)
