@<TRIPOS>MOLECULE
NONAME
60 65 1 0 0 
SMALL
USER_CHARGES


@<TRIPOS>ATOM
  1 O       -0.4580     1.4170     1.4130 O.2   1 <1>  -0.5700 
  2 C       -0.5190     2.3790     0.6940 C.2   1 <1>   0.5690 
  3 N        0.3300     2.7450    -0.3340 N.am  1 <1>  -0.4200 
  4 C       -1.5520     3.4670     0.7960 C.3   1 <1>  -0.0190 
  5 C       -0.2320     3.7620    -1.0760 C.2   1 <1>   0.5690 
  6 C        1.6570     2.1630    -0.6350 C.3   1 <1>   0.2200 
  7 C       -2.8680     3.7680     1.5790 C.3   1 <1>   0.0580 
  8 C       -1.6880     3.8330    -0.6910 C.3   1 <1>  -0.0190 
  9 O        0.2920     4.4280    -1.9290 O.2   1 <1>  -0.5700 
 10 C        1.5190     0.7040    -1.0930 C.3   1 <1>  -0.1600 
 11 C        2.5970     2.2860     0.5740 C.3   1 <1>  -0.1600 
 12 C       -2.7870     5.3120     1.5350 C.2   1 <1>  -0.2880 
 13 C       -4.2320     3.6070     0.8390 C.3   1 <1>  -0.0190 
 14 C       -2.8500     4.8730    -0.8760 C.3   1 <1>   0.0580 
 15 C        2.8940     0.0920    -1.4000 C.3   1 <1>  -0.1600 
 16 C        3.9710     1.6740     0.2660 C.3   1 <1>  -0.1600 
 17 C       -2.7790     5.8560     0.3050 C.2   1 <1>  -0.2880 
 18 C       -5.3770     2.6340     0.7730 C.2   1 <1>   0.5690 
 19 C       -4.1070     3.9600    -0.6510 C.3   1 <1>  -0.0190 
 20 C        3.8370     0.2160    -0.1950 C.3   1 <1>  -0.1600 
 21 O       -5.5140     1.6820     1.4960 O.2   1 <1>  -0.5700 
 22 N       -6.2150     3.0870    -0.2270 N.am  1 <1>  -0.4200 
 23 C       -5.5740     4.0410    -0.9890 C.2   1 <1>   0.5690 
 24 C       -7.6050     2.6490    -0.4840 C.3   1 <1>   0.2200 
 25 O       -6.0540     4.7600    -1.8260 O.2   1 <1>  -0.5700 
 26 C       -8.4870     2.8670     0.7550 C.3   1 <1>  -0.1600 
 27 C       -7.6350     1.1830    -0.9430 C.3   1 <1>  -0.1600 
 28 C       -9.9270     2.4030     0.4930 C.3   1 <1>  -0.1600 
 29 C       -9.0760     0.7190    -1.2040 C.3   1 <1>  -0.1600 
 30 C       -9.9610     0.9400     0.0310 C.3   1 <1>  -0.1600 
 31 H       -0.8870     4.1980     1.2350 H     1 <1>   0.0800 
 32 H        2.0930     2.7230    -1.4460 H     1 <1>   0.0800 
 33 H       -2.8710     3.3950     2.5900 H     1 <1>   0.0800 
 34 H       -1.9890     2.9510    -1.2240 H     1 <1>   0.0800 
 35 H        0.9070     0.6590    -1.9760 H     1 <1>   0.0800 
 36 H        1.0480     0.1220    -0.3200 H     1 <1>   0.0800 
 37 H        2.1740     1.7700     1.4190 H     1 <1>   0.0800 
 38 H        2.7200     3.3230     0.8320 H     1 <1>   0.0800 
 39 H       -2.7450     5.8340     2.4780 H     1 <1>   0.1500 
 40 H       -4.8030     4.4030     1.2990 H     1 <1>   0.0800 
 41 H       -2.8410     5.3380    -1.8470 H     1 <1>   0.0800 
 42 H        3.3290     0.5950    -2.2470 H     1 <1>   0.0800 
 43 H        2.7760    -0.9470    -1.6580 H     1 <1>   0.0800 
 44 H        4.5900     1.7180     1.1460 H     1 <1>   0.0800 
 45 H        4.4550     2.2490    -0.5060 H     1 <1>   0.0800 
 46 H       -2.7280     6.9050     0.0600 H     1 <1>   0.1500 
 47 H       -3.9170     3.0520    -1.1920 H     1 <1>   0.0800 
 48 H        4.8070    -0.1700    -0.4550 H     1 <1>   0.0800 
 49 H        3.4540    -0.3780     0.6180 H     1 <1>   0.0800 
 50 H       -8.0060     3.2520    -1.2820 H     1 <1>   0.0800 
 51 H       -8.4920     3.9110     1.0140 H     1 <1>   0.0800 
 52 H       -8.0930     2.3090     1.5870 H     1 <1>   0.0800 
 53 H       -7.2030     0.5550    -0.1840 H     1 <1>   0.0800 
 54 H       -7.0600     1.0760    -1.8450 H     1 <1>   0.0800 
 55 H      -10.3720     3.0270    -0.2640 H     1 <1>   0.0800 
 56 H      -10.5090     2.5100     1.3920 H     1 <1>   0.0800 
 57 H       -9.0760    -0.3260    -1.4640 H     1 <1>   0.0800 
 58 H       -9.4840     1.2660    -2.0370 H     1 <1>   0.0800 
 59 H      -10.9740     0.6570    -0.1970 H     1 <1>   0.0800 
 60 H       -9.6160     0.3070     0.8320 H     1 <1>   0.0800 
@<TRIPOS>BOND
  1   1   2  2   
  2   2   3  am  
  3   2   4  1   
  4   3   5  am  
  5   3   6  1   
  6   4   7  1   
  7   4   8  1   
  8   4  31  1   
  9   5   8  1   
 10   5   9  2   
 11   6  10  1   
 12   6  11  1   
 13   6  32  1   
 14   7  12  1   
 15   7  13  1   
 16   7  33  1   
 17   8  14  1   
 18   8  34  1   
 19  10  15  1   
 20  10  35  1   
 21  10  36  1   
 22  11  16  1   
 23  11  37  1   
 24  11  38  1   
 25  12  17  2   
 26  12  39  1   
 27  13  18  1   
 28  13  19  1   
 29  13  40  1   
 30  14  17  1   
 31  14  19  1   
 32  14  41  1   
 33  15  20  1   
 34  15  42  1   
 35  15  43  1   
 36  16  20  1   
 37  16  44  1   
 38  16  45  1   
 39  17  46  1   
 40  18  21  2   
 41  18  22  am  
 42  19  23  1   
 43  19  47  1   
 44  20  48  1   
 45  20  49  1   
 46  22  23  am  
 47  22  24  1   
 48  23  25  2   
 49  24  26  1   
 50  24  27  1   
 51  24  50  1   
 52  26  28  1   
 53  26  51  1   
 54  26  52  1   
 55  27  29  1   
 56  27  53  1   
 57  27  54  1   
 58  28  30  1   
 59  28  55  1   
 60  28  56  1   
 61  29  30  1   
 62  29  57  1   
 63  29  58  1   
 64  30  59  1   
 65  30  60  1   
@<TRIPOS>SUBSTRUCTURE
  1 ****  19 GROUP 4 **** **** 0

# MOE 2024.06 (io_trps.svl 2023.06)
