@<TRIPOS>MOLECULE
NONAME
50 51 1 0 0 
SMALL
USER_CHARGES


@<TRIPOS>ATOM
  1 O        0.3790    -0.3860    -0.2530 O.3   1 <1>  -0.3630 
  2 C       -0.8440    -0.9570    -0.1180 C.ar  1 <1>   0.0830 
  3 C        1.5590    -1.1180     0.0030 C.3   1 <1>   0.1200 
  4 C       -1.9410    -0.1580    -0.3910 C.ar  1 <1>  -0.1500 
  5 C       -1.0440    -2.2760     0.2720 C.ar  1 <1>  -0.1500 
  6 C        2.7530    -0.2020    -0.2390 C.3   1 <1>   0.1200 
  7 C       -3.2320    -0.6510    -0.2820 C.ar  1 <1>  -0.1440 
  8 C       -2.3300    -2.7730     0.3830 C.ar  1 <1>  -0.1500 
  9 O        3.9210    -0.9180     0.0210 O.3   1 <1>  -0.5600 
 10 C       -3.4290    -1.9720     0.1090 C.ar  1 <1>  -0.1430 
 11 C       -4.4030     0.2700    -0.5940 C.3   1 <1>  -0.0970 
 12 C        5.0870    -0.1850    -0.1740 C.3   1 <1>   0.1200 
 13 C       -4.8260    -2.5610     0.2450 C.3   1 <1>  -0.0970 
 14 C        6.2760    -1.1110     0.0920 C.3   1 <1>   0.1100 
 15 N        7.5710    -0.4220    -0.1110 N.3   1 <1>  -0.8100 
 16 C        7.8940     0.5060     1.0040 C.3   1 <1>   0.1100 
 17 C        8.6640    -1.4110    -0.2820 C.3   1 <1>   0.1100 
 18 C        9.2820     1.1750     0.8410 C.3   1 <1>   0.3430 
 19 C       10.0420    -0.7410    -0.5090 C.3   1 <1>   0.3430 
 20 N        9.9370     0.7540    -0.4410 N.4   1 <1>  -0.9590 
 21 C       11.2260     1.4530    -0.7110 C.3   1 <1>   0.2630 
 22 H        1.5900    -1.9570    -0.6680 H     1 <1>   0.0800 
 23 H        1.5390    -1.4440     1.0280 H     1 <1>   0.0800 
 24 H       -1.7680     0.8580    -0.6920 H     1 <1>   0.1500 
 25 H       -0.2210    -2.9270     0.4930 H     1 <1>   0.1500 
 26 H        2.7110     0.6440     0.4250 H     1 <1>   0.0800 
 27 H        2.7670     0.1220    -1.2650 H     1 <1>   0.0800 
 28 H       -2.4710    -3.7960     0.6870 H     1 <1>   0.1500 
 29 H       -4.0590     1.2480    -0.8770 H     1 <1>   0.0800 
 30 H       -5.0320     0.3720     0.2720 H     1 <1>   0.0800 
 31 H       -4.9820    -0.1320    -1.4050 H     1 <1>   0.0800 
 32 H        5.0810     0.6450     0.5100 H     1 <1>   0.0800 
 33 H        5.1100     0.1640    -1.1920 H     1 <1>   0.0800 
 34 H       -5.3380    -2.5140    -0.6990 H     1 <1>   0.0800 
 35 H       -5.3880    -2.0110     0.9770 H     1 <1>   0.0800 
 36 H       -4.7840    -3.5890     0.5550 H     1 <1>   0.0800 
 37 H        6.2000    -1.9350    -0.5980 H     1 <1>   0.0800 
 38 H        6.2150    -1.5010     1.0940 H     1 <1>   0.0800 
 39 H        7.8690    -0.0240     1.9420 H     1 <1>   0.0800 
 40 H        7.1480     1.2810     1.0550 H     1 <1>   0.0800 
 41 H        8.4450    -2.0410    -1.1280 H     1 <1>   0.0800 
 42 H        8.7200    -2.0470     0.5850 H     1 <1>   0.0800 
 43 H        9.9050     0.9040     1.6780 H     1 <1>   0.0800 
 44 H        9.1580     2.2450     0.8580 H     1 <1>   0.0800 
 45 H       10.4170    -1.0370    -1.4740 H     1 <1>   0.0800 
 46 H       10.7350    -1.0980     0.2350 H     1 <1>   0.0800 
 47 H        9.2340     0.9820    -1.1630 H     1 <1>   0.4500 
 48 H       11.9520     1.2070     0.0470 H     1 <1>   0.0800 
 49 H       11.0780     2.5210    -0.7150 H     1 <1>   0.0800 
 50 H       11.6160     1.1590    -1.6720 H     1 <1>   0.0800 
@<TRIPOS>BOND
  1   1   2  1   
  2   1   3  1   
  3   2   4  ar  
  4   2   5  ar  
  5   3   6  1   
  6   3  22  1   
  7   3  23  1   
  8   4   7  ar  
  9   4  24  1   
 10   5   8  ar  
 11   5  25  1   
 12   6   9  1   
 13   6  26  1   
 14   6  27  1   
 15   7  10  ar  
 16   7  11  1   
 17   8  10  ar  
 18   8  28  1   
 19   9  12  1   
 20  10  13  1   
 21  11  29  1   
 22  11  30  1   
 23  11  31  1   
 24  12  14  1   
 25  12  32  1   
 26  12  33  1   
 27  13  34  1   
 28  13  35  1   
 29  13  36  1   
 30  14  15  1   
 31  14  37  1   
 32  14  38  1   
 33  15  16  1   
 34  15  17  1   
 35  16  18  1   
 36  16  39  1   
 37  16  40  1   
 38  17  19  1   
 39  17  41  1   
 40  17  42  1   
 41  18  20  1   
 42  18  43  1   
 43  18  44  1   
 44  19  20  1   
 45  19  45  1   
 46  19  46  1   
 47  20  21  1   
 48  20  47  1   
 49  21  48  1   
 50  21  49  1   
 51  21  50  1   
@<TRIPOS>SUBSTRUCTURE
  1 ****   6 GROUP 4 **** **** 0

# MOE 2024.06 (io_trps.svl 2023.06)
