@<TRIPOS>MOLECULE
NONAME
29 29 1 0 0 
SMALL
USER_CHARGES


@<TRIPOS>ATOM
  1 O       -1.9650     0.6980     1.7480 O.2   1 <1>  -0.5700 
  2 C       -1.5700     1.0030     0.6430 C.2   1 <1>   0.5690 
  3 N       -0.3310     1.5310     0.4340 N.am  1 <1>  -0.3940 
  4 C       -2.4780     0.7680    -0.5700 C.3   1 <1>  -0.0190 
  5 O        0.5430     1.9170     1.4640 O.3   1 <1>  -0.4360 
  6 C       -3.9050     1.3130    -0.3570 C.3   1 <1>  -0.1600 
  7 C       -2.5370    -0.7270    -0.9250 C.3   1 <1>  -0.2400 
  8 C       -3.9350     2.8190    -0.0580 C.3   1 <1>  -0.0170 
  9 C       -5.3700     3.3020     0.0640 C.ar  1 <1>  -0.1430 
 10 C       -6.0310     3.8380    -1.0310 C.ar  1 <1>  -0.1500 
 11 C       -6.0330     3.2060     1.2780 C.ar  1 <1>  -0.1500 
 12 C       -7.3400     4.2740    -0.9130 C.ar  1 <1>  -0.1500 
 13 C       -7.3420     3.6410     1.3970 C.ar  1 <1>  -0.1500 
 14 C       -7.9960     4.1760     0.3010 C.ar  1 <1>  -0.1500 
 15 H        0.0310     1.6990    -0.5090 H     1 <1>   0.3700 
 16 H       -2.0540     1.2870    -1.4110 H     1 <1>   0.0800 
 17 H        0.8160     1.1410     1.9990 H     1 <1>   0.4000 
 18 H       -4.3700     0.7890     0.4610 H     1 <1>   0.0800 
 19 H       -4.4940     1.1260    -1.2380 H     1 <1>   0.0800 
 20 H       -2.9650    -1.2850    -0.1100 H     1 <1>   0.0800 
 21 H       -1.5490    -1.1070    -1.1150 H     1 <1>   0.0800 
 22 H       -3.1390    -0.8840    -1.8030 H     1 <1>   0.0800 
 23 H       -3.4390     3.3620    -0.8430 H     1 <1>   0.0800 
 24 H       -3.4160     3.0260     0.8630 H     1 <1>   0.0800 
 25 H       -5.5300     3.9170    -1.9790 H     1 <1>   0.1500 
 26 H       -5.5310     2.7890     2.1340 H     1 <1>   0.1500 
 27 H       -7.8470     4.6890    -1.7660 H     1 <1>   0.1500 
 28 H       -7.8490     3.5630     2.3420 H     1 <1>   0.1500 
 29 H       -9.0130     4.5150     0.3930 H     1 <1>   0.1500 
@<TRIPOS>BOND
  1   1   2  2   
  2   2   3  am  
  3   2   4  1   
  4   3   5  1   
  5   3  15  1   
  6   4   6  1   
  7   4   7  1   
  8   4  16  1   
  9   5  17  1   
 10   6   8  1   
 11   6  18  1   
 12   6  19  1   
 13   7  20  1   
 14   7  21  1   
 15   7  22  1   
 16   8   9  1   
 17   8  23  1   
 18   8  24  1   
 19   9  10  ar  
 20   9  11  ar  
 21  10  12  ar  
 22  10  25  1   
 23  11  13  ar  
 24  11  26  1   
 25  12  14  ar  
 26  12  27  1   
 27  13  14  ar  
 28  13  28  1   
 29  14  29  1   
@<TRIPOS>SUBSTRUCTURE
  1 ****   8 GROUP 4 **** **** 0

# MOE 2024.06 (io_trps.svl 2023.06)
