@<TRIPOS>MOLECULE
NONAME
52 54 1 0 0 
SMALL
USER_CHARGES


@<TRIPOS>ATOM
  1 O        0.8210    -0.8020     1.0680 O.2   1 <1>  -0.5700 
  2 C        1.8070    -1.0510     0.4160 C.2   1 <1>   0.5690 
  3 N        2.7350    -0.0850     0.1170 N.am  1 <1>  -0.6600 
  4 C        1.9710    -2.5050    -0.0450 C.3   1 <1>  -0.0190 
  5 C        2.4350     1.3420     0.4640 C.3   1 <1>   0.1400 
  6 C        4.0730    -0.3500    -0.5000 C.3   1 <1>   0.1400 
  7 C        0.6640    -3.0460    -0.6620 C.3   1 <1>  -0.1600 
  8 C        2.4040    -3.3890     1.1400 C.3   1 <1>  -0.1600 
  9 C        3.1100     2.2930    -0.5290 C.3   1 <1>  -0.1600 
 10 C        5.0880     0.7290    -0.1080 C.3   1 <1>  -0.1600 
 11 C        0.7490    -4.5350    -0.9840 C.3   1 <1>   0.3430 
 12 C        2.4360    -4.8720     0.7790 C.3   1 <1>   0.3430 
 13 C        4.6400     2.1340    -0.5440 C.3   1 <1>  -0.1600 
 14 N        1.1050    -5.2860     0.2560 N.4   1 <1>  -0.9590 
 15 C        1.0500    -6.7680     0.0670 C.3   1 <1>   0.3430 
 16 C       -0.3780    -7.2810    -0.1790 C.3   1 <1>  -0.0800 
 17 C       -1.3490    -6.8720     0.9520 C.3   1 <1>  -0.0220 
 18 C       -0.3600    -8.8130    -0.3430 C.3   1 <1>  -0.1600 
 19 C       -2.6630    -7.6220     0.8470 C.2   1 <1>  -0.2880 
 20 C       -1.7430    -9.3560    -0.7350 C.3   1 <1>  -0.0220 
 21 C       -2.8380    -8.7110     0.0940 C.2   1 <1>  -0.2880 
 22 H        2.7230    -2.5580    -0.8090 H     1 <1>   0.0800 
 23 H        2.7860     1.5430     1.4610 H     1 <1>   0.0800 
 24 H        1.3700     1.5090     0.4460 H     1 <1>   0.0800 
 25 H        3.9680    -0.3680    -1.5710 H     1 <1>   0.0800 
 26 H        4.4470    -1.3040    -0.1720 H     1 <1>   0.0800 
 27 H        0.4460    -2.5000    -1.5630 H     1 <1>   0.0800 
 28 H       -0.1620    -2.8870     0.0110 H     1 <1>   0.0800 
 29 H        1.7310    -3.2420     1.9680 H     1 <1>   0.0800 
 30 H        3.3820    -3.0850     1.4710 H     1 <1>   0.0800 
 31 H        2.8550     3.3090    -0.2840 H     1 <1>   0.0800 
 32 H        2.7140     2.0910    -1.5090 H     1 <1>   0.0800 
 33 H        6.0450     0.5070    -0.5470 H     1 <1>   0.0800 
 34 H        5.2110     0.7070     0.9610 H     1 <1>   0.0800 
 35 H        1.4960    -4.7030    -1.7440 H     1 <1>   0.0800 
 36 H       -0.2040    -4.8670    -1.3640 H     1 <1>   0.0800 
 37 H        2.6840    -5.4470     1.6570 H     1 <1>   0.0800 
 38 H        3.1940    -5.0480     0.0320 H     1 <1>   0.0800 
 39 H        5.0860     2.8580     0.1160 H     1 <1>   0.0800 
 40 H        4.9980     2.3390    -1.5390 H     1 <1>   0.0800 
 41 H        0.4100    -5.0310     0.9710 H     1 <1>   0.4500 
 42 H        1.4330    -7.2530     0.9500 H     1 <1>   0.0800 
 43 H        1.6780    -7.0530    -0.7630 H     1 <1>   0.0800 
 44 H       -0.7440    -6.8760    -1.1060 H     1 <1>   0.0800 
 45 H       -1.5560    -5.8180     0.8930 H     1 <1>   0.0800 
 46 H       -0.9180    -7.0820     1.9160 H     1 <1>   0.0800 
 47 H       -0.0680    -9.2690     0.5880 H     1 <1>   0.0800 
 48 H        0.3520    -9.1080    -1.0950 H     1 <1>   0.0800 
 49 H       -3.4530    -7.1960     1.4440 H     1 <1>   0.1500 
 50 H       -1.7600   -10.4220    -0.5870 H     1 <1>   0.0800 
 51 H       -1.9370    -9.1630    -1.7760 H     1 <1>   0.0800 
 52 H       -3.7850    -9.2220     0.0180 H     1 <1>   0.1500 
@<TRIPOS>BOND
  1   1   2  2   
  2   2   3  am  
  3   2   4  1   
  4   3   5  1   
  5   3   6  1   
  6   4   7  1   
  7   4   8  1   
  8   4  22  1   
  9   5   9  1   
 10   5  23  1   
 11   5  24  1   
 12   6  10  1   
 13   6  25  1   
 14   6  26  1   
 15   7  11  1   
 16   7  27  1   
 17   7  28  1   
 18   8  12  1   
 19   8  29  1   
 20   8  30  1   
 21   9  13  1   
 22   9  31  1   
 23   9  32  1   
 24  10  13  1   
 25  10  33  1   
 26  10  34  1   
 27  11  14  1   
 28  11  35  1   
 29  11  36  1   
 30  12  14  1   
 31  12  37  1   
 32  12  38  1   
 33  13  39  1   
 34  13  40  1   
 35  14  15  1   
 36  14  41  1   
 37  15  16  1   
 38  15  42  1   
 39  15  43  1   
 40  16  17  1   
 41  16  18  1   
 42  16  44  1   
 43  17  19  1   
 44  17  45  1   
 45  17  46  1   
 46  18  20  1   
 47  18  47  1   
 48  18  48  1   
 49  19  21  2   
 50  19  49  1   
 51  20  21  1   
 52  20  50  1   
 53  20  51  1   
 54  21  52  1   
@<TRIPOS>SUBSTRUCTURE
  1 ****   7 GROUP 4 **** **** 0

# MOE 2024.06 (io_trps.svl 2023.06)
