@<TRIPOS>MOLECULE
NONAME
41 42 1 0 0 
SMALL
USER_CHARGES


@<TRIPOS>ATOM
  1 O        0.7060    -3.4440    -1.6830 O.2   1 <1>  -0.5700 
  2 C       -0.0170    -2.6610    -1.1180 C.2   1 <1>   0.5690 
  3 N        0.4660    -1.5900    -0.4380 N.am  1 <1>  -0.7300 
  4 C       -1.5190    -2.8890    -1.1740 C.3   1 <1>   0.0440 
  5 C        1.8810    -1.2260    -0.2860 C.3   1 <1>   0.2200 
  6 C       -2.3170    -1.8280    -0.4200 C.ar  1 <1>  -0.1440 
  7 C        2.2350    -1.2350     1.2030 C.3   1 <1>  -0.1600 
  8 C        2.1020     0.1590    -0.9010 C.3   1 <1>  -0.1600 
  9 C       -2.6110    -1.9970     0.9240 C.ar  1 <1>  -0.1500 
 10 C       -2.7370    -0.6760    -1.0670 C.ar  1 <1>  -0.1500 
 11 C        3.6750    -0.7530     1.4340 C.3   1 <1>  -0.1600 
 12 C        3.5420     0.6430    -0.6730 C.3   1 <1>  -0.1600 
 13 C       -3.3160    -1.0250     1.6120 C.ar  1 <1>  -0.1500 
 14 C       -3.4420     0.2940    -0.3770 C.ar  1 <1>  -0.1500 
 15 C        3.9060     0.6390     0.8210 C.3   1 <1>  -0.0800 
 16 C       -3.7370     0.1250     0.9660 C.ar  1 <1>  -0.1430 
 17 C        5.3610     1.0760     1.0190 C.3   1 <1>  -0.2400 
 18 C       -4.5100     1.1910     1.7210 C.3   1 <1>  -0.0970 
 19 H       -0.2070    -0.9670     0.0170 H     1 <1>   0.3700 
 20 H       -1.7270    -3.8600    -0.7650 H     1 <1>   0.0800 
 21 H       -1.8180    -2.9040    -2.2060 H     1 <1>   0.0800 
 22 H        2.4980    -1.9440    -0.8020 H     1 <1>   0.0800 
 23 H        2.1300    -2.2350     1.5860 H     1 <1>   0.0800 
 24 H        1.5600    -0.5910     1.7390 H     1 <1>   0.0800 
 25 H        1.4210     0.8640    -0.4570 H     1 <1>   0.0800 
 26 H        1.9060     0.1130    -1.9580 H     1 <1>   0.0800 
 27 H       -2.2900    -2.8830     1.4430 H     1 <1>   0.1500 
 28 H       -2.5150    -0.5270    -2.1090 H     1 <1>   0.1500 
 29 H        4.3570    -1.4590     0.9900 H     1 <1>   0.0800 
 30 H        3.8750    -0.7210     2.4910 H     1 <1>   0.0800 
 31 H        3.6500     1.6380    -1.0700 H     1 <1>   0.0800 
 32 H        4.2190    -0.0010    -1.2100 H     1 <1>   0.0800 
 33 H       -3.5370    -1.1690     2.6550 H     1 <1>   0.1500 
 34 H       -3.7620     1.1840    -0.8920 H     1 <1>   0.1500 
 35 H        3.2690     1.3450     1.3290 H     1 <1>   0.0800 
 36 H        6.0330     0.3960     0.5260 H     1 <1>   0.0800 
 37 H        5.6030     1.1000     2.0670 H     1 <1>   0.0800 
 38 H        5.5120     2.0620     0.6150 H     1 <1>   0.0800 
 39 H       -5.0870     0.7470     2.5120 H     1 <1>   0.0800 
 40 H       -5.1830     1.7060     1.0600 H     1 <1>   0.0800 
 41 H       -3.8270     1.9030     2.1470 H     1 <1>   0.0800 
@<TRIPOS>BOND
  1   1   2  2   
  2   2   3  am  
  3   2   4  1   
  4   3   5  1   
  5   3  19  1   
  6   4   6  1   
  7   4  20  1   
  8   4  21  1   
  9   5   7  1   
 10   5   8  1   
 11   5  22  1   
 12   6   9  ar  
 13   6  10  ar  
 14   7  11  1   
 15   7  23  1   
 16   7  24  1   
 17   8  12  1   
 18   8  25  1   
 19   8  26  1   
 20   9  13  ar  
 21   9  27  1   
 22  10  14  ar  
 23  10  28  1   
 24  11  15  1   
 25  11  29  1   
 26  11  30  1   
 27  12  15  1   
 28  12  31  1   
 29  12  32  1   
 30  13  16  ar  
 31  13  33  1   
 32  14  16  ar  
 33  14  34  1   
 34  15  17  1   
 35  15  35  1   
 36  16  18  1   
 37  17  36  1   
 38  17  37  1   
 39  17  38  1   
 40  18  39  1   
 41  18  40  1   
 42  18  41  1   
@<TRIPOS>SUBSTRUCTURE
  1 ****   3 GROUP 4 **** **** 0

# MOE 2024.06 (io_trps.svl 2023.06)
