@<TRIPOS>MOLECULE
NONAME
51 53 1 0 0 
SMALL
USER_CHARGES


@<TRIPOS>ATOM
  1 O        0.5500    -0.4610    -0.7750 O.2   1 <1>  -0.5700 
  2 C        0.9980    -1.4410    -0.2340 C.2   1 <1>   0.5690 
  3 N        2.2810    -1.4420     0.2600 N.am  1 <1>  -0.6600 
  4 C        0.1280    -2.6850    -0.1300 C.3   1 <1>  -0.0990 
  5 C        3.0600    -2.6620     0.6340 C.3   1 <1>   0.1400 
  6 C        3.0690    -0.1720     0.3260 C.3   1 <1>   0.1400 
  7 C       -1.3680    -2.4170    -0.3480 C.3   1 <1>  -0.0160 
  8 C        4.3550    -2.7560    -0.2000 C.3   1 <1>   0.3430 
  9 C        4.3410    -0.2800    -0.5330 C.3   1 <1>   0.3430 
 10 C       -2.1510    -3.7090    -0.1830 C.ar  1 <1>  -0.1440 
 11 N        5.1650    -1.4830    -0.1590 N.4   1 <1>  -0.9590 
 12 C       -2.4110    -4.5150    -1.2810 C.ar  1 <1>  -0.1500 
 13 C       -2.6060    -4.0970     1.0680 C.ar  1 <1>  -0.1500 
 14 C        6.3920    -1.5890    -0.9960 C.3   1 <1>   0.4860 
 15 C       -3.1130    -5.6990    -1.1290 C.ar  1 <1>  -0.1500 
 16 C       -3.3080    -5.2800     1.2210 C.ar  1 <1>  -0.1500 
 17 C        7.2480    -2.7100    -0.4440 C.ar  1 <1>  -0.1440 
 18 C       -3.5610    -6.0820     0.1230 C.ar  1 <1>  -0.1500 
 19 C        7.9430    -2.5430     0.7460 C.ar  1 <1>  -0.1500 
 20 C        7.3360    -3.9180    -1.1190 C.ar  1 <1>  -0.1500 
 21 C        8.7020    -3.5790     1.2600 C.ar  1 <1>  -0.1500 
 22 C        8.0960    -4.9520    -0.6020 C.ar  1 <1>  -0.1500 
 23 C        8.7810    -4.7880     0.5900 C.ar  1 <1>  -0.1440 
 24 C        9.6150    -5.9240     1.1570 C.3   1 <1>  -0.0970 
 25 H        0.2510    -3.1140     0.8470 H     1 <1>   0.0800 
 26 H        0.4610    -3.3990    -0.8600 H     1 <1>   0.0800 
 27 H        2.4830    -3.5550     0.4720 H     1 <1>   0.0800 
 28 H        3.3050    -2.6200     1.6820 H     1 <1>   0.0800 
 29 H        3.3340     0.0290     1.3500 H     1 <1>   0.0800 
 30 H        2.4830     0.6630    -0.0200 H     1 <1>   0.0800 
 31 H       -1.5310    -2.0150    -1.3330 H     1 <1>   0.0800 
 32 H       -1.7160    -1.6870     0.3620 H     1 <1>   0.0800 
 33 H        4.0840    -2.9760    -1.2200 H     1 <1>   0.0800 
 34 H        4.9470    -3.5790     0.1660 H     1 <1>   0.0800 
 35 H        4.9230     0.6190    -0.4140 H     1 <1>   0.0800 
 36 H        4.0430    -0.3480    -1.5670 H     1 <1>   0.0800 
 37 H        5.4880    -1.3710     0.8100 H     1 <1>   0.4500 
 38 H       -2.0690    -4.2260    -2.2590 H     1 <1>   0.1500 
 39 H       -2.4160    -3.4790     1.9280 H     1 <1>   0.1500 
 40 H        6.9490    -0.6660    -0.9620 H     1 <1>   0.0800 
 41 H        6.1310    -1.7950    -2.0210 H     1 <1>   0.0800 
 42 H       -3.3110    -6.3200    -1.9840 H     1 <1>   0.1500 
 43 H       -3.6580    -5.5750     2.1950 H     1 <1>   0.1500 
 44 H       -4.1060    -7.0010     0.2420 H     1 <1>   0.1500 
 45 H        7.9120    -1.6120     1.2860 H     1 <1>   0.1500 
 46 H        6.8220    -4.0740    -2.0520 H     1 <1>   0.1500 
 47 H        9.2380    -3.4430     2.1840 H     1 <1>   0.1500 
 48 H        8.1600    -5.8880    -1.1310 H     1 <1>   0.1500 
 49 H       10.4490    -5.5370     1.7150 H     1 <1>   0.0800 
 50 H        9.9990    -6.5420     0.3650 H     1 <1>   0.0800 
 51 H        9.0130    -6.5300     1.8090 H     1 <1>   0.0800 
@<TRIPOS>BOND
  1   1   2  2   
  2   2   3  am  
  3   2   4  1   
  4   3   5  1   
  5   3   6  1   
  6   4   7  1   
  7   4  25  1   
  8   4  26  1   
  9   5   8  1   
 10   5  27  1   
 11   5  28  1   
 12   6   9  1   
 13   6  29  1   
 14   6  30  1   
 15   7  10  1   
 16   7  31  1   
 17   7  32  1   
 18   8  11  1   
 19   8  33  1   
 20   8  34  1   
 21   9  11  1   
 22   9  35  1   
 23   9  36  1   
 24  10  12  ar  
 25  10  13  ar  
 26  11  14  1   
 27  11  37  1   
 28  12  15  ar  
 29  12  38  1   
 30  13  16  ar  
 31  13  39  1   
 32  14  17  1   
 33  14  40  1   
 34  14  41  1   
 35  15  18  ar  
 36  15  42  1   
 37  16  18  ar  
 38  16  43  1   
 39  17  19  ar  
 40  17  20  ar  
 41  18  44  1   
 42  19  21  ar  
 43  19  45  1   
 44  20  22  ar  
 45  20  46  1   
 46  21  23  ar  
 47  21  47  1   
 48  22  23  ar  
 49  22  48  1   
 50  23  24  1   
 51  24  49  1   
 52  24  50  1   
 53  24  51  1   
@<TRIPOS>SUBSTRUCTURE
  1 ****   5 GROUP 4 **** **** 0

# MOE 2024.06 (io_trps.svl 2023.06)
