@<TRIPOS>MOLECULE
NONAME
49 51 1 0 0 
SMALL
USER_CHARGES


@<TRIPOS>ATOM
  1 O       -0.5510    -0.4480    -1.1780 O.3   1 <1>  -0.3630 
  2 C       -1.6850    -0.8940    -0.5780 C.ar  1 <1>   0.0830 
  3 C        0.0600    -1.1470    -2.2400 C.3   1 <1>   0.0400 
  4 C       -2.1420    -0.1950     0.5330 C.ar  1 <1>  -0.1440 
  5 C       -2.3910    -2.0070    -1.0250 C.ar  1 <1>  -0.1500 
  6 C       -3.2950    -0.6110     1.1730 C.ar  1 <1>  -0.1500 
  7 C       -1.3770     1.0170     1.0500 C.3   1 <1>  -0.0960 
  8 C       -3.5460    -2.4260    -0.3830 C.ar  1 <1>  -0.1430 
  9 C       -4.0080    -1.7120     0.7190 C.ar  1 <1>  -0.1430 
 10 C       -4.2560    -3.6650    -0.9170 C.3   1 <1>  -0.0970 
 11 C       -5.2850    -2.0890     1.4440 C.3   1 <1>   0.4860 
 12 N       -6.4380    -1.6360     0.6240 N.4   1 <1>  -0.9590 
 13 C       -6.4560    -0.1370     0.4510 C.3   1 <1>   0.3430 
 14 C       -7.7540    -2.1300     1.1600 C.3   1 <1>   0.3430 
 15 C       -7.6380     0.3380    -0.4180 C.3   1 <1>   0.2090 
 16 C       -8.9460    -1.6760     0.2940 C.3   1 <1>   0.2090 
 17 N       -8.9430    -0.1980     0.0770 N.pl3 1 <1>  -0.8380 
 18 C      -10.0310     0.2620    -0.6310 C.ar  1 <1>   0.4100 
 19 N      -10.1320    -0.1620    -1.8840 N.ar  1 <1>  -0.6200 
 20 C      -10.9430     1.1200    -0.0270 C.ar  1 <1>  -0.1500 
 21 C      -11.1810     0.2880    -2.5550 C.ar  1 <1>   0.1600 
 22 C      -12.0280     1.5780    -0.7370 C.ar  1 <1>  -0.1500 
 23 C      -12.1410     1.1420    -2.0420 C.ar  1 <1>  -0.1500 
 24 H        0.9590    -0.6220    -2.5110 H     1 <1>   0.0800 
 25 H       -0.6140    -1.1710    -3.0780 H     1 <1>   0.0800 
 26 H        0.3040    -2.1410    -1.9100 H     1 <1>   0.0800 
 27 H       -2.0420    -2.5560    -1.8780 H     1 <1>   0.1500 
 28 H       -3.6330    -0.0630     2.0360 H     1 <1>   0.1500 
 29 H       -0.3760     0.7260     1.3150 H     1 <1>   0.0800 
 30 H       -1.8490     1.4450     1.9150 H     1 <1>   0.0800 
 31 H       -1.3200     1.7670     0.2810 H     1 <1>   0.0800 
 32 H       -3.6020    -4.2250    -1.5640 H     1 <1>   0.0800 
 33 H       -5.1230    -3.3860    -1.4880 H     1 <1>   0.0800 
 34 H       -4.5470    -4.3190    -0.1150 H     1 <1>   0.0800 
 35 H       -5.3100    -1.6210     2.4150 H     1 <1>   0.0800 
 36 H       -5.3180    -3.1570     1.5800 H     1 <1>   0.0800 
 37 H       -6.2980    -2.0270    -0.3150 H     1 <1>   0.4500 
 38 H       -5.5370     0.1920    -0.0070 H     1 <1>   0.0800 
 39 H       -6.5340     0.3390     1.4140 H     1 <1>   0.0800 
 40 H       -7.9040    -1.7500     2.1580 H     1 <1>   0.0800 
 41 H       -7.7510    -3.2060     1.2120 H     1 <1>   0.0800 
 42 H       -7.4830     0.0250    -1.4370 H     1 <1>   0.0800 
 43 H       -7.6740     1.4140    -0.4110 H     1 <1>   0.0800 
 44 H       -9.8660    -1.9570     0.7770 H     1 <1>   0.0800 
 45 H       -8.9120    -2.1800    -0.6580 H     1 <1>   0.0800 
 46 H      -10.7860     1.4130     0.9930 H     1 <1>   0.1500 
 47 H      -11.2830    -0.0430    -3.5750 H     1 <1>   0.1500 
 48 H      -12.7530     2.2430    -0.3000 H     1 <1>   0.1500 
 49 H      -12.9650     1.4620    -2.6540 H     1 <1>   0.1500 
@<TRIPOS>BOND
  1   1   2  1   
  2   1   3  1   
  3   2   4  ar  
  4   2   5  ar  
  5   3  24  1   
  6   3  25  1   
  7   3  26  1   
  8   4   6  ar  
  9   4   7  1   
 10   5   8  ar  
 11   5  27  1   
 12   6   9  ar  
 13   6  28  1   
 14   7  29  1   
 15   7  30  1   
 16   7  31  1   
 17   8   9  ar  
 18   8  10  1   
 19   9  11  1   
 20  10  32  1   
 21  10  33  1   
 22  10  34  1   
 23  11  12  1   
 24  11  35  1   
 25  11  36  1   
 26  12  13  1   
 27  12  14  1   
 28  12  37  1   
 29  13  15  1   
 30  13  38  1   
 31  13  39  1   
 32  14  16  1   
 33  14  40  1   
 34  14  41  1   
 35  15  17  1   
 36  15  42  1   
 37  15  43  1   
 38  16  17  1   
 39  16  44  1   
 40  16  45  1   
 41  17  18  1   
 42  18  19  ar  
 43  18  20  ar  
 44  19  21  ar  
 45  20  22  ar  
 46  20  46  1   
 47  21  23  ar  
 48  21  47  1   
 49  22  23  ar  
 50  22  48  1   
 51  23  49  1   
@<TRIPOS>SUBSTRUCTURE
  1 ****  13 GROUP 4 **** **** 0

# MOE 2024.06 (io_trps.svl 2023.06)
