@<TRIPOS>MOLECULE
NONAME
40 42 1 0 0 
SMALL
USER_CHARGES


@<TRIPOS>ATOM
  1 S       -0.0880     0.1840    -0.0650 S.3   1 <1>  -0.0800 
  2 C        1.4640    -0.4740    -0.5740 C.2   1 <1>   0.1040 
  3 C       -0.9580    -1.1750    -0.7600 C.2   1 <1>  -0.1100 
  4 N        2.6410     0.2240    -0.3020 N.am  1 <1>  -0.4940 
  5 C        1.2810    -1.6540    -1.2230 C.2   1 <1>   0.0190 
  6 C       -0.0970    -2.0410    -1.3250 C.2   1 <1>  -0.1500 
  7 C        2.9680     1.1740     0.6230 C.2   1 <1>   0.5690 
  8 C        2.3400    -2.4600    -1.7440 C.1   1 <1>   0.5380 
  9 O        2.2090     1.6230     1.4450 O.2   1 <1>  -0.5700 
 10 C        4.4210     1.6490     0.5900 C.3   1 <1>   0.1710 
 11 N        3.2130    -3.0810    -2.1350 N.1   1 <1>  -0.5570 
 12 N        5.3190     0.7350    -0.1820 N.3   1 <1>  -0.8100 
 13 C        5.6730    -0.4690     0.6160 C.3   1 <1>   0.1100 
 14 C        6.5720     1.4330    -0.5560 C.3   1 <1>   0.1100 
 15 C        6.5800    -1.4370    -0.1690 C.3   1 <1>   0.2090 
 16 C        7.5400     0.5280    -1.3470 C.3   1 <1>   0.2090 
 17 N        7.8210    -0.7530    -0.6300 N.pl3 1 <1>  -0.8380 
 18 C        8.9210    -0.8260     0.2030 C.ar  1 <1>   0.4100 
 19 N        9.2260     0.2540     0.9150 N.ar  1 <1>  -0.6200 
 20 C        9.6420    -2.0140     0.2720 C.ar  1 <1>  -0.1500 
 21 C       10.2750     0.1400     1.7130 C.ar  1 <1>   0.1600 
 22 C       10.7290    -2.1190     1.1070 C.ar  1 <1>  -0.1500 
 23 C       11.0480    -1.0000     1.8480 C.ar  1 <1>  -0.1500 
 24 H       -2.0300    -1.1730    -0.6670 H     1 <1>   0.1500 
 25 H        3.4850    -0.0440    -0.8260 H     1 <1>   0.3700 
 26 H       -0.3780    -2.9560    -1.8180 H     1 <1>   0.1500 
 27 H        4.7810     1.7610     1.5980 H     1 <1>   0.0800 
 28 H        4.4210     2.6220     0.1310 H     1 <1>   0.0800 
 29 H        4.7810    -0.9950     0.9070 H     1 <1>   0.0800 
 30 H        6.1920    -0.1730     1.5130 H     1 <1>   0.0800 
 31 H        7.0760     1.7800     0.3300 H     1 <1>   0.0800 
 32 H        6.3380     2.2920    -1.1610 H     1 <1>   0.0800 
 33 H        6.0460    -1.8190    -1.0220 H     1 <1>   0.0800 
 34 H        6.8370    -2.2710     0.4610 H     1 <1>   0.0800 
 35 H        8.4630     1.0550    -1.5160 H     1 <1>   0.0800 
 36 H        7.1100     0.3040    -2.3070 H     1 <1>   0.0800 
 37 H        9.3340    -2.8380    -0.3430 H     1 <1>   0.1500 
 38 H       10.5330     1.0070     2.2950 H     1 <1>   0.1500 
 39 H       11.3040    -3.0260     1.1780 H     1 <1>   0.1500 
 40 H       11.8860    -1.0100     2.5210 H     1 <1>   0.1500 
@<TRIPOS>BOND
  1   1   2  1   
  2   1   3  1   
  3   2   4  1   
  4   2   5  2   
  5   3   6  2   
  6   3  24  1   
  7   4   7  am  
  8   4  25  1   
  9   5   6  1   
 10   5   8  1   
 11   6  26  1   
 12   7   9  2   
 13   7  10  1   
 14   8  11  3   
 15  10  12  1   
 16  10  27  1   
 17  10  28  1   
 18  12  13  1   
 19  12  14  1   
 20  13  15  1   
 21  13  29  1   
 22  13  30  1   
 23  14  16  1   
 24  14  31  1   
 25  14  32  1   
 26  15  17  1   
 27  15  33  1   
 28  15  34  1   
 29  16  17  1   
 30  16  35  1   
 31  16  36  1   
 32  17  18  1   
 33  18  19  ar  
 34  18  20  ar  
 35  19  21  ar  
 36  20  22  ar  
 37  20  37  1   
 38  21  23  ar  
 39  21  38  1   
 40  22  23  ar  
 41  22  39  1   
 42  23  40  1   
@<TRIPOS>SUBSTRUCTURE
  1 ****  13 GROUP 4 **** **** 0

# MOE 2024.06 (io_trps.svl 2023.06)
