@<TRIPOS>MOLECULE
NONAME
44 46 1 0 0 
SMALL
USER_CHARGES


@<TRIPOS>ATOM
  1 O        0.5710     1.7770     1.7250 O.2   1 <1>  -0.5700 
  2 C        0.3130     2.1410     0.6000 C.2   1 <1>   0.5690 
  3 N        1.0910     1.7330    -0.4400 N.am  1 <1>  -0.7300 
  4 C       -0.9050     3.0650     0.3510 C.3   1 <1>   0.2040 
  5 C        2.2700     0.8480    -0.3160 C.3   1 <1>   0.3200 
  6 C       -2.1460     2.1620     0.1060 C.ar  1 <1>  -0.1440 
  7 C       -1.0630     4.0310     1.5560 C.3   1 <1>  -0.1600 
  8 C       -0.6670     3.9880    -0.8770 C.3   1 <1>  -0.1600 
  9 C        3.3890     1.3430    -1.2160 C.2   1 <1>  -0.0400 
 10 C       -3.1910     2.0350     1.0200 C.ar  1 <1>  -0.1500 
 11 C       -2.2280     1.4090    -1.0640 C.ar  1 <1>  -0.1500 
 12 C       -2.1080     5.1270     1.3080 C.3   1 <1>   0.1200 
 13 C       -1.7720     5.0390    -1.0060 C.3   1 <1>   0.1200 
 14 O        4.3780     0.5150    -1.4940 O.3   1 <1>  -0.2800 
 15 C        3.5910     2.5340    -1.8250 C.2   1 <1>  -0.1500 
 16 C       -4.2820     1.2220     0.7660 C.ar  1 <1>  -0.1500 
 17 C       -3.3160     0.5950    -1.3240 C.ar  1 <1>  -0.1500 
 18 O       -1.7780     5.8180     0.1460 O.3   1 <1>  -0.5600 
 19 C        5.2240     1.1490    -2.2810 C.2   1 <1>  -0.0100 
 20 C        4.7960     2.4050    -2.5260 C.2   1 <1>  -0.1500 
 21 C       -4.3530     0.4970    -0.4170 C.ar  1 <1>   0.0820 
 22 O       -5.3840    -0.3190    -0.7480 O.3   1 <1>  -0.3630 
 23 C       -6.4740    -0.5120     0.1260 C.3   1 <1>   0.0400 
 24 H        0.8760     2.0140    -1.3940 H     1 <1>   0.3700 
 25 H        1.9900    -0.1480    -0.6120 H     1 <1>   0.0800 
 26 H        2.6150     0.8150     0.7040 H     1 <1>   0.0800 
 27 H       -0.1200     4.5170     1.7410 H     1 <1>   0.0800 
 28 H       -1.2990     3.4880     2.4530 H     1 <1>   0.0800 
 29 H       -0.6140     3.4340    -1.7930 H     1 <1>   0.0800 
 30 H        0.2700     4.5040    -0.7640 H     1 <1>   0.0800 
 31 H       -3.1850     2.5570     1.9570 H     1 <1>   0.1500 
 32 H       -1.4440     1.4310    -1.7960 H     1 <1>   0.1500 
 33 H       -2.1090     5.8350     2.1190 H     1 <1>   0.0800 
 34 H       -3.1000     4.7270     1.1950 H     1 <1>   0.0800 
 35 H       -2.7430     4.5880    -1.1300 H     1 <1>   0.0800 
 36 H       -1.5790     5.6930    -1.8400 H     1 <1>   0.0800 
 37 H        2.9820     3.4200    -1.7960 H     1 <1>   0.1500 
 38 H       -5.0620     1.1630     1.5000 H     1 <1>   0.1500 
 39 H       -3.3650     0.0250    -2.2340 H     1 <1>   0.1500 
 40 H        6.1050     0.6320    -2.6190 H     1 <1>   0.1500 
 41 H        5.2580     3.1690    -3.1250 H     1 <1>   0.1500 
 42 H       -7.1560    -1.2000    -0.3390 H     1 <1>   0.0800 
 43 H       -6.9610     0.4320     0.2900 H     1 <1>   0.0800 
 44 H       -6.1110    -0.9260     1.0500 H     1 <1>   0.0800 
@<TRIPOS>BOND
  1   1   2  2   
  2   2   3  am  
  3   2   4  1   
  4   3   5  1   
  5   3  24  1   
  6   4   6  1   
  7   4   7  1   
  8   4   8  1   
  9   5   9  1   
 10   5  25  1   
 11   5  26  1   
 12   6  10  ar  
 13   6  11  ar  
 14   7  12  1   
 15   7  27  1   
 16   7  28  1   
 17   8  13  1   
 18   8  29  1   
 19   8  30  1   
 20   9  14  1   
 21   9  15  2   
 22  10  16  ar  
 23  10  31  1   
 24  11  17  ar  
 25  11  32  1   
 26  12  18  1   
 27  12  33  1   
 28  12  34  1   
 29  13  18  1   
 30  13  35  1   
 31  13  36  1   
 32  14  19  1   
 33  15  20  1   
 34  15  37  1   
 35  16  21  ar  
 36  16  38  1   
 37  17  21  ar  
 38  17  39  1   
 39  19  20  2   
 40  19  40  1   
 41  20  41  1   
 42  21  22  1   
 43  22  23  1   
 44  23  42  1   
 45  23  43  1   
 46  23  44  1   
@<TRIPOS>SUBSTRUCTURE
  1 ****   4 GROUP 4 **** **** 0

# MOE 2024.06 (io_trps.svl 2023.06)
