@<TRIPOS>MOLECULE
NONAME
32 33 1 0 0 
SMALL
USER_CHARGES


@<TRIPOS>ATOM
  1 CL       0.4820    -1.4320    -2.4850 Cl    1 <1>  -0.1770 
  2 C       -0.4960    -2.1150    -1.1980 C.ar  1 <1>   0.1770 
  3 C        0.0960    -2.6340    -0.0390 C.ar  1 <1>   0.1000 
  4 C       -1.8670    -2.1180    -1.3780 C.ar  1 <1>  -0.1500 
  5 N        1.4720    -2.6670     0.2150 N.pl3 1 <1>  -0.8380 
  6 C       -0.7510    -3.1570     0.9310 C.ar  1 <1>  -0.1500 
  7 C       -2.6870    -2.6450    -0.3940 C.ar  1 <1>  -0.1500 
  8 C        2.1530    -1.3590     0.4560 C.3   1 <1>   0.2090 
  9 C        2.3000    -3.5800    -0.6280 C.3   1 <1>   0.2090 
 10 C       -2.1250    -3.1640     0.7600 C.ar  1 <1>  -0.1500 
 11 C        3.5800    -1.5630     1.0010 C.3   1 <1>   0.1960 
 12 C        3.7160    -3.7350    -0.0400 C.3   1 <1>   0.1960 
 13 N        4.4000    -2.4350     0.1320 N.am  1 <1>  -0.8490 
 14 S        5.9790    -2.5980     0.7150 S.o2  1 <1>   1.3330 
 15 O        6.3860    -1.3310     1.2790 O.2   1 <1>  -0.6500 
 16 O        6.0440    -3.8020     1.5110 O.2   1 <1>  -0.6500 
 17 C        6.9110    -2.8440    -0.7810 C.3   1 <1>  -0.1350 
 18 H       -2.2870    -1.7110    -2.2790 H     1 <1>   0.1500 
 19 H       -0.3150    -3.5600     1.8270 H     1 <1>   0.1500 
 20 H       -3.7550    -2.6510    -0.5260 H     1 <1>   0.1500 
 21 H        1.5790    -0.7850     1.1620 H     1 <1>   0.0800 
 22 H        2.2080    -0.8020    -0.4630 H     1 <1>   0.0800 
 23 H        2.3750    -3.1880    -1.6260 H     1 <1>   0.0800 
 24 H        1.8240    -4.5430    -0.6790 H     1 <1>   0.0800 
 25 H       -2.7580    -3.5750     1.5280 H     1 <1>   0.1500 
 26 H        3.5210    -1.9870     1.9890 H     1 <1>   0.0800 
 27 H        4.0460    -0.5960     1.0850 H     1 <1>   0.0800 
 28 H        4.2940    -4.3630    -0.6940 H     1 <1>   0.0800 
 29 H        3.6340    -4.2350     0.9110 H     1 <1>   0.0800 
 30 H        6.7790    -2.0060    -1.4360 H     1 <1>   0.0800 
 31 H        6.5850    -3.7330    -1.2820 H     1 <1>   0.0800 
 32 H        7.9540    -2.9400    -0.5500 H     1 <1>   0.0800 
@<TRIPOS>BOND
  1   1   2  1   
  2   2   3  ar  
  3   2   4  ar  
  4   3   5  1   
  5   3   6  ar  
  6   4   7  ar  
  7   4  18  1   
  8   5   8  1   
  9   5   9  1   
 10   6  10  ar  
 11   6  19  1   
 12   7  10  ar  
 13   7  20  1   
 14   8  11  1   
 15   8  21  1   
 16   8  22  1   
 17   9  12  1   
 18   9  23  1   
 19   9  24  1   
 20  10  25  1   
 21  11  13  1   
 22  11  26  1   
 23  11  27  1   
 24  12  13  1   
 25  12  28  1   
 26  12  29  1   
 27  13  14  am  
 28  14  15  2   
 29  14  16  2   
 30  14  17  1   
 31  17  30  1   
 32  17  31  1   
 33  17  32  1   
@<TRIPOS>SUBSTRUCTURE
  1 ****   5 GROUP 4 **** **** 0

# MOE 2024.06 (io_trps.svl 2023.06)
