@<TRIPOS>MOLECULE
NONAME
62 65 1 0 0 
SMALL
USER_CHARGES


@<TRIPOS>ATOM
  1 O        0.0860     1.3180     0.2520 O.2   1 <1>  -0.5700 
  2 C        0.0650     2.4840    -0.0620 C.2   1 <1>   0.5690 
  3 N        1.2230     3.0950    -0.4890 N.am  1 <1>  -0.6600 
  4 C       -1.2670     3.2480     0.0390 C.3   1 <1>  -0.0190 
  5 C        1.4660     4.5690    -0.5690 C.3   1 <1>   0.1400 
  6 C        2.4320     2.2710    -0.8150 C.3   1 <1>   0.1400 
  7 C       -2.3590     2.4520     0.7890 C.3   1 <1>  -0.1600 
  8 C       -1.7930     3.6360    -1.3580 C.3   1 <1>  -0.1600 
  9 C        2.6700     4.9670     0.3130 C.3   1 <1>   0.3430 
 10 C        3.6130     2.6620     0.0880 C.3   1 <1>   0.3430 
 11 C       -3.6870     3.2110     0.8490 C.3   1 <1>   0.1400 
 12 C       -3.1270     4.3860    -1.2820 C.3   1 <1>   0.1400 
 13 N        3.8980     4.1410     0.0210 N.4   1 <1>  -0.9590 
 14 N       -4.1150     3.5680    -0.5310 N.am  1 <1>  -0.6600 
 15 C        5.0430     4.5090     0.8970 C.3   1 <1>   0.7100 
 16 C       -5.2960     3.1820    -1.1150 C.2   1 <1>   0.5690 
 17 C        5.2600     6.0190     0.8550 C.ar  1 <1>  -0.1440 
 18 C        6.2880     3.7110     0.5110 C.ar  1 <1>  -0.1440 
 19 O       -5.6050     3.5250    -2.2300 O.2   1 <1>  -0.5700 
 20 C       -6.2720     2.2990    -0.3730 C.3   1 <1>  -0.1790 
 21 C        5.6780     6.6820    -0.2940 C.ar  1 <1>  -0.1500 
 22 C        5.0100     6.7600     2.0040 C.ar  1 <1>  -0.1500 
 23 C        7.0500     3.1500     1.5290 C.ar  1 <1>  -0.1500 
 24 C        6.6820     3.5070    -0.8090 C.ar  1 <1>  -0.1500 
 25 C        5.8290     8.0570    -0.2940 C.ar  1 <1>  -0.1500 
 26 C        5.1610     8.1350     2.0020 C.ar  1 <1>  -0.1500 
 27 C        8.1730     2.3980     1.2370 C.ar  1 <1>  -0.1500 
 28 C        7.8060     2.7550    -1.0990 C.ar  1 <1>  -0.1500 
 29 C        5.5670     8.7840     0.8520 C.ar  1 <1>  -0.1500 
 30 C        8.5510     2.1990    -0.0770 C.ar  1 <1>  -0.1500 
 31 H       -1.0970     4.1430     0.6070 H     1 <1>   0.0800 
 32 H        0.6040     5.1230    -0.2470 H     1 <1>   0.0800 
 33 H        1.6610     4.8400    -1.5920 H     1 <1>   0.0800 
 34 H        2.6950     2.4190    -1.8480 H     1 <1>   0.0800 
 35 H        2.2300     1.2200    -0.6890 H     1 <1>   0.0800 
 36 H       -2.0280     2.2390     1.7910 H     1 <1>   0.0800 
 37 H       -2.5270     1.5090     0.2970 H     1 <1>   0.0800 
 38 H       -1.9360     2.7460    -1.9490 H     1 <1>   0.0800 
 39 H       -1.0800     4.2520    -1.8730 H     1 <1>   0.0800 
 40 H        2.3880     4.8400     1.3450 H     1 <1>   0.0800 
 41 H        2.8830     6.0130     0.1580 H     1 <1>   0.0800 
 42 H        4.4830     2.1000    -0.2130 H     1 <1>   0.0800 
 43 H        3.3720     2.3780     1.0990 H     1 <1>   0.0800 
 44 H       -3.5690     4.1150     1.4220 H     1 <1>   0.0800 
 45 H       -4.4220     2.6030     1.3440 H     1 <1>   0.0800 
 46 H       -3.4800     4.5900    -2.2800 H     1 <1>   0.0800 
 47 H       -2.9990     5.3290    -0.7790 H     1 <1>   0.0800 
 48 H        4.2090     4.3660    -0.9270 H     1 <1>   0.4500 
 49 H        4.7910     4.2450     1.9110 H     1 <1>   0.0800 
 50 H       -5.7990     1.3720    -0.1120 H     1 <1>   0.0800 
 51 H       -7.1180     2.0880    -1.0020 H     1 <1>   0.0800 
 52 H       -6.6180     2.7990     0.5110 H     1 <1>   0.0800 
 53 H        5.9010     6.1530    -1.2020 H     1 <1>   0.1500 
 54 H        4.6980     6.2830     2.9190 H     1 <1>   0.1500 
 55 H        6.7860     3.2920     2.5640 H     1 <1>   0.1500 
 56 H        6.1360     3.9240    -1.6350 H     1 <1>   0.1500 
 57 H        6.1570     8.5680    -1.1850 H     1 <1>   0.1500 
 58 H        4.9680     8.7050     2.8960 H     1 <1>   0.1500 
 59 H        8.7600     1.9680     2.0330 H     1 <1>   0.1500 
 60 H        8.1100     2.6010    -2.1210 H     1 <1>   0.1500 
 61 H        5.6880     9.8550     0.8510 H     1 <1>   0.1500 
 62 H        9.4280     1.6140    -0.3030 H     1 <1>   0.1500 
@<TRIPOS>BOND
  1   1   2  2   
  2   2   3  am  
  3   2   4  1   
  4   3   5  1   
  5   3   6  1   
  6   4   7  1   
  7   4   8  1   
  8   4  31  1   
  9   5   9  1   
 10   5  32  1   
 11   5  33  1   
 12   6  10  1   
 13   6  34  1   
 14   6  35  1   
 15   7  11  1   
 16   7  36  1   
 17   7  37  1   
 18   8  12  1   
 19   8  38  1   
 20   8  39  1   
 21   9  13  1   
 22   9  40  1   
 23   9  41  1   
 24  10  13  1   
 25  10  42  1   
 26  10  43  1   
 27  11  14  1   
 28  11  44  1   
 29  11  45  1   
 30  12  14  1   
 31  12  46  1   
 32  12  47  1   
 33  13  15  1   
 34  13  48  1   
 35  14  16  am  
 36  15  17  1   
 37  15  18  1   
 38  15  49  1   
 39  16  19  2   
 40  16  20  1   
 41  17  21  ar  
 42  17  22  ar  
 43  18  23  ar  
 44  18  24  ar  
 45  20  50  1   
 46  20  51  1   
 47  20  52  1   
 48  21  25  ar  
 49  21  53  1   
 50  22  26  ar  
 51  22  54  1   
 52  23  27  ar  
 53  23  55  1   
 54  24  28  ar  
 55  24  56  1   
 56  25  29  ar  
 57  25  57  1   
 58  26  29  ar  
 59  26  58  1   
 60  27  30  ar  
 61  27  59  1   
 62  28  30  ar  
 63  28  60  1   
 64  29  61  1   
 65  30  62  1   
@<TRIPOS>SUBSTRUCTURE
  1 ****   5 GROUP 4 **** **** 0

# MOE 2024.06 (io_trps.svl 2023.06)
