@<TRIPOS>MOLECULE
NONAME
53 55 1 0 0 
SMALL
USER_CHARGES


@<TRIPOS>ATOM
  1 O       -5.2680    -0.6570     1.3140 O.3   1 <1>  -0.6800 
  2 C       -5.8390    -1.3600     0.2780 C.3   1 <1>   0.6240 
  3 C       -4.6950    -1.5910    -0.6660 C.1   1 <1>  -0.2000 
  4 C       -6.9410    -0.4560    -0.3070 C.ar  1 <1>  -0.1440 
  5 C       -6.4150    -2.6940     0.8380 C.3   1 <1>  -0.0800 
  6 C       -3.7350    -1.7980    -1.3380 C.1   1 <1>  -0.2000 
  7 C       -7.8220     0.2010     0.5490 C.ar  1 <1>  -0.1500 
  8 C       -7.1070    -0.2780    -1.6790 C.ar  1 <1>  -0.1500 
  9 C       -5.3730    -3.5630     1.5870 C.3   1 <1>  -0.1600 
 10 C       -7.1090    -3.5390    -0.2570 C.3   1 <1>  -0.1600 
 11 C       -2.4640    -2.0830    -2.0520 C.3   1 <1>   0.5430 
 12 C       -8.8240     1.0170     0.0550 C.ar  1 <1>  -0.1500 
 13 C       -8.1090     0.5380    -2.1750 C.ar  1 <1>  -0.1500 
 14 C       -6.0040    -4.8370     2.1620 C.3   1 <1>  -0.1600 
 15 C       -7.7310    -4.8180     0.3190 C.3   1 <1>  -0.1600 
 16 N       -1.3730    -2.0130    -1.0480 N.4   1 <1>  -0.9590 
 17 C       -8.9670     1.1890    -1.3080 C.ar  1 <1>  -0.1500 
 18 C       -6.6890    -5.6590     1.0650 C.3   1 <1>  -0.1600 
 19 C       -0.0320    -1.9500    -1.6930 C.3   1 <1>   0.3430 
 20 C       -1.4690    -3.1160    -0.0440 C.3   1 <1>   0.3430 
 21 C        1.0410    -1.7210    -0.6260 C.3   1 <1>  -0.1600 
 22 C       -0.4210    -2.9080     1.0500 C.3   1 <1>  -0.1600 
 23 C        0.9940    -2.7940     0.4690 C.3   1 <1>  -0.1600 
 24 H       -5.2950     0.2830     1.0570 H     1 <1>   0.4000 
 25 H       -7.1750    -2.4220     1.5490 H     1 <1>   0.0800 
 26 H       -7.7370     0.0780     1.6160 H     1 <1>   0.1500 
 27 H       -6.4670    -0.7740    -2.3860 H     1 <1>   0.1500 
 28 H       -4.9410    -2.9990     2.3960 H     1 <1>   0.0800 
 29 H       -4.5810    -3.8440     0.9180 H     1 <1>   0.0800 
 30 H       -6.3990    -3.8100    -1.0180 H     1 <1>   0.0800 
 31 H       -7.8900    -2.9650    -0.7260 H     1 <1>   0.0800 
 32 H       -2.3150    -1.3430    -2.8210 H     1 <1>   0.0800 
 33 H       -2.5000    -3.0600    -2.5060 H     1 <1>   0.0800 
 34 H       -9.4930     1.5180     0.7330 H     1 <1>   0.1500 
 35 H       -8.2240     0.6670    -3.2370 H     1 <1>   0.1500 
 36 H       -6.7300    -4.5690     2.9110 H     1 <1>   0.0800 
 37 H       -5.2470    -5.4340     2.6400 H     1 <1>   0.0800 
 38 H       -8.1610    -5.4010    -0.4780 H     1 <1>   0.0800 
 39 H       -8.5250    -4.5540     0.9970 H     1 <1>   0.0800 
 40 H       -1.5240    -1.1370    -0.5310 H     1 <1>   0.4500 
 41 H       -9.7470     1.8230    -1.6940 H     1 <1>   0.1500 
 42 H       -7.1680    -6.5180     1.5040 H     1 <1>   0.0800 
 43 H       -5.9500    -6.0150     0.3670 H     1 <1>   0.0800 
 44 H        0.0000    -1.1450    -2.4100 H     1 <1>   0.0800 
 45 H        0.1690    -2.8750    -2.2090 H     1 <1>   0.0800 
 46 H       -1.3040    -4.0660    -0.5250 H     1 <1>   0.0800 
 47 H       -2.4510    -3.1280     0.4050 H     1 <1>   0.0800 
 48 H        0.9090    -0.7460    -0.1900 H     1 <1>   0.0800 
 49 H        2.0110    -1.7330    -1.0940 H     1 <1>   0.0800 
 50 H       -0.4600    -3.7380     1.7350 H     1 <1>   0.0800 
 51 H       -0.6630    -2.0210     1.6090 H     1 <1>   0.0800 
 52 H        1.6920    -2.5480     1.2530 H     1 <1>   0.0800 
 53 H        1.2910    -3.7440     0.0550 H     1 <1>   0.0800 
@<TRIPOS>BOND
  1   1   2  1   
  2   1  24  1   
  3   2   3  1   
  4   2   4  1   
  5   2   5  1   
  6   3   6  3   
  7   4   7  ar  
  8   4   8  ar  
  9   5   9  1   
 10   5  10  1   
 11   5  25  1   
 12   6  11  1   
 13   7  12  ar  
 14   7  26  1   
 15   8  13  ar  
 16   8  27  1   
 17   9  14  1   
 18   9  28  1   
 19   9  29  1   
 20  10  15  1   
 21  10  30  1   
 22  10  31  1   
 23  11  16  1   
 24  11  32  1   
 25  11  33  1   
 26  12  17  ar  
 27  12  34  1   
 28  13  17  ar  
 29  13  35  1   
 30  14  18  1   
 31  14  36  1   
 32  14  37  1   
 33  15  18  1   
 34  15  38  1   
 35  15  39  1   
 36  16  19  1   
 37  16  20  1   
 38  16  40  1   
 39  17  41  1   
 40  18  42  1   
 41  18  43  1   
 42  19  21  1   
 43  19  44  1   
 44  19  45  1   
 45  20  22  1   
 46  20  46  1   
 47  20  47  1   
 48  21  23  1   
 49  21  48  1   
 50  21  49  1   
 51  22  23  1   
 52  22  50  1   
 53  22  51  1   
 54  23  52  1   
 55  23  53  1   
@<TRIPOS>SUBSTRUCTURE
  1 ****   3 GROUP 4 **** **** 0

# MOE 2024.06 (io_trps.svl 2023.06)
