@<TRIPOS>MOLECULE
NONAME
56 62 1 0 0 
SMALL
USER_CHARGES


@<TRIPOS>ATOM
  1 O        0.4350     3.5110    -2.3020 O.2   1 <1>  -0.5700 
  2 C        0.0240     3.3430    -1.1830 C.2   1 <1>   0.5690 
  3 N        0.7110     2.8810    -0.0670 N.am  1 <1>  -0.2370 
  4 C       -1.3980     3.5790    -0.7660 C.3   1 <1>  -0.0190 
  5 C        1.9860     2.2680    -0.0760 C.ar  1 <1>   0.1170 
  6 C       -0.0630     3.1330     1.0570 C.2   1 <1>   0.5690 
  7 C       -2.6200     4.4210    -1.1990 C.3   1 <1>   0.1960 
  8 C       -1.1300     4.1020     0.6460 C.3   1 <1>  -0.0190 
  9 C        2.8940     2.4880     0.9570 C.ar  1 <1>  -0.1500 
 10 C        2.3690     1.4290    -1.1190 C.ar  1 <1>  -0.1500 
 11 O        0.0760     2.7120     2.1770 O.2   1 <1>  -0.5700 
 12 C       -2.6290     5.5320    -0.1620 C.2   1 <1>  -0.2760 
 13 C       -3.7740     3.6470    -0.5790 C.2   1 <1>  -0.2880 
 14 C       -2.4960     4.6540     1.0770 C.3   1 <1>   0.1960 
 15 C        4.1440     1.8910     0.9570 C.ar  1 <1>  -0.1440 
 16 C        3.6160     0.8320    -1.1290 C.ar  1 <1>  -0.1500 
 17 C       -2.7120     6.8640    -0.3030 C.2   1 <1>  -0.2760 
 18 C       -3.6660     3.7360     0.7490 C.2   1 <1>  -0.2880 
 19 C        4.5030     1.0630    -0.0930 C.ar  1 <1>  -0.1500 
 20 C        5.1180     2.1410     2.0940 C.3   1 <1>  -0.0970 
 21 C       -2.8280     7.5860    -1.6490 C.3   1 <1>   0.0580 
 22 C       -2.6970     7.8680     0.8540 C.3   1 <1>   0.0580 
 23 C       -4.1310     8.4040    -1.6630 C.3   1 <1>  -0.1600 
 24 C       -1.6230     8.5290    -1.8100 C.3   1 <1>  -0.1600 
 25 C       -4.0000     8.6840     0.8210 C.3   1 <1>  -0.1600 
 26 C       -1.4930     8.8090     0.6760 C.3   1 <1>  -0.1600 
 27 C       -4.1220     9.4340    -0.5190 C.3   1 <1>  -0.0800 
 28 C       -1.6000     9.5590    -0.6650 C.3   1 <1>  -0.0800 
 29 C       -2.9100    10.3720    -0.6880 C.3   1 <1>  -0.1600 
 30 H       -1.7590     2.5630    -0.7110 H     1 <1>   0.0800 
 31 H       -2.7200     4.6720    -2.2390 H     1 <1>   0.0800 
 32 H       -0.5330     5.0020     0.5820 H     1 <1>   0.0800 
 33 H        2.6200     3.1310     1.7730 H     1 <1>   0.1500 
 34 H        1.6930     1.2410    -1.9340 H     1 <1>   0.1500 
 35 H       -4.4780     3.1200    -1.2000 H     1 <1>   0.1500 
 36 H       -2.5380     5.1700     2.0190 H     1 <1>   0.0800 
 37 H        3.8980     0.1880    -1.9440 H     1 <1>   0.1500 
 38 H       -4.2510     3.2990     1.5400 H     1 <1>   0.1500 
 39 H        5.4720     0.5950    -0.1070 H     1 <1>   0.1500 
 40 H        5.6290     1.2300     2.3520 H     1 <1>   0.0800 
 41 H        4.6010     2.4970     2.9670 H     1 <1>   0.0800 
 42 H        5.8450     2.8750     1.7970 H     1 <1>   0.0800 
 43 H       -2.8420     6.8900    -2.4660 H     1 <1>   0.0800 
 44 H       -2.6190     7.3710     1.8020 H     1 <1>   0.0800 
 45 H       -4.2340     8.9080    -2.6080 H     1 <1>   0.0800 
 46 H       -4.9690     7.7390    -1.5490 H     1 <1>   0.0800 
 47 H       -0.7150     7.9510    -1.8000 H     1 <1>   0.0800 
 48 H       -1.6820     9.0360    -2.7560 H     1 <1>   0.0800 
 49 H       -4.8380     8.0200     0.9430 H     1 <1>   0.0800 
 50 H       -4.0120     9.3860     1.6360 H     1 <1>   0.0800 
 51 H       -1.4600     9.5140     1.4880 H     1 <1>   0.0800 
 52 H       -0.5840     8.2340     0.7000 H     1 <1>   0.0800 
 53 H       -5.0330    10.0070    -0.5360 H     1 <1>   0.0800 
 54 H       -0.7570    10.2180    -0.7830 H     1 <1>   0.0800 
 55 H       -2.9000    11.1000     0.1040 H     1 <1>   0.0800 
 56 H       -2.9900    10.9050    -1.6190 H     1 <1>   0.0800 
@<TRIPOS>BOND
  1   1   2  2   
  2   2   3  am  
  3   2   4  1   
  4   3   5  1   
  5   3   6  am  
  6   4   7  1   
  7   4   8  1   
  8   4  30  1   
  9   5   9  ar  
 10   5  10  ar  
 11   6   8  1   
 12   6  11  2   
 13   7  12  1   
 14   7  13  1   
 15   7  31  1   
 16   8  14  1   
 17   8  32  1   
 18   9  15  ar  
 19   9  33  1   
 20  10  16  ar  
 21  10  34  1   
 22  12  14  1   
 23  12  17  2   
 24  13  18  2   
 25  13  35  1   
 26  14  18  1   
 27  14  36  1   
 28  15  19  ar  
 29  15  20  1   
 30  16  19  ar  
 31  16  37  1   
 32  17  21  1   
 33  17  22  1   
 34  18  38  1   
 35  19  39  1   
 36  20  40  1   
 37  20  41  1   
 38  20  42  1   
 39  21  23  1   
 40  21  24  1   
 41  21  43  1   
 42  22  25  1   
 43  22  26  1   
 44  22  44  1   
 45  23  27  1   
 46  23  45  1   
 47  23  46  1   
 48  24  28  1   
 49  24  47  1   
 50  24  48  1   
 51  25  27  1   
 52  25  49  1   
 53  25  50  1   
 54  26  28  1   
 55  26  51  1   
 56  26  52  1   
 57  27  29  1   
 58  27  53  1   
 59  28  29  1   
 60  28  54  1   
 61  29  55  1   
 62  29  56  1   
@<TRIPOS>SUBSTRUCTURE
  1 ****   8 GROUP 4 **** **** 0

# MOE 2024.06 (io_trps.svl 2023.06)
