@<TRIPOS>MOLECULE
NONAME
31 31 1 0 0 
SMALL
USER_CHARGES


@<TRIPOS>ATOM
  1 O       -0.1100    -0.3670    -0.3220 O.2   1 <1>  -0.5700 
  2 C       -0.4350    -1.4330     0.1440 C.2   1 <1>   0.5690 
  3 N       -1.7200    -1.6580     0.4720 N.am  1 <1>  -0.7300 
  4 C        0.6200    -2.5220     0.3140 C.3   1 <1>  -0.0190 
  5 C       -2.3590    -2.9440     0.8160 C.3   1 <1>   0.1400 
  6 C        2.0270    -1.8760     0.2810 C.3   1 <1>   0.4230 
  7 C        0.4030    -3.6590    -0.7170 C.3   1 <1>  -0.1600 
  8 C       -2.1490    -3.9640    -0.3080 C.3   1 <1>  -0.1600 
  9 N        2.3250    -1.3030    -1.0470 N.4   1 <1>  -0.8530 
 10 C        3.1650    -2.8280     0.6840 C.3   1 <1>  -0.1600 
 11 C       -0.7500    -4.6040    -0.3400 C.3   1 <1>  -0.1600 
 12 C        4.5250    -2.1230     0.8220 C.3   1 <1>  -0.2400 
 13 H       -2.3660    -0.8750     0.3210 H     1 <1>   0.3700 
 14 H        0.4950    -2.9300     1.3010 H     1 <1>   0.0800 
 15 H       -3.4160    -2.7750     0.9460 H     1 <1>   0.0800 
 16 H       -1.9670    -3.3170     1.7480 H     1 <1>   0.0800 
 17 H        2.0150    -1.0700     0.9980 H     1 <1>   0.0800 
 18 H        1.2850    -4.2680    -0.7950 H     1 <1>   0.0800 
 19 H        0.2100    -3.2420    -1.6920 H     1 <1>   0.0800 
 20 H       -2.3820    -3.5150    -1.2580 H     1 <1>   0.0800 
 21 H       -2.8610    -4.7570    -0.1560 H     1 <1>   0.0800 
 22 H        2.3450    -2.0180    -1.7760 H     1 <1>   0.4500 
 23 H        3.2080    -0.7860    -1.0340 H     1 <1>   0.4500 
 24 H        1.5560    -0.6370    -1.2530 H     1 <1>   0.4500 
 25 H        3.2600    -3.6390    -0.0170 H     1 <1>   0.0800 
 26 H        2.9200    -3.2620     1.6390 H     1 <1>   0.0800 
 27 H       -0.5470    -5.0600     0.6150 H     1 <1>   0.0800 
 28 H       -0.7730    -5.4030    -1.0630 H     1 <1>   0.0800 
 29 H        4.8900    -1.7680    -0.1250 H     1 <1>   0.0800 
 30 H        5.2520    -2.8180     1.2100 H     1 <1>   0.0800 
 31 H        4.4610    -1.2970     1.5090 H     1 <1>   0.0800 
@<TRIPOS>BOND
  1   1   2  2   
  2   2   3  am  
  3   2   4  1   
  4   3   5  1   
  5   3  13  1   
  6   4   6  1   
  7   4   7  1   
  8   4  14  1   
  9   5   8  1   
 10   5  15  1   
 11   5  16  1   
 12   6   9  1   
 13   6  10  1   
 14   6  17  1   
 15   7  11  1   
 16   7  18  1   
 17   7  19  1   
 18   8  11  1   
 19   8  20  1   
 20   8  21  1   
 21   9  22  1   
 22   9  23  1   
 23   9  24  1   
 24  10  12  1   
 25  10  25  1   
 26  10  26  1   
 27  11  27  1   
 28  11  28  1   
 29  12  29  1   
 30  12  30  1   
 31  12  31  1   
@<TRIPOS>SUBSTRUCTURE
  1 ****   4 GROUP 4 **** **** 0

# MOE 2024.06 (io_trps.svl 2023.06)
