@<TRIPOS>MOLECULE
NONAME
49 51 1 0 0 
SMALL
USER_CHARGES


@<TRIPOS>ATOM
  1 O        0.2420    -0.0050    -0.1480 O.3   1 <1>  -0.3630 
  2 C        1.4150    -0.7010    -0.1050 C.ar  1 <1>   0.0830 
  3 C        0.1630     1.3910     0.0440 C.3   1 <1>   0.0400 
  4 C        1.4400    -2.0670    -0.4350 C.ar  1 <1>   0.0830 
  5 C        2.6070    -0.0750     0.2560 C.ar  1 <1>  -0.1500 
  6 O        0.3790    -2.8430    -0.7990 O.3   1 <1>  -0.3630 
  7 C        2.6460    -2.7460    -0.4070 C.ar  1 <1>  -0.1500 
  8 C        3.8080    -0.7700     0.2840 C.ar  1 <1>  -0.1430 
  9 C       -0.9640    -2.4600    -0.6050 C.3   1 <1>   0.0400 
 10 C        3.8250    -2.1150    -0.0530 C.ar  1 <1>  -0.1430 
 11 C        5.0770    -0.0390     0.6930 C.3   1 <1>   0.4860 
 12 C        5.1190    -2.9120    -0.0530 C.3   1 <1>  -0.0160 
 13 N        6.2860    -0.7240     0.1380 N.4   1 <1>  -0.9590 
 14 C        6.2720    -2.1490     0.6030 C.3   1 <1>   0.3430 
 15 C        7.5690    -0.0120     0.4330 C.3   1 <1>   0.4230 
 16 C        7.4830     1.4670     0.0020 C.3   1 <1>  -0.1600 
 17 C        8.7310    -0.7050    -0.3050 C.3   1 <1>  -0.1600 
 18 C        8.8180     2.2030     0.1840 C.3   1 <1>  -0.1600 
 19 C       10.0620     0.0380    -0.1210 C.3   1 <1>  -0.1600 
 20 C        9.9560     1.5010    -0.5670 C.3   1 <1>  -0.0800 
 21 C       11.2830     2.2300    -0.3290 C.3   1 <1>  -0.2400 
 22 H       -0.8600     1.6890    -0.0980 H     1 <1>   0.0800 
 23 H        0.7870     1.8810    -0.6820 H     1 <1>   0.0800 
 24 H        0.4720     1.6250     1.0480 H     1 <1>   0.0800 
 25 H        2.6080     0.9650     0.5210 H     1 <1>   0.1500 
 26 H        2.6430    -3.7890    -0.6730 H     1 <1>   0.1500 
 27 H       -1.5870    -3.3120    -0.8040 H     1 <1>   0.0800 
 28 H       -1.2020    -1.6670    -1.2900 H     1 <1>   0.0800 
 29 H       -1.0930    -2.1400     0.4140 H     1 <1>   0.0800 
 30 H        5.1360    -0.0020     1.7680 H     1 <1>   0.0800 
 31 H        5.0200     0.9700     0.3210 H     1 <1>   0.0800 
 32 H        5.3840    -3.1510    -1.0680 H     1 <1>   0.0800 
 33 H        4.9740    -3.8410     0.4700 H     1 <1>   0.0800 
 34 H        6.1590    -0.7330    -0.8810 H     1 <1>   0.4500 
 35 H        7.1920    -2.6480     0.3550 H     1 <1>   0.0800 
 36 H        6.1530    -2.1760     1.6740 H     1 <1>   0.0800 
 37 H        7.7660    -0.0460     1.4930 H     1 <1>   0.0800 
 38 H        6.7570     1.9940     0.5930 H     1 <1>   0.0800 
 39 H        7.1980     1.5280    -1.0340 H     1 <1>   0.0800 
 40 H        8.5130    -0.7560    -1.3580 H     1 <1>   0.0800 
 41 H        8.8790    -1.7030     0.0640 H     1 <1>   0.0800 
 42 H        9.0600     2.2590     1.2320 H     1 <1>   0.0800 
 43 H        8.7210     3.2130    -0.1800 H     1 <1>   0.0800 
 44 H       10.8280    -0.4560    -0.6960 H     1 <1>   0.0800 
 45 H       10.3580    -0.0020     0.9150 H     1 <1>   0.0800 
 46 H        9.7450     1.5290    -1.6240 H     1 <1>   0.0800 
 47 H       11.5400     2.2300     0.7160 H     1 <1>   0.0800 
 48 H       11.2150     3.2500    -0.6640 H     1 <1>   0.0800 
 49 H       12.0760     1.7500    -0.8750 H     1 <1>   0.0800 
@<TRIPOS>BOND
  1   1   2  1   
  2   1   3  1   
  3   2   4  ar  
  4   2   5  ar  
  5   3  22  1   
  6   3  23  1   
  7   3  24  1   
  8   4   6  1   
  9   4   7  ar  
 10   5   8  ar  
 11   5  25  1   
 12   6   9  1   
 13   7  10  ar  
 14   7  26  1   
 15   8  10  ar  
 16   8  11  1   
 17   9  27  1   
 18   9  28  1   
 19   9  29  1   
 20  10  12  1   
 21  11  13  1   
 22  11  30  1   
 23  11  31  1   
 24  12  14  1   
 25  12  32  1   
 26  12  33  1   
 27  13  14  1   
 28  13  15  1   
 29  13  34  1   
 30  14  35  1   
 31  14  36  1   
 32  15  16  1   
 33  15  17  1   
 34  15  37  1   
 35  16  18  1   
 36  16  38  1   
 37  16  39  1   
 38  17  19  1   
 39  17  40  1   
 40  17  41  1   
 41  18  20  1   
 42  18  42  1   
 43  18  43  1   
 44  19  20  1   
 45  19  44  1   
 46  19  45  1   
 47  20  21  1   
 48  20  46  1   
 49  21  47  1   
 50  21  48  1   
 51  21  49  1   
@<TRIPOS>SUBSTRUCTURE
  1 ****  11 GROUP 4 **** **** 0

# MOE 2024.06 (io_trps.svl 2023.06)
