@<TRIPOS>MOLECULE
NONAME
44 44 1 0 0 
SMALL
USER_CHARGES


@<TRIPOS>ATOM
  1 O        0.1770    -1.0970     1.4910 O.2   1 <1>  -0.5700 
  2 C       -0.5160    -1.5960     0.6250 C.2   1 <1>   0.5440 
  3 N       -1.3240    -0.8010    -0.1330 N.am  1 <1>  -0.7300 
  4 C       -0.4740    -3.0180     0.3880 C.ar  1 <1>   0.0860 
  5 C       -1.4370     0.6680    -0.0150 C.3   1 <1>   0.1400 
  6 C        0.5510    -3.6220    -0.3630 C.ar  1 <1>   0.0860 
  7 C       -1.4930    -3.8130     0.9120 C.ar  1 <1>  -0.1500 
  8 C       -2.9140     1.0580    -0.0480 C.3   1 <1>  -0.1600 
  9 C        1.6530    -2.8780    -0.9480 C.2   1 <1>   0.5440 
 10 C        0.4900    -5.0020    -0.5640 C.ar  1 <1>  -0.1500 
 11 C       -1.5270    -5.1770     0.7030 C.ar  1 <1>  -0.1500 
 12 C       -3.0870     2.5770     0.0710 C.3   1 <1>  -0.1600 
 13 O        2.0730    -3.1820    -2.0480 O.2   1 <1>  -0.5700 
 14 N        2.2570    -1.8440    -0.2920 N.am  1 <1>  -0.7300 
 15 C       -0.5290    -5.7750    -0.0410 C.ar  1 <1>  -0.1500 
 16 C       -4.5670     2.9670     0.0400 C.3   1 <1>  -0.2400 
 17 C        3.3650    -1.0260    -0.8160 C.3   1 <1>   0.1400 
 18 C        4.1490    -0.4450     0.3600 C.3   1 <1>  -0.1600 
 19 C        5.3120     0.4290    -0.1260 C.3   1 <1>  -0.1600 
 20 C        6.0930     1.0130     1.0540 C.3   1 <1>  -0.2400 
 21 H       -1.8470    -1.2190    -0.9050 H     1 <1>   0.3700 
 22 H       -0.9110     1.1290    -0.8340 H     1 <1>   0.0800 
 23 H       -0.9900     0.9990     0.9080 H     1 <1>   0.0800 
 24 H       -2.2700    -3.3470     1.4940 H     1 <1>   0.1500 
 25 H       -3.4210     0.5780     0.7720 H     1 <1>   0.0800 
 26 H       -3.3520     0.7220    -0.9710 H     1 <1>   0.0800 
 27 H        1.2640    -5.4740    -1.1460 H     1 <1>   0.1500 
 28 H       -2.3230    -5.7730     1.1170 H     1 <1>   0.1500 
 29 H       -2.5750     3.0660    -0.7420 H     1 <1>   0.0800 
 30 H       -2.6500     2.9200     0.9940 H     1 <1>   0.0800 
 31 H        1.8140    -1.4810     0.5670 H     1 <1>   0.3700 
 32 H       -0.5450    -6.8380    -0.2140 H     1 <1>   0.1500 
 33 H       -5.0210     2.6550    -0.8840 H     1 <1>   0.0800 
 34 H       -4.6680     4.0350     0.1250 H     1 <1>   0.0800 
 35 H       -5.0940     2.5090     0.8580 H     1 <1>   0.0800 
 36 H        2.9610    -0.2340    -1.4230 H     1 <1>   0.0800 
 37 H        4.0070    -1.6370    -1.4280 H     1 <1>   0.0800 
 38 H        4.5340    -1.2520     0.9580 H     1 <1>   0.0800 
 39 H        3.4870     0.1490     0.9670 H     1 <1>   0.0800 
 40 H        4.9320     1.2340    -0.7330 H     1 <1>   0.0800 
 41 H        5.9770    -0.1620    -0.7340 H     1 <1>   0.0800 
 42 H        5.4500     1.6240     1.6640 H     1 <1>   0.0800 
 43 H        6.9030     1.6220     0.6950 H     1 <1>   0.0800 
 44 H        6.5010     0.2240     1.6620 H     1 <1>   0.0800 
@<TRIPOS>BOND
  1   1   2  2   
  2   2   3  am  
  3   2   4  1   
  4   3   5  1   
  5   3  21  1   
  6   4   6  ar  
  7   4   7  ar  
  8   5   8  1   
  9   5  22  1   
 10   5  23  1   
 11   6   9  1   
 12   6  10  ar  
 13   7  11  ar  
 14   7  24  1   
 15   8  12  1   
 16   8  25  1   
 17   8  26  1   
 18   9  13  2   
 19   9  14  am  
 20  10  15  ar  
 21  10  27  1   
 22  11  15  ar  
 23  11  28  1   
 24  12  16  1   
 25  12  29  1   
 26  12  30  1   
 27  14  17  1   
 28  14  31  1   
 29  15  32  1   
 30  16  33  1   
 31  16  34  1   
 32  16  35  1   
 33  17  18  1   
 34  17  36  1   
 35  17  37  1   
 36  18  19  1   
 37  18  38  1   
 38  18  39  1   
 39  19  20  1   
 40  19  40  1   
 41  19  41  1   
 42  20  42  1   
 43  20  43  1   
 44  20  44  1   
@<TRIPOS>SUBSTRUCTURE
  1 ****   2 GROUP 4 **** **** 0

# MOE 2024.06 (io_trps.svl 2023.06)
