@<TRIPOS>MOLECULE
NONAME
44 46 1 0 0 
SMALL
USER_CHARGES


@<TRIPOS>ATOM
  1 O       -0.2510     3.0710     2.2350 O.2   1 <1>  -0.5700 
  2 C       -0.1300     3.0040     1.0250 C.2   1 <1>   0.5440 
  3 N        1.1370     2.9650     0.4750 N.am  1 <1>  -0.6600 
  4 C       -1.3180     2.9700     0.1880 C.ar  1 <1>   0.0860 
  5 C        1.3990     2.8750    -0.9900 C.3   1 <1>   0.1400 
  6 C        2.3670     2.9960     1.3140 C.3   1 <1>   0.1400 
  7 C       -1.8660     1.7520    -0.2320 C.ar  1 <1>  -0.1440 
  8 C       -1.9320     4.1550    -0.2360 C.ar  1 <1>  -0.1430 
  9 C        2.2500     4.0660    -1.4280 C.3   1 <1>  -0.1600 
 10 C        3.2250     4.1940     0.9110 C.3   1 <1>  -0.1600 
 11 C       -2.9750     1.7290    -1.0600 C.ar  1 <1>  -0.1500 
 12 C       -1.2530     0.4330     0.2230 C.3   1 <1>  -0.0970 
 13 C       -3.0400     4.1140    -1.0640 C.ar  1 <1>  -0.1500 
 14 C       -1.3910     5.5060     0.2160 C.3   1 <1>  -0.0970 
 15 C        3.5200     4.1620    -0.5910 C.3   1 <1>   0.5600 
 16 C       -3.5660     2.9060    -1.4840 C.ar  1 <1>  -0.1430 
 17 O        4.3480     3.0880    -0.8990 O.3   1 <1>  -0.5600 
 18 O        4.2280     5.2910    -0.9720 O.3   1 <1>  -0.5600 
 19 C       -4.7830     2.8710    -2.3900 C.3   1 <1>  -0.0970 
 20 C        5.6650     3.5090    -0.8830 C.3   1 <1>   0.1200 
 21 C        5.5810     5.0240    -0.8920 C.3   1 <1>   0.1200 
 22 H        0.4820     2.8630    -1.5520 H     1 <1>   0.0800 
 23 H        1.9270     1.9580    -1.1930 H     1 <1>   0.0800 
 24 H        2.9170     2.0820     1.1630 H     1 <1>   0.0800 
 25 H        2.1180     3.0650     2.3600 H     1 <1>   0.0800 
 26 H        1.6780     4.9660    -1.3070 H     1 <1>   0.0800 
 27 H        2.5130     3.9670    -2.4650 H     1 <1>   0.0800 
 28 H        4.1380     4.1910     1.4740 H     1 <1>   0.0800 
 29 H        2.6850     5.0930     1.1450 H     1 <1>   0.0800 
 30 H       -3.3890     0.7880    -1.3780 H     1 <1>   0.1500 
 31 H       -0.2500     0.3420    -0.1540 H     1 <1>   0.0800 
 32 H       -1.8270    -0.4050    -0.1270 H     1 <1>   0.0800 
 33 H       -1.2220     0.3960     1.2980 H     1 <1>   0.0800 
 34 H       -3.5040     5.0300    -1.3840 H     1 <1>   0.1500 
 35 H       -1.4090     5.5650     1.2900 H     1 <1>   0.0800 
 36 H       -1.9810     6.3130    -0.1770 H     1 <1>   0.0800 
 37 H       -0.3770     5.6310    -0.1180 H     1 <1>   0.0800 
 38 H       -4.7640     1.9970    -3.0150 H     1 <1>   0.0800 
 39 H       -4.8060     3.7400    -3.0230 H     1 <1>   0.0800 
 40 H       -5.6780     2.8520    -1.7940 H     1 <1>   0.0800 
 41 H        6.1630     3.1290    -1.7570 H     1 <1>   0.0800 
 42 H        6.1430     3.1430     0.0080 H     1 <1>   0.0800 
 43 H        5.9690     5.4470     0.0180 H     1 <1>   0.0800 
 44 H        6.0760     5.4530    -1.7450 H     1 <1>   0.0800 
@<TRIPOS>BOND
  1   1   2  2   
  2   2   3  am  
  3   2   4  1   
  4   3   5  1   
  5   3   6  1   
  6   4   7  ar  
  7   4   8  ar  
  8   5   9  1   
  9   5  22  1   
 10   5  23  1   
 11   6  10  1   
 12   6  24  1   
 13   6  25  1   
 14   7  11  ar  
 15   7  12  1   
 16   8  13  ar  
 17   8  14  1   
 18   9  15  1   
 19   9  26  1   
 20   9  27  1   
 21  10  15  1   
 22  10  28  1   
 23  10  29  1   
 24  11  16  ar  
 25  11  30  1   
 26  12  31  1   
 27  12  32  1   
 28  12  33  1   
 29  13  16  ar  
 30  13  34  1   
 31  14  35  1   
 32  14  36  1   
 33  14  37  1   
 34  15  17  1   
 35  15  18  1   
 36  16  19  1   
 37  17  20  1   
 38  18  21  1   
 39  19  38  1   
 40  19  39  1   
 41  19  40  1   
 42  20  21  1   
 43  20  41  1   
 44  20  42  1   
 45  21  43  1   
 46  21  44  1   
@<TRIPOS>SUBSTRUCTURE
  1 ****   3 GROUP 4 **** **** 0

# MOE 2024.06 (io_trps.svl 2023.06)
