@<TRIPOS>MOLECULE
NONAME
29 30 1 0 0 
SMALL
USER_CHARGES


@<TRIPOS>ATOM
  1 F       -1.5280     1.1250    -1.5650 F     1 <1>  -0.1900 
  2 C       -0.8430     2.0550    -0.9530 C.ar  1 <1>   0.1900 
  3 C       -1.3070     2.5330     0.2650 C.ar  1 <1>  -0.1440 
  4 C        0.3080     2.5250    -1.5550 C.ar  1 <1>  -0.1500 
  5 C       -0.5790     3.5280     0.9100 C.ar  1 <1>  -0.1500 
  6 C       -2.5790     1.9700     0.8710 C.3   1 <1>   0.4870 
  7 C        1.0010     3.5140    -0.8870 C.ar  1 <1>   0.1900 
  8 C        0.5810     4.0230     0.3310 C.ar  1 <1>  -0.1500 
  9 N       -3.7410     2.3620     0.0310 N.4   1 <1>  -0.9590 
 10 F        2.0910     3.9880    -1.4230 F     1 <1>  -0.1900 
 11 C       -3.9290     3.8460    -0.1100 C.3   1 <1>   0.3430 
 12 C       -5.0230     1.6880     0.4240 C.3   1 <1>   0.3430 
 13 C       -5.1290     4.1780    -1.0280 C.3   1 <1>   0.1200 
 14 C       -6.2080     2.1650    -0.4480 C.3   1 <1>   0.1200 
 15 O       -5.7720     3.0130    -1.4750 O.3   1 <1>  -0.5600 
 16 H        0.6520     2.1420    -2.4990 H     1 <1>   0.1500 
 17 H       -0.8950     3.9240     1.8610 H     1 <1>   0.1500 
 18 H       -2.7040     2.3400     1.8750 H     1 <1>   0.0800 
 19 H       -2.5020     0.8950     0.9110 H     1 <1>   0.0800 
 20 H        1.1620     4.7920     0.8120 H     1 <1>   0.1500 
 21 H       -3.5470     2.0320    -0.9290 H     1 <1>   0.4500 
 22 H       -3.0400     4.2950    -0.5240 H     1 <1>   0.0800 
 23 H       -4.0960     4.2910     0.8570 H     1 <1>   0.0800 
 24 H       -5.2500     1.8930     1.4580 H     1 <1>   0.0800 
 25 H       -4.9230     0.6200     0.3190 H     1 <1>   0.0800 
 26 H       -4.7930     4.7180    -1.8960 H     1 <1>   0.0800 
 27 H       -5.8480     4.7910    -0.5100 H     1 <1>   0.0800 
 28 H       -6.9350     2.6910     0.1470 H     1 <1>   0.0800 
 29 H       -6.6960     1.3210    -0.9050 H     1 <1>   0.0800 
@<TRIPOS>BOND
  1   1   2  1   
  2   2   3  ar  
  3   2   4  ar  
  4   3   5  ar  
  5   3   6  1   
  6   4   7  ar  
  7   4  16  1   
  8   5   8  ar  
  9   5  17  1   
 10   6   9  1   
 11   6  18  1   
 12   6  19  1   
 13   7   8  ar  
 14   7  10  1   
 15   8  20  1   
 16   9  11  1   
 17   9  12  1   
 18   9  21  1   
 19  11  13  1   
 20  11  22  1   
 21  11  23  1   
 22  12  14  1   
 23  12  24  1   
 24  12  25  1   
 25  13  15  1   
 26  13  26  1   
 27  13  27  1   
 28  14  15  1   
 29  14  28  1   
 30  14  29  1   
@<TRIPOS>SUBSTRUCTURE
  1 ****   3 GROUP 4 **** **** 0

# MOE 2024.06 (io_trps.svl 2023.06)
