@<TRIPOS>MOLECULE
NONAME
40 40 1 0 0 
SMALL
USER_CHARGES


@<TRIPOS>ATOM
  1 O       -1.2030     6.8480     0.0200 O.3   1 <1>  -0.3630 
  2 C       -0.0030     6.2380     0.1930 C.ar  1 <1>   0.0830 
  3 C       -2.4050     6.1250     0.0770 C.3   1 <1>   0.1200 
  4 C        1.1220     7.0440     0.1180 C.ar  1 <1>  -0.1500 
  5 C        0.1460     4.8750     0.4360 C.ar  1 <1>  -0.1500 
  6 C       -3.5400     7.1200    -0.1620 C.3   1 <1>  -0.1600 
  7 C        2.3950     6.5160     0.2800 C.ar  1 <1>  -0.1440 
  8 C        1.4110     4.3410     0.5990 C.ar  1 <1>  -0.1500 
  9 C       -4.8960     6.4180    -0.1270 C.3   1 <1>   0.3430 
 10 C        2.5280     5.1560     0.5220 C.ar  1 <1>  -0.1500 
 11 C        3.6150     7.4300     0.1910 C.3   1 <1>   0.0640 
 12 N       -6.0020     7.4110    -0.2570 N.4   1 <1>  -0.9590 
 13 C        4.5280     7.0140    -0.9670 C.3   1 <1>  -0.2400 
 14 C        4.3870     7.4420     1.5150 C.3   1 <1>  -0.2400 
 15 C       -7.3130     6.7920     0.1120 C.3   1 <1>   0.2630 
 16 C       -6.0780     8.0030    -1.6320 C.3   1 <1>   0.2630 
 17 H       -2.4790     5.6720     1.0510 H     1 <1>   0.0800 
 18 H       -2.3790     5.3690    -0.6900 H     1 <1>   0.0800 
 19 H        0.9890     8.0930    -0.0700 H     1 <1>   0.1500 
 20 H       -0.6970     4.2170     0.5020 H     1 <1>   0.1500 
 21 H       -3.3830     7.5800    -1.1210 H     1 <1>   0.0800 
 22 H       -3.5000     7.8700     0.6080 H     1 <1>   0.0800 
 23 H        1.5310     3.2880     0.7870 H     1 <1>   0.1500 
 24 H       -4.9910     5.8970     0.8130 H     1 <1>   0.0800 
 25 H       -4.9550     5.6910    -0.9220 H     1 <1>   0.0800 
 26 H        3.5040     4.7230     0.6510 H     1 <1>   0.1500 
 27 H        3.2810     8.4350    -0.0010 H     1 <1>   0.0800 
 28 H       -5.8110     8.1760     0.4100 H     1 <1>   0.4500 
 29 H        4.9320     6.0310    -0.8030 H     1 <1>   0.0800 
 30 H        5.3420     7.7090    -1.0680 H     1 <1>   0.0800 
 31 H        3.9680     7.0050    -1.8860 H     1 <1>   0.0800 
 32 H        4.7880     6.4690     1.7340 H     1 <1>   0.0800 
 33 H        3.7300     7.7300     2.3160 H     1 <1>   0.0800 
 34 H        5.1980     8.1460     1.4670 H     1 <1>   0.0800 
 35 H       -7.5490     5.9830    -0.5610 H     1 <1>   0.0800 
 36 H       -8.1020     7.5250     0.0580 H     1 <1>   0.0800 
 37 H       -7.2750     6.4040     1.1170 H     1 <1>   0.0800 
 38 H       -6.2450     7.2300    -2.3650 H     1 <1>   0.0800 
 39 H       -5.1610     8.5160    -1.8740 H     1 <1>   0.0800 
 40 H       -6.8880     8.7120    -1.6900 H     1 <1>   0.0800 
@<TRIPOS>BOND
  1   1   2  1   
  2   1   3  1   
  3   2   4  ar  
  4   2   5  ar  
  5   3   6  1   
  6   3  17  1   
  7   3  18  1   
  8   4   7  ar  
  9   4  19  1   
 10   5   8  ar  
 11   5  20  1   
 12   6   9  1   
 13   6  21  1   
 14   6  22  1   
 15   7  10  ar  
 16   7  11  1   
 17   8  10  ar  
 18   8  23  1   
 19   9  12  1   
 20   9  24  1   
 21   9  25  1   
 22  10  26  1   
 23  11  13  1   
 24  11  14  1   
 25  11  27  1   
 26  12  15  1   
 27  12  16  1   
 28  12  28  1   
 29  13  29  1   
 30  13  30  1   
 31  13  31  1   
 32  14  32  1   
 33  14  33  1   
 34  14  34  1   
 35  15  35  1   
 36  15  36  1   
 37  15  37  1   
 38  16  38  1   
 39  16  39  1   
 40  16  40  1   
@<TRIPOS>SUBSTRUCTURE
  1 ****   1 GROUP 4 **** **** 0

# MOE 2024.06 (io_trps.svl 2023.06)
