@<TRIPOS>MOLECULE
NONAME
40 41 1 0 0 
SMALL
USER_CHARGES


@<TRIPOS>ATOM
  1 CL      -2.4980     3.1000     2.3970 Cl    1 <1>  -0.1770 
  2 C       -1.4900     3.2960     0.9760 C.ar  1 <1>   0.1770 
  3 C       -1.9300     2.7740    -0.2410 C.ar  1 <1>   0.1170 
  4 C       -0.2890     3.9670     1.1020 C.ar  1 <1>  -0.1500 
  5 N       -3.1580     2.0900    -0.2940 N.am  1 <1>  -0.5470 
  6 C       -1.1120     2.9480    -1.3570 C.ar  1 <1>  -0.1500 
  7 C        0.4940     4.1210    -0.0250 C.ar  1 <1>   0.1770 
  8 C       -4.0560     1.9470    -1.3180 C.2   1 <1>   0.5690 
  9 C        0.0950     3.6190    -1.2510 C.ar  1 <1>  -0.1500 
 10 CL       2.0170     4.9650     0.1020 Cl    1 <1>  -0.1770 
 11 O       -3.8580     2.3660    -2.4310 O.2   1 <1>  -0.5700 
 12 C       -5.3820     1.2330    -1.0180 C.3   1 <1>   0.1710 
 13 N       -6.5000     2.1300    -0.5940 N.3   1 <1>  -0.8100 
 14 C       -7.7920     1.4120    -0.5010 C.3   1 <1>   0.1100 
 15 C       -6.2300     2.9140     0.6380 C.3   1 <1>   0.1100 
 16 C       -8.9720     2.3690    -0.1930 C.3   1 <1>   0.3430 
 17 C       -7.4130     3.8400     1.0200 C.3   1 <1>   0.3430 
 18 N       -8.5010     3.7820    -0.0140 N.4   1 <1>  -0.9590 
 19 C       -9.6130     4.7410     0.1920 C.3   1 <1>   0.3430 
 20 C       -9.1130     6.1640    -0.0300 C.3   1 <1>  -0.2400 
 21 H        0.0300     4.3610     2.0490 H     1 <1>   0.1500 
 22 H       -3.4630     1.7330     0.6120 H     1 <1>   0.3700 
 23 H       -1.4140     2.5570    -2.3130 H     1 <1>   0.1500 
 24 H        0.7250     3.7540    -2.1130 H     1 <1>   0.1500 
 25 H       -5.2130     0.4820    -0.2670 H     1 <1>   0.0800 
 26 H       -5.6720     0.7260    -1.9220 H     1 <1>   0.0800 
 27 H       -7.7380     0.6570     0.2660 H     1 <1>   0.0800 
 28 H       -7.9910     0.9120    -1.4340 H     1 <1>   0.0800 
 29 H       -5.3610     3.5320     0.4860 H     1 <1>   0.0800 
 30 H       -6.0190     2.2520     1.4610 H     1 <1>   0.0800 
 31 H       -9.4770     2.0320     0.6970 H     1 <1>   0.0800 
 32 H       -9.6770     2.3200    -1.0070 H     1 <1>   0.0800 
 33 H       -7.0440     4.8480     1.1140 H     1 <1>   0.0800 
 34 H       -7.8020     3.5430     1.9790 H     1 <1>   0.0800 
 35 H       -8.0140     3.9950    -0.9000 H     1 <1>   0.4500 
 36 H      -10.0150     4.6390     1.1870 H     1 <1>   0.0800 
 37 H      -10.4020     4.5360    -0.5150 H     1 <1>   0.0800 
 38 H       -8.3980     6.4520     0.7190 H     1 <1>   0.0800 
 39 H       -9.9450     6.8430     0.0360 H     1 <1>   0.0800 
 40 H       -8.6780     6.2680    -1.0080 H     1 <1>   0.0800 
@<TRIPOS>BOND
  1   1   2  1   
  2   2   3  ar  
  3   2   4  ar  
  4   3   5  1   
  5   3   6  ar  
  6   4   7  ar  
  7   4  21  1   
  8   5   8  am  
  9   5  22  1   
 10   6   9  ar  
 11   6  23  1   
 12   7   9  ar  
 13   7  10  1   
 14   8  11  2   
 15   8  12  1   
 16   9  24  1   
 17  12  13  1   
 18  12  25  1   
 19  12  26  1   
 20  13  14  1   
 21  13  15  1   
 22  14  16  1   
 23  14  27  1   
 24  14  28  1   
 25  15  17  1   
 26  15  29  1   
 27  15  30  1   
 28  16  18  1   
 29  16  31  1   
 30  16  32  1   
 31  17  18  1   
 32  17  33  1   
 33  17  34  1   
 34  18  19  1   
 35  18  35  1   
 36  19  20  1   
 37  19  36  1   
 38  19  37  1   
 39  20  38  1   
 40  20  39  1   
 41  20  40  1   
@<TRIPOS>SUBSTRUCTURE
  1 ****   5 GROUP 4 **** **** 0

# MOE 2024.06 (io_trps.svl 2023.06)
