@<TRIPOS>MOLECULE
NONAME
32 32 1 0 0 
SMALL
USER_CHARGES


@<TRIPOS>ATOM
  1 S        0.2380    -0.2530    -0.7490 S.o2  1 <1>   1.3330 
  2 O        0.6350    -1.4990    -0.1430 O.2   1 <1>  -0.6500 
  3 O       -0.2020    -0.2090    -2.1200 O.2   1 <1>  -0.6500 
  4 N        1.6080     0.7760    -0.7200 N.am  1 <1>  -0.7570 
  5 C       -0.9310     0.6230     0.2920 C.3   1 <1>  -0.0550 
  6 C        2.3910     1.0120     0.4000 C.ar  1 <1>   0.1990 
  7 C       -2.2860    -0.0900     0.4350 C.3   1 <1>  -0.1600 
  8 C        2.4850     2.2980     0.9460 C.ar  1 <1>  -0.1430 
  9 C        3.1000    -0.0270     0.9890 C.ar  1 <1>  -0.1500 
 10 C       -3.2390     0.7030     1.3370 C.3   1 <1>  -0.1600 
 11 C        3.2680     2.5280     2.0690 C.ar  1 <1>  -0.1500 
 12 C        1.7350     3.4680     0.3180 C.3   1 <1>  -0.0970 
 13 C        3.8710     0.2310     2.1020 C.ar  1 <1>   0.1900 
 14 C       -4.5830    -0.0150     1.4770 C.3   1 <1>  -0.2400 
 15 C        3.9690     1.4900     2.6590 C.ar  1 <1>  -0.1500 
 16 F        4.5340    -0.7500     2.6530 F     1 <1>  -0.1900 
 17 H        2.1090     0.6510    -1.5960 H     1 <1>   0.4200 
 18 H       -1.0970     1.6000    -0.1200 H     1 <1>   0.0800 
 19 H       -0.5010     0.7470     1.2670 H     1 <1>   0.0800 
 20 H       -2.1250    -1.0710     0.8520 H     1 <1>   0.0800 
 21 H       -2.7270    -0.2120    -0.5400 H     1 <1>   0.0800 
 22 H        3.0520    -1.0240     0.5910 H     1 <1>   0.1500 
 23 H       -3.4040     1.6830     0.9210 H     1 <1>   0.0800 
 24 H       -2.8010     0.8230     2.3140 H     1 <1>   0.0800 
 25 H        3.3390     3.5150     2.4930 H     1 <1>   0.1500 
 26 H        0.6760     3.3230     0.4180 H     1 <1>   0.0800 
 27 H        1.9770     3.5420    -0.7280 H     1 <1>   0.0800 
 28 H        1.9990     4.3970     0.7900 H     1 <1>   0.0800 
 29 H       -5.0530    -0.1280     0.5150 H     1 <1>   0.0800 
 30 H       -5.2400     0.5530     2.1120 H     1 <1>   0.0800 
 31 H       -4.4470    -0.9900     1.9120 H     1 <1>   0.0800 
 32 H        4.5810     1.6510     3.5290 H     1 <1>   0.1500 
@<TRIPOS>BOND
  1   1   2  2   
  2   1   3  2   
  3   1   4  am  
  4   1   5  1   
  5   4   6  1   
  6   4  17  1   
  7   5   7  1   
  8   5  18  1   
  9   5  19  1   
 10   6   8  ar  
 11   6   9  ar  
 12   7  10  1   
 13   7  20  1   
 14   7  21  1   
 15   8  11  ar  
 16   8  12  1   
 17   9  13  ar  
 18   9  22  1   
 19  10  14  1   
 20  10  23  1   
 21  10  24  1   
 22  11  15  ar  
 23  11  25  1   
 24  12  26  1   
 25  12  27  1   
 26  12  28  1   
 27  13  15  ar  
 28  13  16  1   
 29  14  29  1   
 30  14  30  1   
 31  14  31  1   
 32  15  32  1   
@<TRIPOS>SUBSTRUCTURE
  1 ****   6 GROUP 4 **** **** 0

# MOE 2024.06 (io_trps.svl 2023.06)
