@<TRIPOS>MOLECULE
NONAME
39 41 1 0 0 
SMALL
USER_CHARGES


@<TRIPOS>ATOM
  1 O        0.1890     2.7850     2.7260 O.2   1 <1>  -0.5700 
  2 C       -0.0460     2.9270     1.5180 C.2   1 <1>   0.5330 
  3 C        1.0960     2.9670     0.6260 C.ar  1 <1>   0.0860 
  4 C       -1.4110     3.0710     1.0960 C.cat 1 <1>   0.7510 
  5 C        2.1750     2.1010     0.8220 C.ar  1 <1>  -0.1500 
  6 C        1.2040     3.8790    -0.4280 C.ar  1 <1>  -0.1500 
  7 N       -2.4450     3.2550     1.9780 N.pl3 1 <1>  -0.7000 
  8 N       -1.9730     3.0580    -0.1410 N.pl3 1 <1>  -0.8080 
  9 C        3.2930     2.1370     0.0110 C.ar  1 <1>  -0.1500 
 10 C        2.3170     3.9220    -1.2460 C.ar  1 <1>  -0.1500 
 11 C       -3.6160     3.3550     1.2930 C.2   1 <1>   0.1820 
 12 O       -1.3810     2.8460    -1.2540 O.3   1 <1>  -0.4420 
 13 C       -3.3330     3.2290    -0.0200 C.2   1 <1>   0.1820 
 14 C        3.3760     3.0450    -1.0310 C.ar  1 <1>   0.0830 
 15 C       -4.9370     3.5930     2.0000 C.3   1 <1>   0.0080 
 16 C       -4.2460     3.2770    -1.2330 C.3   1 <1>   0.0080 
 17 O        4.4990     3.0180    -1.7850 O.3   1 <1>  -0.3630 
 18 C       -6.0920     2.7400     1.4570 C.3   1 <1>  -0.1600 
 19 C       -5.5610     2.5050    -1.0540 C.3   1 <1>  -0.1600 
 20 C        4.6380     3.8330    -2.9270 C.3   1 <1>   0.0400 
 21 C       -6.5060     3.0760     0.0160 C.3   1 <1>  -0.1600 
 22 H        2.1340     1.3890     1.6290 H     1 <1>   0.1500 
 23 H        0.3930     4.5610    -0.6200 H     1 <1>   0.1500 
 24 H       -2.2660     3.2690     2.9820 H     1 <1>   0.4500 
 25 H        4.1120     1.4610     0.1780 H     1 <1>   0.1500 
 26 H        2.3390     4.6360    -2.0460 H     1 <1>   0.1500 
 27 H       -5.1860     4.6370     1.9260 H     1 <1>   0.0800 
 28 H       -4.8140     3.3620     3.0430 H     1 <1>   0.0800 
 29 H       -3.7250     2.8450    -2.0690 H     1 <1>   0.0800 
 30 H       -4.4410     4.3040    -1.4790 H     1 <1>   0.0800 
 31 H       -6.9450     2.9040     2.0930 H     1 <1>   0.0800 
 32 H       -5.8370     1.6970     1.5310 H     1 <1>   0.0800 
 33 H       -5.3390     1.4740    -0.8380 H     1 <1>   0.0800 
 34 H       -6.0760     2.5240    -1.9990 H     1 <1>   0.0800 
 35 H        5.5860     3.6110    -3.3820 H     1 <1>   0.0800 
 36 H        4.6090     4.8650    -2.6250 H     1 <1>   0.0800 
 37 H        3.8410     3.6090    -3.6130 H     1 <1>   0.0800 
 38 H       -6.6140     4.1400    -0.1100 H     1 <1>   0.0800 
 39 H       -7.4770     2.6400    -0.1500 H     1 <1>   0.0800 
@<TRIPOS>BOND
  1   1   2  2   
  2   2   3  1   
  3   2   4  1   
  4   3   5  ar  
  5   3   6  ar  
  6   4   7  ar  
  7   4   8  ar  
  8   5   9  ar  
  9   5  22  1   
 10   6  10  ar  
 11   6  23  1   
 12   7  11  1   
 13   7  24  1   
 14   8  12  1   
 15   8  13  1   
 16   9  14  ar  
 17   9  25  1   
 18  10  14  ar  
 19  10  26  1   
 20  11  13  2   
 21  11  15  1   
 22  13  16  1   
 23  14  17  1   
 24  15  18  1   
 25  15  27  1   
 26  15  28  1   
 27  16  19  1   
 28  16  29  1   
 29  16  30  1   
 30  17  20  1   
 31  18  21  1   
 32  18  31  1   
 33  18  32  1   
 34  19  21  1   
 35  19  33  1   
 36  19  34  1   
 37  20  35  1   
 38  20  36  1   
 39  20  37  1   
 40  21  38  1   
 41  21  39  1   
@<TRIPOS>SUBSTRUCTURE
  1 ****   4 GROUP 4 **** **** 0

# MOE 2024.06 (io_trps.svl 2023.06)
