@<TRIPOS>MOLECULE
NONAME
43 46 1 0 0 
SMALL
USER_CHARGES


@<TRIPOS>ATOM
  1 F        0.2290    -0.8470     0.9290 F     1 <1>  -0.1900 
  2 C        1.4020    -1.3560     0.6510 C.ar  1 <1>   0.1900 
  3 C        1.8270    -1.3740    -0.6640 C.ar  1 <1>  -0.1500 
  4 C        2.1730    -1.8580     1.6820 C.ar  1 <1>  -0.1500 
  5 C        3.0690    -1.9140    -0.9500 C.ar  1 <1>  -0.1500 
  6 C        3.4130    -2.3950     1.3810 C.ar  1 <1>  -0.1500 
  7 C        3.8710    -2.4280     0.0650 C.ar  1 <1>   0.1000 
  8 N        5.1130    -2.9640    -0.2560 N.pl3 1 <1>  -0.8380 
  9 C        5.2450    -4.4440    -0.1330 C.3   1 <1>   0.2090 
 10 C        6.3050    -2.1960     0.2080 C.3   1 <1>   0.2090 
 11 C        6.5310    -4.9360    -0.8320 C.3   1 <1>   0.3430 
 12 C        7.5860    -2.7030    -0.4880 C.3   1 <1>   0.3430 
 13 N        7.7640    -4.2020    -0.3650 N.4   1 <1>  -0.9590 
 14 C        8.9860    -4.6680    -1.0750 C.3   1 <1>   0.4860 
 15 C       10.1950    -4.0520    -0.4000 C.ar  1 <1>  -0.1430 
 16 C       10.8320    -2.9600    -0.9860 C.ar  1 <1>  -0.1500 
 17 C       10.6670    -4.5710     0.8080 C.ar  1 <1>  -0.1500 
 18 C       11.9150    -2.4100    -0.3310 C.ar  1 <1>   0.0830 
 19 C       11.7630    -4.0030     1.4470 C.ar  1 <1>  -0.1500 
 20 O       12.6590    -1.3650    -0.7020 O.3   1 <1>  -0.3620 
 21 C       12.3680    -2.9150     0.8520 C.ar  1 <1>   0.0830 
 22 C       13.6650    -1.2040     0.2990 C.3   1 <1>   0.4000 
 23 O       13.4200    -2.2120     1.2790 O.3   1 <1>  -0.3620 
 24 H        1.1980    -0.9740    -1.4390 H     1 <1>   0.1500 
 25 H        1.8050    -1.8240     2.6920 H     1 <1>   0.1500 
 26 H        3.4260    -1.9410    -1.9630 H     1 <1>   0.1500 
 27 H        4.0260    -2.7890     2.1700 H     1 <1>   0.1500 
 28 H        4.3880    -4.9130    -0.5870 H     1 <1>   0.0800 
 29 H        5.2610    -4.7220     0.9070 H     1 <1>   0.0800 
 30 H        6.4060    -2.2890     1.2760 H     1 <1>   0.0800 
 31 H        6.1650    -1.1520    -0.0200 H     1 <1>   0.0800 
 32 H        6.4050    -4.7900    -1.8920 H     1 <1>   0.0800 
 33 H        6.6410    -5.9930    -0.6550 H     1 <1>   0.0800 
 34 H        8.4360    -2.1950    -0.0630 H     1 <1>   0.0800 
 35 H        7.5270    -2.4320    -1.5280 H     1 <1>   0.0800 
 36 H        7.9060    -4.4000     0.6330 H     1 <1>   0.4500 
 37 H        8.9520    -4.3750    -2.1120 H     1 <1>   0.0800 
 38 H        9.0600    -5.7420    -1.0250 H     1 <1>   0.0800 
 39 H       10.5170    -2.5330    -1.9220 H     1 <1>   0.1500 
 40 H       10.1960    -5.4240     1.2660 H     1 <1>   0.1500 
 41 H       12.1440    -4.3880     2.3770 H     1 <1>   0.1500 
 42 H       13.5770    -0.2320     0.7490 H     1 <1>   0.0800 
 43 H       14.6370    -1.3550    -0.1380 H     1 <1>   0.0800 
@<TRIPOS>BOND
  1   1   2  1   
  2   2   3  ar  
  3   2   4  ar  
  4   3   5  ar  
  5   3  24  1   
  6   4   6  ar  
  7   4  25  1   
  8   5   7  ar  
  9   5  26  1   
 10   6   7  ar  
 11   6  27  1   
 12   7   8  1   
 13   8   9  1   
 14   8  10  1   
 15   9  11  1   
 16   9  28  1   
 17   9  29  1   
 18  10  12  1   
 19  10  30  1   
 20  10  31  1   
 21  11  13  1   
 22  11  32  1   
 23  11  33  1   
 24  12  13  1   
 25  12  34  1   
 26  12  35  1   
 27  13  14  1   
 28  13  36  1   
 29  14  15  1   
 30  14  37  1   
 31  14  38  1   
 32  15  16  ar  
 33  15  17  ar  
 34  16  18  ar  
 35  16  39  1   
 36  17  19  ar  
 37  17  40  1   
 38  18  20  1   
 39  18  21  ar  
 40  19  21  ar  
 41  19  41  1   
 42  20  22  1   
 43  21  23  1   
 44  22  23  1   
 45  22  42  1   
 46  22  43  1   
@<TRIPOS>SUBSTRUCTURE
  1 ****  12 GROUP 4 **** **** 0

# MOE 2024.06 (io_trps.svl 2023.06)
