@<TRIPOS>MOLECULE
NONAME
53 55 1 0 0 
SMALL
USER_CHARGES


@<TRIPOS>ATOM
  1 S       -0.4210    -0.1300    -0.1660 S.o2  1 <1>   1.2040 
  2 O       -0.9460    -0.2420    -1.5110 O.2   1 <1>  -0.6500 
  3 O       -1.0610    -0.8370     0.9230 O.2   1 <1>  -0.6500 
  4 C        1.3360    -0.5640    -0.1890 C.ar  1 <1>  -0.0090 
  5 C       -0.3260     1.6110     0.2670 C.3   1 <1>   0.0890 
  6 C        1.9830    -0.9980     0.9620 C.ar  1 <1>  -0.1500 
  7 C        2.0900    -0.4410    -1.3510 C.ar  1 <1>  -0.1500 
  8 C       -1.6810     2.3030     0.3640 C.ar  1 <1>  -0.1440 
  9 C        3.3360    -1.2910     0.9590 C.ar  1 <1>  -0.1500 
 10 C        3.4430    -0.7330    -1.3640 C.ar  1 <1>  -0.1500 
 11 C       -2.5180     2.0530     1.4400 C.ar  1 <1>  -0.1500 
 12 C       -2.0920     3.1890    -0.6190 C.ar  1 <1>  -0.1500 
 13 C        4.0680    -1.1570    -0.2060 C.ar  1 <1>  -0.1500 
 14 C       -3.7450     2.6840     1.5300 C.ar  1 <1>  -0.1500 
 15 C       -3.3210     3.8160    -0.5220 C.ar  1 <1>  -0.1500 
 16 C       -4.1790     3.5740     0.5490 C.ar  1 <1>   0.0860 
 17 C       -5.4690     4.2350     0.6340 C.2   1 <1>   0.5440 
 18 O       -5.5320     5.4390     0.4730 O.2   1 <1>  -0.5700 
 19 N       -6.6320     3.5360     0.8810 N.am  1 <1>  -0.6600 
 20 C       -6.8070     2.0820     0.5660 C.3   1 <1>   0.1400 
 21 C       -7.9120     4.2360     1.2170 C.3   1 <1>   0.1400 
 22 C       -7.8630     1.8790    -0.5350 C.3   1 <1>   0.1400 
 23 C       -8.9500     4.0450     0.1020 C.3   1 <1>   0.1400 
 24 N       -9.1310     2.5940    -0.2020 N.am  1 <1>  -0.6600 
 25 C      -10.3450     1.9750    -0.0830 C.2   1 <1>   0.7800 
 26 O      -11.3550     2.5680     0.2460 O.2   1 <1>  -0.5700 
 27 O      -10.4010     0.6660    -0.3370 O.3   1 <1>  -0.4300 
 28 C      -11.6180    -0.0370    -0.2350 C.3   1 <1>   0.1200 
 29 C      -11.3480    -1.4990    -0.5770 C.3   1 <1>  -0.2400 
 30 H        0.2720     2.1230    -0.4620 H     1 <1>   0.0800 
 31 H        0.1710     1.7130     1.2130 H     1 <1>   0.0800 
 32 H        1.4230    -1.1140     1.8760 H     1 <1>   0.1500 
 33 H        1.6140    -0.1190    -2.2630 H     1 <1>   0.1500 
 34 H        3.8180    -1.6280     1.8610 H     1 <1>   0.1500 
 35 H        4.0090    -0.6330    -2.2750 H     1 <1>   0.1500 
 36 H       -2.2200     1.3630     2.2130 H     1 <1>   0.1500 
 37 H       -1.4620     3.3970    -1.4670 H     1 <1>   0.1500 
 38 H        5.1200    -1.3860    -0.2120 H     1 <1>   0.1500 
 39 H       -4.3830     2.4880     2.3740 H     1 <1>   0.1500 
 40 H       -3.6310     4.5100    -1.2850 H     1 <1>   0.1500 
 41 H       -7.1200     1.5640     1.4550 H     1 <1>   0.0800 
 42 H       -5.8810     1.6470     0.2370 H     1 <1>   0.0800 
 43 H       -7.7430     5.2880     1.3690 H     1 <1>   0.0800 
 44 H       -8.3030     3.8340     2.1350 H     1 <1>   0.0800 
 45 H       -8.0380     0.8260    -0.6650 H     1 <1>   0.0800 
 46 H       -7.4800     2.2640    -1.4650 H     1 <1>   0.0800 
 47 H       -8.6130     4.5540    -0.7840 H     1 <1>   0.0800 
 48 H       -9.8820     4.4890     0.4050 H     1 <1>   0.0800 
 49 H      -12.3220     0.3980    -0.9250 H     1 <1>   0.0800 
 50 H      -11.9880     0.0640     0.7710 H     1 <1>   0.0800 
 51 H      -10.9720    -1.5820    -1.5810 H     1 <1>   0.0800 
 52 H      -12.2610    -2.0620    -0.5060 H     1 <1>   0.0800 
 53 H      -10.6350    -1.9150     0.1120 H     1 <1>   0.0800 
@<TRIPOS>BOND
  1   1   2  2   
  2   1   3  2   
  3   1   4  1   
  4   1   5  1   
  5   4   6  ar  
  6   4   7  ar  
  7   5   8  1   
  8   5  30  1   
  9   5  31  1   
 10   6   9  ar  
 11   6  32  1   
 12   7  10  ar  
 13   7  33  1   
 14   8  11  ar  
 15   8  12  ar  
 16   9  13  ar  
 17   9  34  1   
 18  10  13  ar  
 19  10  35  1   
 20  11  14  ar  
 21  11  36  1   
 22  12  15  ar  
 23  12  37  1   
 24  13  38  1   
 25  14  16  ar  
 26  14  39  1   
 27  15  16  ar  
 28  15  40  1   
 29  16  17  1   
 30  17  18  2   
 31  17  19  am  
 32  19  20  1   
 33  19  21  1   
 34  20  22  1   
 35  20  41  1   
 36  20  42  1   
 37  21  23  1   
 38  21  43  1   
 39  21  44  1   
 40  22  24  1   
 41  22  45  1   
 42  22  46  1   
 43  23  24  1   
 44  23  47  1   
 45  23  48  1   
 46  24  25  am  
 47  25  26  2   
 48  25  27  1   
 49  27  28  1   
 50  28  29  1   
 51  28  49  1   
 52  28  50  1   
 53  29  51  1   
 54  29  52  1   
 55  29  53  1   
@<TRIPOS>SUBSTRUCTURE
  1 ****  14 GROUP 4 **** **** 0

# MOE 2024.06 (io_trps.svl 2023.06)
