@<TRIPOS>MOLECULE
NONAME
28 28 1 0 0 
SMALL
USER_CHARGES


@<TRIPOS>ATOM
  1 BR      -0.5410     0.6060     0.0960 Br    1 <1>  -0.1110 
  2 C        1.2610     1.2780     0.0380 C.ar  1 <1>   0.1110 
  3 C        1.9380     1.4730     1.2250 C.ar  1 <1>  -0.1500 
  4 C        1.8310     1.5500    -1.1900 C.ar  1 <1>  -0.1500 
  5 C        3.2350     1.9570     1.1750 C.ar  1 <1>  -0.1500 
  6 C        3.1280     2.0330    -1.2260 C.ar  1 <1>  -0.1500 
  7 C        3.8390     2.2390    -0.0480 C.ar  1 <1>  -0.1430 
  8 C        5.2680     2.7730    -0.1200 C.3   1 <1>   0.3640 
  9 N        6.1410     2.0450     0.8160 N.am  1 <1>  -0.7300 
 10 C        5.2990     4.2700     0.2150 C.3   1 <1>  -0.1600 
 11 C        6.5540     0.7630     0.7620 C.2   1 <1>   0.5690 
 12 C        6.6940     4.9040     0.0850 C.3   1 <1>  -0.2400 
 13 O        7.2900     0.3350     1.6120 O.2   1 <1>  -0.5700 
 14 C        6.1100    -0.1540    -0.3530 C.3   1 <1>  -0.1790 
 15 H        1.4640     1.2500     2.1640 H     1 <1>   0.1500 
 16 H        1.2720     1.3860    -2.0940 H     1 <1>   0.1500 
 17 H        3.7740     2.1100     2.0940 H     1 <1>   0.1500 
 18 H        3.5800     2.2480    -2.1790 H     1 <1>   0.1500 
 19 H        5.6490     2.6340    -1.1170 H     1 <1>   0.0800 
 20 H        6.4820     2.5900     1.6060 H     1 <1>   0.3700 
 21 H        4.9210     4.4220     1.2110 H     1 <1>   0.0800 
 22 H        4.6300     4.7770    -0.4590 H     1 <1>   0.0800 
 23 H        7.3850     4.4690     0.7870 H     1 <1>   0.0800 
 24 H        6.6360     5.9600     0.2810 H     1 <1>   0.0800 
 25 H        7.0810     4.7630    -0.9090 H     1 <1>   0.0800 
 26 H        5.0520    -0.3250    -0.2800 H     1 <1>   0.0800 
 27 H        6.6190    -1.0960    -0.2680 H     1 <1>   0.0800 
 28 H        6.3430     0.2820    -1.3050 H     1 <1>   0.0800 
@<TRIPOS>BOND
  1   1   2  1   
  2   2   3  ar  
  3   2   4  ar  
  4   3   5  ar  
  5   3  15  1   
  6   4   6  ar  
  7   4  16  1   
  8   5   7  ar  
  9   5  17  1   
 10   6   7  ar  
 11   6  18  1   
 12   7   8  1   
 13   8   9  1   
 14   8  10  1   
 15   8  19  1   
 16   9  11  am  
 17   9  20  1   
 18  10  12  1   
 19  10  21  1   
 20  10  22  1   
 21  11  13  2   
 22  11  14  1   
 23  12  23  1   
 24  12  24  1   
 25  12  25  1   
 26  14  26  1   
 27  14  27  1   
 28  14  28  1   
@<TRIPOS>SUBSTRUCTURE
  1 ****   7 GROUP 4 **** **** 0

# MOE 2024.06 (io_trps.svl 2023.06)
