@<TRIPOS>MOLECULE
NONAME
46 47 1 0 0 
SMALL
USER_CHARGES


@<TRIPOS>ATOM
  1 O       -4.0270    -0.0270    -1.2540 O.3   1 <1>  -0.6800 
  2 C       -5.0140    -0.3070    -0.3180 C.3   1 <1>   0.4240 
  3 C       -5.8300     1.0020    -0.1190 C.ar  1 <1>  -0.1440 
  4 C       -5.8800    -1.4650    -0.9120 C.3   1 <1>  -0.0800 
  5 C       -4.2510    -0.7630     0.9590 C.3   1 <1>   0.0400 
  6 C       -5.9560     1.9460    -1.1370 C.ar  1 <1>  -0.1500 
  7 C       -6.4650     1.2750     1.0900 C.ar  1 <1>  -0.1500 
  8 C       -6.3940    -1.2020    -2.3460 C.3   1 <1>  -0.2400 
  9 C       -7.1000    -1.8290    -0.0420 C.3   1 <1>  -0.2400 
 10 C       -3.5270     0.3700     1.6120 C.1   1 <1>  -0.2000 
 11 C       -6.6680     3.1180    -0.9490 C.ar  1 <1>  -0.1500 
 12 C       -7.1720     2.4490     1.2850 C.ar  1 <1>  -0.1500 
 13 C       -3.1510     1.4390     1.9590 C.1   1 <1>  -0.2000 
 14 C       -7.2720     3.3750     0.2660 C.ar  1 <1>  -0.1500 
 15 C       -2.9230     2.8950     2.1030 C.3   1 <1>   0.5430 
 16 N       -3.5650     3.5190     0.9200 N.4   1 <1>  -0.9590 
 17 C       -2.8730     3.1930    -0.3530 C.3   1 <1>   0.3430 
 18 C       -3.6970     4.9860     0.9940 C.3   1 <1>   0.3430 
 19 C       -3.2170     4.3370    -1.3000 C.3   1 <1>  -0.1600 
 20 C       -3.9030     5.4110    -0.4510 C.3   1 <1>  -0.1600 
 21 H       -4.4280    -0.1220    -2.1370 H     1 <1>   0.4000 
 22 H       -5.2550    -2.3410    -0.9530 H     1 <1>   0.0800 
 23 H       -3.5520    -1.5400     0.7050 H     1 <1>   0.0800 
 24 H       -4.9340    -1.1710     1.6770 H     1 <1>   0.0800 
 25 H       -5.5080     1.7790    -2.1010 H     1 <1>   0.1500 
 26 H       -6.4240     0.5710     1.9030 H     1 <1>   0.1500 
 27 H       -7.0310    -0.3350    -2.3730 H     1 <1>   0.0800 
 28 H       -6.9700    -2.0440    -2.6890 H     1 <1>   0.0800 
 29 H       -5.5860    -1.0680    -3.0420 H     1 <1>   0.0800 
 30 H       -7.7900    -1.0040     0.0170 H     1 <1>   0.0800 
 31 H       -6.8110    -2.1080     0.9540 H     1 <1>   0.0800 
 32 H       -7.6230    -2.6670    -0.4700 H     1 <1>   0.0800 
 33 H       -6.7630     3.8250    -1.7560 H     1 <1>   0.1500 
 34 H       -7.6570     2.6340     2.2290 H     1 <1>   0.1500 
 35 H       -7.8350     4.2820     0.4110 H     1 <1>   0.1500 
 36 H       -1.8690     3.1140     2.1280 H     1 <1>   0.0800 
 37 H       -3.3850     3.2450     3.0110 H     1 <1>   0.0800 
 38 H       -4.5080     3.0980     0.8360 H     1 <1>   0.4500 
 39 H       -3.2040     2.2400    -0.7400 H     1 <1>   0.0800 
 40 H       -1.8070     3.1580    -0.1990 H     1 <1>   0.0800 
 41 H       -2.7830     5.4180     1.3680 H     1 <1>   0.0800 
 42 H       -4.5230     5.2830     1.6200 H     1 <1>   0.0800 
 43 H       -3.8680     3.9920    -2.0840 H     1 <1>   0.0800 
 44 H       -2.3150     4.7140    -1.7500 H     1 <1>   0.0800 
 45 H       -3.4940     6.3910    -0.6280 H     1 <1>   0.0800 
 46 H       -4.9570     5.4380    -0.6640 H     1 <1>   0.0800 
@<TRIPOS>BOND
  1   1   2  1   
  2   1  21  1   
  3   2   3  1   
  4   2   4  1   
  5   2   5  1   
  6   3   6  ar  
  7   3   7  ar  
  8   4   8  1   
  9   4   9  1   
 10   4  22  1   
 11   5  10  1   
 12   5  23  1   
 13   5  24  1   
 14   6  11  ar  
 15   6  25  1   
 16   7  12  ar  
 17   7  26  1   
 18   8  27  1   
 19   8  28  1   
 20   8  29  1   
 21   9  30  1   
 22   9  31  1   
 23   9  32  1   
 24  10  13  3   
 25  11  14  ar  
 26  11  33  1   
 27  12  14  ar  
 28  12  34  1   
 29  13  15  1   
 30  14  35  1   
 31  15  16  1   
 32  15  36  1   
 33  15  37  1   
 34  16  17  1   
 35  16  18  1   
 36  16  38  1   
 37  17  19  1   
 38  17  39  1   
 39  17  40  1   
 40  18  20  1   
 41  18  41  1   
 42  18  42  1   
 43  19  20  1   
 44  19  43  1   
 45  19  44  1   
 46  20  45  1   
 47  20  46  1   
@<TRIPOS>SUBSTRUCTURE
  1 ****   3 GROUP 4 **** **** 0

# MOE 2024.06 (io_trps.svl 2023.06)
