@<TRIPOS>MOLECULE
NONAME
41 42 1 0 0 
SMALL
USER_CHARGES


@<TRIPOS>ATOM
  1 O       -3.2910    -4.3560    -1.5750 O.3   1 <1>  -0.6800 
  2 C       -2.5360    -4.8720    -0.5500 C.3   1 <1>   0.2000 
  3 C       -1.2320    -4.0790    -0.4750 C.3   1 <1>  -0.1600 
  4 C       -2.2840    -6.3420    -0.8780 C.3   1 <1>  -0.1600 
  5 C       -0.2470    -4.7390     0.4860 C.3   1 <1>   0.3430 
  6 C       -1.2840    -6.9580     0.0940 C.3   1 <1>   0.3430 
  7 N       -0.0270    -6.1610     0.0870 N.4   1 <1>  -0.9590 
  8 C        1.0370    -6.8060     0.9060 C.3   1 <1>   0.4860 
  9 C        2.3390    -6.0710     0.6640 C.ar  1 <1>  -0.1440 
 10 C        3.0160    -6.2180    -0.5370 C.ar  1 <1>  -0.1500 
 11 C        2.8610    -5.2350     1.6400 C.ar  1 <1>  -0.1500 
 12 C        4.1900    -5.5240    -0.7640 C.ar  1 <1>  -0.1500 
 13 C        4.0370    -4.5430     1.4080 C.ar  1 <1>  -0.1500 
 14 C        4.7110    -4.6780     0.2040 C.ar  1 <1>  -0.1440 
 15 C        6.0070    -3.9040    -0.0340 C.3   1 <1>   0.0630 
 16 C        5.8590    -2.9410    -1.2160 C.3   1 <1>  -0.2400 
 17 C        7.1830    -4.8610    -0.2560 C.3   1 <1>  -0.2400 
 18 H       -3.5860    -3.4440    -1.3830 H     1 <1>   0.4000 
 19 H       -3.1000    -4.7790     0.3650 H     1 <1>   0.0800 
 20 H       -1.4350    -3.0800    -0.1330 H     1 <1>   0.0800 
 21 H       -0.7800    -4.0160    -1.4500 H     1 <1>   0.0800 
 22 H       -1.9080    -6.4370    -1.8820 H     1 <1>   0.0800 
 23 H       -3.2130    -6.8820    -0.8170 H     1 <1>   0.0800 
 24 H       -0.6350    -4.6950     1.4910 H     1 <1>   0.0800 
 25 H        0.6870    -4.1970     0.4600 H     1 <1>   0.0800 
 26 H       -1.0820    -7.9760    -0.2020 H     1 <1>   0.0800 
 27 H       -1.7060    -6.9690     1.0860 H     1 <1>   0.0800 
 28 H        0.3330    -6.1360    -0.8770 H     1 <1>   0.4500 
 29 H        1.1560    -7.8380     0.6170 H     1 <1>   0.0800 
 30 H        0.7800    -6.7690     1.9520 H     1 <1>   0.0800 
 31 H        2.6470    -6.8710    -1.3100 H     1 <1>   0.1500 
 32 H        2.3680    -5.1100     2.5890 H     1 <1>   0.1500 
 33 H        4.7050    -5.6460    -1.7010 H     1 <1>   0.1500 
 34 H        4.4300    -3.8970     2.1750 H     1 <1>   0.1500 
 35 H        6.2260    -3.3160     0.8410 H     1 <1>   0.0800 
 36 H        5.6910    -3.4780    -2.1320 H     1 <1>   0.0800 
 37 H        6.7500    -2.3480    -1.3260 H     1 <1>   0.0800 
 38 H        5.0290    -2.2790    -1.0480 H     1 <1>   0.0800 
 39 H        7.0450    -5.4400    -1.1510 H     1 <1>   0.0800 
 40 H        7.2690    -5.5340     0.5780 H     1 <1>   0.0800 
 41 H        8.1000    -4.3080    -0.3440 H     1 <1>   0.0800 
@<TRIPOS>BOND
  1   1   2  1   
  2   1  18  1   
  3   2   3  1   
  4   2   4  1   
  5   2  19  1   
  6   3   5  1   
  7   3  20  1   
  8   3  21  1   
  9   4   6  1   
 10   4  22  1   
 11   4  23  1   
 12   5   7  1   
 13   5  24  1   
 14   5  25  1   
 15   6   7  1   
 16   6  26  1   
 17   6  27  1   
 18   7   8  1   
 19   7  28  1   
 20   8   9  1   
 21   8  29  1   
 22   8  30  1   
 23   9  10  ar  
 24   9  11  ar  
 25  10  12  ar  
 26  10  31  1   
 27  11  13  ar  
 28  11  32  1   
 29  12  14  ar  
 30  12  33  1   
 31  13  14  ar  
 32  13  34  1   
 33  14  15  1   
 34  15  16  1   
 35  15  17  1   
 36  15  35  1   
 37  16  36  1   
 38  16  37  1   
 39  16  38  1   
 40  17  39  1   
 41  17  40  1   
 42  17  41  1   
@<TRIPOS>SUBSTRUCTURE
  1 ****   9 GROUP 4 **** **** 0

# MOE 2024.06 (io_trps.svl 2023.06)
