@<TRIPOS>MOLECULE
NONAME
35 36 1 0 0 
SMALL
USER_CHARGES


@<TRIPOS>ATOM
  1 CL       1.3340     1.1550    -1.8020 Cl    1 <1>  -0.1770 
  2 C        0.6430     2.2680    -0.6430 C.ar  1 <1>   0.1770 
  3 C        1.3350     2.6480     0.5120 C.ar  1 <1>   0.0860 
  4 C       -0.6250     2.7400    -0.9300 C.ar  1 <1>  -0.1500 
  5 C        2.6700     2.1940     0.8520 C.2   1 <1>   0.5440 
  6 C        0.6670     3.5230     1.3730 C.ar  1 <1>  -0.1500 
  7 C       -1.2590     3.6110    -0.0610 C.ar  1 <1>  -0.1430 
  8 O        2.9690     2.0050     2.0150 O.2   1 <1>  -0.5700 
  9 N        3.6280     2.0050    -0.1030 N.am  1 <1>  -0.7300 
 10 C       -0.6020     3.9980     1.0950 C.ar  1 <1>  -0.1500 
 11 C       -2.6500     4.1380    -0.3610 C.3   1 <1>  -0.0970 
 12 C        4.9980     1.5230     0.1290 C.3   1 <1>   0.2200 
 13 C        5.9820     2.4890    -0.5390 C.3   1 <1>  -0.1600 
 14 C        5.1270     0.1100    -0.4500 C.3   1 <1>  -0.1600 
 15 C        7.4260     1.9770    -0.4280 C.3   1 <1>  -0.1600 
 16 C        6.5690    -0.4070    -0.3400 C.3   1 <1>  -0.1600 
 17 C        7.5570     0.5600    -1.0050 C.3   1 <1>  -0.1600 
 18 H       -1.1120     2.4190    -1.8330 H     1 <1>   0.1500 
 19 H        1.1600     3.8320     2.2800 H     1 <1>   0.1500 
 20 H        3.3570     2.0560    -1.0850 H     1 <1>   0.3700 
 21 H       -1.0790     4.6730     1.7850 H     1 <1>   0.1500 
 22 H       -3.1340     3.5380    -1.1110 H     1 <1>   0.0800 
 23 H       -2.5880     5.1510    -0.7170 H     1 <1>   0.0800 
 24 H       -3.2540     4.1190     0.5280 H     1 <1>   0.0800 
 25 H        5.2020     1.4900     1.1870 H     1 <1>   0.0800 
 26 H        5.9080     3.4510    -0.0640 H     1 <1>   0.0800 
 27 H        5.7290     2.5990    -1.5780 H     1 <1>   0.0800 
 28 H        4.8340     0.1160    -1.4850 H     1 <1>   0.0800 
 29 H        4.4690    -0.5520     0.0860 H     1 <1>   0.0800 
 30 H        7.7210     1.9680     0.6080 H     1 <1>   0.0800 
 31 H        8.0870     2.6440    -0.9530 H     1 <1>   0.0800 
 32 H        6.6410    -1.3750    -0.8050 H     1 <1>   0.0800 
 33 H        6.8260    -0.5210     0.6990 H     1 <1>   0.0800 
 34 H        8.5630     0.2040    -0.8590 H     1 <1>   0.0800 
 35 H        7.3690     0.5890    -2.0650 H     1 <1>   0.0800 
@<TRIPOS>BOND
  1   1   2  1   
  2   2   3  ar  
  3   2   4  ar  
  4   3   5  1   
  5   3   6  ar  
  6   4   7  ar  
  7   4  18  1   
  8   5   8  2   
  9   5   9  am  
 10   6  10  ar  
 11   6  19  1   
 12   7  10  ar  
 13   7  11  1   
 14   9  12  1   
 15   9  20  1   
 16  10  21  1   
 17  11  22  1   
 18  11  23  1   
 19  11  24  1   
 20  12  13  1   
 21  12  14  1   
 22  12  25  1   
 23  13  15  1   
 24  13  26  1   
 25  13  27  1   
 26  14  16  1   
 27  14  28  1   
 28  14  29  1   
 29  15  17  1   
 30  15  30  1   
 31  15  31  1   
 32  16  17  1   
 33  16  32  1   
 34  16  33  1   
 35  17  34  1   
 36  17  35  1   
@<TRIPOS>SUBSTRUCTURE
  1 ****   5 GROUP 4 **** **** 0

# MOE 2024.06 (io_trps.svl 2023.06)
