@<TRIPOS>MOLECULE
NONAME
51 53 1 0 0 
SMALL
USER_CHARGES


@<TRIPOS>ATOM
  1 O       -0.4810    -0.2510     0.4510 O.3   1 <1>  -0.3630 
  2 C       -1.6600    -0.9020     0.3070 C.ar  1 <1>   0.0830 
  3 C        0.2770     0.1630    -0.6620 C.3   1 <1>   0.1200 
  4 C       -2.2720    -1.1440    -0.9190 C.ar  1 <1>  -0.1500 
  5 C       -2.2690    -1.3470     1.4680 C.ar  1 <1>  -0.1500 
  6 C        1.5560     0.8160    -0.1450 C.3   1 <1>  -0.2400 
  7 C       -3.4800    -1.8170    -0.9710 C.ar  1 <1>  -0.1500 
  8 C       -3.4750    -2.0210     1.4170 C.ar  1 <1>  -0.1500 
  9 C       -4.0920    -2.2540     0.1960 C.ar  1 <1>  -0.1430 
 10 C       -5.4250    -2.9760     0.1440 C.3   1 <1>   0.4860 
 11 N       -6.4970    -1.9780    -0.1070 N.4   1 <1>  -0.9590 
 12 C       -6.5920    -0.9610     1.0070 C.3   1 <1>   0.3430 
 13 C       -7.8330    -2.6330    -0.3500 C.3   1 <1>   0.3430 
 14 C       -7.7080     0.0750     0.7670 C.3   1 <1>   0.2090 
 15 C       -8.9550    -1.6060    -0.6040 C.3   1 <1>   0.2090 
 16 N       -9.0130    -0.5960     0.4930 N.pl3 1 <1>  -0.8380 
 17 C      -10.1080     0.2780     0.4160 C.ar  1 <1>   0.1000 
 18 C      -10.2800     1.2340    -0.6030 C.ar  1 <1>   0.0830 
 19 C      -11.0680     0.1820     1.4120 C.ar  1 <1>  -0.1500 
 20 O       -9.3250     1.3220    -1.5820 O.3   1 <1>  -0.3630 
 21 C      -11.4040     2.0550    -0.5890 C.ar  1 <1>  -0.1500 
 22 C      -12.1810     1.0020     1.4180 C.ar  1 <1>  -0.1500 
 23 C       -9.4250     2.2810    -2.6140 C.3   1 <1>   0.0400 
 24 C      -12.3490     1.9390     0.4160 C.ar  1 <1>  -0.1500 
 25 H       -0.3050     0.8680    -1.2300 H     1 <1>   0.0800 
 26 H        0.5080    -0.7020    -1.2600 H     1 <1>   0.0800 
 27 H       -1.8180    -0.8160    -1.8360 H     1 <1>   0.1500 
 28 H       -1.7830    -1.1610     2.4100 H     1 <1>   0.1500 
 29 H        1.3150     1.6690     0.4640 H     1 <1>   0.0800 
 30 H        2.1580     1.1440    -0.9730 H     1 <1>   0.0800 
 31 H        2.1230     0.1100     0.4340 H     1 <1>   0.0800 
 32 H       -3.9280    -1.9970    -1.9330 H     1 <1>   0.1500 
 33 H       -3.9170    -2.3590     2.3400 H     1 <1>   0.1500 
 34 H       -5.6020    -3.4880     1.0750 H     1 <1>   0.0800 
 35 H       -5.4020    -3.7060    -0.6490 H     1 <1>   0.0800 
 36 H       -6.2370    -1.4540    -0.9520 H     1 <1>   0.4500 
 37 H       -5.6530    -0.4410     1.1120 H     1 <1>   0.0800 
 38 H       -6.7970    -1.4620     1.9380 H     1 <1>   0.0800 
 39 H       -8.1100    -3.2180     0.5120 H     1 <1>   0.0800 
 40 H       -7.7710    -3.2970    -1.1960 H     1 <1>   0.0800 
 41 H       -7.4380     0.7090    -0.0590 H     1 <1>   0.0800 
 42 H       -7.8100     0.6990     1.6390 H     1 <1>   0.0800 
 43 H       -9.9020    -2.1160    -0.6600 H     1 <1>   0.0800 
 44 H       -8.7900    -1.1160    -1.5470 H     1 <1>   0.0800 
 45 H      -10.9380    -0.5470     2.1910 H     1 <1>   0.1500 
 46 H      -11.5730     2.7950    -1.3480 H     1 <1>   0.1500 
 47 H      -12.9150     0.9110     2.2000 H     1 <1>   0.1500 
 48 H       -8.5670     2.1780    -3.2540 H     1 <1>   0.0800 
 49 H       -9.4370     3.2640    -2.1790 H     1 <1>   0.0800 
 50 H      -10.3230     2.0970    -3.1770 H     1 <1>   0.0800 
 51 H      -13.2150     2.5780     0.4190 H     1 <1>   0.1500 
@<TRIPOS>BOND
  1   1   2  1   
  2   1   3  1   
  3   2   4  ar  
  4   2   5  ar  
  5   3   6  1   
  6   3  25  1   
  7   3  26  1   
  8   4   7  ar  
  9   4  27  1   
 10   5   8  ar  
 11   5  28  1   
 12   6  29  1   
 13   6  30  1   
 14   6  31  1   
 15   7   9  ar  
 16   7  32  1   
 17   8   9  ar  
 18   8  33  1   
 19   9  10  1   
 20  10  11  1   
 21  10  34  1   
 22  10  35  1   
 23  11  12  1   
 24  11  13  1   
 25  11  36  1   
 26  12  14  1   
 27  12  37  1   
 28  12  38  1   
 29  13  15  1   
 30  13  39  1   
 31  13  40  1   
 32  14  16  1   
 33  14  41  1   
 34  14  42  1   
 35  15  16  1   
 36  15  43  1   
 37  15  44  1   
 38  16  17  1   
 39  17  18  ar  
 40  17  19  ar  
 41  18  20  1   
 42  18  21  ar  
 43  19  22  ar  
 44  19  45  1   
 45  20  23  1   
 46  21  24  ar  
 47  21  46  1   
 48  22  24  ar  
 49  22  47  1   
 50  23  48  1   
 51  23  49  1   
 52  23  50  1   
 53  24  51  1   
@<TRIPOS>SUBSTRUCTURE
  1 ****  12 GROUP 4 **** **** 0

# MOE 2024.06 (io_trps.svl 2023.06)
