@<TRIPOS>MOLECULE
NONAME
52 54 1 0 0 
SMALL
USER_CHARGES


@<TRIPOS>ATOM
  1 O        1.4320    -1.3860    -1.6180 O.2   1 <1>  -0.5700 
  2 C        0.7380    -1.2970    -0.6390 C.2   1 <1>   0.6590 
  3 O        1.1460    -0.6690     0.4550 O.3   1 <1>  -0.4300 
  4 C       -0.6350    -1.9380    -0.5230 C.3   1 <1>  -0.0190 
  5 C        2.4780    -0.2190     0.6140 C.3   1 <1>   0.1200 
  6 C       -0.5910    -3.1840     0.3950 C.3   1 <1>  -0.0190 
  7 C       -1.2640    -2.2540    -1.8940 C.3   1 <1>  -0.0220 
  8 C        3.4080    -1.4090     0.9160 C.3   1 <1>   0.2000 
  9 C        0.3660    -4.2520    -0.1430 C.2   1 <1>   0.5690 
 10 C       -2.0190    -3.7270     0.6430 C.3   1 <1>  -0.0220 
 11 C       -2.5740    -3.0000    -1.7130 C.2   1 <1>  -0.2880 
 12 O        2.8580    -2.2030     1.9360 O.3   1 <1>  -0.5600 
 13 C        4.8020    -0.9930     1.3930 C.3   1 <1>  -0.1600 
 14 O       -0.0440    -5.1070    -0.8900 O.2   1 <1>  -0.5700 
 15 N        1.6730    -4.2060     0.2660 N.am  1 <1>  -0.5470 
 16 C       -2.9090    -3.6400    -0.5890 C.2   1 <1>  -0.2880 
 17 C        3.6280    -2.1380     3.0920 C.3   1 <1>   0.1200 
 18 C        5.0400    -1.8650     2.6090 C.3   1 <1>  -0.1600 
 19 C        2.7750    -4.9480    -0.1640 C.ar  1 <1>   0.1170 
 20 C        3.8470    -5.1300     0.6990 C.ar  1 <1>  -0.1500 
 21 C        2.8700    -5.4960    -1.4380 C.ar  1 <1>  -0.1500 
 22 C        4.9690    -5.8310     0.3040 C.ar  1 <1>  -0.1500 
 23 C        3.9910    -6.1990    -1.8320 C.ar  1 <1>  -0.1500 
 24 C        5.0800    -6.3900    -0.9730 C.ar  1 <1>   0.0860 
 25 C        6.2730    -7.1170    -1.3500 C.2   1 <1>   0.4230 
 26 O        7.2350    -7.2220    -0.6330 O.2   1 <1>  -0.5700 
 27 C        6.3640    -7.7970    -2.7030 C.3   1 <1>  -0.1790 
 28 H       -1.2710    -1.2120    -0.0490 H     1 <1>   0.0800 
 29 H        2.4890     0.4760     1.4340 H     1 <1>   0.0800 
 30 H        2.7870     0.2930    -0.2810 H     1 <1>   0.0800 
 31 H       -0.2070    -2.8810     1.3530 H     1 <1>   0.0800 
 32 H       -0.6000    -2.8570    -2.4900 H     1 <1>   0.0800 
 33 H       -1.4420    -1.3330    -2.4210 H     1 <1>   0.0800 
 34 H        3.5000    -2.0280     0.0390 H     1 <1>   0.0800 
 35 H       -2.4830    -3.1570     1.4280 H     1 <1>   0.0800 
 36 H       -1.9620    -4.7500     0.9730 H     1 <1>   0.0800 
 37 H       -3.2060    -2.9750    -2.5850 H     1 <1>   0.1500 
 38 H        4.8110     0.0460     1.6740 H     1 <1>   0.0800 
 39 H        5.5430    -1.1510     0.6290 H     1 <1>   0.0800 
 40 H        1.9020    -3.4940     0.9740 H     1 <1>   0.3700 
 41 H       -3.8450    -4.1610    -0.4730 H     1 <1>   0.1500 
 42 H        3.5430    -3.0640     3.6340 H     1 <1>   0.0800 
 43 H        3.2580    -1.3220     3.6910 H     1 <1>   0.0800 
 44 H        5.6400    -1.3810     3.3600 H     1 <1>   0.0800 
 45 H        5.5050    -2.7930     2.3230 H     1 <1>   0.0800 
 46 H        3.7980    -4.7200     1.6900 H     1 <1>   0.1500 
 47 H        2.0570    -5.3640    -2.1310 H     1 <1>   0.1500 
 48 H        5.7840    -5.9560     0.9960 H     1 <1>   0.1500 
 49 H        4.0090    -6.6000    -2.8280 H     1 <1>   0.1500 
 50 H        6.3310    -7.0630    -3.4860 H     1 <1>   0.0800 
 51 H        5.5540    -8.4930    -2.8210 H     1 <1>   0.0800 
 52 H        7.2910    -8.3370    -2.7780 H     1 <1>   0.0800 
@<TRIPOS>BOND
  1   1   2  2   
  2   2   3  1   
  3   2   4  1   
  4   3   5  1   
  5   4   6  1   
  6   4   7  1   
  7   4  28  1   
  8   5   8  1   
  9   5  29  1   
 10   5  30  1   
 11   6   9  1   
 12   6  10  1   
 13   6  31  1   
 14   7  11  1   
 15   7  32  1   
 16   7  33  1   
 17   8  12  1   
 18   8  13  1   
 19   8  34  1   
 20   9  14  2   
 21   9  15  am  
 22  10  16  1   
 23  10  35  1   
 24  10  36  1   
 25  11  16  2   
 26  11  37  1   
 27  12  17  1   
 28  13  18  1   
 29  13  38  1   
 30  13  39  1   
 31  15  19  1   
 32  15  40  1   
 33  16  41  1   
 34  17  18  1   
 35  17  42  1   
 36  17  43  1   
 37  18  44  1   
 38  18  45  1   
 39  19  20  ar  
 40  19  21  ar  
 41  20  22  ar  
 42  20  46  1   
 43  21  23  ar  
 44  21  47  1   
 45  22  24  ar  
 46  22  48  1   
 47  23  24  ar  
 48  23  49  1   
 49  24  25  1   
 50  25  26  2   
 51  25  27  1   
 52  27  50  1   
 53  27  51  1   
 54  27  52  1   
@<TRIPOS>SUBSTRUCTURE
  1 ****  15 GROUP 4 **** **** 0

# MOE 2024.06 (io_trps.svl 2023.06)
