@<TRIPOS>MOLECULE
NONAME
39 41 1 0 0 
SMALL
USER_CHARGES


@<TRIPOS>ATOM
  1 O       -0.0160    -0.5650    -0.5200 O.2   1 <1>  -0.5700 
  2 C       -0.1830    -1.6600    -0.0470 C.2   1 <1>   0.5690 
  3 N        0.7830    -2.5650     0.2450 N.am  1 <1>  -0.2370 
  4 C       -1.5540    -2.1980     0.3200 C.3   1 <1>  -0.0190 
  5 C        2.1270    -2.3310     0.1210 C.ar  1 <1>   0.7370 
  6 C        0.2460    -3.7250     0.6990 C.2   1 <1>   0.5690 
  7 C       -1.2710    -3.7000     0.5890 C.3   1 <1>  -0.0190 
  8 C       -2.6400    -1.8200    -0.7120 C.3   1 <1>  -0.0160 
  9 N        2.6950    -2.7150    -1.0200 N.ar  1 <1>  -0.6200 
 10 N        2.7260    -1.7440     1.1540 N.ar  1 <1>  -0.6200 
 11 O        0.8510    -4.6660     1.1450 O.2   1 <1>  -0.5700 
 12 C       -1.7370    -4.6890    -0.4970 C.3   1 <1>  -0.2400 
 13 C       -4.0410    -2.2660    -0.3070 C.ar  1 <1>  -0.1440 
 14 C        3.9830    -2.4850    -1.1220 C.ar  1 <1>   0.1600 
 15 C        4.0140    -1.5270     1.0200 C.ar  1 <1>   0.1600 
 16 C       -4.7890    -3.0730    -1.1510 C.ar  1 <1>  -0.1500 
 17 C       -4.5980    -1.8570     0.8960 C.ar  1 <1>  -0.1500 
 18 C        4.6990    -1.8850    -0.1160 C.ar  1 <1>  -0.1500 
 19 C       -6.0610    -3.4810    -0.7910 C.ar  1 <1>  -0.1500 
 20 C       -5.8700    -2.2650     1.2560 C.ar  1 <1>  -0.1500 
 21 C       -6.6080    -3.0820     0.4170 C.ar  1 <1>  -0.1440 
 22 C       -8.0050    -3.5280     0.8120 C.3   1 <1>  -0.0970 
 23 H       -1.8040    -1.7350     1.2570 H     1 <1>   0.0800 
 24 H       -1.6950    -3.9900     1.5350 H     1 <1>   0.0800 
 25 H       -2.3830    -2.2200    -1.6760 H     1 <1>   0.0800 
 26 H       -2.6580    -0.7490    -0.8180 H     1 <1>   0.0800 
 27 H       -1.3770    -4.4000    -1.4690 H     1 <1>   0.0800 
 28 H       -2.8090    -4.7550    -0.5170 H     1 <1>   0.0800 
 29 H       -1.3570    -5.6720    -0.2780 H     1 <1>   0.0800 
 30 H        4.4780    -2.7820    -2.0320 H     1 <1>   0.1500 
 31 H        4.5340    -1.0540     1.8360 H     1 <1>   0.1500 
 32 H       -4.3870    -3.3910    -2.0970 H     1 <1>   0.1500 
 33 H       -4.0510    -1.2130     1.5600 H     1 <1>   0.1500 
 34 H        5.7530    -1.7020    -0.2120 H     1 <1>   0.1500 
 35 H       -6.6260    -4.1080    -1.4580 H     1 <1>   0.1500 
 36 H       -6.2870    -1.9400     2.1930 H     1 <1>   0.1500 
 37 H       -8.2370    -4.4790     0.3690 H     1 <1>   0.0800 
 38 H       -8.7250    -2.8030     0.4770 H     1 <1>   0.0800 
 39 H       -8.0800    -3.6240     1.8800 H     1 <1>   0.0800 
@<TRIPOS>BOND
  1   1   2  2   
  2   2   3  am  
  3   2   4  1   
  4   3   5  1   
  5   3   6  am  
  6   4   7  1   
  7   4   8  1   
  8   4  23  1   
  9   5   9  ar  
 10   5  10  ar  
 11   6   7  1   
 12   6  11  2   
 13   7  12  1   
 14   7  24  1   
 15   8  13  1   
 16   8  25  1   
 17   8  26  1   
 18   9  14  ar  
 19  10  15  ar  
 20  12  27  1   
 21  12  28  1   
 22  12  29  1   
 23  13  16  ar  
 24  13  17  ar  
 25  14  18  ar  
 26  14  30  1   
 27  15  18  ar  
 28  15  31  1   
 29  16  19  ar  
 30  16  32  1   
 31  17  20  ar  
 32  17  33  1   
 33  18  34  1   
 34  19  21  ar  
 35  19  35  1   
 36  20  21  ar  
 37  20  36  1   
 38  21  22  1   
 39  22  37  1   
 40  22  38  1   
 41  22  39  1   
@<TRIPOS>SUBSTRUCTURE
  1 ****   4 GROUP 4 **** **** 0

# MOE 2024.06 (io_trps.svl 2023.06)
