@<TRIPOS>MOLECULE
NONAME
45 47 1 0 0 
SMALL
USER_CHARGES


@<TRIPOS>ATOM
  1 O        0.3920    -0.4380    -0.6350 O.2   1 <1>  -0.5700 
  2 C        1.4230    -0.9060    -0.2290 C.2   1 <1>   0.4230 
  3 C        2.6780    -0.2140    -0.2940 C.ar  1 <1>   0.0860 
  4 C        1.3810    -2.2910     0.3940 C.3   1 <1>  -0.0990 
  5 C        3.8610    -0.7770     0.1590 C.ar  1 <1>   0.1660 
  6 C        2.7970     1.0630    -0.8160 C.ar  1 <1>   0.1600 
  7 C        2.7120    -3.0560     0.2450 C.3   1 <1>   0.0000 
  8 N        5.0070    -0.1460     0.1060 N.ar  1 <1>  -0.6200 
  9 C        3.8720    -2.1760     0.7580 C.3   1 <1>  -0.0160 
 10 N        3.9350     1.7140    -0.8830 N.ar  1 <1>  -0.6200 
 11 C        2.9450    -3.4340    -1.2300 C.3   1 <1>  -0.2400 
 12 C        2.6490    -4.3530     1.0670 C.3   1 <1>  -0.2400 
 13 C        4.9990     1.0750    -0.4140 C.ar  1 <1>   0.7370 
 14 N        6.1440     1.7970    -0.5110 N.am  1 <1>  -0.5470 
 15 C        7.4370     1.5410    -0.1580 C.2   1 <1>   0.5690 
 16 O        7.8090     0.5170     0.3570 O.2   1 <1>  -0.5700 
 17 C        8.4640     2.6390    -0.4450 C.3   1 <1>  -0.0190 
 18 C        9.5420     2.1550    -1.4340 C.3   1 <1>  -0.1600 
 19 C        9.1140     3.1530     0.8540 C.3   1 <1>  -0.1600 
 20 C       10.5790     3.2510    -1.7190 C.3   1 <1>  -0.1600 
 21 C       10.1500     4.2490     0.5710 C.3   1 <1>  -0.1600 
 22 C       11.2150     3.7610    -0.4200 C.3   1 <1>  -0.1600 
 23 H        0.5830    -2.8530    -0.0600 H     1 <1>   0.0800 
 24 H        1.1410    -2.1720     1.4350 H     1 <1>   0.0800 
 25 H        1.9100     1.5520    -1.1870 H     1 <1>   0.1500 
 26 H        3.8130    -2.0740     1.8280 H     1 <1>   0.0800 
 27 H        4.8140    -2.6490     0.5340 H     1 <1>   0.0800 
 28 H        3.0080    -2.5650    -1.8610 H     1 <1>   0.0800 
 29 H        2.1410    -4.0510    -1.5930 H     1 <1>   0.0800 
 30 H        3.8630    -3.9860    -1.3370 H     1 <1>   0.0800 
 31 H        2.4850    -4.1390     2.1090 H     1 <1>   0.0800 
 32 H        3.5700    -4.9020     0.9780 H     1 <1>   0.0800 
 33 H        1.8470    -4.9820     0.7220 H     1 <1>   0.0800 
 34 H        5.9580     2.6970    -0.9330 H     1 <1>   0.3700 
 35 H        7.9530     3.4670    -0.9020 H     1 <1>   0.0800 
 36 H        9.0780     1.8500    -2.3560 H     1 <1>   0.0800 
 37 H       10.0410     1.2950    -1.0200 H     1 <1>   0.0800 
 38 H        9.5970     2.3310     1.3570 H     1 <1>   0.0800 
 39 H        8.3540     3.5370     1.5130 H     1 <1>   0.0800 
 40 H       10.1040     4.0710    -2.2300 H     1 <1>   0.0800 
 41 H       11.3460     2.8600    -2.3650 H     1 <1>   0.0800 
 42 H       10.6240     4.5420     1.4920 H     1 <1>   0.0800 
 43 H        9.6560     5.1150     0.1650 H     1 <1>   0.0800 
 44 H       11.8970     4.5640    -0.6420 H     1 <1>   0.0800 
 45 H       11.7820     2.9650     0.0330 H     1 <1>   0.0800 
@<TRIPOS>BOND
  1   1   2  2   
  2   2   3  1   
  3   2   4  1   
  4   3   5  ar  
  5   3   6  ar  
  6   4   7  1   
  7   4  23  1   
  8   4  24  1   
  9   5   8  ar  
 10   5   9  1   
 11   6  10  ar  
 12   6  25  1   
 13   7   9  1   
 14   7  11  1   
 15   7  12  1   
 16   8  13  ar  
 17   9  26  1   
 18   9  27  1   
 19  10  13  ar  
 20  11  28  1   
 21  11  29  1   
 22  11  30  1   
 23  12  31  1   
 24  12  32  1   
 25  12  33  1   
 26  13  14  1   
 27  14  15  am  
 28  14  34  1   
 29  15  16  2   
 30  15  17  1   
 31  17  18  1   
 32  17  19  1   
 33  17  35  1   
 34  18  20  1   
 35  18  36  1   
 36  18  37  1   
 37  19  21  1   
 38  19  38  1   
 39  19  39  1   
 40  20  22  1   
 41  20  40  1   
 42  20  41  1   
 43  21  22  1   
 44  21  42  1   
 45  21  43  1   
 46  22  44  1   
 47  22  45  1   
@<TRIPOS>SUBSTRUCTURE
  1 ****   8 GROUP 4 **** **** 0

# MOE 2024.06 (io_trps.svl 2023.06)
