@<TRIPOS>MOLECULE
NONAME
33 34 1 0 0 
SMALL
USER_CHARGES


@<TRIPOS>ATOM
  1 S       -0.1500    -0.5860     0.6580 S.3   1 <1>  -0.0800 
  2 C        1.3810    -0.4570    -0.1540 C.2   1 <1>   0.4420 
  3 C       -0.8650     0.1610    -0.7280 C.2   1 <1>   0.1980 
  4 N        1.2700     0.0880    -1.3090 N.2   1 <1>  -0.3380 
  5 N        2.5530    -0.9040     0.4160 N.am  1 <1>  -0.4940 
  6 N       -0.0120     0.4380    -1.6310 N.2   1 <1>  -0.3380 
  7 C       -2.3690     0.3850    -0.6950 C.3   1 <1>   0.0200 
  8 C        2.8260    -1.5040     1.6130 C.2   1 <1>   0.5690 
  9 C       -2.9050     1.0520    -1.9690 C.3   1 <1>  -0.2400 
 10 O        1.9880    -1.7550     2.4410 O.2   1 <1>  -0.5700 
 11 C        4.2670    -1.8800     1.9220 C.3   1 <1>   0.0440 
 12 C        5.2300    -1.4880     0.8050 C.ar  1 <1>  -0.1440 
 13 C        5.4490    -2.3500    -0.2590 C.ar  1 <1>  -0.1500 
 14 C        5.8680    -0.2590     0.8320 C.ar  1 <1>  -0.1500 
 15 C        6.2950    -1.9890    -1.2950 C.ar  1 <1>  -0.1440 
 16 C        6.7140     0.1060    -0.2000 C.ar  1 <1>  -0.1500 
 17 C        6.9250    -0.7560    -1.2610 C.ar  1 <1>  -0.1500 
 18 C        6.5240    -2.9360    -2.4590 C.3   1 <1>  -0.0970 
 19 H        3.3710    -0.7570    -0.1790 H     1 <1>   0.3700 
 20 H       -2.6050     1.0010     0.1540 H     1 <1>   0.0800 
 21 H       -2.8540    -0.5660    -0.5620 H     1 <1>   0.0800 
 22 H       -2.4400     2.0120    -2.1090 H     1 <1>   0.0800 
 23 H       -3.9690     1.1890    -1.8990 H     1 <1>   0.0800 
 24 H       -2.6900     0.4390    -2.8270 H     1 <1>   0.0800 
 25 H        4.3130    -2.9410     2.0870 H     1 <1>   0.0800 
 26 H        4.5540    -1.3990     2.8390 H     1 <1>   0.0800 
 27 H        4.9590    -3.3080    -0.2880 H     1 <1>   0.1500 
 28 H        5.7120     0.4230     1.6500 H     1 <1>   0.1500 
 29 H        7.2090     1.0620    -0.1790 H     1 <1>   0.1500 
 30 H        7.5830    -0.4620    -2.0610 H     1 <1>   0.1500 
 31 H        5.7520    -2.8000    -3.1950 H     1 <1>   0.0800 
 32 H        6.5070    -3.9560    -2.1210 H     1 <1>   0.0800 
 33 H        7.4780    -2.7470    -2.9170 H     1 <1>   0.0800 
@<TRIPOS>BOND
  1   1   2  1   
  2   1   3  1   
  3   2   4  2   
  4   2   5  1   
  5   3   6  2   
  6   3   7  1   
  7   4   6  1   
  8   5   8  am  
  9   5  19  1   
 10   7   9  1   
 11   7  20  1   
 12   7  21  1   
 13   8  10  2   
 14   8  11  1   
 15   9  22  1   
 16   9  23  1   
 17   9  24  1   
 18  11  12  1   
 19  11  25  1   
 20  11  26  1   
 21  12  13  ar  
 22  12  14  ar  
 23  13  15  ar  
 24  13  27  1   
 25  14  16  ar  
 26  14  28  1   
 27  15  17  ar  
 28  15  18  1   
 29  16  17  ar  
 30  16  29  1   
 31  17  30  1   
 32  18  31  1   
 33  18  32  1   
 34  18  33  1   
@<TRIPOS>SUBSTRUCTURE
  1 ****   5 GROUP 4 **** **** 0

# MOE 2024.06 (io_trps.svl 2023.06)
