@<TRIPOS>MOLECULE
NONAME
51 54 1 0 0 
SMALL
USER_CHARGES


@<TRIPOS>ATOM
  1 S        0.4940     0.4250    -1.1500 S.3   1 <1>  -0.0800 
  2 C        0.6590    -1.1580    -0.3670 C.2   1 <1>   0.4420 
  3 C       -1.1710     0.5110    -0.6300 C.ar  1 <1>   0.0400 
  4 N       -0.4110    -1.5460     0.2300 N.2   1 <1>  -0.5650 
  5 N        1.8880    -1.8120    -0.3960 N.am  1 <1>  -0.4240 
  6 C       -1.4480    -0.6360     0.0860 C.ar  1 <1>   0.2270 
  7 C       -2.0940     1.5140    -0.8600 C.ar  1 <1>  -0.1500 
  8 C        2.7630    -1.7630    -1.4710 C.2   1 <1>   0.5690 
  9 C        2.2060    -2.6390     0.8030 C.3   1 <1>   0.1400 
 10 C       -2.7270    -0.7860     0.6030 C.ar  1 <1>  -0.1500 
 11 C       -3.3680     1.3520    -0.3370 C.ar  1 <1>  -0.1440 
 12 O        2.4310    -1.3560    -2.5590 O.2   1 <1>  -0.5700 
 13 C        4.2150    -2.2600    -1.3500 C.3   1 <1>   0.1710 
 14 C        1.8260    -4.1010     0.5580 C.3   1 <1>  -0.2400 
 15 C       -3.6760     0.2030     0.3900 C.ar  1 <1>  -0.1500 
 16 C       -4.4330     2.4130    -0.5500 C.3   1 <1>  -0.0970 
 17 N        5.0570    -1.5500    -0.3460 N.3   1 <1>  -0.8100 
 18 C        5.1950    -0.1240    -0.6950 C.3   1 <1>   0.1100 
 19 C        6.3740    -2.1970    -0.2390 C.3   1 <1>   0.1100 
 20 C        5.9600     0.6080     0.4070 C.3   1 <1>  -0.1600 
 21 C        7.1790    -1.5490     0.8860 C.3   1 <1>  -0.1600 
 22 C        7.3190    -0.0530     0.6420 C.3   1 <1>   0.5600 
 23 O        8.1580     0.1560    -0.4490 O.3   1 <1>  -0.5600 
 24 O        7.9700     0.5280     1.7200 O.3   1 <1>  -0.5600 
 25 C        8.9310     1.2780    -0.2200 C.3   1 <1>   0.1200 
 26 C        8.7640     1.5600     1.2610 C.3   1 <1>   0.1200 
 27 H       -1.8160     2.3840    -1.4270 H     1 <1>   0.1500 
 28 H        1.6540    -2.2660     1.6500 H     1 <1>   0.0800 
 29 H        3.2470    -2.5620     1.0560 H     1 <1>   0.0800 
 30 H       -2.9610    -1.6720     1.1620 H     1 <1>   0.1500 
 31 H        4.6770    -2.1700    -2.3180 H     1 <1>   0.0800 
 32 H        4.1870    -3.3060    -1.1090 H     1 <1>   0.0800 
 33 H        0.7720    -4.1800     0.3590 H     1 <1>   0.0800 
 34 H        2.0480    -4.6820     1.4350 H     1 <1>   0.0800 
 35 H        2.3750    -4.5100    -0.2700 H     1 <1>   0.0800 
 36 H       -4.6660     0.0790     0.7940 H     1 <1>   0.1500 
 37 H       -4.0420     3.2430    -1.1110 H     1 <1>   0.0800 
 38 H       -4.7830     2.7760     0.3990 H     1 <1>   0.0800 
 39 H       -5.2620     1.9940    -1.0910 H     1 <1>   0.0800 
 40 H        4.2220     0.3270    -0.7990 H     1 <1>   0.0800 
 41 H        5.7170    -0.0240    -1.6330 H     1 <1>   0.0800 
 42 H        6.9080    -2.1040    -1.1710 H     1 <1>   0.0800 
 43 H        6.2480    -3.2440    -0.0200 H     1 <1>   0.0800 
 44 H        5.3840     0.5580     1.3120 H     1 <1>   0.0800 
 45 H        6.0860     1.6390     0.1390 H     1 <1>   0.0800 
 46 H        8.1540    -1.9930     0.9480 H     1 <1>   0.0800 
 47 H        6.6670    -1.7100     1.8160 H     1 <1>   0.0800 
 48 H        8.5630     2.0890    -0.8230 H     1 <1>   0.0800 
 49 H        9.9520     1.0560    -0.4740 H     1 <1>   0.0800 
 50 H        9.7030     1.5430     1.7870 H     1 <1>   0.0800 
 51 H        8.2580     2.4940     1.4320 H     1 <1>   0.0800 
@<TRIPOS>BOND
  1   1   2  1   
  2   1   3  1   
  3   2   4  2   
  4   2   5  1   
  5   3   6  ar  
  6   3   7  ar  
  7   4   6  1   
  8   5   8  am  
  9   5   9  1   
 10   6  10  ar  
 11   7  11  ar  
 12   7  27  1   
 13   8  12  2   
 14   8  13  1   
 15   9  14  1   
 16   9  28  1   
 17   9  29  1   
 18  10  15  ar  
 19  10  30  1   
 20  11  15  ar  
 21  11  16  1   
 22  13  17  1   
 23  13  31  1   
 24  13  32  1   
 25  14  33  1   
 26  14  34  1   
 27  14  35  1   
 28  15  36  1   
 29  16  37  1   
 30  16  38  1   
 31  16  39  1   
 32  17  18  1   
 33  17  19  1   
 34  18  20  1   
 35  18  40  1   
 36  18  41  1   
 37  19  21  1   
 38  19  42  1   
 39  19  43  1   
 40  20  22  1   
 41  20  44  1   
 42  20  45  1   
 43  21  22  1   
 44  21  46  1   
 45  21  47  1   
 46  22  23  1   
 47  22  24  1   
 48  23  25  1   
 49  24  26  1   
 50  25  26  1   
 51  25  48  1   
 52  25  49  1   
 53  26  50  1   
 54  26  51  1   
@<TRIPOS>SUBSTRUCTURE
  1 ****   5 GROUP 4 **** **** 0

# MOE 2024.06 (io_trps.svl 2023.06)
