@<TRIPOS>MOLECULE
NONAME
41 42 1 0 0 
SMALL
USER_CHARGES


@<TRIPOS>ATOM
  1 O       -0.3180    -0.2430     0.5760 O.3   1 <1>  -0.3630 
  2 C       -1.4820    -0.7070     0.0490 C.ar  1 <1>   0.0830 
  3 C        0.2930     0.9500     0.1370 C.3   1 <1>   0.0400 
  4 C       -1.9540    -1.9510     0.4720 C.ar  1 <1>  -0.1440 
  5 C       -2.1980     0.0180    -0.8960 C.ar  1 <1>  -0.1500 
  6 C       -3.1310    -2.4730    -0.0690 C.ar  1 <1>  -0.1430 
  7 C       -1.1560    -2.7310     1.5240 C.3   1 <1>  -0.0960 
  8 C       -3.3730    -0.4860    -1.4110 C.ar  1 <1>  -0.1500 
  9 C       -3.8510    -1.7200    -0.9990 C.ar  1 <1>  -0.1440 
 10 C       -3.6010    -3.8660     0.3610 C.3   1 <1>  -0.0970 
 11 C       -5.1710    -2.1840    -1.5860 C.3   1 <1>   0.4860 
 12 N       -6.2110    -2.0830    -0.5280 N.4   1 <1>  -0.9590 
 13 C       -7.4720    -2.7720    -0.9200 C.3   1 <1>   0.3430 
 14 C       -6.4380    -0.6680    -0.1100 C.3   1 <1>   0.3430 
 15 C       -8.4440    -2.7740     0.2610 C.3   1 <1>  -0.1600 
 16 C       -7.3960    -0.6320     1.0820 C.3   1 <1>  -0.1600 
 17 C       -8.7150    -1.3540     0.7780 C.3   1 <1>  -0.1600 
 18 H        1.2150     1.0700     0.6760 H     1 <1>   0.0800 
 19 H       -0.3620     1.7770     0.3470 H     1 <1>   0.0800 
 20 H        0.4940     0.8720    -0.9170 H     1 <1>   0.0800 
 21 H       -1.8550     0.9750    -1.2400 H     1 <1>   0.1500 
 22 H       -0.5360    -2.0830     2.1170 H     1 <1>   0.0800 
 23 H       -0.5210    -3.4480     1.0370 H     1 <1>   0.0800 
 24 H       -1.8050    -3.2420     2.2090 H     1 <1>   0.0800 
 25 H       -3.9050     0.1010    -2.1400 H     1 <1>   0.1500 
 26 H       -4.0220    -3.8240     1.3490 H     1 <1>   0.0800 
 27 H       -2.7660    -4.5450     0.3780 H     1 <1>   0.0800 
 28 H       -4.3220    -4.2940    -0.3070 H     1 <1>   0.0800 
 29 H       -5.0740    -3.2030    -1.9240 H     1 <1>   0.0800 
 30 H       -5.4380    -1.5710    -2.4310 H     1 <1>   0.0800 
 31 H       -5.8170    -2.5580     0.2930 H     1 <1>   0.4500 
 32 H       -7.2650    -3.7880    -1.2150 H     1 <1>   0.0800 
 33 H       -7.9230    -2.2590    -1.7540 H     1 <1>   0.0800 
 34 H       -6.8600    -0.1070    -0.9290 H     1 <1>   0.0800 
 35 H       -5.5030    -0.2090     0.1720 H     1 <1>   0.0800 
 36 H       -8.0430    -3.3810     1.0540 H     1 <1>   0.0800 
 37 H       -9.3730    -3.2220    -0.0480 H     1 <1>   0.0800 
 38 H       -7.6010     0.3930     1.3360 H     1 <1>   0.0800 
 39 H       -6.9180    -1.0830     1.9350 H     1 <1>   0.0800 
 40 H       -9.3220    -1.3980     1.6670 H     1 <1>   0.0800 
 41 H       -9.2650    -0.8000     0.0350 H     1 <1>   0.0800 
@<TRIPOS>BOND
  1   1   2  1   
  2   1   3  1   
  3   2   4  ar  
  4   2   5  ar  
  5   3  18  1   
  6   3  19  1   
  7   3  20  1   
  8   4   6  ar  
  9   4   7  1   
 10   5   8  ar  
 11   5  21  1   
 12   6   9  ar  
 13   6  10  1   
 14   7  22  1   
 15   7  23  1   
 16   7  24  1   
 17   8   9  ar  
 18   8  25  1   
 19   9  11  1   
 20  10  26  1   
 21  10  27  1   
 22  10  28  1   
 23  11  12  1   
 24  11  29  1   
 25  11  30  1   
 26  12  13  1   
 27  12  14  1   
 28  12  31  1   
 29  13  15  1   
 30  13  32  1   
 31  13  33  1   
 32  14  16  1   
 33  14  34  1   
 34  14  35  1   
 35  15  17  1   
 36  15  36  1   
 37  15  37  1   
 38  16  17  1   
 39  16  38  1   
 40  16  39  1   
 41  17  40  1   
 42  17  41  1   
@<TRIPOS>SUBSTRUCTURE
  1 ****   9 GROUP 4 **** **** 0

# MOE 2024.06 (io_trps.svl 2023.06)
