@<TRIPOS>MOLECULE
NONAME
32 32 1 0 0 
SMALL
USER_CHARGES


@<TRIPOS>ATOM
  1 BR      -0.6840     0.3640     2.5080 Br    1 <1>  -0.1110 
  2 C       -2.0440    -0.5080     1.4650 C.ar  1 <1>   0.1110 
  3 C       -2.7690    -1.5330     2.0400 C.ar  1 <1>  -0.1500 
  4 C       -2.2620    -0.0870     0.1680 C.ar  1 <1>  -0.1500 
  5 C       -3.7510    -2.1550     1.2880 C.ar  1 <1>  -0.1500 
  6 C       -3.2460    -0.7140    -0.5760 C.ar  1 <1>  -0.1500 
  7 C       -3.9990    -1.7420    -0.0180 C.ar  1 <1>  -0.1430 
  8 C       -5.0910    -2.4090    -0.8320 C.3   1 <1>   0.4870 
  9 N       -6.4230    -1.9790    -0.3130 N.4   1 <1>  -0.9590 
 10 C       -7.4920    -2.8620    -0.8850 C.3   1 <1>   0.3430 
 11 C       -6.6910    -0.5250    -0.5980 C.3   1 <1>   0.3430 
 12 C       -8.8460    -2.6990    -0.1780 C.3   1 <1>   0.1200 
 13 C       -6.3640     0.3890     0.5930 C.3   1 <1>   0.1200 
 14 O       -9.7050    -3.6410    -0.7100 O.3   1 <1>  -0.6800 
 15 O       -6.8530     1.6470     0.2940 O.3   1 <1>  -0.6800 
 16 H       -2.5610    -1.8360     3.0520 H     1 <1>   0.1500 
 17 H       -1.6690     0.7110    -0.2450 H     1 <1>   0.1500 
 18 H       -4.3080    -2.9620     1.7340 H     1 <1>   0.1500 
 19 H       -3.4120    -0.3890    -1.5910 H     1 <1>   0.1500 
 20 H       -4.9870    -3.4780    -0.7440 H     1 <1>   0.0800 
 21 H       -4.9910    -2.1440    -1.8720 H     1 <1>   0.0800 
 22 H       -6.3940    -2.1120     0.7050 H     1 <1>   0.4500 
 23 H       -7.1940    -3.8930    -0.7850 H     1 <1>   0.0800 
 24 H       -7.6200    -2.6490    -1.9340 H     1 <1>   0.0800 
 25 H       -7.7340    -0.3890    -0.8270 H     1 <1>   0.0800 
 26 H       -6.1220    -0.2030    -1.4550 H     1 <1>   0.0800 
 27 H       -9.2720    -1.7260    -0.3530 H     1 <1>   0.0800 
 28 H       -8.7600    -2.8890     0.8780 H     1 <1>   0.0800 
 29 H       -5.3030     0.4740     0.7540 H     1 <1>   0.0800 
 30 H       -6.8530     0.0520     1.4900 H     1 <1>   0.0800 
 31 H      -10.6000    -3.5880    -0.3110 H     1 <1>   0.4000 
 32 H       -6.6320     2.2980     0.9950 H     1 <1>   0.4000 
@<TRIPOS>BOND
  1   1   2  1   
  2   2   3  ar  
  3   2   4  ar  
  4   3   5  ar  
  5   3  16  1   
  6   4   6  ar  
  7   4  17  1   
  8   5   7  ar  
  9   5  18  1   
 10   6   7  ar  
 11   6  19  1   
 12   7   8  1   
 13   8   9  1   
 14   8  20  1   
 15   8  21  1   
 16   9  10  1   
 17   9  11  1   
 18   9  22  1   
 19  10  12  1   
 20  10  23  1   
 21  10  24  1   
 22  11  13  1   
 23  11  25  1   
 24  11  26  1   
 25  12  14  1   
 26  12  27  1   
 27  12  28  1   
 28  13  15  1   
 29  13  29  1   
 30  13  30  1   
 31  14  31  1   
 32  15  32  1   
@<TRIPOS>SUBSTRUCTURE
  1 ****   7 GROUP 4 **** **** 0

# MOE 2024.06 (io_trps.svl 2023.06)
