@<TRIPOS>MOLECULE
NONAME
32 32 1 0 0 
SMALL
USER_CHARGES


@<TRIPOS>ATOM
  1 S       -0.4380    -0.6700     0.2550 S.o2  1 <1>   1.3330 
  2 O       -1.2770    -1.7960    -0.0670 O.2   1 <1>  -0.6500 
  3 O        0.8190    -0.8340     0.9380 O.2   1 <1>  -0.6500 
  4 N       -1.3250     0.3880     1.2740 N.am  1 <1>  -0.7570 
  5 C       -0.1780     0.3330    -1.1910 C.3   1 <1>  -0.1350 
  6 C       -2.6550     0.7700     1.2360 C.ar  1 <1>   0.1990 
  7 C       -3.1310     1.6410     2.2090 C.ar  1 <1>  -0.1500 
  8 C       -3.5540     0.3350     0.2660 C.ar  1 <1>  -0.1500 
  9 C       -4.4460     2.0640     2.2110 C.ar  1 <1>  -0.1500 
 10 C       -4.8690     0.7590     0.2690 C.ar  1 <1>  -0.1500 
 11 C       -5.3580     1.6380     1.2410 C.ar  1 <1>   0.0860 
 12 C       -6.7330     2.0920     1.2560 C.2   1 <1>   0.6340 
 13 O       -7.1700     2.8540     2.0950 O.2   1 <1>  -0.5700 
 14 O       -7.5510     1.6460     0.2950 O.3   1 <1>  -0.4300 
 15 C       -8.9040     2.0310     0.1980 C.3   1 <1>   0.2000 
 16 C       -9.6380     0.9150    -0.5390 C.3   1 <1>  -0.2400 
 17 C       -8.9790     3.3510    -0.5700 C.3   1 <1>  -0.2400 
 18 H       -0.7720     0.6060     2.0980 H     1 <1>   0.4200 
 19 H        0.4080    -0.2050    -1.9090 H     1 <1>   0.0800 
 20 H        0.3420     1.2330    -0.9280 H     1 <1>   0.0800 
 21 H       -1.1170     0.5930    -1.6370 H     1 <1>   0.0800 
 22 H       -2.4620     1.9930     2.9740 H     1 <1>   0.1500 
 23 H       -3.2360    -0.3490    -0.4990 H     1 <1>   0.1500 
 24 H       -4.7830     2.7400     2.9790 H     1 <1>   0.1500 
 25 H       -5.5340     0.3980    -0.4960 H     1 <1>   0.1500 
 26 H       -9.3110     2.1410     1.1910 H     1 <1>   0.0800 
 27 H       -9.2240     0.7770    -1.5220 H     1 <1>   0.0800 
 28 H      -10.6800     1.1630    -0.6360 H     1 <1>   0.0800 
 29 H       -9.5590    -0.0030     0.0150 H     1 <1>   0.0800 
 30 H       -8.5360     3.2460    -1.5440 H     1 <1>   0.0800 
 31 H       -8.4670     4.1240    -0.0260 H     1 <1>   0.0800 
 32 H      -10.0050     3.6480    -0.6870 H     1 <1>   0.0800 
@<TRIPOS>BOND
  1   1   2  2   
  2   1   3  2   
  3   1   4  am  
  4   1   5  1   
  5   4   6  1   
  6   4  18  1   
  7   5  19  1   
  8   5  20  1   
  9   5  21  1   
 10   6   7  ar  
 11   6   8  ar  
 12   7   9  ar  
 13   7  22  1   
 14   8  10  ar  
 15   8  23  1   
 16   9  11  ar  
 17   9  24  1   
 18  10  11  ar  
 19  10  25  1   
 20  11  12  1   
 21  12  13  2   
 22  12  14  1   
 23  14  15  1   
 24  15  16  1   
 25  15  17  1   
 26  15  26  1   
 27  16  27  1   
 28  16  28  1   
 29  16  29  1   
 30  17  30  1   
 31  17  31  1   
 32  17  32  1   
@<TRIPOS>SUBSTRUCTURE
  1 ****  10 GROUP 4 **** **** 0

# MOE 2024.06 (io_trps.svl 2023.06)
