@<TRIPOS>MOLECULE
NONAME
56 58 1 0 0 
SMALL
USER_CHARGES


@<TRIPOS>ATOM
  1 O        0.5340    -4.3120     1.0020 O.3   1 <1>  -0.3630 
  2 C       -0.7930    -4.1500     0.7690 C.ar  1 <1>   0.0820 
  3 C        1.4120    -4.7910     0.0040 C.3   1 <1>   0.1200 
  4 C       -1.3970    -4.3550    -0.4690 C.ar  1 <1>  -0.1500 
  5 C       -1.5630    -3.7550     1.8520 C.ar  1 <1>  -0.1500 
  6 C        2.8170    -4.8930     0.6120 C.3   1 <1>   0.2000 
  7 C       -2.7690    -4.1640    -0.6110 C.ar  1 <1>   0.0820 
  8 C       -2.9260    -3.5660     1.7120 C.ar  1 <1>  -0.1500 
  9 O        3.1450    -3.6710     1.2030 O.3   1 <1>  -0.6800 
 10 C        3.9010    -5.2500    -0.4300 C.3   1 <1>   0.3430 
 11 O       -3.4420    -4.3400    -1.7760 O.3   1 <1>  -0.3620 
 12 C       -3.5240    -3.7710     0.4820 C.ar  1 <1>  -0.1500 
 13 N        5.2490    -4.8070     0.0440 N.4   1 <1>  -0.9590 
 14 C       -2.7860    -4.7170    -2.9650 C.3   1 <1>   0.0400 
 15 C        6.1870    -4.5190    -1.0750 C.3   1 <1>   0.3430 
 16 C        5.8320    -5.7200     1.0670 C.3   1 <1>   0.3430 
 17 C        7.4630    -3.8830    -0.5260 C.3   1 <1>  -0.1600 
 18 C        7.1030    -5.0990     1.6470 C.3   1 <1>  -0.1600 
 19 C        8.1260    -4.7620     0.5500 C.3   1 <1>  -0.0800 
 20 C        9.3740    -4.0900     1.1530 C.3   1 <1>  -0.0170 
 21 C       10.4190    -3.7950     0.0870 C.ar  1 <1>  -0.1430 
 22 C       10.6140    -2.4990    -0.3690 C.ar  1 <1>  -0.1500 
 23 C       11.1850    -4.8230    -0.4430 C.ar  1 <1>  -0.1500 
 24 C       11.5560    -2.2370    -1.3490 C.ar  1 <1>  -0.1500 
 25 C       12.1260    -4.5610    -1.4230 C.ar  1 <1>  -0.1500 
 26 C       12.3120    -3.2680    -1.8770 C.ar  1 <1>  -0.1500 
 27 H        1.4000    -4.0990    -0.8200 H     1 <1>   0.0800 
 28 H        1.0630    -5.7570    -0.3190 H     1 <1>   0.0800 
 29 H       -0.8150    -4.6560    -1.3140 H     1 <1>   0.1500 
 30 H       -1.0940    -3.5970     2.8060 H     1 <1>   0.1500 
 31 H        2.8050    -5.6390     1.3880 H     1 <1>   0.0800 
 32 H       -3.5210    -3.2600     2.5560 H     1 <1>   0.1500 
 33 H        2.3510    -3.3370     1.6850 H     1 <1>   0.4000 
 34 H        3.6630    -4.7330    -1.3450 H     1 <1>   0.0800 
 35 H        3.8940    -6.3070    -0.6350 H     1 <1>   0.0800 
 36 H       -4.5830    -3.6270     0.3610 H     1 <1>   0.1500 
 37 H        5.0420    -3.9150     0.5360 H     1 <1>   0.4500 
 38 H       -3.5230    -4.7820    -3.7460 H     1 <1>   0.0800 
 39 H       -2.3240    -5.6770    -2.8200 H     1 <1>   0.0800 
 40 H       -2.0560    -3.9670    -3.2140 H     1 <1>   0.0800 
 41 H        5.7280    -3.8440    -1.7790 H     1 <1>   0.0800 
 42 H        6.4350    -5.4330    -1.5890 H     1 <1>   0.0800 
 43 H        6.0690    -6.6700     0.6160 H     1 <1>   0.0800 
 44 H        5.1220    -5.8850     1.8620 H     1 <1>   0.0800 
 45 H        7.2330    -2.9120    -0.1250 H     1 <1>   0.0800 
 46 H        8.1440    -3.7390    -1.3470 H     1 <1>   0.0800 
 47 H        7.5390    -5.7930     2.3450 H     1 <1>   0.0800 
 48 H        6.8400    -4.2110     2.1970 H     1 <1>   0.0800 
 49 H        8.4400    -5.6840     0.0870 H     1 <1>   0.0800 
 50 H        9.8140    -4.7370     1.8920 H     1 <1>   0.0800 
 51 H        9.0980    -3.1770     1.6510 H     1 <1>   0.0800 
 52 H       10.0370    -1.6860     0.0350 H     1 <1>   0.1500 
 53 H       11.0540    -5.8320    -0.0950 H     1 <1>   0.1500 
 54 H       11.7040    -1.2300    -1.6990 H     1 <1>   0.1500 
 55 H       12.7170    -5.3630    -1.8300 H     1 <1>   0.1500 
 56 H       13.0440    -3.0640    -2.6390 H     1 <1>   0.1500 
@<TRIPOS>BOND
  1   1   2  1   
  2   1   3  1   
  3   2   4  ar  
  4   2   5  ar  
  5   3   6  1   
  6   3  27  1   
  7   3  28  1   
  8   4   7  ar  
  9   4  29  1   
 10   5   8  ar  
 11   5  30  1   
 12   6   9  1   
 13   6  10  1   
 14   6  31  1   
 15   7  11  1   
 16   7  12  ar  
 17   8  12  ar  
 18   8  32  1   
 19   9  33  1   
 20  10  13  1   
 21  10  34  1   
 22  10  35  1   
 23  11  14  1   
 24  12  36  1   
 25  13  15  1   
 26  13  16  1   
 27  13  37  1   
 28  14  38  1   
 29  14  39  1   
 30  14  40  1   
 31  15  17  1   
 32  15  41  1   
 33  15  42  1   
 34  16  18  1   
 35  16  43  1   
 36  16  44  1   
 37  17  19  1   
 38  17  45  1   
 39  17  46  1   
 40  18  19  1   
 41  18  47  1   
 42  18  48  1   
 43  19  20  1   
 44  19  49  1   
 45  20  21  1   
 46  20  50  1   
 47  20  51  1   
 48  21  22  ar  
 49  21  23  ar  
 50  22  24  ar  
 51  22  52  1   
 52  23  25  ar  
 53  23  53  1   
 54  24  26  ar  
 55  24  54  1   
 56  25  26  ar  
 57  25  55  1   
 58  26  56  1   
@<TRIPOS>SUBSTRUCTURE
  1 ****  10 GROUP 4 **** **** 0

# MOE 2024.06 (io_trps.svl 2023.06)
