@<TRIPOS>MOLECULE
NONAME
43 44 1 0 0 
SMALL
USER_CHARGES


@<TRIPOS>ATOM
  1 O        0.0870    -3.0580    -1.7320 O.2   1 <1>  -0.5700 
  2 C        0.1230    -2.7330    -0.5740 C.2   1 <1>   0.6590 
  3 O       -0.8310    -2.0130    -0.0030 O.3   1 <1>  -0.4300 
  4 C        1.2940    -3.1150     0.3280 C.3   1 <1>  -0.0190 
  5 C       -1.9620    -1.5870    -0.7280 C.3   1 <1>   0.1200 
  6 C        2.4560    -2.1190     0.1590 C.3   1 <1>  -0.1600 
  7 C        1.7830    -4.5520     0.0560 C.3   1 <1>  -0.1600 
  8 C       -2.8530    -0.7830     0.2140 C.3   1 <1>  -0.2400 
  9 C        3.6800    -2.5180     0.9820 C.3   1 <1>   0.3430 
 10 C        3.0140    -4.9050     0.8870 C.3   1 <1>   0.3430 
 11 N        4.0870    -3.9080     0.6280 N.4   1 <1>  -0.9590 
 12 C        5.3660    -4.2940     1.2850 C.3   1 <1>   0.4860 
 13 C        6.4680    -3.3920     0.7620 C.ar  1 <1>  -0.1440 
 14 C        6.9940    -3.5380    -0.5210 C.ar  1 <1>  -0.1440 
 15 C        6.9520    -2.3910     1.5940 C.ar  1 <1>  -0.1500 
 16 C        7.9800    -2.6630    -0.9510 C.ar  1 <1>  -0.1500 
 17 C        6.5400    -4.6290    -1.4850 C.3   1 <1>  -0.0970 
 18 C        7.9390    -1.5280     1.1550 C.ar  1 <1>  -0.1500 
 19 C        8.4500    -1.6630    -0.1210 C.ar  1 <1>  -0.1500 
 20 H        0.9450    -3.0650     1.3450 H     1 <1>   0.0800 
 21 H       -2.4790    -2.4560    -1.1000 H     1 <1>   0.0800 
 22 H       -1.6310    -0.9830    -1.5570 H     1 <1>   0.0800 
 23 H        2.1330    -1.1390     0.4650 H     1 <1>   0.0800 
 24 H        2.7340    -2.0520    -0.8800 H     1 <1>   0.0800 
 25 H        2.0180    -4.6740    -0.9880 H     1 <1>   0.0800 
 26 H        0.9920    -5.2460     0.2860 H     1 <1>   0.0800 
 27 H       -3.1690    -1.3950     1.0400 H     1 <1>   0.0800 
 28 H       -3.7260    -0.4450    -0.3140 H     1 <1>   0.0800 
 29 H       -2.3240     0.0770     0.5830 H     1 <1>   0.0800 
 30 H        3.4460    -2.4590     2.0330 H     1 <1>   0.0800 
 31 H        4.4850    -1.8300     0.7740 H     1 <1>   0.0800 
 32 H        3.3530    -5.8940     0.6220 H     1 <1>   0.0800 
 33 H        2.7570    -4.9030     1.9340 H     1 <1>   0.0800 
 34 H        4.2920    -3.8980    -0.3790 H     1 <1>   0.4500 
 35 H        5.6090    -5.3180     1.0590 H     1 <1>   0.0800 
 36 H        5.2830    -4.1920     2.3550 H     1 <1>   0.0800 
 37 H        6.5730    -2.2690     2.5950 H     1 <1>   0.1500 
 38 H        8.3980    -2.7540    -1.9390 H     1 <1>   0.1500 
 39 H        5.6310    -4.3400    -1.9790 H     1 <1>   0.0800 
 40 H        6.3940    -5.5640    -0.9760 H     1 <1>   0.0800 
 41 H        7.2890    -4.7930    -2.2410 H     1 <1>   0.0800 
 42 H        8.3140    -0.7530     1.8030 H     1 <1>   0.1500 
 43 H        9.2180    -0.9920    -0.4670 H     1 <1>   0.1500 
@<TRIPOS>BOND
  1   1   2  2   
  2   2   3  1   
  3   2   4  1   
  4   3   5  1   
  5   4   6  1   
  6   4   7  1   
  7   4  20  1   
  8   5   8  1   
  9   5  21  1   
 10   5  22  1   
 11   6   9  1   
 12   6  23  1   
 13   6  24  1   
 14   7  10  1   
 15   7  25  1   
 16   7  26  1   
 17   8  27  1   
 18   8  28  1   
 19   8  29  1   
 20   9  11  1   
 21   9  30  1   
 22   9  31  1   
 23  10  11  1   
 24  10  32  1   
 25  10  33  1   
 26  11  12  1   
 27  11  34  1   
 28  12  13  1   
 29  12  35  1   
 30  12  36  1   
 31  13  14  ar  
 32  13  15  ar  
 33  14  16  ar  
 34  14  17  1   
 35  15  18  ar  
 36  15  37  1   
 37  16  19  ar  
 38  16  38  1   
 39  17  39  1   
 40  17  40  1   
 41  17  41  1   
 42  18  19  ar  
 43  18  42  1   
 44  19  43  1   
@<TRIPOS>SUBSTRUCTURE
  1 ****   9 GROUP 4 **** **** 0

# MOE 2024.06 (io_trps.svl 2023.06)
