@<TRIPOS>MOLECULE
NONAME
26 27 1 0 0 
SMALL
USER_CHARGES


@<TRIPOS>ATOM
  1 S        0.3550    -0.6370     1.8750 S.3   1 <1>  -0.0800 
  2 C       -1.0370    -1.7030     1.8840 C.2   1 <1>  -0.1100 
  3 C        0.3400    -0.5600     0.1240 C.2   1 <1>  -0.1100 
  4 C       -1.4610    -1.9490     0.6280 C.2   1 <1>  -0.1810 
  5 C       -0.6660    -1.3000    -0.3770 C.2   1 <1>  -0.1500 
  6 C       -2.6460    -2.8170     0.2600 C.3   1 <1>   0.5240 
  7 N       -3.8820    -2.0000     0.3640 N.4   1 <1>  -0.9590 
  8 C       -5.1440    -2.7960     0.1960 C.3   1 <1>   0.3430 
  9 C       -3.8930    -0.7800    -0.5130 C.3   1 <1>   0.3430 
 10 C       -6.3990    -1.8930     0.2510 C.3   1 <1>   0.1200 
 11 C       -5.1850     0.0460    -0.3100 C.3   1 <1>   0.1200 
 12 O       -6.0570    -0.5780     0.5950 O.3   1 <1>  -0.5600 
 13 H       -1.3850    -2.0260     2.8510 H     1 <1>   0.1500 
 14 H        1.1030     0.0360    -0.3480 H     1 <1>   0.1500 
 15 H       -0.8670    -1.4140    -1.4290 H     1 <1>   0.1500 
 16 H       -2.7000    -3.6470     0.9460 H     1 <1>   0.0800 
 17 H       -2.5260    -3.2040    -0.7390 H     1 <1>   0.0800 
 18 H       -3.9190    -1.6180     1.3200 H     1 <1>   0.4500 
 19 H       -5.2160    -3.5370     0.9750 H     1 <1>   0.0800 
 20 H       -5.1340    -3.3160    -0.7470 H     1 <1>   0.0800 
 21 H       -3.8190    -1.0670    -1.5490 H     1 <1>   0.0800 
 22 H       -3.0440    -0.1540    -0.2890 H     1 <1>   0.0800 
 23 H       -7.0890    -2.2590     0.9920 H     1 <1>   0.0800 
 24 H       -6.9040    -1.8800    -0.7000 H     1 <1>   0.0800 
 25 H       -5.6990     0.1860    -1.2460 H     1 <1>   0.0800 
 26 H       -4.9430     1.0170     0.0870 H     1 <1>   0.0800 
@<TRIPOS>BOND
  1   1   2  1   
  2   1   3  1   
  3   2   4  2   
  4   2  13  1   
  5   3   5  2   
  6   3  14  1   
  7   4   5  1   
  8   4   6  1   
  9   5  15  1   
 10   6   7  1   
 11   6  16  1   
 12   6  17  1   
 13   7   8  1   
 14   7   9  1   
 15   7  18  1   
 16   8  10  1   
 17   8  19  1   
 18   8  20  1   
 19   9  11  1   
 20   9  21  1   
 21   9  22  1   
 22  10  12  1   
 23  10  23  1   
 24  10  24  1   
 25  11  12  1   
 26  11  25  1   
 27  11  26  1   
@<TRIPOS>SUBSTRUCTURE
  1 ****   7 GROUP 4 **** **** 0

# MOE 2024.06 (io_trps.svl 2023.06)
