@<TRIPOS>MOLECULE
NONAME
44 45 1 0 0 
SMALL
USER_CHARGES


@<TRIPOS>ATOM
  1 N        0.2400     0.4990    -0.9050 N.4   1 <1>  -0.9590 
  2 C       -0.5700    -0.7210    -0.5410 C.3   1 <1>   0.3430 
  3 C       -0.5300     1.6350    -1.4800 C.3   1 <1>   0.3430 
  4 C        1.3560     0.1170    -1.8070 C.3   1 <1>   0.4810 
  5 C       -1.8870    -0.4860     0.2550 C.3   1 <1>   0.3430 
  6 C       -1.0590     2.5330    -0.3610 C.3   1 <1>  -0.1600 
  7 C        2.5940     0.7230    -1.1830 C.2   1 <1>  -0.2760 
  8 N       -1.9190     0.7250     1.1590 N.4   1 <1>  -0.9590 
  9 C       -2.2510     1.9830     0.4240 C.3   1 <1>   0.3430 
 10 C        3.3990    -0.0020    -0.3830 C.2   1 <1>  -0.1780 
 11 C        2.8540     2.1780    -1.5750 C.3   1 <1>  -0.1020 
 12 C       -2.9500     0.5150     2.2320 C.3   1 <1>   0.2630 
 13 C        4.6020     0.4010     0.3070 C.ar  1 <1>   0.0280 
 14 C        5.7510    -0.3780     0.2090 C.ar  1 <1>  -0.1500 
 15 C        4.6560     1.5440     1.1000 C.ar  1 <1>  -0.1500 
 16 C        6.9150    -0.0250     0.8690 C.ar  1 <1>  -0.1500 
 17 C        5.8160     1.9030     1.7620 C.ar  1 <1>  -0.1500 
 18 C        6.9490     1.1180     1.6470 C.ar  1 <1>  -0.1500 
 19 H        0.7570     0.8390    -0.0800 H     1 <1>   0.4500 
 20 H       -0.8240    -1.2590    -1.4400 H     1 <1>   0.0800 
 21 H        0.0530    -1.3820     0.0410 H     1 <1>   0.0800 
 22 H        0.1240     2.2290    -2.1000 H     1 <1>   0.0800 
 23 H       -1.3360     1.2780    -2.1030 H     1 <1>   0.0800 
 24 H        1.4680    -0.9550    -1.8350 H     1 <1>   0.0800 
 25 H        1.2090     0.4760    -2.8130 H     1 <1>   0.0800 
 26 H       -2.0690    -1.3720     0.8420 H     1 <1>   0.0800 
 27 H       -2.7020    -0.4170    -0.4480 H     1 <1>   0.0800 
 28 H       -0.2640     2.8110     0.3090 H     1 <1>   0.0800 
 29 H       -1.3920     3.4460    -0.8240 H     1 <1>   0.0800 
 30 H       -1.0160     0.8420     1.6440 H     1 <1>   0.4500 
 31 H       -3.0830     1.8120    -0.2410 H     1 <1>   0.0800 
 32 H       -2.5570     2.7370     1.1340 H     1 <1>   0.0800 
 33 H        3.1780    -1.0400    -0.1980 H     1 <1>   0.1500 
 34 H        2.7930     2.2960    -2.6430 H     1 <1>   0.0800 
 35 H        3.8440     2.4860    -1.2860 H     1 <1>   0.0800 
 36 H        2.1510     2.8430    -1.1080 H     1 <1>   0.0800 
 37 H       -3.9310     0.3970     1.8000 H     1 <1>   0.0800 
 38 H       -2.9730     1.3610     2.9030 H     1 <1>   0.0800 
 39 H       -2.7220    -0.3660     2.8110 H     1 <1>   0.0800 
 40 H        5.7410    -1.2680    -0.3940 H     1 <1>   0.1500 
 41 H        3.7850     2.1620     1.2050 H     1 <1>   0.1500 
 42 H        7.7950    -0.6390     0.7780 H     1 <1>   0.1500 
 43 H        5.8430     2.7910     2.3690 H     1 <1>   0.1500 
 44 H        7.8540     1.3940     2.1600 H     1 <1>   0.1500 
@<TRIPOS>BOND
  1   1   2  1   
  2   1   3  1   
  3   1   4  1   
  4   1  19  1   
  5   2   5  1   
  6   2  20  1   
  7   2  21  1   
  8   3   6  1   
  9   3  22  1   
 10   3  23  1   
 11   4   7  1   
 12   4  24  1   
 13   4  25  1   
 14   5   8  1   
 15   5  26  1   
 16   5  27  1   
 17   6   9  1   
 18   6  28  1   
 19   6  29  1   
 20   7  10  2   
 21   7  11  1   
 22   8   9  1   
 23   8  12  1   
 24   8  30  1   
 25   9  31  1   
 26   9  32  1   
 27  10  13  1   
 28  10  33  1   
 29  11  34  1   
 30  11  35  1   
 31  11  36  1   
 32  12  37  1   
 33  12  38  1   
 34  12  39  1   
 35  13  14  ar  
 36  13  15  ar  
 37  14  16  ar  
 38  14  40  1   
 39  15  17  ar  
 40  15  41  1   
 41  16  18  ar  
 42  16  42  1   
 43  17  18  ar  
 44  17  43  1   
 45  18  44  1   
@<TRIPOS>SUBSTRUCTURE
  1 ****   7 GROUP 4 **** **** 0

# MOE 2024.06 (io_trps.svl 2023.06)
