@<TRIPOS>MOLECULE
NONAME
46 49 1 0 0 
SMALL
USER_CHARGES


@<TRIPOS>ATOM
  1 S       -1.2710    -0.4440    -2.6110 S.3   1 <1>  -0.0800 
  2 C       -2.1460    -0.1450    -1.1030 C.2   1 <1>   0.0410 
  3 C        0.2780    -0.0980    -1.8650 C.2   1 <1>  -0.1100 
  4 C       -3.5810    -0.2800    -1.0720 C.2   1 <1>   0.5150 
  5 C       -1.2480     0.1910    -0.1420 C.2   1 <1>  -0.1500 
  6 C        0.1130     0.2180    -0.5680 C.2   1 <1>  -0.1500 
  7 N       -4.3140    -0.6260    -2.1370 N.2   1 <1>  -0.2270 
  8 N       -4.2990    -0.0800    -0.0140 N.2   1 <1>  -0.7070 
  9 N       -5.5260    -0.6490    -1.7560 N.2   1 <1>  -0.4180 
 10 N       -5.5060    -0.3170    -0.4750 N.pl3 1 <1>   0.5800 
 11 C       -6.7210    -0.2240     0.3780 C.3   1 <1>   0.1760 
 12 C       -7.4620    -1.5750     0.4330 C.3   1 <1>  -0.1600 
 13 C       -7.6510     0.9040    -0.1050 C.3   1 <1>  -0.1600 
 14 C       -8.7250    -1.4650     1.2860 C.3   1 <1>   0.1400 
 15 C       -8.9200     0.9750     0.7460 C.3   1 <1>   0.1400 
 16 N       -9.5710    -0.3620     0.7600 N.am  1 <1>  -0.6600 
 17 C      -10.9120    -0.4890     0.4920 C.2   1 <1>   0.6900 
 18 O      -11.6420     0.4800     0.5610 O.2   1 <1>  -0.5700 
 19 N      -11.3870    -1.7120     0.1160 N.am  1 <1>  -0.5470 
 20 C      -12.6920    -2.1800    -0.0890 C.ar  1 <1>   0.1170 
 21 C      -12.8870    -3.2860    -0.9080 C.ar  1 <1>  -0.1500 
 22 C      -13.8060    -1.6010     0.5100 C.ar  1 <1>  -0.1500 
 23 C      -14.1540    -3.7970    -1.1260 C.ar  1 <1>  -0.1500 
 24 C      -15.0740    -2.1090     0.2930 C.ar  1 <1>  -0.1500 
 25 C      -15.2570    -3.2090    -0.5280 C.ar  1 <1>  -0.1440 
 26 C      -16.6490    -3.7660    -0.7650 C.3   1 <1>  -0.0970 
 27 H        1.1550    -0.1690    -2.4840 H     1 <1>   0.1500 
 28 H       -1.5170     0.4250     0.8730 H     1 <1>   0.1500 
 29 H        0.9040     0.4730     0.1170 H     1 <1>   0.1500 
 30 H       -6.3890     0.0170     1.3710 H     1 <1>   0.0800 
 31 H       -6.8150    -2.3240     0.8540 H     1 <1>   0.0800 
 32 H       -7.7400    -1.8840    -0.5600 H     1 <1>   0.0800 
 33 H       -7.9360     0.7360    -1.1290 H     1 <1>   0.0800 
 34 H       -7.1370     1.8480    -0.0490 H     1 <1>   0.0800 
 35 H       -8.4610    -1.2420     2.3070 H     1 <1>   0.0800 
 36 H       -9.2570    -2.4000     1.2840 H     1 <1>   0.0800 
 37 H       -9.5860     1.7160     0.3330 H     1 <1>   0.0800 
 38 H       -8.6840     1.2640     1.7560 H     1 <1>   0.0800 
 39 H      -10.6510    -2.3350    -0.1900 H     1 <1>   0.3700 
 40 H      -12.0440    -3.7520    -1.3830 H     1 <1>   0.1500 
 41 H      -13.6850    -0.7480     1.1530 H     1 <1>   0.1500 
 42 H      -14.2800    -4.6530    -1.7650 H     1 <1>   0.1500 
 43 H      -15.9180    -1.6400     0.7670 H     1 <1>   0.1500 
 44 H      -16.7080    -4.2350    -1.7300 H     1 <1>   0.0800 
 45 H      -17.3780    -2.9770    -0.7260 H     1 <1>   0.0800 
 46 H      -16.8820    -4.4930    -0.0090 H     1 <1>   0.0800 
@<TRIPOS>BOND
  1   1   2  1   
  2   1   3  1   
  3   2   4  1   
  4   2   5  2   
  5   3   6  2   
  6   3  27  1   
  7   4   7  1   
  8   4   8  2   
  9   5   6  1   
 10   5  28  1   
 11   6  29  1   
 12   7   9  2   
 13   8  10  1   
 14   9  10  1   
 15  10  11  1   
 16  11  12  1   
 17  11  13  1   
 18  11  30  1   
 19  12  14  1   
 20  12  31  1   
 21  12  32  1   
 22  13  15  1   
 23  13  33  1   
 24  13  34  1   
 25  14  16  1   
 26  14  35  1   
 27  14  36  1   
 28  15  16  1   
 29  15  37  1   
 30  15  38  1   
 31  16  17  am  
 32  17  18  2   
 33  17  19  am  
 34  19  20  1   
 35  19  39  1   
 36  20  21  ar  
 37  20  22  ar  
 38  21  23  ar  
 39  21  40  1   
 40  22  24  ar  
 41  22  41  1   
 42  23  25  ar  
 43  23  42  1   
 44  24  25  ar  
 45  24  43  1   
 46  25  26  1   
 47  26  44  1   
 48  26  45  1   
 49  26  46  1   
@<TRIPOS>SUBSTRUCTURE
  1 ****  12 GROUP 4 **** **** 0

# MOE 2024.06 (io_trps.svl 2023.06)
