@<TRIPOS>MOLECULE
NONAME
35 35 1 0 0 
SMALL
USER_CHARGES


@<TRIPOS>ATOM
  1 BR      -0.7920     0.6650     1.5020 Br    1 <1>  -0.1110 
  2 C        0.3800     1.9580     0.6800 C.ar  1 <1>   0.1110 
  3 C       -0.1140     2.7850    -0.3170 C.ar  1 <1>  -0.1440 
  4 C        1.6870     2.0260     1.1240 C.ar  1 <1>  -0.1500 
  5 C        0.7490     3.7150    -0.8760 C.ar  1 <1>  -0.1500 
  6 C       -1.5480     2.6820    -0.7790 C.3   1 <1>   0.4870 
  7 C        2.5360     2.9600     0.5550 C.ar  1 <1>  -0.1500 
  8 C        2.0660     3.8080    -0.4470 C.ar  1 <1>   0.0830 
  9 N       -2.3720     3.4340     0.1840 N.4   1 <1>  -0.9060 
 10 O        2.8260     4.7510    -1.0540 O.3   1 <1>  -0.3630 
 11 C       -3.8250     3.4070    -0.0680 C.3   1 <1>   0.4230 
 12 C        4.1880     4.9230    -0.7250 C.3   1 <1>   0.0400 
 13 C       -4.4370     4.7180     0.4770 C.3   1 <1>   0.1200 
 14 C       -4.4290     2.1480     0.5720 C.3   1 <1>  -0.1600 
 15 O       -3.5360     5.7720     0.2870 O.3   1 <1>  -0.6800 
 16 C       -5.9280     1.9920     0.2740 C.3   1 <1>  -0.2400 
 17 H        2.0350     1.3650     1.8980 H     1 <1>   0.1500 
 18 H        0.4260     4.3850    -1.6550 H     1 <1>   0.1500 
 19 H       -1.8490     1.6470    -0.8070 H     1 <1>   0.0800 
 20 H       -1.6480     3.1010    -1.7670 H     1 <1>   0.0800 
 21 H        3.5520     3.0130     0.9010 H     1 <1>   0.1500 
 22 H       -2.1220     4.4390     0.1440 H     1 <1>   0.4500 
 23 H       -2.1580     3.1310     1.1380 H     1 <1>   0.4500 
 24 H       -4.0020     3.3810    -1.1310 H     1 <1>   0.0800 
 25 H        4.5820     5.7140    -1.3380 H     1 <1>   0.0800 
 26 H        4.7150     4.0080    -0.9270 H     1 <1>   0.0800 
 27 H        4.2660     5.1940     0.3130 H     1 <1>   0.0800 
 28 H       -4.6390     4.6380     1.5320 H     1 <1>   0.0800 
 29 H       -5.3550     4.9480    -0.0380 H     1 <1>   0.0800 
 30 H       -4.2910     2.1750     1.6390 H     1 <1>   0.0800 
 31 H       -3.9270     1.2760     0.1910 H     1 <1>   0.0800 
 32 H       -3.9370     6.6310     0.5510 H     1 <1>   0.4000 
 33 H       -6.5020     2.7930     0.7070 H     1 <1>   0.0800 
 34 H       -6.2880     1.0670     0.6940 H     1 <1>   0.0800 
 35 H       -6.1100     1.9670    -0.7870 H     1 <1>   0.0800 
@<TRIPOS>BOND
  1   1   2  1   
  2   2   3  ar  
  3   2   4  ar  
  4   3   5  ar  
  5   3   6  1   
  6   4   7  ar  
  7   4  17  1   
  8   5   8  ar  
  9   5  18  1   
 10   6   9  1   
 11   6  19  1   
 12   6  20  1   
 13   7   8  ar  
 14   7  21  1   
 15   8  10  1   
 16   9  11  1   
 17   9  22  1   
 18   9  23  1   
 19  10  12  1   
 20  11  13  1   
 21  11  14  1   
 22  11  24  1   
 23  12  25  1   
 24  12  26  1   
 25  12  27  1   
 26  13  15  1   
 27  13  28  1   
 28  13  29  1   
 29  14  16  1   
 30  14  30  1   
 31  14  31  1   
 32  15  32  1   
 33  16  33  1   
 34  16  34  1   
 35  16  35  1   
@<TRIPOS>SUBSTRUCTURE
  1 ****   3 GROUP 4 **** **** 0

# MOE 2024.06 (io_trps.svl 2023.06)
