@<TRIPOS>MOLECULE
NONAME
37 37 1 0 0 
SMALL
USER_CHARGES


@<TRIPOS>ATOM
  1 F        1.8320    -1.8610     2.0880 F     1 <1>  -0.1900 
  2 C        1.0280    -2.3430     1.1790 C.ar  1 <1>   0.1900 
  3 C        1.4950    -2.5900    -0.1170 C.ar  1 <1>   0.0860 
  4 C       -0.2730    -2.5890     1.5780 C.ar  1 <1>  -0.1500 
  5 C        2.8570    -2.3360    -0.5620 C.2   1 <1>   0.5440 
  6 C        0.5530    -3.1170    -1.0060 C.ar  1 <1>  -0.1500 
  7 C       -1.1730    -3.1070     0.6660 C.ar  1 <1>  -0.1500 
  8 O        3.2740    -2.8450    -1.5860 O.2   1 <1>  -0.5700 
  9 N        3.7170    -1.5280     0.1310 N.am  1 <1>  -0.7300 
 10 C       -0.7550    -3.3710    -0.6270 C.ar  1 <1>  -0.1500 
 11 C        5.0880    -1.1730    -0.3000 C.3   1 <1>   0.1400 
 12 C        6.1510    -1.9670     0.4830 C.3   1 <1>  -0.0800 
 13 C        7.5280    -1.5490    -0.0590 C.3   1 <1>   0.3430 
 14 C        5.9190    -3.4920     0.3900 C.3   1 <1>  -0.2400 
 15 N        8.6360    -2.2540     0.6550 N.4   1 <1>  -0.9590 
 16 C        9.7060    -1.2990     1.0790 C.3   1 <1>   0.2630 
 17 C        9.2100    -3.3480    -0.1900 C.3   1 <1>   0.2630 
 18 H       -0.5760    -2.3780     2.5890 H     1 <1>   0.1500 
 19 H        0.8540    -3.3320    -2.0180 H     1 <1>   0.1500 
 20 H       -2.1910    -3.3050     0.9580 H     1 <1>   0.1500 
 21 H        3.3950    -1.1420     1.0240 H     1 <1>   0.3700 
 22 H       -1.4510    -3.7770    -1.3420 H     1 <1>   0.1500 
 23 H        5.2280    -0.1150    -0.1550 H     1 <1>   0.0800 
 24 H        5.1890    -1.3730    -1.3550 H     1 <1>   0.0800 
 25 H        6.0870    -1.6640     1.5140 H     1 <1>   0.0800 
 26 H        7.6360    -0.4840     0.0660 H     1 <1>   0.0800 
 27 H        7.5770    -1.7630    -1.1150 H     1 <1>   0.0800 
 28 H        5.9360    -3.8170    -0.6370 H     1 <1>   0.0800 
 29 H        4.9570    -3.7520     0.7970 H     1 <1>   0.0800 
 30 H        6.6500    -4.0470     0.9480 H     1 <1>   0.0800 
 31 H        8.2250    -2.6820     1.5000 H     1 <1>   0.4500 
 32 H       10.1510    -0.8280     0.2180 H     1 <1>   0.0800 
 33 H       10.4770    -1.8200     1.6240 H     1 <1>   0.0800 
 34 H        9.2940    -0.5340     1.7180 H     1 <1>   0.0800 
 35 H        9.6560    -2.9380    -1.0820 H     1 <1>   0.0800 
 36 H        8.4390    -4.0430    -0.4800 H     1 <1>   0.0800 
 37 H        9.9670    -3.8860     0.3570 H     1 <1>   0.0800 
@<TRIPOS>BOND
  1   1   2  1   
  2   2   3  ar  
  3   2   4  ar  
  4   3   5  1   
  5   3   6  ar  
  6   4   7  ar  
  7   4  18  1   
  8   5   8  2   
  9   5   9  am  
 10   6  10  ar  
 11   6  19  1   
 12   7  10  ar  
 13   7  20  1   
 14   9  11  1   
 15   9  21  1   
 16  10  22  1   
 17  11  12  1   
 18  11  23  1   
 19  11  24  1   
 20  12  13  1   
 21  12  14  1   
 22  12  25  1   
 23  13  15  1   
 24  13  26  1   
 25  13  27  1   
 26  14  28  1   
 27  14  29  1   
 28  14  30  1   
 29  15  16  1   
 30  15  17  1   
 31  15  31  1   
 32  16  32  1   
 33  16  33  1   
 34  16  34  1   
 35  17  35  1   
 36  17  36  1   
 37  17  37  1   
@<TRIPOS>SUBSTRUCTURE
  1 ****   9 GROUP 4 **** **** 0

# MOE 2024.06 (io_trps.svl 2023.06)
