@<TRIPOS>MOLECULE
NONAME
52 53 1 0 0 
SMALL
USER_CHARGES


@<TRIPOS>ATOM
  1 O       -1.4750    -4.2170     3.4010 O.2   1 <1>  -0.5700 
  2 C       -1.9900    -3.8210     2.3760 C.2   1 <1>   0.7060 
  3 O       -2.8120    -2.7720     2.4380 O.3   1 <1>  -0.2330 
  4 C       -1.7580    -4.4210     1.1030 C.2   1 <1>  -0.1360 
  5 C       -3.4240    -2.2580     1.3460 C.ar  1 <1>   0.0820 
  6 C       -2.3390    -3.9540    -0.0240 C.2   1 <1>  -0.1670 
  7 C       -3.2130    -2.8170     0.0770 C.ar  1 <1>   0.0280 
  8 C       -4.2570    -1.1670     1.5190 C.ar  1 <1>  -0.1500 
  9 C       -2.0800    -4.6080    -1.3750 C.3   1 <1>  -0.1020 
 10 C       -3.8690    -2.2240    -1.0050 C.ar  1 <1>  -0.1500 
 11 C       -4.9050    -0.6020     0.4320 C.ar  1 <1>   0.0830 
 12 C       -4.7000    -1.1310    -0.8440 C.ar  1 <1>  -0.1430 
 13 O       -5.7250     0.4740     0.5470 O.3   1 <1>  -0.2330 
 14 C       -5.3800    -0.5240    -2.0690 C.3   1 <1>  -0.0170 
 15 C       -6.4580     0.8920     1.5780 C.2   1 <1>   0.6590 
 16 C       -6.8030    -1.0640    -2.2230 C.3   1 <1>  -0.2400 
 17 O       -6.5550     0.2790     2.6130 O.2   1 <1>  -0.5700 
 18 C       -7.1840     2.2350     1.3480 C.3   1 <1>   0.2810 
 19 N       -6.2510     3.3290     0.9710 N.am  1 <1>  -0.7300 
 20 C       -7.9880     2.7260     2.5590 C.3   1 <1>  -0.2400 
 21 C       -5.8140     3.5350    -0.2880 C.2   1 <1>   0.7800 
 22 O       -6.3230     2.9870    -1.2430 O.2   1 <1>  -0.5700 
 23 O       -4.7700     4.3480    -0.4000 O.3   1 <1>  -0.4300 
 24 C       -4.0620     4.6570    -1.5810 C.3   1 <1>   0.2800 
 25 C       -4.9750     5.3890    -2.5710 C.3   1 <1>  -0.2400 
 26 C       -2.9390     5.5970    -1.1390 C.3   1 <1>  -0.2400 
 27 C       -3.4490     3.3850    -2.1790 C.3   1 <1>  -0.2400 
 28 H       -1.0940    -5.2640     1.1110 H     1 <1>   0.1500 
 29 H       -4.3800    -0.7710     2.5100 H     1 <1>   0.1500 
 30 H       -1.6340    -3.9000    -2.0500 H     1 <1>   0.0800 
 31 H       -3.0030    -4.9630    -1.7970 H     1 <1>   0.0800 
 32 H       -1.4120    -5.4450    -1.2740 H     1 <1>   0.0800 
 33 H       -3.7270    -2.6250    -1.9910 H     1 <1>   0.1500 
 34 H       -4.8150    -0.7560    -2.9540 H     1 <1>   0.0800 
 35 H       -5.4080     0.5480    -1.9850 H     1 <1>   0.0800 
 36 H       -6.7860    -2.1340    -2.3330 H     1 <1>   0.0800 
 37 H       -7.2690    -0.6320    -3.0910 H     1 <1>   0.0800 
 38 H       -7.3920    -0.8150    -1.3580 H     1 <1>   0.0800 
 39 H       -7.8710     2.0800     0.5340 H     1 <1>   0.0800 
 40 H       -5.7190     3.7670     1.7200 H     1 <1>   0.3700 
 41 H       -7.3410     2.8800     3.4040 H     1 <1>   0.0800 
 42 H       -8.7230     1.9890     2.8280 H     1 <1>   0.0800 
 43 H       -8.4980     3.6420     2.3210 H     1 <1>   0.0800 
 44 H       -4.4010     5.7400    -3.4090 H     1 <1>   0.0800 
 45 H       -5.4390     6.2350    -2.0970 H     1 <1>   0.0800 
 46 H       -5.7390     4.7360    -2.9520 H     1 <1>   0.0800 
 47 H       -3.3500     6.4840    -0.6920 H     1 <1>   0.0800 
 48 H       -2.3420     5.8890    -1.9840 H     1 <1>   0.0800 
 49 H       -2.3010     5.1070    -0.4270 H     1 <1>   0.0800 
 50 H       -2.8910     2.8500    -1.4330 H     1 <1>   0.0800 
 51 H       -2.7840     3.6410    -2.9840 H     1 <1>   0.0800 
 52 H       -4.2090     2.7410    -2.5830 H     1 <1>   0.0800 
@<TRIPOS>BOND
  1   1   2  2   
  2   2   3  1   
  3   2   4  1   
  4   3   5  1   
  5   4   6  2   
  6   4  28  1   
  7   5   7  ar  
  8   5   8  ar  
  9   6   7  1   
 10   6   9  1   
 11   7  10  ar  
 12   8  11  ar  
 13   8  29  1   
 14   9  30  1   
 15   9  31  1   
 16   9  32  1   
 17  10  12  ar  
 18  10  33  1   
 19  11  12  ar  
 20  11  13  1   
 21  12  14  1   
 22  13  15  1   
 23  14  16  1   
 24  14  34  1   
 25  14  35  1   
 26  15  17  2   
 27  15  18  1   
 28  16  36  1   
 29  16  37  1   
 30  16  38  1   
 31  18  19  1   
 32  18  20  1   
 33  18  39  1   
 34  19  21  am  
 35  19  40  1   
 36  20  41  1   
 37  20  42  1   
 38  20  43  1   
 39  21  22  2   
 40  21  23  1   
 41  23  24  1   
 42  24  25  1   
 43  24  26  1   
 44  24  27  1   
 45  25  44  1   
 46  25  45  1   
 47  25  46  1   
 48  26  47  1   
 49  26  48  1   
 50  26  49  1   
 51  27  50  1   
 52  27  51  1   
 53  27  52  1   
@<TRIPOS>SUBSTRUCTURE
  1 ****  11 GROUP 4 **** **** 0

# MOE 2024.06 (io_trps.svl 2023.06)
