@<TRIPOS>MOLECULE
NONAME
47 48 1 0 0 
SMALL
USER_CHARGES


@<TRIPOS>ATOM
  1 CL       0.3310    -0.5590     2.2660 Cl    1 <1>  -0.1770 
  2 C       -0.5920    -1.9940     1.8780 C.ar  1 <1>   0.1770 
  3 C       -0.2500    -2.7800     0.7840 C.ar  1 <1>   0.0820 
  4 C       -1.6630    -2.3220     2.6860 C.ar  1 <1>  -0.1500 
  5 O        0.8160    -2.4050     0.0300 O.3   1 <1>  -0.3630 
  6 C       -1.0150    -3.9120     0.5130 C.ar  1 <1>  -0.1500 
  7 C       -2.4100    -3.4520     2.3990 C.ar  1 <1>  -0.1500 
  8 C        1.2660    -3.1710    -1.0640 C.3   1 <1>   0.1200 
  9 C       -2.1000    -4.2630     1.3120 C.ar  1 <1>  -0.0090 
 10 C        2.4890    -2.4770    -1.6520 C.3   1 <1>  -0.2400 
 11 S       -3.0940    -5.7350     0.9400 S.o2  1 <1>   1.4470 
 12 O       -3.3450    -6.5010     2.1380 O.2   1 <1>  -0.6500 
 13 O       -2.6280    -6.3850    -0.2620 O.2   1 <1>  -0.6500 
 14 N       -4.5750    -5.1070     0.4610 N.am  1 <1>  -0.9140 
 15 C       -5.6280    -6.1010     0.5120 C.3   1 <1>   0.1960 
 16 C       -6.9260    -5.4630     0.0230 C.3   1 <1>  -0.1600 
 17 C       -8.0870    -6.4430     0.1840 C.3   1 <1>   0.3430 
 18 N       -9.3780    -5.7790    -0.1420 N.4   1 <1>  -0.9590 
 19 C      -10.5690    -6.5650     0.3290 C.3   1 <1>   0.3430 
 20 C       -9.5470    -5.4070    -1.5920 C.3   1 <1>   0.3430 
 21 C      -11.8900    -5.8200     0.0250 C.3   1 <1>   0.1200 
 22 C      -10.9360    -4.7810    -1.8590 C.3   1 <1>   0.1200 
 23 O      -11.6530    -4.6220    -0.6660 O.3   1 <1>  -0.5600 
 24 H       -1.9050    -1.6970     3.5280 H     1 <1>   0.1500 
 25 H       -0.7780    -4.5430    -0.3240 H     1 <1>   0.1500 
 26 H       -3.2450    -3.7100     3.0300 H     1 <1>   0.1500 
 27 H        0.4750    -3.2260    -1.7920 H     1 <1>   0.0800 
 28 H        1.5210    -4.1560    -0.7110 H     1 <1>   0.0800 
 29 H        2.2280    -1.4880    -1.9850 H     1 <1>   0.0800 
 30 H        2.8590    -3.0370    -2.4910 H     1 <1>   0.0800 
 31 H        3.2670    -2.4110    -0.9120 H     1 <1>   0.0800 
 32 H       -4.4100    -4.8750    -0.5180 H     1 <1>   0.4200 
 33 H       -5.7510    -6.4360     1.5310 H     1 <1>   0.0800 
 34 H       -5.3630    -6.9500    -0.1000 H     1 <1>   0.0800 
 35 H       -6.8100    -5.1880    -1.0100 H     1 <1>   0.0800 
 36 H       -7.1160    -4.5840     0.6140 H     1 <1>   0.0800 
 37 H       -8.1120    -6.7850     1.2070 H     1 <1>   0.0800 
 38 H       -7.9400    -7.3010    -0.4530 H     1 <1>   0.0800 
 39 H       -9.4430    -4.8840     0.3690 H     1 <1>   0.4500 
 40 H      -10.5030    -6.7390     1.3910 H     1 <1>   0.0800 
 41 H      -10.5920    -7.5270    -0.1560 H     1 <1>   0.0800 
 42 H       -9.4310    -6.2790    -2.2150 H     1 <1>   0.0800 
 43 H       -8.7880    -4.6990    -1.8810 H     1 <1>   0.0800 
 44 H      -12.3960    -5.5720     0.9430 H     1 <1>   0.0800 
 45 H      -12.5490    -6.4350    -0.5650 H     1 <1>   0.0800 
 46 H      -11.5120    -5.3980    -2.5290 H     1 <1>   0.0800 
 47 H      -10.8260    -3.8100    -2.3090 H     1 <1>   0.0800 
@<TRIPOS>BOND
  1   1   2  1   
  2   2   3  ar  
  3   2   4  ar  
  4   3   5  1   
  5   3   6  ar  
  6   4   7  ar  
  7   4  24  1   
  8   5   8  1   
  9   6   9  ar  
 10   6  25  1   
 11   7   9  ar  
 12   7  26  1   
 13   8  10  1   
 14   8  27  1   
 15   8  28  1   
 16   9  11  1   
 17  10  29  1   
 18  10  30  1   
 19  10  31  1   
 20  11  12  2   
 21  11  13  2   
 22  11  14  am  
 23  14  15  1   
 24  14  32  1   
 25  15  16  1   
 26  15  33  1   
 27  15  34  1   
 28  16  17  1   
 29  16  35  1   
 30  16  36  1   
 31  17  18  1   
 32  17  37  1   
 33  17  38  1   
 34  18  19  1   
 35  18  20  1   
 36  18  39  1   
 37  19  21  1   
 38  19  40  1   
 39  19  41  1   
 40  20  22  1   
 41  20  42  1   
 42  20  43  1   
 43  21  23  1   
 44  21  44  1   
 45  21  45  1   
 46  22  23  1   
 47  22  46  1   
 48  22  47  1   
@<TRIPOS>SUBSTRUCTURE
  1 ****  14 GROUP 4 **** **** 0

# MOE 2024.06 (io_trps.svl 2023.06)
