@<TRIPOS>MOLECULE
NONAME
48 49 1 0 0 
SMALL
USER_CHARGES


@<TRIPOS>ATOM
  1 S       -1.3040    -0.5520     0.6970 S.o2  1 <1>   1.5760 
  2 O       -0.0180     0.1010     0.7490 O.2   1 <1>  -0.6500 
  3 O       -2.3430    -0.2040     1.6400 O.2   1 <1>  -0.6500 
  4 N       -1.1020    -2.2670     0.7780 N.am  1 <1>  -0.6930 
  5 N       -1.9200    -0.3520    -0.8650 N.am  1 <1>  -0.8490 
  6 C        0.1370    -2.8960     0.6610 C.ar  1 <1>   0.1990 
  7 C       -2.3430    -3.0850     0.9410 C.3   1 <1>   0.2570 
  8 C       -0.9840    -0.7740    -1.9110 C.3   1 <1>   0.1160 
  9 C       -2.3490     1.0250    -1.0990 C.3   1 <1>   0.1160 
 10 C        0.3410    -3.9110    -0.2710 C.ar  1 <1>  -0.1500 
 11 C        1.2000    -2.5410     1.4850 C.ar  1 <1>  -0.1500 
 12 C       -3.2660    -3.1240    -0.2910 C.2   1 <1>   0.5690 
 13 C        1.5640    -4.5470    -0.3780 C.ar  1 <1>  -0.1500 
 14 C        2.4270    -3.1720     1.3810 C.ar  1 <1>  -0.1500 
 15 O       -2.9130    -3.8440    -1.2000 O.2   1 <1>  -0.5700 
 16 N       -4.4500    -2.4190    -0.3700 N.am  1 <1>  -0.6600 
 17 C        2.6100    -4.1780     0.4480 C.ar  1 <1>  -0.1500 
 18 C       -5.2370    -2.4050    -1.6370 C.3   1 <1>   0.1400 
 19 C       -4.9850    -1.4840     0.6630 C.3   1 <1>   0.1400 
 20 C       -6.7000    -2.7530    -1.3520 C.3   1 <1>  -0.1600 
 21 C       -6.4490    -1.8180     0.9660 C.3   1 <1>  -0.1600 
 22 C       -7.3100    -1.8100    -0.3060 C.3   1 <1>  -0.0800 
 23 C       -8.7530    -2.2160     0.0140 C.3   1 <1>  -0.2400 
 24 H       -2.8720    -2.7490     1.8090 H     1 <1>   0.0800 
 25 H       -2.0540    -4.1000     1.1440 H     1 <1>   0.0800 
 26 H       -0.7660    -1.8220    -1.8110 H     1 <1>   0.0800 
 27 H       -0.0640    -0.2170    -1.8450 H     1 <1>   0.0800 
 28 H       -1.4220    -0.6220    -2.8820 H     1 <1>   0.0800 
 29 H       -3.0870     1.3090    -0.3670 H     1 <1>   0.0800 
 30 H       -2.7900     1.1150    -2.0770 H     1 <1>   0.0800 
 31 H       -1.5100     1.6980    -1.0250 H     1 <1>   0.0800 
 32 H       -0.4620    -4.2030    -0.9220 H     1 <1>   0.1500 
 33 H        1.0650    -1.7630     2.2140 H     1 <1>   0.1500 
 34 H        1.7020    -5.3280    -1.1060 H     1 <1>   0.1500 
 35 H        3.2370    -2.8800     2.0260 H     1 <1>   0.1500 
 36 H        3.5640    -4.6700     0.3660 H     1 <1>   0.1500 
 37 H       -4.8370    -3.1080    -2.3470 H     1 <1>   0.0800 
 38 H       -5.1710    -1.4230    -2.0740 H     1 <1>   0.0800 
 39 H       -4.9090    -0.4770     0.2900 H     1 <1>   0.0800 
 40 H       -4.4300    -1.5340     1.5780 H     1 <1>   0.0800 
 41 H       -6.7490    -3.7710    -1.0080 H     1 <1>   0.0800 
 42 H       -7.2590    -2.6890    -2.2690 H     1 <1>   0.0800 
 43 H       -6.8330    -1.0980     1.6670 H     1 <1>   0.0800 
 44 H       -6.4920    -2.7860     1.4330 H     1 <1>   0.0800 
 45 H       -7.3180    -0.8100    -0.7080 H     1 <1>   0.0800 
 46 H       -8.7870    -3.2120     0.4190 H     1 <1>   0.0800 
 47 H       -9.3550    -2.1870    -0.8770 H     1 <1>   0.0800 
 48 H       -9.1810    -1.5390     0.7320 H     1 <1>   0.0800 
@<TRIPOS>BOND
  1   1   2  2   
  2   1   3  2   
  3   1   4  am  
  4   1   5  am  
  5   4   6  1   
  6   4   7  1   
  7   5   8  1   
  8   5   9  1   
  9   6  10  ar  
 10   6  11  ar  
 11   7  12  1   
 12   7  24  1   
 13   7  25  1   
 14   8  26  1   
 15   8  27  1   
 16   8  28  1   
 17   9  29  1   
 18   9  30  1   
 19   9  31  1   
 20  10  13  ar  
 21  10  32  1   
 22  11  14  ar  
 23  11  33  1   
 24  12  15  2   
 25  12  16  am  
 26  13  17  ar  
 27  13  34  1   
 28  14  17  ar  
 29  14  35  1   
 30  16  18  1   
 31  16  19  1   
 32  17  36  1   
 33  18  20  1   
 34  18  37  1   
 35  18  38  1   
 36  19  21  1   
 37  19  39  1   
 38  19  40  1   
 39  20  22  1   
 40  20  41  1   
 41  20  42  1   
 42  21  22  1   
 43  21  43  1   
 44  21  44  1   
 45  22  23  1   
 46  22  45  1   
 47  23  46  1   
 48  23  47  1   
 49  23  48  1   
@<TRIPOS>SUBSTRUCTURE
  1 ****   7 GROUP 4 **** **** 0

# MOE 2024.06 (io_trps.svl 2023.06)
