@<TRIPOS>MOLECULE
NONAME
43 46 1 0 0 
SMALL
USER_CHARGES


@<TRIPOS>ATOM
  1 O        1.0810    -1.6130     2.1690 O.3   1 <1>  -0.6800 
  2 C        1.9100    -1.0490     1.2100 C.3   1 <1>   0.1200 
  3 C        2.8780    -2.1320     0.6680 C.3   1 <1>   0.4230 
  4 N        3.8520    -1.6070    -0.3340 N.4   1 <1>  -0.9590 
  5 C        2.1450    -3.2090    -0.1300 C.3   1 <1>  -0.1600 
  6 C        4.6140    -0.3720     0.0370 C.3   1 <1>   0.4230 
  7 C        3.1260    -1.5520    -1.6290 C.3   1 <1>   0.3430 
  8 C        2.1540    -2.7250    -1.5830 C.3   1 <1>  -0.1600 
  9 C        5.6070     0.0280    -1.0840 C.3   1 <1>  -0.0800 
 10 C        5.4100    -0.5970     1.3490 C.3   1 <1>  -0.0800 
 11 C        6.6860    -1.0630    -1.2790 C.3   1 <1>  -0.1600 
 12 C        6.3060     1.3440    -0.6840 C.3   1 <1>  -0.1600 
 13 C        6.4890    -1.6880     1.1580 C.3   1 <1>  -0.1600 
 14 C        6.1090     0.7220     1.7400 C.3   1 <1>  -0.1600 
 15 C        7.4610    -1.2750     0.0360 C.3   1 <1>  -0.0800 
 16 C        7.0840     1.1520     0.6290 C.3   1 <1>  -0.0800 
 17 C        8.1410     0.0490     0.4310 C.3   1 <1>  -0.1600 
 18 H        0.4430    -0.9610     2.5310 H     1 <1>   0.4000 
 19 H        2.4490    -0.2510     1.6870 H     1 <1>   0.0800 
 20 H        1.2880    -0.6570     0.4240 H     1 <1>   0.0800 
 21 H        3.4000    -2.5710     1.5040 H     1 <1>   0.0800 
 22 H        4.5680    -2.3360    -0.4330 H     1 <1>   0.4500 
 23 H        1.1460    -3.3810     0.2350 H     1 <1>   0.0800 
 24 H        2.6900    -4.1330    -0.0460 H     1 <1>   0.0800 
 25 H        3.9230     0.4410     0.1850 H     1 <1>   0.0800 
 26 H        3.8030    -1.6350    -2.4650 H     1 <1>   0.0800 
 27 H        2.5770    -0.6280    -1.7040 H     1 <1>   0.0800 
 28 H        1.1760    -2.3970    -1.8900 H     1 <1>   0.0800 
 29 H        2.4730    -3.5100    -2.2470 H     1 <1>   0.0800 
 30 H        5.0880     0.2040    -2.0090 H     1 <1>   0.0800 
 31 H        4.7530    -0.8700     2.1550 H     1 <1>   0.0800 
 32 H        6.2480    -1.9900    -1.6010 H     1 <1>   0.0800 
 33 H        7.3740    -0.7560    -2.0500 H     1 <1>   0.0800 
 34 H        5.5800     2.1300    -0.5650 H     1 <1>   0.0800 
 35 H        6.9850     1.6500    -1.4620 H     1 <1>   0.0800 
 36 H        6.0440    -2.6400     0.9280 H     1 <1>   0.0800 
 37 H        7.0400    -1.8140     2.0750 H     1 <1>   0.0800 
 38 H        5.3800     1.4960     1.9040 H     1 <1>   0.0800 
 39 H        6.6500     0.5900     2.6620 H     1 <1>   0.0800 
 40 H        8.2120    -2.0370    -0.0990 H     1 <1>   0.0800 
 41 H        7.5710     2.0730     0.9060 H     1 <1>   0.0800 
 42 H        8.8380     0.3450    -0.3340 H     1 <1>   0.0800 
 43 H        8.7030    -0.0850     1.3400 H     1 <1>   0.0800 
@<TRIPOS>BOND
  1   1   2  1   
  2   1  18  1   
  3   2   3  1   
  4   2  19  1   
  5   2  20  1   
  6   3   4  1   
  7   3   5  1   
  8   3  21  1   
  9   4   6  1   
 10   4   7  1   
 11   4  22  1   
 12   5   8  1   
 13   5  23  1   
 14   5  24  1   
 15   6   9  1   
 16   6  10  1   
 17   6  25  1   
 18   7   8  1   
 19   7  26  1   
 20   7  27  1   
 21   8  28  1   
 22   8  29  1   
 23   9  11  1   
 24   9  12  1   
 25   9  30  1   
 26  10  13  1   
 27  10  14  1   
 28  10  31  1   
 29  11  15  1   
 30  11  32  1   
 31  11  33  1   
 32  12  16  1   
 33  12  34  1   
 34  12  35  1   
 35  13  15  1   
 36  13  36  1   
 37  13  37  1   
 38  14  16  1   
 39  14  38  1   
 40  14  39  1   
 41  15  17  1   
 42  15  40  1   
 43  16  17  1   
 44  16  41  1   
 45  17  42  1   
 46  17  43  1   
@<TRIPOS>SUBSTRUCTURE
  1 ****   6 GROUP 4 **** **** 0

# MOE 2024.06 (io_trps.svl 2023.06)
