@<TRIPOS>MOLECULE
NONAME
46 47 1 0 0 
SMALL
USER_CHARGES


@<TRIPOS>ATOM
  1 S       -0.0130    -0.4450     1.2520 S.o2  1 <1>   1.3330 
  2 O       -0.7690     0.7720     1.4460 O.2   1 <1>  -0.6500 
  3 O        0.5170    -1.1530     2.3950 O.2   1 <1>  -0.6500 
  4 N       -0.9880    -1.5310     0.3890 N.am  1 <1>  -0.8490 
  5 C        1.3150    -0.0890     0.0960 C.3   1 <1>  -0.0550 
  6 C       -2.3740    -1.5180     0.8850 C.3   1 <1>   0.1960 
  7 C       -0.4570    -2.9010     0.4160 C.3   1 <1>   0.1960 
  8 C        2.3540     0.9080     0.6360 C.3   1 <1>  -0.1600 
  9 C       -3.2770    -2.3560    -0.0270 C.3   1 <1>  -0.0190 
 10 C       -1.2710    -3.8000    -0.5210 C.3   1 <1>  -0.1600 
 11 C        3.4600     1.1720    -0.3910 C.3   1 <1>  -0.2400 
 12 C       -4.7050    -2.2970     0.4930 C.2   1 <1>   0.5690 
 13 C       -2.7560    -3.8020    -0.1350 C.3   1 <1>  -0.1600 
 14 O       -4.9620    -2.8060     1.5560 O.2   1 <1>  -0.5700 
 15 N       -5.6380    -1.6440    -0.2660 N.am  1 <1>  -0.5470 
 16 C       -7.0010    -1.4230    -0.0010 C.ar  1 <1>   0.1170 
 17 C       -7.6120    -0.1960    -0.2800 C.ar  1 <1>  -0.1440 
 18 C       -7.7720    -2.4510     0.5350 C.ar  1 <1>  -0.1500 
 19 C       -8.9710    -0.0360    -0.0210 C.ar  1 <1>  -0.1500 
 20 C       -6.7870     0.9640    -0.8500 C.3   1 <1>   1.1630 
 21 C       -9.1180    -2.2810     0.7880 C.ar  1 <1>  -0.1500 
 22 C       -9.7220    -1.0710     0.5080 C.ar  1 <1>  -0.1500 
 23 F       -7.5200     2.0110    -1.2090 F     1 <1>  -0.3400 
 24 F       -6.1040     0.6080    -1.9350 F     1 <1>  -0.3400 
 25 F       -5.8910     1.4200     0.0150 F     1 <1>  -0.3400 
 26 H        0.8880     0.3100    -0.8040 H     1 <1>   0.0800 
 27 H        1.8160    -1.0020    -0.1560 H     1 <1>   0.0800 
 28 H       -2.7500    -0.5080     0.8970 H     1 <1>   0.0800 
 29 H       -2.4070    -1.8960     1.8950 H     1 <1>   0.0800 
 30 H       -0.4950    -3.2910     1.4210 H     1 <1>   0.0800 
 31 H        0.5720    -2.9030     0.0970 H     1 <1>   0.0800 
 32 H        2.7890     0.5150     1.5400 H     1 <1>   0.0800 
 33 H        1.8630     1.8350     0.8820 H     1 <1>   0.0800 
 34 H       -3.2490    -1.9110    -1.0050 H     1 <1>   0.0800 
 35 H       -0.8850    -4.8030    -0.4750 H     1 <1>   0.0800 
 36 H       -1.1530    -3.4480    -1.5310 H     1 <1>   0.0800 
 37 H        3.9790     0.2610    -0.6320 H     1 <1>   0.0800 
 38 H        4.1720     1.8720     0.0100 H     1 <1>   0.0800 
 39 H        3.0460     1.5880    -1.2930 H     1 <1>   0.0800 
 40 H       -3.3280    -4.3490    -0.8650 H     1 <1>   0.0800 
 41 H       -2.8720    -4.2960     0.8160 H     1 <1>   0.0800 
 42 H       -5.2790    -1.2150    -1.1220 H     1 <1>   0.3700 
 43 H       -7.3110    -3.3970     0.7590 H     1 <1>   0.1500 
 44 H       -9.4670     0.8990    -0.2230 H     1 <1>   0.1500 
 45 H       -9.6940    -3.0900     1.2040 H     1 <1>   0.1500 
 46 H      -10.7720    -0.9350     0.7040 H     1 <1>   0.1500 
@<TRIPOS>BOND
  1   1   2  2   
  2   1   3  2   
  3   1   4  am  
  4   1   5  1   
  5   4   6  1   
  6   4   7  1   
  7   5   8  1   
  8   5  26  1   
  9   5  27  1   
 10   6   9  1   
 11   6  28  1   
 12   6  29  1   
 13   7  10  1   
 14   7  30  1   
 15   7  31  1   
 16   8  11  1   
 17   8  32  1   
 18   8  33  1   
 19   9  12  1   
 20   9  13  1   
 21   9  34  1   
 22  10  13  1   
 23  10  35  1   
 24  10  36  1   
 25  11  37  1   
 26  11  38  1   
 27  11  39  1   
 28  12  14  2   
 29  12  15  am  
 30  13  40  1   
 31  13  41  1   
 32  15  16  1   
 33  15  42  1   
 34  16  17  ar  
 35  16  18  ar  
 36  17  19  ar  
 37  17  20  1   
 38  18  21  ar  
 39  18  43  1   
 40  19  22  ar  
 41  19  44  1   
 42  20  23  1   
 43  20  24  1   
 44  20  25  1   
 45  21  22  ar  
 46  21  45  1   
 47  22  46  1   
@<TRIPOS>SUBSTRUCTURE
  1 ****   9 GROUP 4 **** **** 0

# MOE 2024.06 (io_trps.svl 2023.06)
