@<TRIPOS>MOLECULE
NONAME
23 23 1 0 0 
SMALL
USER_CHARGES


@<TRIPOS>ATOM
  1 O       -1.5810    -2.4800    -0.3390 O.co2 1 <1>  -0.9000 
  2 C       -2.3150    -2.5150     0.6590 C.2   1 <1>   0.9060 
  3 O       -1.9470    -2.9360     1.7480 O.co2 1 <1>  -0.9000 
  4 C       -3.6600    -1.8380     0.5570 C.3   1 <1>  -0.1860 
  5 C       -3.5080    -0.3600     0.2380 C.3   1 <1>   0.5030 
  6 C       -4.6370    -2.3820    -0.5020 C.3   1 <1>  -0.1600 
  7 N       -2.6630    -0.1860    -0.9340 N.4   1 <1>  -0.8530 
  8 C       -4.9290     0.0350    -0.1610 C.3   1 <1>  -0.1600 
  9 C       -2.9340     0.4740     1.3790 C.3   1 <1>  -0.2400 
 10 C       -5.5140    -1.1830    -0.8970 C.3   1 <1>  -0.1600 
 11 H       -4.1350    -1.9310     1.5180 H     1 <1>   0.0800 
 12 H       -4.0930    -2.7460    -1.3590 H     1 <1>   0.0800 
 13 H       -5.2210    -3.1940    -0.1020 H     1 <1>   0.0800 
 14 H       -3.1790    -0.4430    -1.7720 H     1 <1>   0.4500 
 15 H       -1.9230    -0.9230    -0.8440 H     1 <1>   0.4500 
 16 H       -2.2230     0.7270    -0.9880 H     1 <1>   0.4500 
 17 H       -5.5060     0.1930     0.7350 H     1 <1>   0.0800 
 18 H       -4.9680     0.9360    -0.7480 H     1 <1>   0.0800 
 19 H       -3.5400     0.3510     2.2600 H     1 <1>   0.0800 
 20 H       -2.9170     1.5180     1.1270 H     1 <1>   0.0800 
 21 H       -1.9390     0.1430     1.6230 H     1 <1>   0.0800 
 22 H       -6.5370    -1.3450    -0.6020 H     1 <1>   0.0800 
 23 H       -5.4850    -1.0410    -1.9640 H     1 <1>   0.0800 
@<TRIPOS>BOND
  1   1   2  ar  
  2   2   3  ar  
  3   2   4  1   
  4   4   5  1   
  5   4   6  1   
  6   4  11  1   
  7   5   7  1   
  8   5   8  1   
  9   5   9  1   
 10   6  10  1   
 11   6  12  1   
 12   6  13  1   
 13   7  14  1   
 14   7  15  1   
 15   7  16  1   
 16   8  10  1   
 17   8  17  1   
 18   8  18  1   
 19   9  19  1   
 20   9  20  1   
 21   9  21  1   
 22  10  22  1   
 23  10  23  1   
@<TRIPOS>SUBSTRUCTURE
  1 ****   4 GROUP 4 **** **** 0

# MOE 2024.06 (io_trps.svl 2023.06)
