@<TRIPOS>MOLECULE
NONAME
50 52 1 0 0 
SMALL
USER_CHARGES


@<TRIPOS>ATOM
  1 S       -0.6780    -0.4440    -0.4370 S.o2  1 <1>   1.3330 
  2 O       -1.7420    -0.9630     0.3850 O.2   1 <1>  -0.6500 
  3 O       -0.0390    -1.2480    -1.4460 O.2   1 <1>  -0.6500 
  4 N       -1.2810     0.9060    -1.3070 N.am  1 <1>  -0.7570 
  5 C        0.5780     0.2980     0.5830 C.3   1 <1>  -0.1350 
  6 C       -2.1510     1.9100    -0.9160 C.ar  1 <1>   0.1990 
  7 C       -2.5340     2.8670    -1.8500 C.ar  1 <1>  -0.1500 
  8 C       -2.6620     2.0220     0.3750 C.ar  1 <1>  -0.1500 
  9 C       -3.3960     3.8910    -1.5100 C.ar  1 <1>  -0.1500 
 10 C       -3.5240     3.0480     0.7120 C.ar  1 <1>  -0.1500 
 11 C       -3.9220     4.0050    -0.2230 C.ar  1 <1>   0.0860 
 12 C       -4.8300     5.0790     0.1210 C.2   1 <1>   0.5440 
 13 O       -4.5300     6.2210    -0.1780 O.2   1 <1>  -0.5700 
 14 N       -6.0260     4.8510     0.7740 N.am  1 <1>  -0.6600 
 15 C       -6.8100     5.9640     1.3760 C.3   1 <1>   0.1400 
 16 C       -6.7270     3.5370     0.7800 C.3   1 <1>   0.1400 
 17 C       -8.1460     6.1100     0.6420 C.3   1 <1>  -0.1600 
 18 C       -8.0700     3.6630     0.0550 C.3   1 <1>  -0.1600 
 19 C       -8.9390     4.7920     0.6390 C.3   1 <1>  -0.0800 
 20 C      -10.2590     4.9600    -0.1350 C.3   1 <1>  -0.0170 
 21 C      -11.1150     3.7010    -0.0890 C.ar  1 <1>  -0.1430 
 22 C      -11.8040     3.3680     1.0670 C.ar  1 <1>  -0.1500 
 23 C      -11.2130     2.8750    -1.1990 C.ar  1 <1>  -0.1500 
 24 C      -12.5780     2.2220     1.1170 C.ar  1 <1>  -0.1500 
 25 C      -11.9870     1.7280    -1.1520 C.ar  1 <1>  -0.1500 
 26 C      -12.6690     1.4010     0.0070 C.ar  1 <1>  -0.1500 
 27 H       -1.0640     0.7980    -2.2930 H     1 <1>   0.4200 
 28 H        1.0710    -0.4560     1.1640 H     1 <1>   0.0800 
 29 H        0.1410     1.0160     1.2490 H     1 <1>   0.0800 
 30 H        1.3070     0.7930    -0.0290 H     1 <1>   0.0800 
 31 H       -2.1500     2.8100    -2.8520 H     1 <1>   0.1500 
 32 H       -2.3960     1.3050     1.1280 H     1 <1>   0.1500 
 33 H       -3.6760     4.6270    -2.2450 H     1 <1>   0.1500 
 34 H       -3.9020     3.1190     1.7170 H     1 <1>   0.1500 
 35 H       -6.2630     6.8900     1.3220 H     1 <1>   0.0800 
 36 H       -6.9850     5.7440     2.4150 H     1 <1>   0.0800 
 37 H       -6.8890     3.2300     1.7990 H     1 <1>   0.0800 
 38 H       -6.1380     2.7820     0.2910 H     1 <1>   0.0800 
 39 H       -7.9450     6.4260    -0.3670 H     1 <1>   0.0800 
 40 H       -8.7210     6.8830     1.1200 H     1 <1>   0.0800 
 41 H       -8.5890     2.7240     0.1330 H     1 <1>   0.0800 
 42 H       -7.8830     3.8470    -0.9890 H     1 <1>   0.0800 
 43 H       -9.1770     4.5400     1.6590 H     1 <1>   0.0800 
 44 H      -10.0480     5.2190    -1.1570 H     1 <1>   0.0800 
 45 H      -10.8230     5.7710     0.2910 H     1 <1>   0.0800 
 46 H      -11.7390     4.0010     1.9350 H     1 <1>   0.1500 
 47 H      -10.6870     3.1200    -2.1040 H     1 <1>   0.1500 
 48 H      -13.1090     1.9700     2.0170 H     1 <1>   0.1500 
 49 H      -12.0600     1.0920    -2.0160 H     1 <1>   0.1500 
 50 H      -13.2710     0.5090     0.0440 H     1 <1>   0.1500 
@<TRIPOS>BOND
  1   1   2  2   
  2   1   3  2   
  3   1   4  am  
  4   1   5  1   
  5   4   6  1   
  6   4  27  1   
  7   5  28  1   
  8   5  29  1   
  9   5  30  1   
 10   6   7  ar  
 11   6   8  ar  
 12   7   9  ar  
 13   7  31  1   
 14   8  10  ar  
 15   8  32  1   
 16   9  11  ar  
 17   9  33  1   
 18  10  11  ar  
 19  10  34  1   
 20  11  12  1   
 21  12  13  2   
 22  12  14  am  
 23  14  15  1   
 24  14  16  1   
 25  15  17  1   
 26  15  35  1   
 27  15  36  1   
 28  16  18  1   
 29  16  37  1   
 30  16  38  1   
 31  17  19  1   
 32  17  39  1   
 33  17  40  1   
 34  18  19  1   
 35  18  41  1   
 36  18  42  1   
 37  19  20  1   
 38  19  43  1   
 39  20  21  1   
 40  20  44  1   
 41  20  45  1   
 42  21  22  ar  
 43  21  23  ar  
 44  22  24  ar  
 45  22  46  1   
 46  23  25  ar  
 47  23  47  1   
 48  24  26  ar  
 49  24  48  1   
 50  25  26  ar  
 51  25  49  1   
 52  26  50  1   
@<TRIPOS>SUBSTRUCTURE
  1 ****  16 GROUP 4 **** **** 0

# MOE 2024.06 (io_trps.svl 2023.06)
