@<TRIPOS>MOLECULE
NONAME
36 37 1 0 0 
SMALL
USER_CHARGES


@<TRIPOS>ATOM
  1 O       -0.2970    -1.1580    -2.4830 O.2   1 <1>  -0.5700 
  2 C        0.1100    -1.6740    -1.4720 C.2   1 <1>   0.6590 
  3 O       -0.6530    -1.7830    -0.3880 O.3   1 <1>  -0.4300 
  4 C        1.5120    -2.2940    -1.3850 C.3   1 <1>   0.1710 
  5 C       -1.9600    -1.2610    -0.3560 C.3   1 <1>   0.1200 
  6 N        2.5500    -1.5010    -0.6630 N.3   1 <1>  -0.8100 
  7 C       -2.5440    -1.5320     1.0270 C.3   1 <1>  -0.2400 
  8 C        3.8840    -2.1080    -0.8350 C.3   1 <1>   0.2910 
  9 C        2.2230    -1.3350     0.7630 C.3   1 <1>   0.0300 
 10 C        4.9990    -1.1600    -0.4210 C.2   1 <1>  -0.1810 
 11 C        6.2850    -1.5880    -0.0190 C.ar  1 <1>   0.0000 
 12 C        4.9890     0.1950    -0.3710 C.2   1 <1>  -0.3020 
 13 C        7.0130    -0.4360     0.2680 C.ar  1 <1>  -0.1520 
 14 C        6.8960    -2.8390     0.1270 C.ar  1 <1>  -0.1500 
 15 N        6.2050     0.6500     0.0470 N.pl3 1 <1>   0.0330 
 16 C        8.3390    -0.5100     0.7000 C.ar  1 <1>  -0.1500 
 17 C        8.2020    -2.9120     0.5520 C.ar  1 <1>  -0.1500 
 18 C        8.9250    -1.7470     0.8390 C.ar  1 <1>  -0.1500 
 19 H        1.8400    -2.4410    -2.3990 H     1 <1>   0.0800 
 20 H        1.4200    -3.2620    -0.9280 H     1 <1>   0.0800 
 21 H       -2.5400    -1.7450    -1.1240 H     1 <1>   0.0800 
 22 H       -1.9090    -0.2040    -0.5540 H     1 <1>   0.0800 
 23 H       -2.5780    -2.5910     1.2150 H     1 <1>   0.0800 
 24 H       -3.5440    -1.1420     1.0810 H     1 <1>   0.0800 
 25 H       -1.9480    -1.0510     1.7820 H     1 <1>   0.0800 
 26 H        4.0380    -2.3590    -1.8700 H     1 <1>   0.0800 
 27 H        3.9450    -3.0130    -0.2550 H     1 <1>   0.0800 
 28 H        1.3140    -0.7710     0.8730 H     1 <1>   0.0800 
 29 H        3.0060    -0.7930     1.2660 H     1 <1>   0.0800 
 30 H        2.1040    -2.2930     1.2400 H     1 <1>   0.0800 
 31 H        4.1750     0.8560    -0.6150 H     1 <1>   0.1500 
 32 H        6.3370    -3.7280    -0.0960 H     1 <1>   0.1500 
 33 H        6.4790     1.6290     0.1720 H     1 <1>   0.2700 
 34 H        8.8860     0.3900     0.9170 H     1 <1>   0.1500 
 35 H        8.6840    -3.8670     0.6680 H     1 <1>   0.1500 
 36 H        9.9450    -1.8320     1.1700 H     1 <1>   0.1500 
@<TRIPOS>BOND
  1   1   2  2   
  2   2   3  1   
  3   2   4  1   
  4   3   5  1   
  5   4   6  1   
  6   4  19  1   
  7   4  20  1   
  8   5   7  1   
  9   5  21  1   
 10   5  22  1   
 11   6   8  1   
 12   6   9  1   
 13   7  23  1   
 14   7  24  1   
 15   7  25  1   
 16   8  10  1   
 17   8  26  1   
 18   8  27  1   
 19   9  28  1   
 20   9  29  1   
 21   9  30  1   
 22  10  11  1   
 23  10  12  2   
 24  11  13  ar  
 25  11  14  ar  
 26  12  15  1   
 27  12  31  1   
 28  13  15  1   
 29  13  16  ar  
 30  14  17  ar  
 31  14  32  1   
 32  15  33  1   
 33  16  18  ar  
 34  16  34  1   
 35  17  18  ar  
 36  17  35  1   
 37  18  36  1   
@<TRIPOS>SUBSTRUCTURE
  1 ****   8 GROUP 4 **** **** 0

# MOE 2024.06 (io_trps.svl 2023.06)
