@<TRIPOS>MOLECULE
NONAME
33 33 1 0 0 
SMALL
USER_CHARGES


@<TRIPOS>ATOM
  1 F      -11.7070    -0.7910     0.6040 F     1 <1>  -0.3400 
  2 C      -10.6750     0.0500     0.6640 C.3   1 <1>   1.0200 
  3 F      -10.4090     0.2150     1.9590 F     1 <1>  -0.3400 
  4 F      -11.1590     1.2240     0.2600 F     1 <1>  -0.3400 
  5 C       -9.4480    -0.4130    -0.1810 C.3   1 <1>   0.4850 
  6 O       -9.7460    -0.4400    -1.5750 O.3   1 <1>  -0.6800 
  7 C       -8.2490     0.5510    -0.0100 C.ar  1 <1>  -0.1430 
  8 C       -9.0760    -1.8410     0.2580 C.2   1 <1>   0.6590 
  9 C       -8.1310     1.6890    -0.8060 C.ar  1 <1>  -0.1500 
 10 C       -7.2650     0.3250     0.9510 C.ar  1 <1>  -0.1500 
 11 O       -9.3190    -2.3000     1.3470 O.2   1 <1>  -0.5700 
 12 O       -8.3950    -2.5550    -0.6430 O.3   1 <1>  -0.4300 
 13 C       -7.0600     2.5510    -0.6620 C.ar  1 <1>  -0.1500 
 14 C       -6.1960     1.1900     1.0900 C.ar  1 <1>  -0.1500 
 15 C       -7.8910    -3.8480    -0.3860 C.3   1 <1>   0.1200 
 16 C       -6.0700     2.3080     0.2800 C.ar  1 <1>   0.1000 
 17 C       -6.5290    -3.7170     0.2940 C.3   1 <1>  -0.2400 
 18 N       -4.9800     3.1550     0.4360 N.pl3 1 <1>  -0.8690 
 19 C       -4.2960     3.6950    -0.7650 C.3   1 <1>   0.1290 
 20 H       -8.9730    -0.8130    -2.0470 H     1 <1>   0.4000 
 21 H       -8.8790     1.9230    -1.5450 H     1 <1>   0.1500 
 22 H       -7.3110    -0.5200     1.6180 H     1 <1>   0.1500 
 23 H       -6.9950     3.4280    -1.2790 H     1 <1>   0.1500 
 24 H       -5.4490     0.9990     1.8380 H     1 <1>   0.1500 
 25 H       -7.7920    -4.3540    -1.3300 H     1 <1>   0.0800 
 26 H       -8.5900    -4.3890     0.2310 H     1 <1>   0.0800 
 27 H       -5.8550    -3.1510    -0.3250 H     1 <1>   0.0800 
 28 H       -6.1100    -4.6940     0.4510 H     1 <1>   0.0800 
 29 H       -6.6320    -3.2370     1.2510 H     1 <1>   0.0800 
 30 H       -4.3220     2.8610     1.1650 H     1 <1>   0.4000 
 31 H       -4.3080     2.9670    -1.5580 H     1 <1>   0.0800 
 32 H       -3.2750     3.9380    -0.5260 H     1 <1>   0.0800 
 33 H       -4.7980     4.5880    -1.0960 H     1 <1>   0.0800 
@<TRIPOS>BOND
  1   1   2  1   
  2   2   3  1   
  3   2   4  1   
  4   2   5  1   
  5   5   6  1   
  6   5   7  1   
  7   5   8  1   
  8   6  20  1   
  9   7   9  ar  
 10   7  10  ar  
 11   8  11  2   
 12   8  12  1   
 13   9  13  ar  
 14   9  21  1   
 15  10  14  ar  
 16  10  22  1   
 17  12  15  1   
 18  13  16  ar  
 19  13  23  1   
 20  14  16  ar  
 21  14  24  1   
 22  15  17  1   
 23  15  25  1   
 24  15  26  1   
 25  16  18  1   
 26  17  27  1   
 27  17  28  1   
 28  17  29  1   
 29  18  19  1   
 30  18  30  1   
 31  19  31  1   
 32  19  32  1   
 33  19  33  1   
@<TRIPOS>SUBSTRUCTURE
  1 ****   7 GROUP 4 **** **** 0

# MOE 2024.06 (io_trps.svl 2023.06)
