@<TRIPOS>MOLECULE
NONAME
32 32 1 0 0 
SMALL
USER_CHARGES


@<TRIPOS>ATOM
  1 O       -1.0310    -0.1680    -1.1280 O.2   1 <1>  -0.5700 
  2 C       -2.0150     0.3790    -0.6910 C.2   1 <1>   0.5690 
  3 N       -2.9660    -0.1730     0.1190 N.am  1 <1>  -0.4690 
  4 C       -2.3790     1.8190    -0.9730 C.3   1 <1>   0.0390 
  5 C       -3.9370     0.7650     0.4150 C.2   1 <1>  -0.0290 
  6 C       -2.9050    -1.5860     0.5680 C.3   1 <1>   0.1400 
  7 C       -3.6770     1.9560    -0.1790 C.2   1 <1>  -0.1240 
  8 C       -5.1020     0.3740     1.3140 C.3   1 <1>  -0.1020 
  9 C       -3.6160    -2.4870    -0.4460 C.3   1 <1>  -0.1600 
 10 C       -4.3340     3.2290    -0.2040 C.2   1 <1>   0.7060 
 11 C       -3.5980    -3.9530     0.0050 C.3   1 <1>  -0.1600 
 12 O       -3.9010     4.1740    -0.8340 O.2   1 <1>  -0.5700 
 13 O       -5.4650     3.3900     0.4900 O.3   1 <1>  -0.4300 
 14 C       -4.3070    -4.8500    -1.0130 C.3   1 <1>  -0.2400 
 15 C       -6.1580     4.6230     0.5060 C.3   1 <1>   0.0400 
 16 H       -2.5380     1.9670    -2.0250 H     1 <1>   0.0800 
 17 H       -1.6150     2.4790    -0.6060 H     1 <1>   0.0800 
 18 H       -3.3590    -1.6800     1.5370 H     1 <1>   0.0800 
 19 H       -1.8730    -1.8820     0.6530 H     1 <1>   0.0800 
 20 H       -5.6290    -0.4610     0.8900 H     1 <1>   0.0800 
 21 H       -5.8010     1.1760     1.4380 H     1 <1>   0.0800 
 22 H       -4.7360     0.0980     2.2860 H     1 <1>   0.0800 
 23 H       -3.1190    -2.4010    -1.3970 H     1 <1>   0.0800 
 24 H       -4.6350    -2.1620    -0.5630 H     1 <1>   0.0800 
 25 H       -4.0870    -4.0460     0.9600 H     1 <1>   0.0800 
 26 H       -2.5780    -4.2830     0.1160 H     1 <1>   0.0800 
 27 H       -5.3350    -4.5520    -1.1270 H     1 <1>   0.0800 
 28 H       -4.2830    -5.8730    -0.6820 H     1 <1>   0.0800 
 29 H       -3.8210    -4.7890    -1.9710 H     1 <1>   0.0800 
 30 H       -7.0310     4.5170     1.1250 H     1 <1>   0.0800 
 31 H       -6.4460     4.8740    -0.5010 H     1 <1>   0.0800 
 32 H       -5.5090     5.3830     0.9060 H     1 <1>   0.0800 
@<TRIPOS>BOND
  1   1   2  2   
  2   2   3  am  
  3   2   4  1   
  4   3   5  1   
  5   3   6  1   
  6   4   7  1   
  7   4  16  1   
  8   4  17  1   
  9   5   7  2   
 10   5   8  1   
 11   6   9  1   
 12   6  18  1   
 13   6  19  1   
 14   7  10  1   
 15   8  20  1   
 16   8  21  1   
 17   8  22  1   
 18   9  11  1   
 19   9  23  1   
 20   9  24  1   
 21  10  12  2   
 22  10  13  1   
 23  11  14  1   
 24  11  25  1   
 25  11  26  1   
 26  13  15  1   
 27  14  27  1   
 28  14  28  1   
 29  14  29  1   
 30  15  30  1   
 31  15  31  1   
 32  15  32  1   
@<TRIPOS>SUBSTRUCTURE
  1 ****   5 GROUP 4 **** **** 0

# MOE 2024.06 (io_trps.svl 2023.06)
