@<TRIPOS>MOLECULE
NONAME
38 39 1 0 0 
SMALL
USER_CHARGES


@<TRIPOS>ATOM
  1 O       -0.1090     2.8010    -2.2730 O.2   1 <1>  -0.5700 
  2 C       -0.1190     2.5950    -1.0840 C.2   1 <1>   0.5690 
  3 N        0.9580     2.1060    -0.4220 N.am  1 <1>  -0.7300 
  4 C       -1.3780     2.8950    -0.2950 C.3   1 <1>  -0.0990 
  5 C        2.2340     1.7200    -1.0410 C.3   1 <1>   0.2200 
  6 C       -2.4080     1.7490    -0.3380 C.3   1 <1>  -0.0800 
  7 C        2.4220     0.2170    -0.8760 C.3   1 <1>  -0.1600 
  8 C        3.3740     2.3080    -0.2200 C.3   1 <1>  -0.1600 
  9 C       -3.7080     2.1850     0.3600 C.3   1 <1>  -0.1600 
 10 C       -1.8620     0.4560     0.3000 C.3   1 <1>  -0.1600 
 11 C        2.9410     0.0190     0.5530 C.3   1 <1>  -0.1600 
 12 C        3.5710     1.3550     0.9670 C.3   1 <1>  -0.1600 
 13 C       -4.7570     1.0650     0.3550 C.3   1 <1>  -0.1600 
 14 C       -2.9130    -0.6620     0.3000 C.3   1 <1>  -0.1600 
 15 C       -4.2040    -0.2140     0.9950 C.3   1 <1>  -0.1600 
 16 H        0.8980     1.9060     0.5740 H     1 <1>   0.3700 
 17 H       -1.8170     3.7810    -0.7160 H     1 <1>   0.0800 
 18 H       -1.1150     3.1160     0.7230 H     1 <1>   0.0800 
 19 H        2.2680     2.0280    -2.0740 H     1 <1>   0.0800 
 20 H       -2.6330     1.5460    -1.3730 H     1 <1>   0.0800 
 21 H        3.1760    -0.1080    -1.5710 H     1 <1>   0.0800 
 22 H        1.5170    -0.3300    -1.0730 H     1 <1>   0.0800 
 23 H        3.1760     3.3210     0.0850 H     1 <1>   0.0800 
 24 H        4.2650     2.3010    -0.8230 H     1 <1>   0.0800 
 25 H       -4.1160     3.0480    -0.1380 H     1 <1>   0.0800 
 26 H       -3.4960     2.4610     1.3790 H     1 <1>   0.0800 
 27 H       -1.5590     0.6530     1.3130 H     1 <1>   0.0800 
 28 H       -1.0000     0.1120    -0.2450 H     1 <1>   0.0800 
 29 H        3.6560    -0.7850     0.5930 H     1 <1>   0.0800 
 30 H        2.1200    -0.2150     1.2090 H     1 <1>   0.0800 
 31 H        3.0670     1.7410     1.8360 H     1 <1>   0.0800 
 32 H        4.6170     1.2420     1.1950 H     1 <1>   0.0800 
 33 H       -5.0500     0.8570    -0.6610 H     1 <1>   0.0800 
 34 H       -5.6330     1.3870     0.8910 H     1 <1>   0.0800 
 35 H       -2.5170    -1.5290     0.7980 H     1 <1>   0.0800 
 36 H       -3.1350    -0.9390    -0.7170 H     1 <1>   0.0800 
 37 H       -4.9390    -0.9970     0.9300 H     1 <1>   0.0800 
 38 H       -4.0040    -0.0340     2.0380 H     1 <1>   0.0800 
@<TRIPOS>BOND
  1   1   2  2   
  2   2   3  am  
  3   2   4  1   
  4   3   5  1   
  5   3  16  1   
  6   4   6  1   
  7   4  17  1   
  8   4  18  1   
  9   5   7  1   
 10   5   8  1   
 11   5  19  1   
 12   6   9  1   
 13   6  10  1   
 14   6  20  1   
 15   7  11  1   
 16   7  21  1   
 17   7  22  1   
 18   8  12  1   
 19   8  23  1   
 20   8  24  1   
 21   9  13  1   
 22   9  25  1   
 23   9  26  1   
 24  10  14  1   
 25  10  27  1   
 26  10  28  1   
 27  11  12  1   
 28  11  29  1   
 29  11  30  1   
 30  12  31  1   
 31  12  32  1   
 32  13  15  1   
 33  13  33  1   
 34  13  34  1   
 35  14  15  1   
 36  14  35  1   
 37  14  36  1   
 38  15  37  1   
 39  15  38  1   
@<TRIPOS>SUBSTRUCTURE
  1 ****   2 GROUP 4 **** **** 0

# MOE 2024.06 (io_trps.svl 2023.06)
