@<TRIPOS>MOLECULE
NONAME
40 41 1 0 0 
SMALL
USER_CHARGES


@<TRIPOS>ATOM
  1 O       -0.2050    -2.5080    -2.2740 O.2   1 <1>  -0.5700 
  2 C       -0.1980    -2.3570    -1.0630 C.2   1 <1>   0.6160 
  3 N        1.0140    -2.1990    -0.4200 N.am  1 <1>  -0.6600 
  4 C       -1.4710    -2.4260    -0.3590 C.2   1 <1>   0.1230 
  5 C        1.2080    -2.4700     1.0340 C.3   1 <1>   0.1400 
  6 C        2.2710    -1.9360    -1.1740 C.3   1 <1>   0.1400 
  7 N       -2.2320    -3.5700    -0.6700 N.am  1 <1>  -0.5390 
  8 C       -1.9420    -1.4810     0.5030 C.2   1 <1>  -0.1780 
  9 C        1.9880    -1.3260     1.6940 C.3   1 <1>  -0.1600 
 10 C        3.0340    -0.7750    -0.5290 C.3   1 <1>  -0.1600 
 11 C       -3.1320    -4.2820     0.0660 C.2   1 <1>   0.5690 
 12 C       -1.3750    -0.2160     0.8790 C.ar  1 <1>   0.0280 
 13 C        3.3020    -1.0330     0.9590 C.3   1 <1>  -0.1600 
 14 O       -3.4030    -4.0370     1.2140 O.2   1 <1>  -0.5700 
 15 C       -3.8020    -5.4550    -0.6040 C.3   1 <1>  -0.1790 
 16 C       -1.5300     0.2490     2.1840 C.ar  1 <1>  -0.1500 
 17 C       -0.6750     0.5960    -0.0150 C.ar  1 <1>  -0.1500 
 18 C       -0.9990     1.4600     2.5860 C.ar  1 <1>  -0.1500 
 19 C       -0.1400     1.8070     0.3820 C.ar  1 <1>  -0.1500 
 20 C       -0.2980     2.2420     1.6850 C.ar  1 <1>  -0.1500 
 21 H        0.2650    -2.5970     1.5350 H     1 <1>   0.0800 
 22 H        1.7620    -3.3860     1.1410 H     1 <1>   0.0800 
 23 H        2.8770    -2.8260    -1.1650 H     1 <1>   0.0800 
 24 H        2.0520    -1.6900    -2.2000 H     1 <1>   0.0800 
 25 H       -1.9950    -3.9610    -1.5850 H     1 <1>   0.3700 
 26 H       -2.8790    -1.6670     0.9930 H     1 <1>   0.1500 
 27 H        1.3760    -0.4430     1.7010 H     1 <1>   0.0800 
 28 H        2.1950    -1.5830     2.7170 H     1 <1>   0.0800 
 29 H        3.9660    -0.6330    -1.0460 H     1 <1>   0.0800 
 30 H        2.4540     0.1250    -0.6420 H     1 <1>   0.0800 
 31 H        3.9660    -1.8740     1.0630 H     1 <1>   0.0800 
 32 H        3.7790    -0.1740     1.3980 H     1 <1>   0.0800 
 33 H       -3.0710    -6.2050    -0.8390 H     1 <1>   0.0800 
 34 H       -4.2920    -5.1320    -1.5030 H     1 <1>   0.0800 
 35 H       -4.5350    -5.8790     0.0580 H     1 <1>   0.0800 
 36 H       -2.0740    -0.3520     2.8920 H     1 <1>   0.1500 
 37 H       -0.5500     0.2800    -1.0350 H     1 <1>   0.1500 
 38 H       -1.1290     1.7960     3.6000 H     1 <1>   0.1500 
 39 H        0.3990     2.4130    -0.3260 H     1 <1>   0.1500 
 40 H        0.1180     3.1850     1.9960 H     1 <1>   0.1500 
@<TRIPOS>BOND
  1   1   2  2   
  2   2   3  am  
  3   2   4  1   
  4   3   5  1   
  5   3   6  1   
  6   4   7  1   
  7   4   8  2   
  8   5   9  1   
  9   5  21  1   
 10   5  22  1   
 11   6  10  1   
 12   6  23  1   
 13   6  24  1   
 14   7  11  am  
 15   7  25  1   
 16   8  12  1   
 17   8  26  1   
 18   9  13  1   
 19   9  27  1   
 20   9  28  1   
 21  10  13  1   
 22  10  29  1   
 23  10  30  1   
 24  11  14  2   
 25  11  15  1   
 26  12  16  ar  
 27  12  17  ar  
 28  13  31  1   
 29  13  32  1   
 30  15  33  1   
 31  15  34  1   
 32  15  35  1   
 33  16  18  ar  
 34  16  36  1   
 35  17  19  ar  
 36  17  37  1   
 37  18  20  ar  
 38  18  38  1   
 39  19  20  ar  
 40  19  39  1   
 41  20  40  1   
@<TRIPOS>SUBSTRUCTURE
  1 ****   8 GROUP 4 **** **** 0

# MOE 2024.06 (io_trps.svl 2023.06)
