@<TRIPOS>MOLECULE
NONAME
40 41 1 0 0 
SMALL
USER_CHARGES


@<TRIPOS>ATOM
  1 O        2.8990    -1.2980     2.4230 O.2   1 <1>  -0.5700 
  2 C        2.5250    -1.1030     1.2960 C.2   1 <1>   0.6590 
  3 O        3.2240    -0.2980     0.5120 O.3   1 <1>  -0.4300 
  4 C        1.2230    -1.6730     0.7880 C.3   1 <1>  -0.1790 
  5 C        3.7920    -0.7500    -0.7000 C.3   1 <1>   0.3380 
  6 C        4.4410    -2.1130    -0.4470 C.2   1 <1>  -0.0380 
  7 C        4.8900     0.2570    -1.0630 C.3   1 <1>  -0.1600 
  8 N        3.7590    -3.2540    -0.7740 N.pl3 1 <1>  -0.5080 
  9 C        5.6670    -2.2260     0.1100 C.2   1 <1>  -0.1510 
 10 C        5.9560     0.3290     0.0510 C.3   1 <1>  -0.1600 
 11 O        2.6900    -3.1240    -1.4210 O.3   1 <1>  -0.6920 
 12 C        4.2360    -4.5170    -0.5060 C.2   1 <1>  -0.0380 
 13 N        6.1380    -3.4740     0.4110 N.2   1 <1>   1.5890 
 14 C        6.5790    -1.0420     0.3860 C.3   1 <1>   0.3380 
 15 C        5.4600    -4.6370     0.0770 C.2   1 <1>  -0.1510 
 16 C        3.3130    -5.6700    -0.8980 C.3   1 <1>  -0.1020 
 17 O        7.1960    -3.5730     1.1340 O.2   1 <1>  -0.5640 
 18 O        7.6790    -1.2330    -0.4660 O.3   1 <1>  -0.4300 
 19 C        6.1320    -5.9880     0.3900 C.3   1 <1>  -0.1020 
 20 C        8.9550    -1.0290    -0.1620 C.2   1 <1>   0.6590 
 21 O        9.8050    -1.5760    -0.8030 O.2   1 <1>  -0.5700 
 22 C        9.3290    -0.1180     0.9880 C.3   1 <1>  -0.1790 
 23 H        1.0160    -1.3220    -0.2040 H     1 <1>   0.0800 
 24 H        0.4230    -1.3890     1.4440 H     1 <1>   0.0800 
 25 H        1.2970    -2.7440     0.7630 H     1 <1>   0.0800 
 26 H        3.0300    -0.7860    -1.4600 H     1 <1>   0.0800 
 27 H        4.4450     1.2230    -1.2220 H     1 <1>   0.0800 
 28 H        5.3470    -0.0500    -1.9880 H     1 <1>   0.0800 
 29 H        5.4880     0.7090     0.9430 H     1 <1>   0.0800 
 30 H        6.7200     1.0340    -0.2240 H     1 <1>   0.0800 
 31 H        6.9120    -1.0520     1.4110 H     1 <1>   0.0800 
 32 H        2.3270    -5.4750    -0.5140 H     1 <1>   0.0800 
 33 H        3.6200    -6.6240    -0.5220 H     1 <1>   0.0800 
 34 H        3.2420    -5.7160    -1.9690 H     1 <1>   0.0800 
 35 H        7.1790    -5.9630     0.1390 H     1 <1>   0.0800 
 36 H        5.7040    -6.7960    -0.1710 H     1 <1>   0.0800 
 37 H        6.0380    -6.2150     1.4380 H     1 <1>   0.0800 
 38 H        8.8240     0.8250     0.9020 H     1 <1>   0.0800 
 39 H       10.3880     0.0620     0.9630 H     1 <1>   0.0800 
 40 H        9.0880    -0.5820     1.9260 H     1 <1>   0.0800 
@<TRIPOS>BOND
  1   1   2  2   
  2   2   3  1   
  3   2   4  1   
  4   3   5  1   
  5   4  23  1   
  6   4  24  1   
  7   4  25  1   
  8   5   6  1   
  9   5   7  1   
 10   5  26  1   
 11   6   8  1   
 12   6   9  2   
 13   7  10  1   
 14   7  27  1   
 15   7  28  1   
 16   8  11  1   
 17   8  12  1   
 18   9  13  1   
 19   9  14  1   
 20  10  14  1   
 21  10  29  1   
 22  10  30  1   
 23  12  15  2   
 24  12  16  1   
 25  13  15  1   
 26  13  17  2   
 27  14  18  1   
 28  14  31  1   
 29  15  19  1   
 30  16  32  1   
 31  16  33  1   
 32  16  34  1   
 33  18  20  1   
 34  19  35  1   
 35  19  36  1   
 36  19  37  1   
 37  20  21  2   
 38  20  22  1   
 39  22  38  1   
 40  22  39  1   
 41  22  40  1   
@<TRIPOS>SUBSTRUCTURE
  1 ****   9 GROUP 4 **** **** 0

# MOE 2024.06 (io_trps.svl 2023.06)
