@<TRIPOS>MOLECULE
NONAME
54 56 1 0 0 
SMALL
USER_CHARGES


@<TRIPOS>ATOM
  1 O        1.1430    -3.7580     0.5990 O.3   1 <1>  -0.3630 
  2 C        0.1320    -4.6260     0.3430 C.ar  1 <1>   0.0830 
  3 C        0.9970    -2.3750     0.3650 C.3   1 <1>   0.1200 
  4 C       -1.1120    -4.2450    -0.1520 C.ar  1 <1>  -0.1500 
  5 C        0.3810    -5.9630     0.5960 C.ar  1 <1>  -0.1500 
  6 C        2.3370    -1.7060     0.6800 C.3   1 <1>   0.2000 
  7 C       -2.0950    -5.1930    -0.3950 C.ar  1 <1>  -0.1440 
  8 C       -0.5960    -6.9110     0.3560 C.ar  1 <1>  -0.1500 
  9 O        2.3130    -0.3720     0.2530 O.3   1 <1>  -0.6800 
 10 C        3.4960    -2.4450    -0.0260 C.3   1 <1>   0.3430 
 11 C       -1.8350    -6.5360    -0.1400 C.ar  1 <1>  -0.1440 
 12 C       -3.4440    -4.7400    -0.9380 C.3   1 <1>  -0.0970 
 13 N        4.6670    -1.5400    -0.2330 N.4   1 <1>  -0.9590 
 14 C       -2.8830    -7.6120    -0.3920 C.3   1 <1>  -0.0970 
 15 C        5.5220    -1.9690    -1.3980 C.3   1 <1>   0.3430 
 16 C        5.4850    -1.3570     1.0210 C.3   1 <1>   0.3430 
 17 C        6.7340    -1.0380    -1.6190 C.3   1 <1>   0.2090 
 18 C        6.6940    -0.4220     0.8070 C.3   1 <1>   0.2090 
 19 N        7.5100    -0.8730    -0.3560 N.pl3 1 <1>  -0.8380 
 20 C        8.7670    -0.2940    -0.4840 C.ar  1 <1>   0.1000 
 21 C        9.9020    -1.0700    -0.2940 C.ar  1 <1>  -0.1500 
 22 C        8.9210     1.0510    -0.8010 C.ar  1 <1>  -0.1500 
 23 C       11.1650    -0.5190    -0.4160 C.ar  1 <1>  -0.1500 
 24 C       10.1820     1.6070    -0.9240 C.ar  1 <1>  -0.1500 
 25 C       11.3060     0.8220    -0.7320 C.ar  1 <1>  -0.1500 
 26 H        0.2160    -2.0050     1.0070 H     1 <1>   0.0800 
 27 H        0.7380    -2.2380    -0.6710 H     1 <1>   0.0800 
 28 H       -1.3350    -3.2160    -0.3520 H     1 <1>   0.1500 
 29 H        1.3370    -6.2630     0.9830 H     1 <1>   0.1500 
 30 H        2.4940    -1.7080     1.7450 H     1 <1>   0.0800 
 31 H       -0.3840    -7.9460     0.5590 H     1 <1>   0.1500 
 32 H        1.5680     0.1160     0.6680 H     1 <1>   0.4000 
 33 H        3.1320    -2.7820    -0.9830 H     1 <1>   0.0800 
 34 H        3.7750    -3.3200     0.5380 H     1 <1>   0.0800 
 35 H       -3.4710    -3.6740    -1.0740 H     1 <1>   0.0800 
 36 H       -4.2260    -5.0120    -0.2530 H     1 <1>   0.0800 
 37 H       -3.6330    -5.2050    -1.8880 H     1 <1>   0.0800 
 38 H        4.2340    -0.6230    -0.4510 H     1 <1>   0.4500 
 39 H       -3.7550    -7.4250     0.2080 H     1 <1>   0.0800 
 40 H       -2.5050    -8.5860    -0.1400 H     1 <1>   0.0800 
 41 H       -3.1640    -7.6180    -1.4290 H     1 <1>   0.0800 
 42 H        4.9310    -1.9940    -2.2980 H     1 <1>   0.0800 
 43 H        5.8970    -2.9630    -1.2200 H     1 <1>   0.0800 
 44 H        5.8590    -2.3130     1.3470 H     1 <1>   0.0800 
 45 H        4.8670    -0.9560     1.8060 H     1 <1>   0.0800 
 46 H        6.3980    -0.0770    -1.9670 H     1 <1>   0.0800 
 47 H        7.3750    -1.4590    -2.3750 H     1 <1>   0.0800 
 48 H        7.3100    -0.4240     1.6910 H     1 <1>   0.0800 
 49 H        6.3530     0.5850     0.6440 H     1 <1>   0.0800 
 50 H        9.7880    -2.1100    -0.0500 H     1 <1>   0.1500 
 51 H        8.0540     1.6650    -0.9520 H     1 <1>   0.1500 
 52 H       12.0370    -1.1310    -0.2670 H     1 <1>   0.1500 
 53 H       10.2920     2.6490    -1.1690 H     1 <1>   0.1500 
 54 H       12.2880     1.2520    -0.8270 H     1 <1>   0.1500 
@<TRIPOS>BOND
  1   1   2  1   
  2   1   3  1   
  3   2   4  ar  
  4   2   5  ar  
  5   3   6  1   
  6   3  26  1   
  7   3  27  1   
  8   4   7  ar  
  9   4  28  1   
 10   5   8  ar  
 11   5  29  1   
 12   6   9  1   
 13   6  10  1   
 14   6  30  1   
 15   7  11  ar  
 16   7  12  1   
 17   8  11  ar  
 18   8  31  1   
 19   9  32  1   
 20  10  13  1   
 21  10  33  1   
 22  10  34  1   
 23  11  14  1   
 24  12  35  1   
 25  12  36  1   
 26  12  37  1   
 27  13  15  1   
 28  13  16  1   
 29  13  38  1   
 30  14  39  1   
 31  14  40  1   
 32  14  41  1   
 33  15  17  1   
 34  15  42  1   
 35  15  43  1   
 36  16  18  1   
 37  16  44  1   
 38  16  45  1   
 39  17  19  1   
 40  17  46  1   
 41  17  47  1   
 42  18  19  1   
 43  18  48  1   
 44  18  49  1   
 45  19  20  1   
 46  20  21  ar  
 47  20  22  ar  
 48  21  23  ar  
 49  21  50  1   
 50  22  24  ar  
 51  22  51  1   
 52  23  25  ar  
 53  23  52  1   
 54  24  25  ar  
 55  24  53  1   
 56  25  54  1   
@<TRIPOS>SUBSTRUCTURE
  1 ****  10 GROUP 4 **** **** 0

# MOE 2024.06 (io_trps.svl 2023.06)
