@<TRIPOS>MOLECULE
NONAME
34 35 1 0 0 
SMALL
USER_CHARGES


@<TRIPOS>ATOM
  1 S        1.2030     2.4400     1.2920 S.3   1 <1>  -0.0800 
  2 C        1.8430     1.0550     0.4930 C.2   1 <1>   0.4340 
  3 C        0.5080     2.8570    -0.2400 C.2   1 <1>   0.1980 
  4 S        2.8350    -0.0540     1.4780 S.3   1 <1>  -0.2860 
  5 N        1.5410     0.9650    -0.7400 N.2   1 <1>  -0.3380 
  6 N        0.7670     2.0150    -1.1610 N.2   1 <1>  -0.3380 
  7 C       -0.3030     4.1290    -0.3250 C.3   1 <1>  -0.0600 
  8 C        3.6400    -1.1510     0.2130 C.3   1 <1>   0.1310 
  9 C        5.1540    -1.1520     0.3790 C.2   1 <1>   0.5690 
 10 O        5.6700    -2.1880     0.7300 O.2   1 <1>  -0.5700 
 11 N        5.8960    -0.0170     0.1100 N.am  1 <1>  -0.4770 
 12 C        5.3470     1.2090    -0.2950 C.ar  1 <1>   0.1170 
 13 C        7.3720    -0.0490     0.2750 C.3   1 <1>   0.1400 
 14 C        4.8920     1.3900    -1.5950 C.ar  1 <1>  -0.1500 
 15 C        5.2450     2.2630     0.6050 C.ar  1 <1>  -0.1500 
 16 C        8.0320    -0.4290    -1.0490 C.3   1 <1>  -0.2400 
 17 C        4.3340     2.5950    -1.9840 C.ar  1 <1>  -0.1500 
 18 C        4.6920     3.4710     0.2180 C.ar  1 <1>  -0.1500 
 19 C        4.2340     3.6370    -1.0780 C.ar  1 <1>  -0.1500 
 20 H       -1.1390     4.0750     0.3490 H     1 <1>   0.0800 
 21 H       -0.6700     4.2610    -1.3260 H     1 <1>   0.0800 
 22 H        0.3100     4.9720    -0.0630 H     1 <1>   0.0800 
 23 H        3.3700    -0.8040    -0.7640 H     1 <1>   0.0800 
 24 H        3.2480    -2.1390     0.3650 H     1 <1>   0.0800 
 25 H        7.6420    -0.7620     1.0370 H     1 <1>   0.0800 
 26 H        7.7200     0.9190     0.5900 H     1 <1>   0.0800 
 27 H        4.9710     0.5840    -2.3010 H     1 <1>   0.1500 
 28 H        5.5930     2.1300     1.6130 H     1 <1>   0.1500 
 29 H        7.7010    -1.4040    -1.3610 H     1 <1>   0.0800 
 30 H        9.0990    -0.4550    -0.9270 H     1 <1>   0.0800 
 31 H        7.7920     0.2940    -1.8090 H     1 <1>   0.0800 
 32 H        3.9730     2.7210    -2.9890 H     1 <1>   0.1500 
 33 H        4.6150     4.2800     0.9240 H     1 <1>   0.1500 
 34 H        3.7980     4.5720    -1.3820 H     1 <1>   0.1500 
@<TRIPOS>BOND
  1   1   2  1   
  2   1   3  1   
  3   2   4  1   
  4   2   5  2   
  5   3   6  2   
  6   3   7  1   
  7   4   8  1   
  8   5   6  1   
  9   7  20  1   
 10   7  21  1   
 11   7  22  1   
 12   8   9  1   
 13   8  23  1   
 14   8  24  1   
 15   9  10  2   
 16   9  11  am  
 17  11  12  1   
 18  11  13  1   
 19  12  14  ar  
 20  12  15  ar  
 21  13  16  1   
 22  13  25  1   
 23  13  26  1   
 24  14  17  ar  
 25  14  27  1   
 26  15  18  ar  
 27  15  28  1   
 28  16  29  1   
 29  16  30  1   
 30  16  31  1   
 31  17  19  ar  
 32  17  32  1   
 33  18  19  ar  
 34  18  33  1   
 35  19  34  1   
@<TRIPOS>SUBSTRUCTURE
  1 ****  12 GROUP 4 **** **** 0

# MOE 2024.06 (io_trps.svl 2023.06)
