@<TRIPOS>MOLECULE
NONAME
39 40 1 0 0 
SMALL
USER_CHARGES


@<TRIPOS>ATOM
  1 BR       1.3350    -1.5930     1.5860 Br    1 <1>  -0.1110 
  2 C        1.6090    -2.6330    -0.0140 C.ar  1 <1>   0.1110 
  3 C        2.8420    -2.6330    -0.6760 C.ar  1 <1>   0.0860 
  4 C        0.5130    -3.3480    -0.4580 C.ar  1 <1>  -0.1500 
  5 C        4.0210    -1.9200    -0.2220 C.2   1 <1>   0.5440 
  6 C        2.9010    -3.3870    -1.8520 C.ar  1 <1>  -0.1500 
  7 C        0.6180    -4.0950    -1.6160 C.ar  1 <1>  -0.1500 
  8 O        4.7970    -1.4310    -1.0210 O.2   1 <1>  -0.5700 
  9 N        4.3710    -1.8440     1.0980 N.am  1 <1>  -0.7300 
 10 C        1.8130    -4.1090    -2.3140 C.ar  1 <1>  -0.1500 
 11 C        5.1810    -0.7540     1.7020 C.3   1 <1>   0.1400 
 12 C        6.5290    -1.2770     2.2180 C.3   1 <1>  -0.1600 
 13 C        7.6340    -1.3340     1.1540 C.3   1 <1>   0.3430 
 14 N        7.2510    -2.2120     0.0270 N.4   1 <1>  -0.9590 
 15 C        7.2110    -3.6700     0.3750 C.3   1 <1>   0.3430 
 16 C        8.0700    -1.9740    -1.2050 C.3   1 <1>   0.3430 
 17 C        6.8130    -4.5210    -0.8460 C.3   1 <1>   0.1200 
 18 C        7.6230    -2.9010    -2.3510 C.3   1 <1>   0.1200 
 19 O        7.6450    -4.2380    -1.9340 O.3   1 <1>  -0.5600 
 20 H       -0.4130    -3.3180     0.0900 H     1 <1>   0.1500 
 21 H        3.8150    -3.4070    -2.4200 H     1 <1>   0.1500 
 22 H       -0.2270    -4.6590    -1.9780 H     1 <1>   0.1500 
 23 H        3.7060    -2.2590     1.7620 H     1 <1>   0.3700 
 24 H        1.8930    -4.6830    -3.2220 H     1 <1>   0.1500 
 25 H        4.6220    -0.3440     2.5270 H     1 <1>   0.0800 
 26 H        5.3300     0.0410     0.9890 H     1 <1>   0.0800 
 27 H        6.4060    -2.2260     2.7050 H     1 <1>   0.0800 
 28 H        6.8690    -0.5890     2.9720 H     1 <1>   0.0800 
 29 H        8.5520    -1.6850     1.5960 H     1 <1>   0.0800 
 30 H        7.8020    -0.3350     0.7830 H     1 <1>   0.0800 
 31 H        6.2780    -1.9410    -0.2330 H     1 <1>   0.4500 
 32 H        6.5020    -3.8380     1.1670 H     1 <1>   0.0800 
 33 H        8.1810    -3.9920     0.7170 H     1 <1>   0.0800 
 34 H        9.1110    -2.1600    -0.9970 H     1 <1>   0.0800 
 35 H        7.9660    -0.9490    -1.5210 H     1 <1>   0.0800 
 36 H        5.7930    -4.3310    -1.1310 H     1 <1>   0.0800 
 37 H        6.9170    -5.5680    -0.6180 H     1 <1>   0.0800 
 38 H        8.2920    -2.8070    -3.1880 H     1 <1>   0.0800 
 39 H        6.6270    -2.6540    -2.6790 H     1 <1>   0.0800 
@<TRIPOS>BOND
  1   1   2  1   
  2   2   3  ar  
  3   2   4  ar  
  4   3   5  1   
  5   3   6  ar  
  6   4   7  ar  
  7   4  20  1   
  8   5   8  2   
  9   5   9  am  
 10   6  10  ar  
 11   6  21  1   
 12   7  10  ar  
 13   7  22  1   
 14   9  11  1   
 15   9  23  1   
 16  10  24  1   
 17  11  12  1   
 18  11  25  1   
 19  11  26  1   
 20  12  13  1   
 21  12  27  1   
 22  12  28  1   
 23  13  14  1   
 24  13  29  1   
 25  13  30  1   
 26  14  15  1   
 27  14  16  1   
 28  14  31  1   
 29  15  17  1   
 30  15  32  1   
 31  15  33  1   
 32  16  18  1   
 33  16  34  1   
 34  16  35  1   
 35  17  19  1   
 36  17  36  1   
 37  17  37  1   
 38  18  19  1   
 39  18  38  1   
 40  18  39  1   
@<TRIPOS>SUBSTRUCTURE
  1 ****   5 GROUP 4 **** **** 0

# MOE 2024.06 (io_trps.svl 2023.06)
