@<TRIPOS>MOLECULE
NONAME
43 44 1 0 0 
SMALL
USER_CHARGES


@<TRIPOS>ATOM
  1 O        1.3050     0.5990    -0.5840 O.2   1 <1>  -0.5700 
  2 C        1.0640     1.6880    -1.0440 C.2   1 <1>   0.5690 
  3 N        2.0850     2.5470    -1.3760 N.am  1 <1>  -0.6600 
  4 C       -0.3980     2.0710    -1.2230 C.3   1 <1>  -0.0990 
  5 C        1.9390     4.0050    -1.6530 C.3   1 <1>   0.1400 
  6 C        3.5090     2.1120    -1.2470 C.3   1 <1>   0.1400 
  7 C       -0.9780     2.8960    -0.0540 C.3   1 <1>  -0.0800 
  8 C        2.6330     4.8170    -0.5400 C.3   1 <1>   0.3430 
  9 C        4.1950     2.9030    -0.1200 C.3   1 <1>   0.3430 
 10 C       -0.9770     2.0970     1.2560 C.3   1 <1>  -0.2400 
 11 C       -2.4080     3.3380    -0.3840 C.3   1 <1>  -0.2400 
 12 N        4.0680     4.3940    -0.3180 N.4   1 <1>  -0.9590 
 13 C        4.6930     5.1390     0.8110 C.3   1 <1>   0.4860 
 14 C        4.6270     6.6240     0.5130 C.ar  1 <1>  -0.1440 
 15 C        5.4400     7.2210    -0.4340 C.ar  1 <1>  -0.1500 
 16 C        3.7400     7.4550     1.1720 C.ar  1 <1>  -0.1500 
 17 C        5.3130     8.5770    -0.6840 C.ar  1 <1>   0.1600 
 18 C        3.6930     8.8000     0.8450 C.ar  1 <1>   0.1600 
 19 N        4.4510     9.3700    -0.0740 N.ar  1 <1>  -0.6200 
 20 H       -0.9660     1.1630    -1.3250 H     1 <1>   0.0800 
 21 H       -0.5060     2.6050    -2.1480 H     1 <1>   0.0800 
 22 H        0.9050     4.2910    -1.7090 H     1 <1>   0.0800 
 23 H        2.3870     4.2330    -2.6050 H     1 <1>   0.0800 
 24 H        4.0200     2.2760    -2.1800 H     1 <1>   0.0800 
 25 H        3.5730     1.0590    -1.0290 H     1 <1>   0.0800 
 26 H       -0.3830     3.7790     0.0930 H     1 <1>   0.0800 
 27 H        2.0730     4.6830     0.3710 H     1 <1>   0.0800 
 28 H        2.5950     5.8640    -0.7970 H     1 <1>   0.0800 
 29 H        5.2350     2.6220    -0.0770 H     1 <1>   0.0800 
 30 H        3.7360     2.6170     0.8130 H     1 <1>   0.0800 
 31 H       -1.5540     1.1950     1.1480 H     1 <1>   0.0800 
 32 H       -1.4060     2.6790     2.0530 H     1 <1>   0.0800 
 33 H        0.0230     1.8240     1.5400 H     1 <1>   0.0800 
 34 H       -3.0460     2.4830    -0.5270 H     1 <1>   0.0800 
 35 H       -2.4260     3.9310    -1.2820 H     1 <1>   0.0800 
 36 H       -2.8120     3.9310     0.4180 H     1 <1>   0.0800 
 37 H        4.5860     4.6490    -1.1670 H     1 <1>   0.4500 
 38 H        5.7230     4.8430     0.9280 H     1 <1>   0.0800 
 39 H        4.1710     4.9270     1.7300 H     1 <1>   0.0800 
 40 H        6.1760     6.6610    -0.9820 H     1 <1>   0.1500 
 41 H        3.0810     7.0850     1.9380 H     1 <1>   0.1500 
 42 H        5.9510     9.0350    -1.4230 H     1 <1>   0.1500 
 43 H        2.9990     9.4410     1.3640 H     1 <1>   0.1500 
@<TRIPOS>BOND
  1   1   2  2   
  2   2   3  am  
  3   2   4  1   
  4   3   5  1   
  5   3   6  1   
  6   4   7  1   
  7   4  20  1   
  8   4  21  1   
  9   5   8  1   
 10   5  22  1   
 11   5  23  1   
 12   6   9  1   
 13   6  24  1   
 14   6  25  1   
 15   7  10  1   
 16   7  11  1   
 17   7  26  1   
 18   8  12  1   
 19   8  27  1   
 20   8  28  1   
 21   9  12  1   
 22   9  29  1   
 23   9  30  1   
 24  10  31  1   
 25  10  32  1   
 26  10  33  1   
 27  11  34  1   
 28  11  35  1   
 29  11  36  1   
 30  12  13  1   
 31  12  37  1   
 32  13  14  1   
 33  13  38  1   
 34  13  39  1   
 35  14  15  ar  
 36  14  16  ar  
 37  15  17  ar  
 38  15  40  1   
 39  16  18  ar  
 40  16  41  1   
 41  17  19  ar  
 42  17  42  1   
 43  18  19  ar  
 44  18  43  1   
@<TRIPOS>SUBSTRUCTURE
  1 ****   8 GROUP 4 **** **** 0

# MOE 2024.06 (io_trps.svl 2023.06)
