@<TRIPOS>MOLECULE
NONAME
33 33 1 0 0 
SMALL
USER_CHARGES


@<TRIPOS>ATOM
  1 CL       0.4320    -0.0360     1.0520 Cl    1 <1>  -0.2900 
  2 C        1.5950     0.8420     0.0640 C.3   1 <1>   0.9310 
  3 CL       0.8560     1.0860    -1.5160 Cl    1 <1>  -0.2900 
  4 CL       1.7550     2.4440     0.7890 Cl    1 <1>  -0.2900 
  5 C        2.9710     0.1170    -0.0260 C.2   1 <1>   0.5690 
  6 O        3.0320    -0.9870    -0.5240 O.2   1 <1>  -0.5700 
  7 N        4.1210     0.7090     0.4450 N.am  1 <1>  -0.7300 
  8 C        5.4680     0.0830     0.4310 C.3   1 <1>   0.1400 
  9 C        6.2590     0.5660    -0.7850 C.3   1 <1>  -0.0160 
 10 C        7.6670    -0.0080    -0.7570 C.ar  1 <1>  -0.1430 
 11 C        8.7240     0.7360    -0.2550 C.ar  1 <1>  -0.1500 
 12 C        7.9010    -1.2870    -1.2330 C.ar  1 <1>  -0.1500 
 13 C       10.0180     0.2190    -0.2230 C.ar  1 <1>   0.0830 
 14 C        9.1780    -1.8170    -1.1970 C.ar  1 <1>  -0.1500 
 15 O       11.0620     0.9680     0.2380 O.3   1 <1>  -0.3630 
 16 C       10.2390    -1.0880    -0.6880 C.ar  1 <1>   0.0830 
 17 C       10.9860     2.3750     0.3120 C.3   1 <1>   0.0400 
 18 O       11.4390    -1.7370    -0.6990 O.3   1 <1>  -0.3630 
 19 C       12.4040    -1.5020     0.3020 C.3   1 <1>   0.0400 
 20 H        4.0820     1.6500     0.8530 H     1 <1>   0.3700 
 21 H        5.3740    -0.9910     0.3940 H     1 <1>   0.0800 
 22 H        5.9920     0.3400     1.3360 H     1 <1>   0.0800 
 23 H        6.3060     1.6400    -0.7880 H     1 <1>   0.0800 
 24 H        5.7610     0.2460    -1.6840 H     1 <1>   0.0800 
 25 H        8.5230     1.7230     0.1120 H     1 <1>   0.1500 
 26 H        7.0930    -1.8770    -1.6310 H     1 <1>   0.1500 
 27 H        9.3590    -2.8110    -1.5650 H     1 <1>   0.1500 
 28 H       11.9710     2.7510     0.5220 H     1 <1>   0.0800 
 29 H       10.3160     2.6490     1.1060 H     1 <1>   0.0800 
 30 H       10.6440     2.7570    -0.6340 H     1 <1>   0.0800 
 31 H       13.0770    -2.3390     0.3220 H     1 <1>   0.0800 
 32 H       11.9090    -1.4010     1.2510 H     1 <1>   0.0800 
 33 H       12.9460    -0.6060     0.0570 H     1 <1>   0.0800 
@<TRIPOS>BOND
  1   1   2  1   
  2   2   3  1   
  3   2   4  1   
  4   2   5  1   
  5   5   6  2   
  6   5   7  am  
  7   7   8  1   
  8   7  20  1   
  9   8   9  1   
 10   8  21  1   
 11   8  22  1   
 12   9  10  1   
 13   9  23  1   
 14   9  24  1   
 15  10  11  ar  
 16  10  12  ar  
 17  11  13  ar  
 18  11  25  1   
 19  12  14  ar  
 20  12  26  1   
 21  13  15  1   
 22  13  16  ar  
 23  14  16  ar  
 24  14  27  1   
 25  15  17  1   
 26  16  18  1   
 27  17  28  1   
 28  17  29  1   
 29  17  30  1   
 30  18  19  1   
 31  19  31  1   
 32  19  32  1   
 33  19  33  1   
@<TRIPOS>SUBSTRUCTURE
  1 ****   9 GROUP 4 **** **** 0

# MOE 2024.06 (io_trps.svl 2023.06)
