@<TRIPOS>MOLECULE
NONAME
41 42 1 0 0 
SMALL
USER_CHARGES


@<TRIPOS>ATOM
  1 O       -8.9090    -1.5000    -0.2910 O.3   1 <1>  -0.3630 
  2 C       -8.2920    -2.7010    -0.1280 C.ar  1 <1>   0.0830 
  3 C       -8.1970    -0.3240    -0.5940 C.3   1 <1>   0.1200 
  4 C       -9.0550    -3.7900     0.3020 C.ar  1 <1>  -0.1440 
  5 C       -6.9300    -2.8640    -0.3790 C.ar  1 <1>  -0.1500 
  6 C       -9.1890     0.8340    -0.5970 C.3   1 <1>   0.0960 
  7 C       -8.4250    -5.0150     0.4740 C.ar  1 <1>  -0.1500 
  8 C      -10.5590    -3.7180     0.6020 C.3   1 <1>   0.0640 
  9 C       -6.3180    -4.0920    -0.2040 C.ar  1 <1>  -0.1440 
 10 N       -8.4700     2.0990    -0.8330 N.pl3 1 <1>   0.0480 
 11 C       -7.0730    -5.1670     0.2250 C.ar  1 <1>  -0.1500 
 12 C      -11.3810    -3.3670    -0.6440 C.3   1 <1>  -0.2400 
 13 C      -10.8730    -2.7700     1.7660 C.3   1 <1>  -0.2400 
 14 C       -4.8340    -4.2570    -0.4780 C.3   1 <1>  -0.0970 
 15 C       -7.8950     2.9340     0.0680 C.2   1 <1>   0.0070 
 16 C       -8.2170     2.6610    -2.0290 C.2   1 <1>  -0.3020 
 17 N       -7.3130     3.9550    -0.4680 N.2   1 <1>  -0.5650 
 18 C       -7.9230     2.7030     1.5660 C.3   1 <1>  -0.0600 
 19 C       -7.5140     3.7880    -1.7880 C.2   1 <1>   0.0770 
 20 H       -7.7460    -0.4400    -1.5640 H     1 <1>   0.0800 
 21 H       -7.4460    -0.1800     0.1630 H     1 <1>   0.0800 
 22 H       -6.3260    -2.0440    -0.7130 H     1 <1>   0.1500 
 23 H       -9.6930     0.8890     0.3500 H     1 <1>   0.0800 
 24 H       -9.9140     0.6950    -1.3770 H     1 <1>   0.0800 
 25 H       -8.9840    -5.8720     0.8050 H     1 <1>   0.1500 
 26 H      -10.8830    -4.6970     0.9130 H     1 <1>   0.0800 
 27 H       -6.6130    -6.1290     0.3690 H     1 <1>   0.1500 
 28 H      -11.1830    -2.3630    -0.9690 H     1 <1>   0.0800 
 29 H      -12.4310    -3.4560    -0.4330 H     1 <1>   0.0800 
 30 H      -11.1330    -4.0410    -1.4440 H     1 <1>   0.0800 
 31 H      -10.6650    -1.7500     1.5020 H     1 <1>   0.0800 
 32 H      -10.2730    -3.0320     2.6200 H     1 <1>   0.0800 
 33 H      -11.9100    -2.8470     2.0380 H     1 <1>   0.0800 
 34 H       -4.5280    -3.6220    -1.2890 H     1 <1>   0.0800 
 35 H       -4.6100    -5.2750    -0.7420 H     1 <1>   0.0800 
 36 H       -4.2710    -3.9960     0.4000 H     1 <1>   0.0800 
 37 H       -8.5400     2.2430    -2.9650 H     1 <1>   0.1500 
 38 H       -8.9370     2.7060     1.9210 H     1 <1>   0.0800 
 39 H       -7.3840     3.4890     2.0630 H     1 <1>   0.0800 
 40 H       -7.4600     1.7650     1.8080 H     1 <1>   0.0800 
 41 H       -7.1370     4.4990    -2.5030 H     1 <1>   0.1500 
@<TRIPOS>BOND
  1   1   2  1   
  2   1   3  1   
  3   2   4  ar  
  4   2   5  ar  
  5   3   6  1   
  6   3  20  1   
  7   3  21  1   
  8   4   7  ar  
  9   4   8  1   
 10   5   9  ar  
 11   5  22  1   
 12   6  10  1   
 13   6  23  1   
 14   6  24  1   
 15   7  11  ar  
 16   7  25  1   
 17   8  12  1   
 18   8  13  1   
 19   8  26  1   
 20   9  11  ar  
 21   9  14  1   
 22  10  15  1   
 23  10  16  1   
 24  11  27  1   
 25  12  28  1   
 26  12  29  1   
 27  12  30  1   
 28  13  31  1   
 29  13  32  1   
 30  13  33  1   
 31  14  34  1   
 32  14  35  1   
 33  14  36  1   
 34  15  17  2   
 35  15  18  1   
 36  16  19  2   
 37  16  37  1   
 38  17  19  1   
 39  18  38  1   
 40  18  39  1   
 41  18  40  1   
 42  19  41  1   
@<TRIPOS>SUBSTRUCTURE
  1 ****   1 GROUP 4 **** **** 0

# MOE 2024.06 (io_trps.svl 2023.06)
