@<TRIPOS>MOLECULE
NONAME
44 45 1 0 0 
SMALL
USER_CHARGES


@<TRIPOS>ATOM
  1 S       -0.0240    -0.7080    -0.7790 S.3   1 <1>  -0.3710 
  2 C       -1.0210     0.5680    -0.0040 C.2   1 <1>   0.6510 
  3 C        1.2500     0.2020    -1.7970 C.3   1 <1>   0.1310 
  4 N       -0.7180     1.7790    -0.2770 N.2   1 <1>  -0.6210 
  5 N       -2.0260     0.1400     0.8450 N.am  1 <1>  -0.2370 
  6 C        2.6660    -0.0720    -1.2960 C.2   1 <1>   0.5690 
  7 C       -1.3980     2.7680     0.3650 C.2   1 <1>   0.0210 
  8 C       -2.7460     1.1410     1.4920 C.2   1 <1>   0.6160 
  9 C       -2.3470    -1.2220     1.0180 C.ar  1 <1>   0.1170 
 10 O        3.2630    -0.9780    -1.8370 O.2   1 <1>  -0.5700 
 11 N        3.2630     0.6840    -0.3090 N.am  1 <1>  -0.6600 
 12 O       -1.0460     3.9240     0.1380 O.3   1 <1>  -0.8500 
 13 C       -2.4170     2.4600     1.2430 C.2   1 <1>  -0.1360 
 14 O       -3.6600     0.8250     2.2770 O.2   1 <1>  -0.5700 
 15 C       -3.2550    -1.8700     0.1760 C.ar  1 <1>  -0.1430 
 16 C       -1.7450    -1.9400     2.0450 C.ar  1 <1>  -0.1500 
 17 C        2.5610     1.7640     0.4440 C.3   1 <1>   0.1400 
 18 C        4.6240     0.3390     0.1810 C.3   1 <1>   0.1400 
 19 C       -3.5320    -3.2140     0.3720 C.ar  1 <1>  -0.1500 
 20 C       -3.9450    -1.1170    -0.9540 C.3   1 <1>  -0.0970 
 21 C       -2.0260    -3.2790     2.2340 C.ar  1 <1>  -0.1500 
 22 C        2.6300     3.0940    -0.3050 C.3   1 <1>  -0.2400 
 23 C        5.6720     1.1550    -0.5710 C.3   1 <1>  -0.2400 
 24 C       -2.9210    -3.9180     1.3950 C.ar  1 <1>  -0.1500 
 25 H        1.0330     1.2490    -1.8070 H     1 <1>   0.0800 
 26 H        1.1500    -0.1720    -2.7980 H     1 <1>   0.0800 
 27 H       -2.9430     3.2530     1.7300 H     1 <1>   0.1500 
 28 H       -1.0510    -1.4390     2.6960 H     1 <1>   0.1500 
 29 H        3.0020     1.8840     1.4180 H     1 <1>   0.0800 
 30 H        1.5390     1.4880     0.6050 H     1 <1>   0.0800 
 31 H        4.8090    -0.7100     0.0230 H     1 <1>   0.0800 
 32 H        4.6950     0.5250     1.2380 H     1 <1>   0.0800 
 33 H       -4.2270    -3.7220    -0.2720 H     1 <1>   0.1500 
 34 H       -4.5030    -0.2890    -0.5530 H     1 <1>   0.0800 
 35 H       -4.6220    -1.7560    -1.4890 H     1 <1>   0.0800 
 36 H       -3.2140    -0.7390    -1.6460 H     1 <1>   0.0800 
 37 H       -1.5510    -3.8230     3.0320 H     1 <1>   0.1500 
 38 H        3.6320     3.4740    -0.3280 H     1 <1>   0.0800 
 39 H        2.0020     3.8080     0.2000 H     1 <1>   0.0800 
 40 H        2.2570     2.9950    -1.3060 H     1 <1>   0.0800 
 41 H        5.5780     0.9830    -1.6290 H     1 <1>   0.0800 
 42 H        6.6550     0.8510    -0.2620 H     1 <1>   0.0800 
 43 H        5.5580     2.2020    -0.3650 H     1 <1>   0.0800 
 44 H       -3.1420    -4.9610     1.5380 H     1 <1>   0.1500 
@<TRIPOS>BOND
  1   1   2  1   
  2   1   3  1   
  3   2   4  2   
  4   2   5  1   
  5   3   6  1   
  6   3  25  1   
  7   3  26  1   
  8   4   7  1   
  9   5   8  am  
 10   5   9  1   
 11   6  10  2   
 12   6  11  am  
 13   7  12  1   
 14   7  13  2   
 15   8  13  1   
 16   8  14  2   
 17   9  15  ar  
 18   9  16  ar  
 19  11  17  1   
 20  11  18  1   
 21  13  27  1   
 22  15  19  ar  
 23  15  20  1   
 24  16  21  ar  
 25  16  28  1   
 26  17  22  1   
 27  17  29  1   
 28  17  30  1   
 29  18  23  1   
 30  18  31  1   
 31  18  32  1   
 32  19  24  ar  
 33  19  33  1   
 34  20  34  1   
 35  20  35  1   
 36  20  36  1   
 37  21  24  ar  
 38  21  37  1   
 39  22  38  1   
 40  22  39  1   
 41  22  40  1   
 42  23  41  1   
 43  23  42  1   
 44  23  43  1   
 45  24  44  1   
@<TRIPOS>SUBSTRUCTURE
  1 ****   2 GROUP 4 **** **** 0

# MOE 2024.06 (io_trps.svl 2023.06)
