@<TRIPOS>MOLECULE
NONAME
33 33 1 0 0 
SMALL
USER_CHARGES


@<TRIPOS>ATOM
  1 O       -0.6180    -0.2940     0.1690 O.2   1 <1>  -0.5700 
  2 C       -0.3190    -1.4710     0.1300 C.2   1 <1>   0.5440 
  3 N        0.9790    -1.7990    -0.1330 N.am  1 <1>  -0.7300 
  4 C       -1.3210    -2.5030     0.3370 C.ar  1 <1>   0.0860 
  5 C        2.0630    -0.8320    -0.3450 C.3   1 <1>   0.2780 
  6 C       -2.6640    -2.2550     0.0550 C.ar  1 <1>  -0.1500 
  7 C       -0.9870    -3.7700     0.8220 C.ar  1 <1>  -0.1500 
  8 C        3.3520    -1.5110     0.0630 C.2   1 <1>  -0.2880 
  9 C       -3.6390    -3.2300     0.2370 C.ar  1 <1>   0.0830 
 10 C       -1.9480    -4.7490     1.0040 C.ar  1 <1>  -0.1500 
 11 C        4.3620    -1.8170    -0.7570 C.2   1 <1>  -0.3000 
 12 O       -4.9590    -3.0490    -0.0220 O.3   1 <1>  -0.3630 
 13 C       -3.2700    -4.4780     0.7090 C.ar  1 <1>  -0.1500 
 14 C       -5.5100    -1.8110    -0.4150 C.3   1 <1>   0.2000 
 15 C       -5.6630    -0.9190     0.8190 C.3   1 <1>  -0.2400 
 16 C       -6.8680    -2.1080    -1.0470 C.3   1 <1>  -0.2400 
 17 H        1.2420    -2.7680    -0.3050 H     1 <1>   0.3700 
 18 H        1.8970     0.0520     0.2480 H     1 <1>   0.0800 
 19 H        2.0920    -0.5520    -1.3840 H     1 <1>   0.0800 
 20 H       -2.9200    -1.2780    -0.3080 H     1 <1>   0.1500 
 21 H        0.0350    -3.9940     1.0690 H     1 <1>   0.1500 
 22 H        3.3740    -1.7300     1.1180 H     1 <1>   0.1500 
 23 H       -1.6700    -5.7200     1.3770 H     1 <1>   0.1500 
 24 H        5.2700    -2.2990    -0.4370 H     1 <1>   0.1500 
 25 H        4.3710    -1.6110    -1.8150 H     1 <1>   0.1500 
 26 H       -4.0270    -5.2290     0.8460 H     1 <1>   0.1500 
 27 H       -4.8710    -1.3600    -1.1540 H     1 <1>   0.0800 
 28 H       -6.2900    -1.3980     1.5490 H     1 <1>   0.0800 
 29 H       -6.1130     0.0170     0.5410 H     1 <1>   0.0800 
 30 H       -4.7050    -0.7110     1.2600 H     1 <1>   0.0800 
 31 H       -7.5150    -2.5900    -0.3360 H     1 <1>   0.0800 
 32 H       -6.7400    -2.7480    -1.9020 H     1 <1>   0.0800 
 33 H       -7.3310    -1.1940    -1.3720 H     1 <1>   0.0800 
@<TRIPOS>BOND
  1   1   2  2   
  2   2   3  am  
  3   2   4  1   
  4   3   5  1   
  5   3  17  1   
  6   4   6  ar  
  7   4   7  ar  
  8   5   8  1   
  9   5  18  1   
 10   5  19  1   
 11   6   9  ar  
 12   6  20  1   
 13   7  10  ar  
 14   7  21  1   
 15   8  11  2   
 16   8  22  1   
 17   9  12  1   
 18   9  13  ar  
 19  10  13  ar  
 20  10  23  1   
 21  11  24  1   
 22  11  25  1   
 23  12  14  1   
 24  13  26  1   
 25  14  15  1   
 26  14  16  1   
 27  14  27  1   
 28  15  28  1   
 29  15  29  1   
 30  15  30  1   
 31  16  31  1   
 32  16  32  1   
 33  16  33  1   
@<TRIPOS>SUBSTRUCTURE
  1 ****   4 GROUP 4 **** **** 0

# MOE 2024.06 (io_trps.svl 2023.06)
