@<TRIPOS>MOLECULE
NONAME
50 52 1 0 0 
SMALL
USER_CHARGES


@<TRIPOS>ATOM
  1 O       -0.3720    -0.6470     0.8740 O.2   1 <1>  -0.5700 
  2 C       -0.1020    -1.8150     0.6660 C.2   1 <1>   0.6900 
  3 N       -0.9340    -2.8080     1.1100 N.am  1 <1>  -0.6600 
  4 N        1.0450    -2.1720     0.0190 N.am  1 <1>  -0.5470 
  5 C       -1.1290    -4.1060     0.3830 C.3   1 <1>   0.1400 
  6 C       -2.0370    -2.5100     2.0810 C.3   1 <1>   0.1400 
  7 C        2.0030    -1.4070    -0.6650 C.ar  1 <1>   0.1170 
  8 C       -2.5290    -4.1900    -0.2530 C.3   1 <1>   0.2090 
  9 C       -3.4170    -2.6090     1.4100 C.3   1 <1>   0.2090 
 10 C        3.3370    -1.8290    -0.7200 C.ar  1 <1>  -0.1440 
 11 C        1.6340    -0.2370    -1.3210 C.ar  1 <1>  -0.1500 
 12 N       -3.5940    -3.9430     0.7620 N.pl3 1 <1>  -0.8380 
 13 C        4.2570    -1.0680    -1.4340 C.ar  1 <1>  -0.1500 
 14 C        3.7490    -3.1140     0.0120 C.3   1 <1>  -0.0170 
 15 C        2.5580     0.5110    -2.0230 C.ar  1 <1>  -0.1500 
 16 C       -4.9010    -4.2390     0.3460 C.ar  1 <1>   0.1000 
 17 C        3.8730     0.0930    -2.0800 C.ar  1 <1>  -0.1500 
 18 C        5.2510    -3.4260     0.0320 C.3   1 <1>  -0.2400 
 19 C       -5.5810    -3.5590    -0.6810 C.ar  1 <1>   0.0820 
 20 C       -5.5510    -5.2740     1.0030 C.ar  1 <1>  -0.1500 
 21 O       -4.9370    -2.5370    -1.3250 O.3   1 <1>  -0.3620 
 22 C       -6.8790    -3.9380    -1.0150 C.ar  1 <1>  -0.1500 
 23 C       -6.8410    -5.6430     0.6670 C.ar  1 <1>  -0.1500 
 24 C       -5.6080    -1.7030    -2.2420 C.3   1 <1>   0.0400 
 25 C       -7.5060    -4.9740    -0.3440 C.ar  1 <1>  -0.1500 
 26 H        1.3020    -3.1340     0.1960 H     1 <1>   0.3700 
 27 H       -1.0170    -4.9180     1.0790 H     1 <1>   0.0800 
 28 H       -0.3960    -4.2240    -0.3930 H     1 <1>   0.0800 
 29 H       -1.9170    -1.5260     2.5000 H     1 <1>   0.0800 
 30 H       -1.9930    -3.2170     2.8890 H     1 <1>   0.0800 
 31 H       -2.6720    -5.1650    -0.6850 H     1 <1>   0.0800 
 32 H       -2.6020    -3.4610    -1.0420 H     1 <1>   0.0800 
 33 H       -3.5070    -1.8280     0.6750 H     1 <1>   0.0800 
 34 H       -4.1880    -2.4660     2.1470 H     1 <1>   0.0800 
 35 H        0.6120     0.0940    -1.2840 H     1 <1>   0.1500 
 36 H        5.2890    -1.3570    -1.5030 H     1 <1>   0.1500 
 37 H        3.2390    -3.9450    -0.4420 H     1 <1>   0.0800 
 38 H        3.4190    -3.0410     1.0340 H     1 <1>   0.0800 
 39 H        2.2530     1.4150    -2.5210 H     1 <1>   0.1500 
 40 H        4.5980     0.6710    -2.6260 H     1 <1>   0.1500 
 41 H        5.6170    -3.5860    -0.9670 H     1 <1>   0.0800 
 42 H        5.4310    -4.3190     0.6030 H     1 <1>   0.0800 
 43 H        5.7960    -2.6170     0.4860 H     1 <1>   0.0800 
 44 H       -5.0290    -5.7890     1.7870 H     1 <1>   0.1500 
 45 H       -7.4230    -3.4430    -1.7960 H     1 <1>   0.1500 
 46 H       -7.3240    -6.4490     1.1910 H     1 <1>   0.1500 
 47 H       -4.9230    -0.9360    -2.5570 H     1 <1>   0.0800 
 48 H       -6.4560    -1.2570    -1.7530 H     1 <1>   0.0800 
 49 H       -5.9130    -2.2900    -3.0900 H     1 <1>   0.0800 
 50 H       -8.5090    -5.2600    -0.6090 H     1 <1>   0.1500 
@<TRIPOS>BOND
  1   1   2  2   
  2   2   3  am  
  3   2   4  am  
  4   3   5  1   
  5   3   6  1   
  6   4   7  1   
  7   4  26  1   
  8   5   8  1   
  9   5  27  1   
 10   5  28  1   
 11   6   9  1   
 12   6  29  1   
 13   6  30  1   
 14   7  10  ar  
 15   7  11  ar  
 16   8  12  1   
 17   8  31  1   
 18   8  32  1   
 19   9  12  1   
 20   9  33  1   
 21   9  34  1   
 22  10  13  ar  
 23  10  14  1   
 24  11  15  ar  
 25  11  35  1   
 26  12  16  1   
 27  13  17  ar  
 28  13  36  1   
 29  14  18  1   
 30  14  37  1   
 31  14  38  1   
 32  15  17  ar  
 33  15  39  1   
 34  16  19  ar  
 35  16  20  ar  
 36  17  40  1   
 37  18  41  1   
 38  18  42  1   
 39  18  43  1   
 40  19  21  1   
 41  19  22  ar  
 42  20  23  ar  
 43  20  44  1   
 44  21  24  1   
 45  22  25  ar  
 46  22  45  1   
 47  23  25  ar  
 48  23  46  1   
 49  24  47  1   
 50  24  48  1   
 51  24  49  1   
 52  25  50  1   
@<TRIPOS>SUBSTRUCTURE
  1 ****   3 GROUP 4 **** **** 0

# MOE 2024.06 (io_trps.svl 2023.06)
