@<TRIPOS>MOLECULE
NONAME
53 56 1 0 0 
SMALL
USER_CHARGES


@<TRIPOS>ATOM
  1 O        1.2400    -1.6920     2.9700 O.3   1 <1>  -0.6800 
  2 C        2.3620    -2.0860     2.2580 C.3   1 <1>   0.1200 
  3 C        2.8650    -0.8840     1.4520 C.3   1 <1>   0.1100 
  4 N        4.0590    -1.2190     0.6440 N.3   1 <1>  -0.8100 
  5 C        3.7130    -2.0050    -0.5680 C.3   1 <1>   0.1100 
  6 C        4.7810     0.0200     0.2580 C.3   1 <1>   0.1100 
  7 C        4.9590    -2.3550    -1.4210 C.3   1 <1>   0.3430 
  8 C        6.0070    -0.2540    -0.6460 C.3   1 <1>   0.3430 
  9 N        6.1980    -1.7280    -0.8610 N.4   1 <1>  -0.9590 
 10 C        7.4460    -2.0790    -1.5850 C.3   1 <1>   0.4860 
 11 C        8.6220    -1.4810    -0.8410 C.ar  1 <1>  -0.1440 
 12 C        9.2850    -0.3850    -1.3580 C.ar  1 <1>  -0.1500 
 13 C        9.0270    -2.0290     0.3820 C.ar  1 <1>  -0.1500 
 14 C       10.3410     0.1820    -0.6480 C.ar  1 <1>   0.0000 
 15 C       10.0730    -1.4760     1.0890 C.ar  1 <1>  -0.1500 
 16 C       10.7270    -0.3590     0.5710 C.ar  1 <1>  -0.1520 
 17 C       11.1930     1.2920    -0.9050 C.ar  1 <1>   0.0000 
 18 N       11.7820     0.3830     1.0700 N.pl3 1 <1>   0.0480 
 19 C       12.0690     1.3910     0.1690 C.ar  1 <1>  -0.1520 
 20 C       11.2790     2.2010    -1.9590 C.ar  1 <1>  -0.1500 
 21 C       12.4820     0.1460     2.3510 C.3   1 <1>   0.0960 
 22 C       13.0390     2.3940     0.2030 C.ar  1 <1>  -0.1500 
 23 C       12.2350     3.1930    -1.9230 C.ar  1 <1>  -0.1500 
 24 C       13.6650    -0.8050     2.1480 C.3   1 <1>  -0.2400 
 25 C       13.1140     3.2890    -0.8430 C.ar  1 <1>  -0.1500 
 26 H        0.9160    -2.4160     3.5430 H     1 <1>   0.4000 
 27 H        2.0770    -2.9000     1.6160 H     1 <1>   0.0800 
 28 H        3.1120    -2.4080     2.9600 H     1 <1>   0.0800 
 29 H        3.1180    -0.1090     2.1560 H     1 <1>   0.0800 
 30 H        2.0760    -0.5190     0.8150 H     1 <1>   0.0800 
 31 H        3.0170    -1.4500    -1.1750 H     1 <1>   0.0800 
 32 H        3.2280    -2.9220    -0.2820 H     1 <1>   0.0800 
 33 H        5.1190     0.5230     1.1480 H     1 <1>   0.0800 
 34 H        4.1120     0.6910    -0.2540 H     1 <1>   0.0800 
 35 H        4.7980    -2.0200    -2.4320 H     1 <1>   0.0800 
 36 H        5.0710    -3.4270    -1.4450 H     1 <1>   0.0800 
 37 H        6.8820     0.1680    -0.1770 H     1 <1>   0.0800 
 38 H        5.8710     0.2430    -1.5920 H     1 <1>   0.0800 
 39 H        6.2630    -2.0890     0.1020 H     1 <1>   0.4500 
 40 H        7.4150    -1.6890    -2.5890 H     1 <1>   0.0800 
 41 H        7.5610    -3.1490    -1.6350 H     1 <1>   0.0800 
 42 H        9.0150     0.0570    -2.3000 H     1 <1>   0.1500 
 43 H        8.5270    -2.8930     0.7850 H     1 <1>   0.1500 
 44 H       10.3870    -1.8980     2.0280 H     1 <1>   0.1500 
 45 H       10.6020     2.1200    -2.7890 H     1 <1>   0.1500 
 46 H       11.7860    -0.2710     3.0560 H     1 <1>   0.0800 
 47 H       12.8260     1.0880     2.7370 H     1 <1>   0.0800 
 48 H       13.7190     2.4670     1.0320 H     1 <1>   0.1500 
 49 H       12.3120     3.9020    -2.7290 H     1 <1>   0.1500 
 50 H       13.3220    -1.7530     1.7740 H     1 <1>   0.0800 
 51 H       14.1690    -0.9670     3.0840 H     1 <1>   0.0800 
 52 H       14.3660    -0.3820     1.4500 H     1 <1>   0.0800 
 53 H       13.8550     4.0700    -0.8340 H     1 <1>   0.1500 
@<TRIPOS>BOND
  1   1   2  1   
  2   1  26  1   
  3   2   3  1   
  4   2  27  1   
  5   2  28  1   
  6   3   4  1   
  7   3  29  1   
  8   3  30  1   
  9   4   5  1   
 10   4   6  1   
 11   5   7  1   
 12   5  31  1   
 13   5  32  1   
 14   6   8  1   
 15   6  33  1   
 16   6  34  1   
 17   7   9  1   
 18   7  35  1   
 19   7  36  1   
 20   8   9  1   
 21   8  37  1   
 22   8  38  1   
 23   9  10  1   
 24   9  39  1   
 25  10  11  1   
 26  10  40  1   
 27  10  41  1   
 28  11  12  ar  
 29  11  13  ar  
 30  12  14  ar  
 31  12  42  1   
 32  13  15  ar  
 33  13  43  1   
 34  14  16  ar  
 35  14  17  1   
 36  15  16  ar  
 37  15  44  1   
 38  16  18  1   
 39  17  19  ar  
 40  17  20  ar  
 41  18  19  1   
 42  18  21  1   
 43  19  22  ar  
 44  20  23  ar  
 45  20  45  1   
 46  21  24  1   
 47  21  46  1   
 48  21  47  1   
 49  22  25  ar  
 50  22  48  1   
 51  23  25  ar  
 52  23  49  1   
 53  24  50  1   
 54  24  51  1   
 55  24  52  1   
 56  25  53  1   
@<TRIPOS>SUBSTRUCTURE
  1 ****  11 GROUP 4 **** **** 0

# MOE 2024.06 (io_trps.svl 2023.06)
