@<TRIPOS>MOLECULE
NONAME
32 32 1 0 0 
SMALL
USER_CHARGES


@<TRIPOS>ATOM
  1 O       -0.8480     0.3540     1.4580 O.2   1 <1>  -0.5700 
  2 C       -1.5770     0.8930     0.6430 C.2   1 <1>   0.4140 
  3 C       -1.3710     2.1780     0.0990 C.3   1 <1>  -0.7150 
  4 C       -2.7880     0.0720     0.2420 C.3   1 <1>  -0.0990 
  5 C       -2.3080     2.6980    -0.8180 C.2   1 <1>   0.4140 
  6 C       -0.2540     2.9530     0.4780 C.2   1 <1>   0.4140 
  7 C       -4.0160     0.9450    -0.0490 C.3   1 <1>   0.0000 
  8 O       -2.1390     3.6970    -1.4950 O.2   1 <1>  -0.5700 
  9 C       -3.6170     1.9820    -1.1090 C.3   1 <1>  -0.0990 
 10 O       -0.3140     4.1550     0.6810 O.2   1 <1>  -0.5700 
 11 C        1.1200     2.3210     0.6820 C.3   1 <1>  -0.0990 
 12 C       -5.1620     0.0700    -0.5810 C.3   1 <1>  -0.2400 
 13 C       -4.4970     1.6490     1.2350 C.3   1 <1>  -0.2400 
 14 C        2.2590     3.1270     0.0350 C.3   1 <1>  -0.1600 
 15 C        3.6130     2.4310     0.2100 C.3   1 <1>  -0.2400 
 16 H       -3.0150    -0.6210     1.0320 H     1 <1>   0.0800 
 17 H       -2.5190    -0.4960    -0.6280 H     1 <1>   0.0800 
 18 H       -3.5000     1.5030    -2.0630 H     1 <1>   0.0800 
 19 H       -4.3930     2.7190    -1.2080 H     1 <1>   0.0800 
 20 H        1.1150     1.3370     0.2530 H     1 <1>   0.0800 
 21 H        1.2860     2.2270     1.7390 H     1 <1>   0.0800 
 22 H       -4.8610    -0.4450    -1.4760 H     1 <1>   0.0800 
 23 H       -6.0210     0.6760    -0.8100 H     1 <1>   0.0800 
 24 H       -5.4470    -0.6620     0.1530 H     1 <1>   0.0800 
 25 H       -3.7300     2.2960     1.6260 H     1 <1>   0.0800 
 26 H       -4.7430     0.9270     1.9930 H     1 <1>   0.0800 
 27 H       -5.3660     2.2490     1.0350 H     1 <1>   0.0800 
 28 H        2.2960     4.1070     0.4810 H     1 <1>   0.0800 
 29 H        2.0440     3.2510    -1.0130 H     1 <1>   0.0800 
 30 H        3.8390     2.3170     1.2550 H     1 <1>   0.0800 
 31 H        4.3880     3.0170    -0.2500 H     1 <1>   0.0800 
 32 H        3.5940     1.4600    -0.2510 H     1 <1>   0.0800 
@<TRIPOS>BOND
  1   1   2  2   
  2   2   3  1   
  3   2   4  1   
  4   3   5  1   
  5   3   6  1   
  6   4   7  1   
  7   4  16  1   
  8   4  17  1   
  9   5   8  2   
 10   5   9  1   
 11   6  10  2   
 12   6  11  1   
 13   7   9  1   
 14   7  12  1   
 15   7  13  1   
 16   9  18  1   
 17   9  19  1   
 18  11  14  1   
 19  11  20  1   
 20  11  21  1   
 21  12  22  1   
 22  12  23  1   
 23  12  24  1   
 24  13  25  1   
 25  13  26  1   
 26  13  27  1   
 27  14  15  1   
 28  14  28  1   
 29  14  29  1   
 30  15  30  1   
 31  15  31  1   
 32  15  32  1   
@<TRIPOS>SUBSTRUCTURE
  1 ****   3 GROUP 4 **** **** 0

# MOE 2024.06 (io_trps.svl 2023.06)
