@<TRIPOS>MOLECULE
NONAME
42 44 1 0 0 
SMALL
USER_CHARGES


@<TRIPOS>ATOM
  1 CL       0.1800     0.4060    -0.3190 Cl    1 <1>  -0.1770 
  2 C       -1.0230    -0.8390    -0.1170 C.ar  1 <1>   0.1770 
  3 C       -1.8170    -1.1980    -1.1880 C.ar  1 <1>  -0.1500 
  4 C       -1.1670    -1.4520     1.1120 C.ar  1 <1>  -0.1500 
  5 C       -2.7730    -2.1860    -1.0190 C.ar  1 <1>  -0.1500 
  6 C       -2.1260    -2.4390     1.2670 C.ar  1 <1>  -0.1500 
  7 C       -2.9460    -2.8220     0.2080 C.ar  1 <1>  -0.0090 
  8 S       -4.2110    -4.1090     0.4130 S.o2  1 <1>   1.4470 
  9 O       -4.3350    -4.4730     1.8080 O.2   1 <1>  -0.6500 
 10 O       -4.0010    -5.1420    -0.5770 O.2   1 <1>  -0.6500 
 11 N       -5.6440    -3.3090    -0.0100 N.am  1 <1>  -0.8490 
 12 C       -6.0590    -2.3270     1.0100 C.3   1 <1>   0.1960 
 13 C       -6.7350    -4.2710    -0.2490 C.3   1 <1>   0.1960 
 14 C       -7.3180    -1.5580     0.5810 C.3   1 <1>   0.1400 
 15 C       -8.0360    -3.5790    -0.6960 C.3   1 <1>   0.1400 
 16 N       -8.4350    -2.4970     0.2570 N.am  1 <1>  -0.6600 
 17 C       -9.7080    -2.3040     0.7480 C.2   1 <1>   0.5690 
 18 O       -9.9330    -1.3870     1.5100 O.2   1 <1>  -0.5700 
 19 C      -10.8730    -3.2560     0.3630 C.3   1 <1>   0.2610 
 20 O      -11.0520    -3.3100    -1.0280 O.3   1 <1>  -0.5600 
 21 C      -12.2590    -2.8480     0.8650 C.3   1 <1>  -0.1600 
 22 C      -11.8850    -2.2720    -1.4380 C.3   1 <1>   0.1200 
 23 C      -12.7810    -1.9480    -0.2450 C.3   1 <1>  -0.1600 
 24 H       -1.6860    -0.7100    -2.1380 H     1 <1>   0.1500 
 25 H       -0.5360    -1.1590     1.9330 H     1 <1>   0.1500 
 26 H       -3.3960    -2.4730    -1.8500 H     1 <1>   0.1500 
 27 H       -2.2390    -2.9210     2.2260 H     1 <1>   0.1500 
 28 H       -5.2660    -1.6190     1.1750 H     1 <1>   0.0800 
 29 H       -6.2600    -2.8240     1.9460 H     1 <1>   0.0800 
 30 H       -6.9250    -4.8380     0.6470 H     1 <1>   0.0800 
 31 H       -6.4420    -4.9640    -1.0200 H     1 <1>   0.0800 
 32 H       -7.0940    -0.9660    -0.2890 H     1 <1>   0.0800 
 33 H       -7.6040    -0.8870     1.3720 H     1 <1>   0.0800 
 34 H       -8.8050    -4.3250    -0.7800 H     1 <1>   0.0800 
 35 H       -7.8890    -3.1490    -1.6710 H     1 <1>   0.0800 
 36 H      -10.6310    -4.2440     0.7070 H     1 <1>   0.0800 
 37 H      -12.2340    -2.3590     1.8230 H     1 <1>   0.0800 
 38 H      -12.8710    -3.7290     0.9420 H     1 <1>   0.0800 
 39 H      -12.4480    -2.6000    -2.2950 H     1 <1>   0.0800 
 40 H      -11.2670    -1.4290    -1.7010 H     1 <1>   0.0800 
 41 H      -12.6690    -0.9110     0.0180 H     1 <1>   0.0800 
 42 H      -13.8150    -2.1460    -0.4650 H     1 <1>   0.0800 
@<TRIPOS>BOND
  1   1   2  1   
  2   2   3  ar  
  3   2   4  ar  
  4   3   5  ar  
  5   3  24  1   
  6   4   6  ar  
  7   4  25  1   
  8   5   7  ar  
  9   5  26  1   
 10   6   7  ar  
 11   6  27  1   
 12   7   8  1   
 13   8   9  2   
 14   8  10  2   
 15   8  11  am  
 16  11  12  1   
 17  11  13  1   
 18  12  14  1   
 19  12  28  1   
 20  12  29  1   
 21  13  15  1   
 22  13  30  1   
 23  13  31  1   
 24  14  16  1   
 25  14  32  1   
 26  14  33  1   
 27  15  16  1   
 28  15  34  1   
 29  15  35  1   
 30  16  17  am  
 31  17  18  2   
 32  17  19  1   
 33  19  20  1   
 34  19  21  1   
 35  19  36  1   
 36  20  22  1   
 37  21  23  1   
 38  21  37  1   
 39  21  38  1   
 40  22  23  1   
 41  22  39  1   
 42  22  40  1   
 43  23  41  1   
 44  23  42  1   
@<TRIPOS>SUBSTRUCTURE
  1 ****  12 GROUP 4 **** **** 0

# MOE 2024.06 (io_trps.svl 2023.06)
