@<TRIPOS>MOLECULE
NONAME
46 48 1 0 0 
SMALL
USER_CHARGES


@<TRIPOS>ATOM
  1 F       -0.4050    -1.8080     2.3790 F     1 <1>  -0.1900 
  2 C       -1.3210    -1.6310     1.4550 C.ar  1 <1>   0.1900 
  3 C       -1.1300    -2.1790     0.1800 C.ar  1 <1>   0.1000 
  4 C       -2.4420    -0.9010     1.7970 C.ar  1 <1>  -0.1500 
  5 N       -0.0060    -2.9250    -0.2040 N.pl3 1 <1>  -0.8380 
  6 C       -2.1330    -1.9580    -0.7550 C.ar  1 <1>  -0.1500 
  7 C       -3.4240    -0.6990     0.8410 C.ar  1 <1>  -0.1500 
  8 C        0.1240    -4.2560     0.4610 C.3   1 <1>   0.2090 
  9 C        1.2690    -2.1500    -0.2740 C.3   1 <1>   0.2090 
 10 C       -3.2660    -1.2280    -0.4310 C.ar  1 <1>  -0.1500 
 11 C        1.2660    -5.0840    -0.1660 C.3   1 <1>   0.3430 
 12 C        2.3970    -2.9960    -0.8990 C.3   1 <1>   0.3430 
 13 N        2.5700    -4.3280    -0.2060 N.4   1 <1>  -0.9590 
 14 C        3.6620    -5.1320    -0.8170 C.3   1 <1>   0.4860 
 15 C        4.9610    -4.3600    -0.6790 C.ar  1 <1>  -0.1430 
 16 C        5.6020    -4.2690     0.5470 C.ar  1 <1>  -0.1500 
 17 C        5.5160    -3.7230    -1.7780 C.ar  1 <1>  -0.1500 
 18 C        6.7690    -3.5360     0.6710 C.ar  1 <1>  -0.1500 
 19 C        6.6820    -2.9920    -1.6430 C.ar  1 <1>  -0.1500 
 20 C        7.3380    -2.8710    -0.4170 C.ar  1 <1>   0.0860 
 21 C        8.5520    -2.0840    -0.2960 C.2   1 <1>   0.6340 
 22 O        9.0370    -1.4700    -1.2230 O.2   1 <1>  -0.5700 
 23 O        9.1510    -2.0320     0.8990 O.3   1 <1>  -0.4300 
 24 C       10.3370    -1.2890     1.1060 C.3   1 <1>   0.0400 
 25 H       -2.5460    -0.4990     2.7890 H     1 <1>   0.1500 
 26 H       -2.0210    -2.3630    -1.7440 H     1 <1>   0.1500 
 27 H       -4.3080    -0.1340     1.0850 H     1 <1>   0.1500 
 28 H       -0.8040    -4.7930     0.3560 H     1 <1>   0.0800 
 29 H        0.3080    -4.1230     1.5140 H     1 <1>   0.0800 
 30 H        1.5600    -1.8300     0.7110 H     1 <1>   0.0800 
 31 H        1.1130    -1.2680    -0.8730 H     1 <1>   0.0800 
 32 H       -4.0310    -1.0700    -1.1730 H     1 <1>   0.1500 
 33 H        0.9710    -5.3480    -1.1680 H     1 <1>   0.0800 
 34 H        1.3840    -5.9960     0.3960 H     1 <1>   0.0800 
 35 H        3.3150    -2.4340    -0.8530 H     1 <1>   0.0800 
 36 H        2.1580    -3.1560    -1.9370 H     1 <1>   0.0800 
 37 H        2.8500    -4.1190     0.7600 H     1 <1>   0.4500 
 38 H        3.4520    -5.3170    -1.8580 H     1 <1>   0.0800 
 39 H        3.7550    -6.0800    -0.3130 H     1 <1>   0.0800 
 40 H        5.2100    -4.7670     1.4180 H     1 <1>   0.1500 
 41 H        5.0540    -3.7860    -2.7500 H     1 <1>   0.1500 
 42 H        7.2520    -3.4780     1.6330 H     1 <1>   0.1500 
 43 H        7.1020    -2.5000    -2.5060 H     1 <1>   0.1500 
 44 H       10.6320    -1.3960     2.1340 H     1 <1>   0.0800 
 45 H       10.1440    -0.2550     0.8800 H     1 <1>   0.0800 
 46 H       11.1050    -1.6730     0.4570 H     1 <1>   0.0800 
@<TRIPOS>BOND
  1   1   2  1   
  2   2   3  ar  
  3   2   4  ar  
  4   3   5  1   
  5   3   6  ar  
  6   4   7  ar  
  7   4  25  1   
  8   5   8  1   
  9   5   9  1   
 10   6  10  ar  
 11   6  26  1   
 12   7  10  ar  
 13   7  27  1   
 14   8  11  1   
 15   8  28  1   
 16   8  29  1   
 17   9  12  1   
 18   9  30  1   
 19   9  31  1   
 20  10  32  1   
 21  11  13  1   
 22  11  33  1   
 23  11  34  1   
 24  12  13  1   
 25  12  35  1   
 26  12  36  1   
 27  13  14  1   
 28  13  37  1   
 29  14  15  1   
 30  14  38  1   
 31  14  39  1   
 32  15  16  ar  
 33  15  17  ar  
 34  16  18  ar  
 35  16  40  1   
 36  17  19  ar  
 37  17  41  1   
 38  18  20  ar  
 39  18  42  1   
 40  19  20  ar  
 41  19  43  1   
 42  20  21  1   
 43  21  22  2   
 44  21  23  1   
 45  23  24  1   
 46  24  44  1   
 47  24  45  1   
 48  24  46  1   
@<TRIPOS>SUBSTRUCTURE
  1 ****  12 GROUP 4 **** **** 0

# MOE 2024.06 (io_trps.svl 2023.06)
