@<TRIPOS>MOLECULE
NONAME
42 44 1 0 0 
SMALL
USER_CHARGES


@<TRIPOS>ATOM
  1 O       -0.8040    -0.1090    -0.0430 O.2   1 <1>  -0.5700 
  2 C       -1.7610    -0.8670    -0.0320 C.2   1 <1>   0.8410 
  3 N       -2.9980    -0.3260    -0.1390 N.2   1 <1>  -0.6610 
  4 N       -1.5720    -2.2460     0.0870 N.am  1 <1>  -0.2860 
  5 C       -4.0180    -1.1180    -0.1840 C.2   1 <1>   0.4860 
  6 C       -0.2710    -2.7360     0.3440 C.ar  1 <1>   0.1170 
  7 C       -2.6500    -3.0880    -0.0550 C.2   1 <1>  -0.0290 
  8 N       -5.2540    -0.5170    -0.1650 N.pl3 1 <1>  -0.7880 
  9 C       -3.8990    -2.5470    -0.2230 C.2   1 <1>   0.0290 
 10 C        0.6310    -2.9300    -0.6950 C.ar  1 <1>  -0.1500 
 11 C        0.1230    -3.0410     1.6420 C.ar  1 <1>  -0.1500 
 12 C       -2.3810    -4.5960    -0.0420 C.3   1 <1>  -0.1020 
 13 C       -5.4690     0.8290    -0.7880 C.3   1 <1>   0.2090 
 14 C       -6.2010    -0.7730     0.9690 C.3   1 <1>   0.2090 
 15 C       -5.0810    -3.3220    -0.4480 C.2   1 <1>   0.4950 
 16 C        1.8960    -3.4300    -0.4450 C.ar  1 <1>  -0.1500 
 17 C        1.3870    -3.5410     1.8950 C.ar  1 <1>  -0.1500 
 18 C       -5.5290     1.9270     0.2870 C.3   1 <1>   0.1200 
 19 C       -6.2340     0.4240     1.9380 C.3   1 <1>   0.1200 
 20 O       -5.5130    -4.1160     0.3510 O.2   1 <1>  -0.5700 
 21 C       -5.8440    -3.1690    -1.7480 C.3   1 <1>  -0.1790 
 22 C        2.2750    -3.7380     0.8510 C.ar  1 <1>  -0.1500 
 23 O       -6.4960     1.6170     1.2540 O.3   1 <1>  -0.5600 
 24 H        0.3380    -2.6840    -1.7000 H     1 <1>   0.1500 
 25 H       -0.5660    -2.8830     2.4520 H     1 <1>   0.1500 
 26 H       -1.6430    -4.8470    -0.7830 H     1 <1>   0.0800 
 27 H       -3.2600    -5.1760    -0.2510 H     1 <1>   0.0800 
 28 H       -2.0130    -4.8940     0.9230 H     1 <1>   0.0800 
 29 H       -6.3930     0.8230    -1.3380 H     1 <1>   0.0800 
 30 H       -4.6760     1.0510    -1.4820 H     1 <1>   0.0800 
 31 H       -5.9050    -1.6510     1.5160 H     1 <1>   0.0800 
 32 H       -7.1890    -0.9420     0.5790 H     1 <1>   0.0800 
 33 H        2.5870    -3.5760    -1.2570 H     1 <1>   0.1500 
 34 H        1.6830    -3.7740     2.9030 H     1 <1>   0.1500 
 35 H       -5.7960     2.8690    -0.1570 H     1 <1>   0.0800 
 36 H       -4.5730     2.0300     0.7710 H     1 <1>   0.0800 
 37 H       -5.2910     0.5200     2.4470 H     1 <1>   0.0800 
 38 H       -7.0100     0.2870     2.6700 H     1 <1>   0.0800 
 39 H       -5.9860    -4.1350    -2.1960 H     1 <1>   0.0800 
 40 H       -5.3070    -2.5390    -2.4320 H     1 <1>   0.0800 
 41 H       -6.8040    -2.7320    -1.5480 H     1 <1>   0.0800 
 42 H        3.2600    -4.1250     1.0470 H     1 <1>   0.1500 
@<TRIPOS>BOND
  1   1   2  2   
  2   2   3  1   
  3   2   4  am  
  4   3   5  2   
  5   4   6  1   
  6   4   7  1   
  7   5   8  1   
  8   5   9  1   
  9   6  10  ar  
 10   6  11  ar  
 11   7   9  2   
 12   7  12  1   
 13   8  13  1   
 14   8  14  1   
 15   9  15  1   
 16  10  16  ar  
 17  10  24  1   
 18  11  17  ar  
 19  11  25  1   
 20  12  26  1   
 21  12  27  1   
 22  12  28  1   
 23  13  18  1   
 24  13  29  1   
 25  13  30  1   
 26  14  19  1   
 27  14  31  1   
 28  14  32  1   
 29  15  20  2   
 30  15  21  1   
 31  16  22  ar  
 32  16  33  1   
 33  17  22  ar  
 34  17  34  1   
 35  18  23  1   
 36  18  35  1   
 37  18  36  1   
 38  19  23  1   
 39  19  37  1   
 40  19  38  1   
 41  21  39  1   
 42  21  40  1   
 43  21  41  1   
 44  22  42  1   
@<TRIPOS>SUBSTRUCTURE
  1 ****   7 GROUP 4 **** **** 0

# MOE 2024.06 (io_trps.svl 2023.06)
