@<TRIPOS>MOLECULE
NONAME
44 45 1 0 0 
SMALL
USER_CHARGES


@<TRIPOS>ATOM
  1 N        1.0740    -0.0100     0.9770 N.4   1 <1>  -0.9590 
  2 C        0.5220     1.2570     0.4250 C.3   1 <1>   0.3430 
  3 C        2.1300    -0.6000     0.1090 C.3   1 <1>   0.3430 
  4 C       -0.0300    -1.0020     1.1990 C.3   1 <1>   0.2630 
  5 C        1.6430     2.2810     0.2380 C.3   1 <1>  -0.1600 
  6 C        3.2730     0.4000    -0.0810 C.3   1 <1>  -0.1600 
  7 C        2.7780     1.7410    -0.6500 C.3   1 <1>   0.4230 
  8 N        3.9170     2.7180    -0.7230 N.4   1 <1>  -0.9590 
  9 C        4.9850     2.3220    -1.6820 C.3   1 <1>   0.4810 
 10 C        3.5120     4.1360    -1.0280 C.3   1 <1>   0.2630 
 11 C        6.2760     2.8450    -1.1070 C.2   1 <1>  -0.2880 
 12 C        7.2230     2.0820    -0.5320 C.2   1 <1>  -0.1780 
 13 C        8.4770     2.5150     0.0460 C.ar  1 <1>   0.0280 
 14 C        9.2020     1.6490     0.8610 C.ar  1 <1>  -0.1500 
 15 C        9.0080     3.7850    -0.1780 C.ar  1 <1>  -0.1500 
 16 C       10.3990     2.0330     1.4370 C.ar  1 <1>  -0.1500 
 17 C       10.2050     4.1750     0.3960 C.ar  1 <1>  -0.1500 
 18 C       10.9020     3.3000     1.2070 C.ar  1 <1>  -0.1500 
 19 H        1.4830     0.1870     1.9050 H     1 <1>   0.4500 
 20 H        0.0430     1.0630    -0.5220 H     1 <1>   0.0800 
 21 H       -0.2220     1.6570     1.0980 H     1 <1>   0.0800 
 22 H        2.5130    -1.5030     0.5610 H     1 <1>   0.0800 
 23 H        1.7090    -0.8620    -0.8490 H     1 <1>   0.0800 
 24 H       -0.5060    -1.2560     0.2650 H     1 <1>   0.0800 
 25 H       -0.7750    -0.5940     1.8630 H     1 <1>   0.0800 
 26 H        0.3590    -1.9060     1.6410 H     1 <1>   0.0800 
 27 H        2.0220     2.5620     1.2050 H     1 <1>   0.0800 
 28 H        1.1970     3.1470    -0.2160 H     1 <1>   0.0800 
 29 H        3.9780    -0.0580    -0.7500 H     1 <1>   0.0800 
 30 H        3.7610     0.5500     0.8660 H     1 <1>   0.0800 
 31 H        2.3880     1.5790    -1.6430 H     1 <1>   0.0800 
 32 H        4.3980     2.7310     0.1890 H     1 <1>   0.4500 
 33 H        5.0540     1.2510    -1.7660 H     1 <1>   0.0800 
 34 H        4.8060     2.7310    -2.6650 H     1 <1>   0.0800 
 35 H        2.9950     4.1870    -1.9730 H     1 <1>   0.0800 
 36 H        4.3810     4.7730    -1.0800 H     1 <1>   0.0800 
 37 H        2.8660     4.5220    -0.2570 H     1 <1>   0.0800 
 38 H        6.3770     3.9110    -1.2000 H     1 <1>   0.1500 
 39 H        7.0860     1.0160    -0.4640 H     1 <1>   0.1500 
 40 H        8.8320     0.6580     1.0540 H     1 <1>   0.1500 
 41 H        8.4960     4.4830    -0.8110 H     1 <1>   0.1500 
 42 H       10.9410     1.3480     2.0660 H     1 <1>   0.1500 
 43 H       10.5970     5.1600     0.2120 H     1 <1>   0.1500 
 44 H       11.8330     3.6020     1.6550 H     1 <1>   0.1500 
@<TRIPOS>BOND
  1   1   2  1   
  2   1   3  1   
  3   1   4  1   
  4   1  19  1   
  5   2   5  1   
  6   2  20  1   
  7   2  21  1   
  8   3   6  1   
  9   3  22  1   
 10   3  23  1   
 11   4  24  1   
 12   4  25  1   
 13   4  26  1   
 14   5   7  1   
 15   5  27  1   
 16   5  28  1   
 17   6   7  1   
 18   6  29  1   
 19   6  30  1   
 20   7   8  1   
 21   7  31  1   
 22   8   9  1   
 23   8  10  1   
 24   8  32  1   
 25   9  11  1   
 26   9  33  1   
 27   9  34  1   
 28  10  35  1   
 29  10  36  1   
 30  10  37  1   
 31  11  12  2   
 32  11  38  1   
 33  12  13  1   
 34  12  39  1   
 35  13  14  ar  
 36  13  15  ar  
 37  14  16  ar  
 38  14  40  1   
 39  15  17  ar  
 40  15  41  1   
 41  16  18  ar  
 42  16  42  1   
 43  17  18  ar  
 44  17  43  1   
 45  18  44  1   
@<TRIPOS>SUBSTRUCTURE
  1 ****  11 GROUP 4 **** **** 0

# MOE 2024.06 (io_trps.svl 2023.06)
