@<TRIPOS>MOLECULE
NONAME
34 35 1 0 0 
SMALL
USER_CHARGES


@<TRIPOS>ATOM
  1 CL      -0.8070     0.3840     1.8050 Cl    1 <1>  -0.1770 
  2 C       -2.1660     1.2060     1.0820 C.ar  1 <1>   0.1770 
  3 C       -2.5750     2.4220     1.5970 C.ar  1 <1>  -0.1500 
  4 C       -2.8130     0.6290     0.0060 C.ar  1 <1>  -0.1500 
  5 C       -3.6530     3.0730     1.0210 C.ar  1 <1>  -0.1500 
  6 C       -3.8900     1.2860    -0.5650 C.ar  1 <1>  -0.1500 
  7 C       -4.3130     2.5100    -0.0640 C.ar  1 <1>  -0.1430 
  8 C       -5.4910     3.2240    -0.7060 C.3   1 <1>   0.2640 
  9 O       -6.6440     2.4870    -0.4490 O.3   1 <1>  -0.5600 
 10 C       -7.8000     2.9920    -1.0510 C.3   1 <1>   0.1200 
 11 C       -8.9970     2.1140    -0.6600 C.3   1 <1>   0.2000 
 12 O       -8.6240     0.7890    -0.7890 O.3   1 <1>  -0.6800 
 13 C      -10.2250     2.3610    -1.5360 C.3   1 <1>   0.0330 
 14 S      -11.7030     1.3550    -0.9650 S.o   1 <1>   0.2960 
 15 O      -12.8260     1.4340    -2.0890 O.2   1 <1>  -0.5000 
 16 C      -12.3410     2.5050     0.3220 C.2   1 <1>   0.1980 
 17 N      -13.6220     2.8360     0.3380 N.pl3 1 <1>   0.0330 
 18 N      -11.6470     3.0680     1.2480 N.2   1 <1>  -0.3380 
 19 C      -13.6740     3.6740     1.3760 C.2   1 <1>   0.0370 
 20 N      -12.5140     3.8260     1.9290 N.2   1 <1>  -0.3380 
 21 H       -2.0560     2.8470     2.4360 H     1 <1>   0.1500 
 22 H       -2.4790    -0.3190    -0.3740 H     1 <1>   0.1500 
 23 H       -3.9760     4.0180     1.4230 H     1 <1>   0.1500 
 24 H       -4.4060     0.8410    -1.4000 H     1 <1>   0.1500 
 25 H       -5.3480     3.2870    -1.7720 H     1 <1>   0.0800 
 26 H       -5.6140     4.2110    -0.2950 H     1 <1>   0.0800 
 27 H       -7.6640     2.9810    -2.1190 H     1 <1>   0.0800 
 28 H       -7.9580     4.0040    -0.7160 H     1 <1>   0.0800 
 29 H       -9.2360     2.2870     0.3760 H     1 <1>   0.0800 
 30 H       -7.7050     0.7210    -0.4440 H     1 <1>   0.4000 
 31 H       -9.9790     2.1180    -2.5520 H     1 <1>   0.0800 
 32 H      -10.4660     3.4070    -1.5020 H     1 <1>   0.0800 
 33 H      -14.3390     2.5140    -0.3170 H     1 <1>   0.2700 
 34 H      -14.5790     4.1580     1.6980 H     1 <1>   0.1500 
@<TRIPOS>BOND
  1   1   2  1   
  2   2   3  ar  
  3   2   4  ar  
  4   3   5  ar  
  5   3  21  1   
  6   4   6  ar  
  7   4  22  1   
  8   5   7  ar  
  9   5  23  1   
 10   6   7  ar  
 11   6  24  1   
 12   7   8  1   
 13   8   9  1   
 14   8  25  1   
 15   8  26  1   
 16   9  10  1   
 17  10  11  1   
 18  10  27  1   
 19  10  28  1   
 20  11  12  1   
 21  11  13  1   
 22  11  29  1   
 23  12  30  1   
 24  13  14  1   
 25  13  31  1   
 26  13  32  1   
 27  14  15  2   
 28  14  16  1   
 29  16  17  1   
 30  16  18  2   
 31  17  19  1   
 32  17  33  1   
 33  18  20  1   
 34  19  20  2   
 35  19  34  1   
@<TRIPOS>SUBSTRUCTURE
  1 ****   9 GROUP 4 **** **** 0

# MOE 2024.06 (io_trps.svl 2023.06)
