@<TRIPOS>MOLECULE
NONAME
40 42 1 0 0 
SMALL
USER_CHARGES


@<TRIPOS>ATOM
  1 S       -0.0460    -0.2970     0.4430 S.3   1 <1>  -0.0800 
  2 C        1.0070     1.0290    -0.0790 C.2   1 <1>   0.1040 
  3 C       -1.4570     0.7030     0.2010 C.2   1 <1>  -0.1400 
  4 N        2.3800     0.8480    -0.1740 N.am  1 <1>  -0.4940 
  5 C        0.2740     2.1480    -0.3830 C.2   1 <1>  -0.0860 
  6 C       -1.1340     1.9120    -0.2220 C.2   1 <1>  -0.1810 
  7 C       -2.9120     0.4160     0.3810 C.3   1 <1>   0.0200 
  8 C        3.2460    -0.1030     0.3210 C.2   1 <1>   0.5440 
  9 C        0.8050     3.4150    -0.8120 C.2   1 <1>   0.7160 
 10 C       -2.3690     2.7450    -0.4340 C.3   1 <1>   0.0210 
 11 C       -3.5230     1.7820    -0.0280 C.3   1 <1>  -0.1600 
 12 O        2.8430    -0.9700     1.0690 O.2   1 <1>  -0.5700 
 13 C        4.6530    -0.0470    -0.0430 C.ar  1 <1>   0.0860 
 14 O        0.2720     4.0240    -1.7250 O.2   1 <1>  -0.5700 
 15 N        1.9290     3.9690    -0.2170 N.am  1 <1>  -0.6600 
 16 C        5.2800     1.1400    -0.4380 C.ar  1 <1>  -0.1500 
 17 C        5.4410    -1.1980    -0.0080 C.ar  1 <1>  -0.1500 
 18 C        2.2570     3.7450     1.2220 C.3   1 <1>   0.0600 
 19 C        2.6240     5.1350    -0.8310 C.3   1 <1>   0.0600 
 20 C        6.6180     1.1690    -0.7900 C.ar  1 <1>  -0.1500 
 21 C        6.7790    -1.1760    -0.3560 C.ar  1 <1>  -0.1500 
 22 C        7.3700     0.0100    -0.7510 C.ar  1 <1>  -0.1500 
 23 H        2.8430     1.5830    -0.7050 H     1 <1>   0.3700 
 24 H       -3.1290     0.1690     1.4050 H     1 <1>   0.0800 
 25 H       -3.2260    -0.3770    -0.2750 H     1 <1>   0.0800 
 26 H       -2.4470     3.0390    -1.4660 H     1 <1>   0.0800 
 27 H       -2.3470     3.6200     0.1930 H     1 <1>   0.0800 
 28 H       -4.0720     2.1980     0.7980 H     1 <1>   0.0800 
 29 H       -4.1970     1.6490    -0.8560 H     1 <1>   0.0800 
 30 H        4.7280     2.0610    -0.4680 H     1 <1>   0.1500 
 31 H        4.9910    -2.1270     0.3000 H     1 <1>   0.1500 
 32 H        1.5410     3.0880     1.6850 H     1 <1>   0.0800 
 33 H        2.2410     4.6830     1.7490 H     1 <1>   0.0800 
 34 H        3.2360     3.3080     1.3110 H     1 <1>   0.0800 
 35 H        2.4840     5.1350    -1.8990 H     1 <1>   0.0800 
 36 H        3.6780     5.0900    -0.6210 H     1 <1>   0.0800 
 37 H        2.2190     6.0490    -0.4310 H     1 <1>   0.0800 
 38 H        7.0790     2.0930    -1.0930 H     1 <1>   0.1500 
 39 H        7.3610    -2.0820    -0.3200 H     1 <1>   0.1500 
 40 H        8.4120     0.0290    -1.0230 H     1 <1>   0.1500 
@<TRIPOS>BOND
  1   1   2  1   
  2   1   3  1   
  3   2   4  1   
  4   2   5  2   
  5   3   6  2   
  6   3   7  1   
  7   4   8  am  
  8   4  23  1   
  9   5   6  1   
 10   5   9  1   
 11   6  10  1   
 12   7  11  1   
 13   7  24  1   
 14   7  25  1   
 15   8  12  2   
 16   8  13  1   
 17   9  14  2   
 18   9  15  am  
 19  10  11  1   
 20  10  26  1   
 21  10  27  1   
 22  11  28  1   
 23  11  29  1   
 24  13  16  ar  
 25  13  17  ar  
 26  15  18  1   
 27  15  19  1   
 28  16  20  ar  
 29  16  30  1   
 30  17  21  ar  
 31  17  31  1   
 32  18  32  1   
 33  18  33  1   
 34  18  34  1   
 35  19  35  1   
 36  19  36  1   
 37  19  37  1   
 38  20  22  ar  
 39  20  38  1   
 40  21  22  ar  
 41  21  39  1   
 42  22  40  1   
@<TRIPOS>SUBSTRUCTURE
  1 ****   4 GROUP 4 **** **** 0

# MOE 2024.06 (io_trps.svl 2023.06)
