@<TRIPOS>MOLECULE
NONAME
50 51 1 0 0 
SMALL
USER_CHARGES


@<TRIPOS>ATOM
  1 S       -0.2070    -0.5060     0.2890 S.3   1 <1>  -0.0800 
  2 C        0.8900     0.8540     0.4170 C.2   1 <1>   0.1040 
  3 C       -1.6070     0.5240     0.4820 C.2   1 <1>  -0.1400 
  4 N        2.2580     0.6440     0.2890 N.am  1 <1>  -0.4940 
  5 C        0.2000     2.0210     0.6300 C.2   1 <1>  -0.0860 
  6 C       -1.2400     1.8100     0.6270 C.2   1 <1>  -0.1810 
  7 C       -2.9580    -0.1640     0.4490 C.3   1 <1>   0.0200 
  8 C        3.0070    -0.5080     0.2100 C.2   1 <1>   0.5690 
  9 C        0.8610     3.2840     0.8550 C.2   1 <1>   0.8060 
 10 C       -2.2840     2.9180     0.7640 C.3   1 <1>   0.0210 
 11 C       -3.8710     0.4210    -0.6330 C.3   1 <1>  -0.1600 
 12 O        2.5680    -1.6250     0.3380 O.2   1 <1>  -0.5700 
 13 C        4.5170    -0.4170    -0.0460 C.3   1 <1>   0.4040 
 14 O        0.3900     4.2110     1.4820 O.2   1 <1>  -0.5700 
 15 O        2.1060     3.4290     0.3610 O.3   1 <1>  -0.4300 
 16 C       -3.2940     2.9270    -0.3940 C.3   1 <1>  -0.1600 
 17 C       -4.3750     1.8370    -0.3190 C.3   1 <1>  -0.1600 
 18 N        5.2160    -1.7030     0.3130 N.4   1 <1>  -0.9060 
 19 C        2.8150     4.6530     0.4350 C.3   1 <1>   0.1200 
 20 C        6.5050    -1.9420    -0.3420 C.3   1 <1>   0.4230 
 21 C        2.4030     5.5310    -0.7450 C.3   1 <1>  -0.2400 
 22 C        6.9040    -3.3810    -0.0490 C.3   1 <1>  -0.2400 
 23 C        7.5390    -0.9660     0.2100 C.3   1 <1>  -0.2400 
 24 H        2.7690     1.5310     0.2310 H     1 <1>   0.3700 
 25 H       -3.4240    -0.0790     1.4140 H     1 <1>   0.0800 
 26 H       -2.8140    -1.2110     0.2490 H     1 <1>   0.0800 
 27 H       -1.8240     3.8850     0.7650 H     1 <1>   0.0800 
 28 H       -2.7970     2.8120     1.7030 H     1 <1>   0.0800 
 29 H       -4.7250    -0.2260    -0.7320 H     1 <1>   0.0800 
 30 H       -3.3540     0.4170    -1.5780 H     1 <1>   0.0800 
 31 H        4.9310     0.3980     0.5220 H     1 <1>   0.0800 
 32 H        4.6590    -0.2120    -1.0940 H     1 <1>   0.0800 
 33 H       -2.7680     2.8600    -1.3310 H     1 <1>   0.0800 
 34 H       -3.7940     3.8800    -0.3800 H     1 <1>   0.0800 
 35 H       -4.8440     1.8530     0.6500 H     1 <1>   0.0800 
 36 H       -5.1360     2.0800    -1.0410 H     1 <1>   0.0800 
 37 H        4.5480    -2.4540     0.0650 H     1 <1>   0.4500 
 38 H        5.3150    -1.7840     1.3310 H     1 <1>   0.4500 
 39 H        3.8660     4.4300     0.3800 H     1 <1>   0.0800 
 40 H        2.6120     5.1370     1.3760 H     1 <1>   0.0800 
 41 H        6.4080    -1.8100    -1.4100 H     1 <1>   0.0800 
 42 H        2.5990     5.0300    -1.6760 H     1 <1>   0.0800 
 43 H        2.9640     6.4480    -0.7260 H     1 <1>   0.0800 
 44 H        1.3580     5.7780    -0.6810 H     1 <1>   0.0800 
 45 H        7.0150    -3.5500     1.0080 H     1 <1>   0.0800 
 46 H        7.8470    -3.5970    -0.5210 H     1 <1>   0.0800 
 47 H        6.1770    -4.0670    -0.4470 H     1 <1>   0.0800 
 48 H        7.6390    -1.0660     1.2770 H     1 <1>   0.0800 
 49 H        7.2880     0.0500    -0.0350 H     1 <1>   0.0800 
 50 H        8.4980    -1.1750    -0.2320 H     1 <1>   0.0800 
@<TRIPOS>BOND
  1   1   2  1   
  2   1   3  1   
  3   2   4  1   
  4   2   5  2   
  5   3   6  2   
  6   3   7  1   
  7   4   8  am  
  8   4  24  1   
  9   5   6  1   
 10   5   9  1   
 11   6  10  1   
 12   7  11  1   
 13   7  25  1   
 14   7  26  1   
 15   8  12  2   
 16   8  13  1   
 17   9  14  2   
 18   9  15  1   
 19  10  16  1   
 20  10  27  1   
 21  10  28  1   
 22  11  17  1   
 23  11  29  1   
 24  11  30  1   
 25  13  18  1   
 26  13  31  1   
 27  13  32  1   
 28  15  19  1   
 29  16  17  1   
 30  16  33  1   
 31  16  34  1   
 32  17  35  1   
 33  17  36  1   
 34  18  20  1   
 35  18  37  1   
 36  18  38  1   
 37  19  21  1   
 38  19  39  1   
 39  19  40  1   
 40  20  22  1   
 41  20  23  1   
 42  20  41  1   
 43  21  42  1   
 44  21  43  1   
 45  21  44  1   
 46  22  45  1   
 47  22  46  1   
 48  22  47  1   
 49  23  48  1   
 50  23  49  1   
 51  23  50  1   
@<TRIPOS>SUBSTRUCTURE
  1 ****   2 GROUP 4 **** **** 0

# MOE 2024.06 (io_trps.svl 2023.06)
