@<TRIPOS>MOLECULE
NONAME
50 52 1 0 0 
SMALL
USER_CHARGES


@<TRIPOS>ATOM
  1 S       -0.0840    -0.4290    -0.6900 S.o2  1 <1>   1.3330 
  2 O       -1.0130     0.6790    -0.7290 O.2   1 <1>  -0.6500 
  3 O        0.4940    -0.9220    -1.9210 O.2   1 <1>  -0.6500 
  4 N       -0.8620    -1.7360     0.0550 N.am  1 <1>  -0.8490 
  5 C        1.2210    -0.0320     0.4780 C.3   1 <1>  -0.0550 
  6 C       -2.3230    -1.7210    -0.1790 C.3   1 <1>   0.1960 
  7 C       -0.2480    -3.0290    -0.2440 C.3   1 <1>   0.1960 
  8 C        2.1080     1.1460     0.0400 C.3   1 <1>  -0.1600 
  9 C       -3.0010    -3.0860     0.0600 C.3   1 <1>  -0.0190 
 10 C       -0.7770    -4.1000     0.7250 C.3   1 <1>  -0.1600 
 11 C        3.2020     1.4350     1.0720 C.3   1 <1>  -0.2400 
 12 C       -4.4720    -2.8950     0.4080 C.2   1 <1>   0.5690 
 13 C       -2.2490    -3.8940     1.1330 C.3   1 <1>  -0.1600 
 14 O       -4.7570    -2.2340     1.3760 O.2   1 <1>  -0.5700 
 15 N       -5.3990    -3.5010    -0.3970 N.am  1 <1>  -0.5470 
 16 C       -6.8030    -3.4850    -0.3650 C.ar  1 <1>   0.1170 
 17 C       -7.5380    -2.4940     0.2830 C.ar  1 <1>  -0.1500 
 18 C       -7.4930    -4.4990    -1.0290 C.ar  1 <1>  -0.1500 
 19 C       -8.9180    -2.5360     0.2590 C.ar  1 <1>  -0.1440 
 20 C       -8.8780    -4.5340    -1.0500 C.ar  1 <1>  -0.1500 
 21 C       -9.5810    -3.5410    -0.3970 C.ar  1 <1>  -0.1440 
 22 C       -9.8820    -1.5670     0.8970 C.3   1 <1>  -0.0170 
 23 C      -11.0760    -3.3760    -0.2850 C.3   1 <1>  -0.0170 
 24 C      -11.2360    -2.2910     0.7950 C.3   1 <1>  -0.1600 
 25 H        1.8390    -0.8960     0.6170 H     1 <1>   0.0800 
 26 H        0.7730     0.2050     1.4240 H     1 <1>   0.0800 
 27 H       -2.5300    -1.4090    -1.1900 H     1 <1>   0.0800 
 28 H       -2.7500    -0.9810     0.4790 H     1 <1>   0.0800 
 29 H        0.8230    -2.9660    -0.1510 H     1 <1>   0.0800 
 30 H       -0.4750    -3.3030    -1.2620 H     1 <1>   0.0800 
 31 H        1.4950     2.0230    -0.0900 H     1 <1>   0.0800 
 32 H        2.5610     0.9160    -0.9100 H     1 <1>   0.0800 
 33 H       -2.9480    -3.6350    -0.8620 H     1 <1>   0.0800 
 34 H       -0.1680    -4.1030     1.6110 H     1 <1>   0.0800 
 35 H       -0.6620    -5.0620     0.2570 H     1 <1>   0.0800 
 36 H        2.7660     1.6880     2.0230 H     1 <1>   0.0800 
 37 H        3.8060     2.2620     0.7440 H     1 <1>   0.0800 
 38 H        3.8390     0.5770     1.1990 H     1 <1>   0.0800 
 39 H       -2.7270    -4.8430     1.3020 H     1 <1>   0.0800 
 40 H       -2.2820    -3.3400     2.0570 H     1 <1>   0.0800 
 41 H       -5.0150    -4.0970    -1.1260 H     1 <1>   0.3700 
 42 H       -7.0430    -1.6930     0.7990 H     1 <1>   0.1500 
 43 H       -6.9460    -5.2720    -1.5340 H     1 <1>   0.1500 
 44 H       -9.4000    -5.3220    -1.5640 H     1 <1>   0.1500 
 45 H       -9.8940    -0.6520     0.3320 H     1 <1>   0.0800 
 46 H       -9.6160    -1.3630     1.9190 H     1 <1>   0.0800 
 47 H      -11.5550    -4.2950     0.0050 H     1 <1>   0.0800 
 48 H      -11.4710    -3.0370    -1.2260 H     1 <1>   0.0800 
 49 H      -12.0360    -1.6110     0.5640 H     1 <1>   0.0800 
 50 H      -11.4420    -2.7690     1.7370 H     1 <1>   0.0800 
@<TRIPOS>BOND
  1   1   2  2   
  2   1   3  2   
  3   1   4  am  
  4   1   5  1   
  5   4   6  1   
  6   4   7  1   
  7   5   8  1   
  8   5  25  1   
  9   5  26  1   
 10   6   9  1   
 11   6  27  1   
 12   6  28  1   
 13   7  10  1   
 14   7  29  1   
 15   7  30  1   
 16   8  11  1   
 17   8  31  1   
 18   8  32  1   
 19   9  12  1   
 20   9  13  1   
 21   9  33  1   
 22  10  13  1   
 23  10  34  1   
 24  10  35  1   
 25  11  36  1   
 26  11  37  1   
 27  11  38  1   
 28  12  14  2   
 29  12  15  am  
 30  13  39  1   
 31  13  40  1   
 32  15  16  1   
 33  15  41  1   
 34  16  17  ar  
 35  16  18  ar  
 36  17  19  ar  
 37  17  42  1   
 38  18  20  ar  
 39  18  43  1   
 40  19  21  ar  
 41  19  22  1   
 42  20  21  ar  
 43  20  44  1   
 44  21  23  1   
 45  22  24  1   
 46  22  45  1   
 47  22  46  1   
 48  23  24  1   
 49  23  47  1   
 50  23  48  1   
 51  24  49  1   
 52  24  50  1   
@<TRIPOS>SUBSTRUCTURE
  1 ****  12 GROUP 4 **** **** 0

# MOE 2024.06 (io_trps.svl 2023.06)
