@<TRIPOS>MOLECULE
NONAME
35 36 1 0 0 
SMALL
USER_CHARGES


@<TRIPOS>ATOM
  1 BR       0.2850     0.5670     0.3620 Br    1 <1>  -0.1110 
  2 C        1.9640    -0.3540     0.1630 C.ar  1 <1>   0.1110 
  3 C        2.8460     0.0710    -0.8100 C.ar  1 <1>  -0.1500 
  4 C        2.2450    -1.4200     0.9990 C.ar  1 <1>  -0.1500 
  5 C        4.0380    -0.6160    -0.9190 C.ar  1 <1>   0.1900 
  6 C        3.4530    -2.0880     0.8610 C.ar  1 <1>  -0.1500 
  7 F        4.8860    -0.2250    -1.8400 F     1 <1>  -0.1900 
  8 C        4.3830    -1.6990    -0.1050 C.ar  1 <1>   0.1170 
  9 N        5.6280    -2.3360    -0.2950 N.am  1 <1>  -0.5470 
 10 C        6.2630    -3.3430     0.3770 C.2   1 <1>   0.5690 
 11 O        5.8090    -3.9040     1.3420 O.2   1 <1>  -0.5700 
 12 C        7.6250    -3.7740    -0.1310 C.3   1 <1>  -0.0990 
 13 C        8.7120    -2.7290     0.1710 C.3   1 <1>  -0.1600 
 14 C       10.0800    -3.1830    -0.3490 C.3   1 <1>   0.1400 
 15 N       11.0760    -2.1120    -0.1370 N.am  1 <1>  -0.4200 
 16 C       11.9720    -2.0870     0.8840 C.2   1 <1>   0.5690 
 17 C       11.2170    -1.0340    -0.9510 C.2   1 <1>   0.5690 
 18 O       12.0810    -2.9140     1.7500 O.2   1 <1>  -0.5700 
 19 C       12.8460    -0.8560     0.7980 C.3   1 <1>  -0.0990 
 20 O       10.5550    -0.7990    -1.9280 O.2   1 <1>  -0.5700 
 21 C       12.3310    -0.1360    -0.4640 C.3   1 <1>  -0.0990 
 22 H        2.6150     0.9000    -1.4530 H     1 <1>   0.1500 
 23 H        1.5310    -1.7230     1.7450 H     1 <1>   0.1500 
 24 H        3.6590    -2.9160     1.5150 H     1 <1>   0.1500 
 25 H        6.1610    -1.9420    -1.0710 H     1 <1>   0.3700 
 26 H        7.5600    -3.9480    -1.1900 H     1 <1>   0.0800 
 27 H        7.8840    -4.7070     0.3400 H     1 <1>   0.0800 
 28 H        8.7700    -2.5770     1.2360 H     1 <1>   0.0800 
 29 H        8.4470    -1.7950    -0.2950 H     1 <1>   0.0800 
 30 H       10.0230    -3.3990    -1.4020 H     1 <1>   0.0800 
 31 H       10.3950    -4.0750     0.1660 H     1 <1>   0.0800 
 32 H       13.8760    -1.1450     0.6970 H     1 <1>   0.0800 
 33 H       12.7160    -0.2540     1.6790 H     1 <1>   0.0800 
 34 H       11.9410     0.8390    -0.2330 H     1 <1>   0.0800 
 35 H       13.0940    -0.0600    -1.2170 H     1 <1>   0.0800 
@<TRIPOS>BOND
  1   1   2  1   
  2   2   3  ar  
  3   2   4  ar  
  4   3   5  ar  
  5   3  22  1   
  6   4   6  ar  
  7   4  23  1   
  8   5   7  1   
  9   5   8  ar  
 10   6   8  ar  
 11   6  24  1   
 12   8   9  1   
 13   9  10  am  
 14   9  25  1   
 15  10  11  2   
 16  10  12  1   
 17  12  13  1   
 18  12  26  1   
 19  12  27  1   
 20  13  14  1   
 21  13  28  1   
 22  13  29  1   
 23  14  15  1   
 24  14  30  1   
 25  14  31  1   
 26  15  16  am  
 27  15  17  am  
 28  16  18  2   
 29  16  19  1   
 30  17  20  2   
 31  17  21  1   
 32  19  21  1   
 33  19  32  1   
 34  19  33  1   
 35  21  34  1   
 36  21  35  1   
@<TRIPOS>SUBSTRUCTURE
  1 ****   9 GROUP 4 **** **** 0

# MOE 2024.06 (io_trps.svl 2023.06)
