@<TRIPOS>MOLECULE
NONAME
35 36 1 0 0 
SMALL
USER_CHARGES


@<TRIPOS>ATOM
  1 O        3.0070    -5.6300     0.0710 O.2   1 <1>  -0.5700 
  2 C        2.0350    -5.0220    -0.2640 C.2   1 <1>   0.4480 
  3 C        2.0640    -3.5900    -0.7480 C.3   1 <1>   0.0420 
  4 C        0.6660    -5.6650    -0.2280 C.3   1 <1>  -0.0990 
  5 C        3.4300    -2.9760    -0.5500 C.2   1 <1>   0.6590 
  6 C        0.9930    -2.7710    -0.0210 C.3   1 <1>   0.1100 
  7 C       -0.3330    -4.7530     0.4790 C.3   1 <1>   0.1100 
  8 O        4.1250    -2.6840    -1.4900 O.2   1 <1>  -0.5700 
  9 O        3.8040    -2.7310     0.7030 O.3   1 <1>  -0.4300 
 10 N       -0.3220    -3.4210    -0.1520 N.3   1 <1>  -0.8100 
 11 C        5.0750    -2.1920     1.0030 C.3   1 <1>   0.0400 
 12 C       -1.3840    -2.5550     0.3970 C.3   1 <1>   0.2530 
 13 C       -2.7700    -3.1170     0.1090 C.ar  1 <1>  -0.1440 
 14 C       -3.6640    -3.3510     1.1430 C.ar  1 <1>  -0.1500 
 15 C       -3.1530    -3.3960    -1.1940 C.ar  1 <1>  -0.1500 
 16 C       -4.9250    -3.8580     0.8770 C.ar  1 <1>  -0.1500 
 17 C       -4.4130    -3.9020    -1.4630 C.ar  1 <1>  -0.1500 
 18 C       -5.3010    -4.1330    -0.4260 C.ar  1 <1>  -0.1500 
 19 H        1.8460    -3.5840    -1.7980 H     1 <1>   0.0800 
 20 H        0.7240    -6.6070     0.2860 H     1 <1>   0.0800 
 21 H        0.3330    -5.8500    -1.2320 H     1 <1>   0.0800 
 22 H        0.9550    -1.7860    -0.4550 H     1 <1>   0.0800 
 23 H        1.2460    -2.6740     1.0230 H     1 <1>   0.0800 
 24 H       -0.0820    -4.6690     1.5240 H     1 <1>   0.0800 
 25 H       -1.3130    -5.1940     0.4010 H     1 <1>   0.0800 
 26 H        5.1580    -2.0880     2.0700 H     1 <1>   0.0800 
 27 H        5.1700    -1.2330     0.5250 H     1 <1>   0.0800 
 28 H        5.8310    -2.8660     0.6370 H     1 <1>   0.0800 
 29 H       -1.3190    -1.5810    -0.0580 H     1 <1>   0.0800 
 30 H       -1.2450    -2.4370     1.4590 H     1 <1>   0.0800 
 31 H       -3.3860    -3.1410     2.1610 H     1 <1>   0.1500 
 32 H       -2.4620    -3.2220    -2.0000 H     1 <1>   0.1500 
 33 H       -5.6150    -4.0380     1.6830 H     1 <1>   0.1500 
 34 H       -4.7020    -4.1160    -2.4770 H     1 <1>   0.1500 
 35 H       -6.2810    -4.5260    -0.6340 H     1 <1>   0.1500 
@<TRIPOS>BOND
  1   1   2  2   
  2   2   3  1   
  3   2   4  1   
  4   3   5  1   
  5   3   6  1   
  6   3  19  1   
  7   4   7  1   
  8   4  20  1   
  9   4  21  1   
 10   5   8  2   
 11   5   9  1   
 12   6  10  1   
 13   6  22  1   
 14   6  23  1   
 15   7  10  1   
 16   7  24  1   
 17   7  25  1   
 18   9  11  1   
 19  10  12  1   
 20  11  26  1   
 21  11  27  1   
 22  11  28  1   
 23  12  13  1   
 24  12  29  1   
 25  12  30  1   
 26  13  14  ar  
 27  13  15  ar  
 28  14  16  ar  
 29  14  31  1   
 30  15  17  ar  
 31  15  32  1   
 32  16  18  ar  
 33  16  33  1   
 34  17  18  ar  
 35  17  34  1   
 36  18  35  1   
@<TRIPOS>SUBSTRUCTURE
  1 ****  10 GROUP 4 **** **** 0

# MOE 2024.06 (io_trps.svl 2023.06)
