@<TRIPOS>MOLECULE
NONAME
39 40 1 0 0 
SMALL
USER_CHARGES


@<TRIPOS>ATOM
  1 CL       0.8830    -0.0990     1.2530 Cl    1 <1>  -0.1770 
  2 C        0.1940    -1.6110     0.7260 C.ar  1 <1>   0.1770 
  3 C       -0.0580    -2.6040     1.6520 C.ar  1 <1>  -0.1500 
  4 C       -0.0900    -1.7990    -0.6120 C.ar  1 <1>  -0.1500 
  5 C       -0.6080    -3.8020     1.2260 C.ar  1 <1>  -0.1500 
  6 C       -0.6400    -3.0010    -1.0250 C.ar  1 <1>  -0.1500 
  7 C       -0.9110    -4.0210    -0.1150 C.ar  1 <1>  -0.0090 
  8 S       -1.6560    -5.5870    -0.6530 S.o2  1 <1>   1.4470 
  9 O       -1.9070    -5.5830    -2.0770 O.2   1 <1>  -0.6500 
 10 O       -0.9670    -6.7000    -0.0450 O.2   1 <1>  -0.6500 
 11 N       -3.2000    -5.5580     0.0580 N.am  1 <1>  -0.8490 
 12 C       -3.8030    -6.9040     0.0340 C.3   1 <1>   0.1960 
 13 C       -4.0900    -4.5640    -0.5740 C.3   1 <1>   0.1960 
 14 C       -5.2010    -6.9280     0.6870 C.3   1 <1>   0.3430 
 15 C       -5.4900    -4.5470     0.0790 C.3   1 <1>   0.3430 
 16 N       -6.1350    -5.9120     0.0810 N.4   1 <1>  -0.9590 
 17 C       -7.4470    -5.9200     0.7870 C.3   1 <1>   0.3430 
 18 C       -8.4970    -5.1600    -0.0260 C.3   1 <1>  -0.1600 
 19 C       -9.8760    -5.2600     0.6350 C.3   1 <1>  -0.2400 
 20 H        0.1770    -2.4380     2.6890 H     1 <1>   0.1500 
 21 H        0.1200    -1.0130    -1.3170 H     1 <1>   0.1500 
 22 H       -0.8010    -4.5810     1.9460 H     1 <1>   0.1500 
 23 H       -0.8550    -3.1490    -2.0720 H     1 <1>   0.1500 
 24 H       -3.1710    -7.5900     0.5760 H     1 <1>   0.0800 
 25 H       -3.8700    -7.2600    -0.9810 H     1 <1>   0.0800 
 26 H       -4.1990    -4.7730    -1.6260 H     1 <1>   0.0800 
 27 H       -3.6560    -3.5830    -0.4790 H     1 <1>   0.0800 
 28 H       -5.0820    -6.7270     1.7390 H     1 <1>   0.0800 
 29 H       -5.6190    -7.9160     0.5860 H     1 <1>   0.0800 
 30 H       -6.1130    -3.8460    -0.4500 H     1 <1>   0.0800 
 31 H       -5.3850    -4.1960     1.0930 H     1 <1>   0.0800 
 32 H       -6.3020    -6.1860    -0.8970 H     1 <1>   0.4500 
 33 H       -7.3470    -5.4760     1.7650 H     1 <1>   0.0800 
 34 H       -7.7820    -6.9370     0.9140 H     1 <1>   0.0800 
 35 H       -8.5640    -5.5750    -1.0170 H     1 <1>   0.0800 
 36 H       -8.2360    -4.1200    -0.1020 H     1 <1>   0.0800 
 37 H      -10.1970    -6.2860     0.7050 H     1 <1>   0.0800 
 38 H      -10.6040    -4.7230     0.0510 H     1 <1>   0.0800 
 39 H       -9.8620    -4.8340     1.6240 H     1 <1>   0.0800 
@<TRIPOS>BOND
  1   1   2  1   
  2   2   3  ar  
  3   2   4  ar  
  4   3   5  ar  
  5   3  20  1   
  6   4   6  ar  
  7   4  21  1   
  8   5   7  ar  
  9   5  22  1   
 10   6   7  ar  
 11   6  23  1   
 12   7   8  1   
 13   8   9  2   
 14   8  10  2   
 15   8  11  am  
 16  11  12  1   
 17  11  13  1   
 18  12  14  1   
 19  12  24  1   
 20  12  25  1   
 21  13  15  1   
 22  13  26  1   
 23  13  27  1   
 24  14  16  1   
 25  14  28  1   
 26  14  29  1   
 27  15  16  1   
 28  15  30  1   
 29  15  31  1   
 30  16  17  1   
 31  16  32  1   
 32  17  18  1   
 33  17  33  1   
 34  17  34  1   
 35  18  19  1   
 36  18  35  1   
 37  18  36  1   
 38  19  37  1   
 39  19  38  1   
 40  19  39  1   
@<TRIPOS>SUBSTRUCTURE
  1 ****  11 GROUP 4 **** **** 0

# MOE 2024.06 (io_trps.svl 2023.06)
