@<TRIPOS>MOLECULE
NONAME
46 48 1 0 0 
SMALL
USER_CHARGES


@<TRIPOS>ATOM
  1 S        0.5010    -0.0140    -0.9110 S.o2  1 <1>   1.3330 
  2 O        1.8360    -0.0950    -1.4600 O.2   1 <1>  -0.6500 
  3 O       -0.5920    -0.6970    -1.5550 O.2   1 <1>  -0.6500 
  4 N        0.1020     1.6670    -0.7820 N.am  1 <1>  -0.6930 
  5 C        0.5660    -0.4970     0.8000 C.3   1 <1>  -0.1350 
  6 C       -1.1120     2.1090    -0.2550 C.ar  1 <1>   0.1990 
  7 C        1.1650     2.6690    -1.1140 C.3   1 <1>   0.2570 
  8 C       -2.3190     1.7560    -0.8480 C.ar  1 <1>  -0.1500 
  9 C       -1.1340     2.9150     0.8810 C.ar  1 <1>  -0.1500 
 10 C        2.2810     2.7810    -0.0690 C.2   1 <1>   0.5690 
 11 C       -3.5190     2.1900    -0.3160 C.ar  1 <1>   0.0820 
 12 C       -2.3310     3.3600     1.4170 C.ar  1 <1>  -0.1500 
 13 O        2.2750     3.7140     0.6990 O.2   1 <1>  -0.5700 
 14 N        3.2520     1.8340    -0.0300 N.am  1 <1>  -0.7300 
 15 O       -4.6770     1.8120    -0.9140 O.3   1 <1>  -0.3630 
 16 C       -3.5260     3.0030     0.8190 C.ar  1 <1>   0.0830 
 17 C        4.4280     1.8210     0.8510 C.3   1 <1>   0.2200 
 18 C       -5.8710     2.0020    -0.1780 C.3   1 <1>   0.1200 
 19 O       -4.6910     3.4600     1.3540 O.3   1 <1>  -0.3630 
 20 C        5.6300     1.3610     0.0360 C.3   1 <1>  -0.1600 
 21 C        4.2650     0.7090     1.8790 C.3   1 <1>  -0.1600 
 22 C       -5.8430     3.3600     0.5370 C.3   1 <1>   0.1200 
 23 C        5.5250    -0.1680    -0.0300 C.3   1 <1>  -0.1600 
 24 C        4.6310    -0.5860     1.1450 C.3   1 <1>  -0.1600 
 25 H        0.8580    -1.5250     0.8810 H     1 <1>   0.0800 
 26 H       -0.3980    -0.3760     1.2530 H     1 <1>   0.0800 
 27 H        1.2730     0.1090     1.3290 H     1 <1>   0.0800 
 28 H        0.7110     3.6370    -1.2220 H     1 <1>   0.0800 
 29 H        1.6040     2.4140    -2.0610 H     1 <1>   0.0800 
 30 H       -2.3290     1.1400    -1.7280 H     1 <1>   0.1500 
 31 H       -0.2120     3.1980     1.3550 H     1 <1>   0.1500 
 32 H       -2.3430     3.9830     2.2930 H     1 <1>   0.1500 
 33 H        3.1750     1.0170    -0.6540 H     1 <1>   0.3700 
 34 H        4.5780     2.7870     1.3060 H     1 <1>   0.0800 
 35 H       -5.9530     1.2030     0.5370 H     1 <1>   0.0800 
 36 H       -6.6950     1.9470    -0.8650 H     1 <1>   0.0800 
 37 H        6.5250     1.6270     0.5710 H     1 <1>   0.0800 
 38 H        5.6640     1.8190    -0.9370 H     1 <1>   0.0800 
 39 H        3.2800     0.6910     2.3080 H     1 <1>   0.0800 
 40 H        4.9770     0.8730     2.6690 H     1 <1>   0.0800 
 41 H       -6.7060     3.4790     1.1650 H     1 <1>   0.0800 
 42 H       -5.8140     4.1600    -0.1820 H     1 <1>   0.0800 
 43 H        6.4990    -0.6220     0.0340 H     1 <1>   0.0800 
 44 H        5.0640    -0.4650    -0.9570 H     1 <1>   0.0800 
 45 H        3.7400    -1.0580     0.7650 H     1 <1>   0.0800 
 46 H        5.1360    -1.2740     1.8010 H     1 <1>   0.0800 
@<TRIPOS>BOND
  1   1   2  2   
  2   1   3  2   
  3   1   4  am  
  4   1   5  1   
  5   4   6  1   
  6   4   7  1   
  7   5  25  1   
  8   5  26  1   
  9   5  27  1   
 10   6   8  ar  
 11   6   9  ar  
 12   7  10  1   
 13   7  28  1   
 14   7  29  1   
 15   8  11  ar  
 16   8  30  1   
 17   9  12  ar  
 18   9  31  1   
 19  10  13  2   
 20  10  14  am  
 21  11  15  1   
 22  11  16  ar  
 23  12  16  ar  
 24  12  32  1   
 25  14  17  1   
 26  14  33  1   
 27  15  18  1   
 28  16  19  1   
 29  17  20  1   
 30  17  21  1   
 31  17  34  1   
 32  18  22  1   
 33  18  35  1   
 34  18  36  1   
 35  19  22  1   
 36  20  23  1   
 37  20  37  1   
 38  20  38  1   
 39  21  24  1   
 40  21  39  1   
 41  21  40  1   
 42  22  41  1   
 43  22  42  1   
 44  23  24  1   
 45  23  43  1   
 46  23  44  1   
 47  24  45  1   
 48  24  46  1   
@<TRIPOS>SUBSTRUCTURE
  1 ****   4 GROUP 4 **** **** 0

# MOE 2024.06 (io_trps.svl 2023.06)
