@<TRIPOS>MOLECULE
NONAME
40 41 1 0 0 
SMALL
USER_CHARGES


@<TRIPOS>ATOM
  1 O       -0.5510    -0.8810     0.9390 O.2   1 <1>  -0.5700 
  2 C       -0.2220    -1.4570    -0.0790 C.2   1 <1>   0.6900 
  3 N        1.0900    -1.6740    -0.3910 N.am  1 <1>  -0.5470 
  4 N       -1.1550    -1.9200    -0.9530 N.am  1 <1>  -0.4930 
  5 C        2.3020    -1.3080     0.2250 C.ar  1 <1>   0.1170 
  6 C       -2.5460    -1.8820    -0.8910 C.2   1 <1>   0.3520 
  7 C        3.4750    -1.9250    -0.2240 C.ar  1 <1>   0.0830 
  8 C        2.3910    -0.3620     1.2410 C.ar  1 <1>  -0.1500 
  9 N       -3.2650    -2.3340    -1.8570 N.2   1 <1>  -0.4100 
 10 C       -3.3560    -1.3960     0.1370 C.2   1 <1>  -0.1500 
 11 O        3.3500    -2.8420    -1.2330 O.3   1 <1>  -0.3630 
 12 C        4.7000    -1.5980     0.3500 C.ar  1 <1>  -0.1500 
 13 C        3.6110    -0.0410     1.8080 C.ar  1 <1>  -0.1500 
 14 O       -4.5110    -2.1570    -1.4940 O.3   1 <1>  -0.0190 
 15 C       -4.6040    -1.6010    -0.3120 C.2   1 <1>  -0.0400 
 16 C        4.4710    -3.5500    -1.7190 C.3   1 <1>   0.0400 
 17 C        4.7660    -0.6590     1.3640 C.ar  1 <1>  -0.1500 
 18 C       -5.9780    -1.3120     0.2900 C.3   1 <1>   0.1800 
 19 C       -6.7460    -0.3530    -0.6300 C.3   1 <1>  -0.2400 
 20 C       -6.7600    -2.6230     0.4330 C.3   1 <1>  -0.2400 
 21 C       -5.8330    -0.6640     1.6740 C.3   1 <1>  -0.2400 
 22 H        1.2580    -2.3150    -1.1630 H     1 <1>   0.3700 
 23 H       -0.8170    -2.3220    -1.8180 H     1 <1>   0.3700 
 24 H        1.5090     0.1360     1.5990 H     1 <1>   0.1500 
 25 H       -3.0170    -0.9650     1.0590 H     1 <1>   0.1500 
 26 H        5.6140    -2.0570     0.0260 H     1 <1>   0.1500 
 27 H        3.6590     0.6920     2.5950 H     1 <1>   0.1500 
 28 H        4.1350    -4.2220    -2.4880 H     1 <1>   0.0800 
 29 H        4.9080    -4.1100    -0.9110 H     1 <1>   0.0800 
 30 H        5.1760    -2.8500    -2.1300 H     1 <1>   0.0800 
 31 H        5.7140    -0.4070     1.8080 H     1 <1>   0.1500 
 32 H       -6.1970     0.5630    -0.7520 H     1 <1>   0.0800 
 33 H       -7.7130    -0.1240    -0.2190 H     1 <1>   0.0800 
 34 H       -6.8840    -0.7950    -1.6010 H     1 <1>   0.0800 
 35 H       -6.8980    -3.0850    -0.5290 H     1 <1>   0.0800 
 36 H       -7.7270    -2.4450     0.8670 H     1 <1>   0.0800 
 37 H       -6.2210    -3.3100     1.0610 H     1 <1>   0.0800 
 38 H       -6.7980    -0.4590     2.1000 H     1 <1>   0.0800 
 39 H       -5.3000    -1.3200     2.3400 H     1 <1>   0.0800 
 40 H       -5.2900     0.2610     1.6000 H     1 <1>   0.0800 
@<TRIPOS>BOND
  1   1   2  2   
  2   2   3  am  
  3   2   4  am  
  4   3   5  1   
  5   3  22  1   
  6   4   6  1   
  7   4  23  1   
  8   5   7  ar  
  9   5   8  ar  
 10   6   9  2   
 11   6  10  1   
 12   7  11  1   
 13   7  12  ar  
 14   8  13  ar  
 15   8  24  1   
 16   9  14  1   
 17  10  15  2   
 18  10  25  1   
 19  11  16  1   
 20  12  17  ar  
 21  12  26  1   
 22  13  17  ar  
 23  13  27  1   
 24  14  15  1   
 25  15  18  1   
 26  16  28  1   
 27  16  29  1   
 28  16  30  1   
 29  17  31  1   
 30  18  19  1   
 31  18  20  1   
 32  18  21  1   
 33  19  32  1   
 34  19  33  1   
 35  19  34  1   
 36  20  35  1   
 37  20  36  1   
 38  20  37  1   
 39  21  38  1   
 40  21  39  1   
 41  21  40  1   
@<TRIPOS>SUBSTRUCTURE
  1 ****   2 GROUP 4 **** **** 0

# MOE 2024.06 (io_trps.svl 2023.06)
