@<TRIPOS>MOLECULE
NONAME
31 30 1 0 0 
SMALL
USER_CHARGES


@<TRIPOS>ATOM
  1 O       -0.1190    -1.2420     1.9240 O.co2 1 <1>  -0.9000 
  2 C       -0.2470    -1.4620     0.6990 C.2   1 <1>   0.9060 
  3 O        0.3860    -0.8990    -0.2230 O.co2 1 <1>  -0.9000 
  4 C       -1.3360    -2.4930     0.2920 C.3   1 <1>   0.1140 
  5 N       -0.9590    -3.3440    -0.8580 N.am  1 <1>  -0.7300 
  6 C       -2.6440    -1.7460    -0.0410 C.3   1 <1>  -0.1600 
  7 C       -1.1680    -4.6390    -1.0530 C.2   1 <1>   0.5690 
  8 C       -3.8570    -2.6310    -0.3740 C.3   1 <1>  -0.1600 
  9 O       -0.9230    -5.1430    -2.1380 O.2   1 <1>  -0.5700 
 10 C       -1.7050    -5.5000     0.0760 C.3   1 <1>  -0.1790 
 11 C       -5.0570    -1.7570    -0.7380 C.3   1 <1>   0.1680 
 12 N       -6.2360    -2.5910    -1.0350 N.pl3 1 <1>  -0.8440 
 13 C       -7.1020    -3.0720    -0.1900 C.cat 1 <1>   1.2000 
 14 N       -6.9860    -2.8890     1.0790 N.pl3 1 <1>  -0.9670 
 15 N       -8.1070    -3.7530    -0.6180 N.pl3 1 <1>  -0.9670 
 16 H       -1.5010    -3.1080     1.1750 H     1 <1>   0.0800 
 17 H       -0.4190    -2.8640    -1.5680 H     1 <1>   0.3700 
 18 H       -2.4340    -1.0890    -0.8880 H     1 <1>   0.0800 
 19 H       -2.8840    -1.1110     0.8140 H     1 <1>   0.0800 
 20 H       -4.0920    -3.2520     0.4900 H     1 <1>   0.0800 
 21 H       -3.6200    -3.2710    -1.2250 H     1 <1>   0.0800 
 22 H       -1.0410    -5.4140     0.9340 H     1 <1>   0.0800 
 23 H       -1.7370    -6.5380    -0.2520 H     1 <1>   0.0800 
 24 H       -2.7040    -5.1720     0.3480 H     1 <1>   0.0800 
 25 H       -4.7980    -1.1640    -1.6200 H     1 <1>   0.0800 
 26 H       -5.2650    -1.0580     0.0760 H     1 <1>   0.0800 
 27 H       -6.3830    -2.8220    -1.9990 H     1 <1>   0.4500 
 28 H       -7.6600    -3.2630     1.7140 H     1 <1>   0.4500 
 29 H       -6.1830    -2.3810     1.3970 H     1 <1>   0.4500 
 30 H       -8.7700    -4.1160     0.0380 H     1 <1>   0.4500 
 31 H       -8.2250    -3.9040    -1.6000 H     1 <1>   0.4500 
@<TRIPOS>BOND
  1   1   2  ar  
  2   2   3  ar  
  3   2   4  1   
  4   4   5  1   
  5   4   6  1   
  6   4  16  1   
  7   5   7  am  
  8   5  17  1   
  9   6   8  1   
 10   6  18  1   
 11   6  19  1   
 12   7   9  2   
 13   7  10  1   
 14   8  11  1   
 15   8  20  1   
 16   8  21  1   
 17  10  22  1   
 18  10  23  1   
 19  10  24  1   
 20  11  12  1   
 21  11  25  1   
 22  11  26  1   
 23  12  13  ar  
 24  12  27  1   
 25  13  14  ar  
 26  13  15  ar  
 27  14  28  1   
 28  14  29  1   
 29  15  30  1   
 30  15  31  1   
@<TRIPOS>SUBSTRUCTURE
  1 ****   8 GROUP 4 **** **** 0

# MOE 2024.06 (io_trps.svl 2023.06)
