@<TRIPOS>MOLECULE
12118
34 35 1 0 0 
SMALL
USER_CHARGES


@<TRIPOS>ATOM
  1 S        0.2880     0.2710    -0.8110 S.3   1 <1>  -0.0800 
  2 C       -1.0240     0.0870     0.3150 C.2   1 <1>   0.4420 
  3 C        1.1710     1.0290     0.4660 C.2   1 <1>   0.2280 
  4 N       -0.7390     0.5630     1.4710 N.2   1 <1>  -0.3380 
  5 N       -2.2140    -0.5090    -0.0390 N.am  1 <1>  -0.4940 
  6 N        0.5160     1.1010     1.5520 N.2   1 <1>  -0.3380 
  7 C       -2.6610    -1.0600    -1.2080 C.2   1 <1>   0.5690 
  8 O       -2.0050    -1.1080    -2.2170 O.2   1 <1>  -0.5700 
  9 C       -4.0660    -1.6430    -1.2300 C.3   1 <1>   0.1810 
 10 O       -4.6950    -1.4920     0.0350 O.3   1 <1>  -0.3630 
 11 C       -5.9430    -2.0000     0.1230 C.ar  1 <1>   0.0830 
 12 C       -7.0430    -1.2220    -0.2440 C.ar  1 <1>  -0.1430 
 13 C       -6.1020    -3.3030     0.5850 C.ar  1 <1>  -0.1430 
 14 C       -8.3150    -1.7850    -0.1880 C.ar  1 <1>  -0.1430 
 15 C       -6.8600     0.2270    -0.6960 C.3   1 <1>  -0.0970 
 16 C       -7.3740    -3.8410     0.6430 C.ar  1 <1>  -0.1500 
 17 C       -4.9130    -4.1430     1.0300 C.3   1 <1>  -0.0970 
 18 C       -8.4680    -3.0900     0.2540 C.ar  1 <1>  -0.1500 
 19 C       -9.5610    -1.0110    -0.5980 C.3   1 <1>  -0.0970 
 20 H        2.1690     1.3710     0.2550 H     1 <1>   0.1500 
 21 H       -2.8960    -0.5480     0.7200 H     1 <1>   0.3700 
 22 H       -4.0200    -2.6900    -1.4660 H     1 <1>   0.0800 
 23 H       -4.6570    -1.1370    -1.9700 H     1 <1>   0.0800 
 24 H       -6.9210     0.2850    -1.7680 H     1 <1>   0.0800 
 25 H       -5.9130     0.6240    -0.3820 H     1 <1>   0.0800 
 26 H       -7.6210     0.8540    -0.2700 H     1 <1>   0.0800 
 27 H       -7.5250    -4.8480     0.9900 H     1 <1>   0.1500 
 28 H       -4.2530    -3.5570     1.6440 H     1 <1>   0.0800 
 29 H       -4.3720    -4.4980     0.1730 H     1 <1>   0.0800 
 30 H       -5.2390    -4.9910     1.6050 H     1 <1>   0.0800 
 31 H       -9.4470    -3.5330     0.3050 H     1 <1>   0.1500 
 32 H       -9.7680    -0.2410     0.1230 H     1 <1>   0.0800 
 33 H      -10.4170    -1.6600    -0.6550 H     1 <1>   0.0800 
 34 H       -9.4210    -0.5620    -1.5640 H     1 <1>   0.0800 
@<TRIPOS>BOND
  1   1   2  1   
  2   1   3  1   
  3   2   4  2   
  4   2   5  1   
  5   3   6  2   
  6   3  20  1   
  7   4   6  1   
  8   5   7  am  
  9   5  21  1   
 10   7   8  2   
 11   7   9  1   
 12   9  10  1   
 13   9  22  1   
 14   9  23  1   
 15  10  11  1   
 16  11  12  ar  
 17  11  13  ar  
 18  12  14  ar  
 19  12  15  1   
 20  13  16  ar  
 21  13  17  1   
 22  14  18  ar  
 23  14  19  1   
 24  15  24  1   
 25  15  25  1   
 26  15  26  1   
 27  16  18  ar  
 28  16  27  1   
 29  17  28  1   
 30  17  29  1   
 31  17  30  1   
 32  18  31  1   
 33  19  32  1   
 34  19  33  1   
 35  19  34  1   
@<TRIPOS>SUBSTRUCTURE
  1 ****  10 GROUP 4 **** **** 0

# MOE 2024.06 (io_trps.svl 2023.06)
