@<TRIPOS>MOLECULE
NONAME
34 35 1 0 0 
SMALL
USER_CHARGES


@<TRIPOS>ATOM
  1 S        0.0860     0.0680    -0.6010 S.3   1 <1>  -0.2860 
  2 C       -1.6750     0.1680    -0.2800 C.2   1 <1>   0.2420 
  3 C        0.4890    -1.7060    -0.2810 C.3   1 <1>  -0.0100 
  4 N       -2.3540    -0.8660     0.0600 N.2   1 <1>  -0.5650 
  5 N       -2.3690     1.3450    -0.4170 N.pl3 1 <1>   0.2940 
  6 C       -3.6250    -0.3870     0.1540 C.ar  1 <1>   0.2270 
  7 C       -3.6650     0.9630    -0.1430 C.ar  1 <1>  -0.1520 
  8 C       -1.9030     2.6320    -0.6950 C.2   1 <1>   0.7290 
  9 C       -4.7930    -1.0660     0.4880 C.ar  1 <1>  -0.1500 
 10 C       -4.8720     1.6660    -0.1200 C.ar  1 <1>  -0.1500 
 11 O       -2.5120     3.4150    -1.4000 O.2   1 <1>  -0.5700 
 12 O       -0.7590     3.0220    -0.1270 O.3   1 <1>  -0.4300 
 13 C       -5.9870    -0.3770     0.5160 C.ar  1 <1>  -0.1500 
 14 C       -6.0260     0.9870     0.2110 C.ar  1 <1>  -0.1500 
 15 C       -0.2190     4.3090    -0.3540 C.3   1 <1>   0.1200 
 16 C        1.0760     4.4760     0.4570 C.3   1 <1>  -0.0800 
 17 C        1.6340     5.8920     0.2690 C.3   1 <1>  -0.2400 
 18 C        2.1400     3.4440     0.0550 C.3   1 <1>  -0.2400 
 19 H        1.5410    -1.8420    -0.4510 H     1 <1>   0.0800 
 20 H       -0.0960    -2.3020    -0.9580 H     1 <1>   0.0800 
 21 H        0.2290    -1.9210     0.7400 H     1 <1>   0.0800 
 22 H       -4.7370    -2.1140     0.7160 H     1 <1>   0.1500 
 23 H       -4.8990     2.7160    -0.3590 H     1 <1>   0.1500 
 24 H       -6.9000    -0.8870     0.7720 H     1 <1>   0.1500 
 25 H       -6.9690     1.5050     0.2360 H     1 <1>   0.1500 
 26 H       -0.9510     5.0390    -0.0520 H     1 <1>   0.0800 
 27 H       -0.0260     4.4130    -1.4080 H     1 <1>   0.0800 
 28 H        0.8390     4.3460     1.5000 H     1 <1>   0.0800 
 29 H        1.8860     6.0680    -0.7630 H     1 <1>   0.0800 
 30 H        2.5190     6.0260     0.8650 H     1 <1>   0.0800 
 31 H        0.9080     6.6250     0.5750 H     1 <1>   0.0800 
 32 H        2.3730     3.5260    -0.9920 H     1 <1>   0.0800 
 33 H        1.7880     2.4470     0.2500 H     1 <1>   0.0800 
 34 H        3.0410     3.5950     0.6220 H     1 <1>   0.0800 
@<TRIPOS>BOND
  1   1   2  1   
  2   1   3  1   
  3   2   4  2   
  4   2   5  1   
  5   3  19  1   
  6   3  20  1   
  7   3  21  1   
  8   4   6  1   
  9   5   7  1   
 10   5   8  1   
 11   6   7  ar  
 12   6   9  ar  
 13   7  10  ar  
 14   8  11  2   
 15   8  12  1   
 16   9  13  ar  
 17   9  22  1   
 18  10  14  ar  
 19  10  23  1   
 20  12  15  1   
 21  13  14  ar  
 22  13  24  1   
 23  14  25  1   
 24  15  16  1   
 25  15  26  1   
 26  15  27  1   
 27  16  17  1   
 28  16  18  1   
 29  16  28  1   
 30  17  29  1   
 31  17  30  1   
 32  17  31  1   
 33  18  32  1   
 34  18  33  1   
 35  18  34  1   
@<TRIPOS>SUBSTRUCTURE
  1 ****   5 GROUP 4 **** **** 0

# MOE 2024.06 (io_trps.svl 2023.06)
