@<TRIPOS>MOLECULE
NONAME
40 40 1 0 0 
SMALL
USER_CHARGES


@<TRIPOS>ATOM
  1 O        0.2740    -0.5370    -1.7410 O.3   1 <1>  -0.3630 
  2 C       -0.3420    -1.1100    -0.6810 C.ar  1 <1>   0.0830 
  3 C        1.6460    -0.8050    -1.9700 C.3   1 <1>   0.1200 
  4 C       -0.6030    -2.4820    -0.6640 C.ar  1 <1>  -0.1440 
  5 C       -0.6980    -0.3070     0.4020 C.ar  1 <1>  -0.1440 
  6 C        2.5220     0.0160    -1.0070 C.3   1 <1>   0.3430 
  7 C       -1.1400    -3.0480     0.4800 C.ar  1 <1>  -0.1500 
  8 C       -0.3540    -3.3880    -1.8630 C.3   1 <1>  -0.0970 
  9 C       -1.2370    -0.8980     1.5320 C.ar  1 <1>  -0.1500 
 10 C       -0.5330     1.2080     0.3850 C.3   1 <1>  -0.0960 
 11 N        3.2170    -0.7760     0.0770 N.4   1 <1>  -0.9590 
 12 C       -1.4460    -2.2640     1.5770 C.ar  1 <1>  -0.1500 
 13 C        2.2500    -1.5250     0.9360 C.3   1 <1>   0.3430 
 14 C        4.0870     0.1160     0.8950 C.3   1 <1>   0.3430 
 15 C        2.9780    -2.5230     1.8290 C.3   1 <1>  -0.2400 
 16 C        5.3120     0.5320     0.0890 C.3   1 <1>  -0.2400 
 17 H        1.8460    -0.4970    -2.9800 H     1 <1>   0.0800 
 18 H        1.8340    -1.8590    -1.8880 H     1 <1>   0.0800 
 19 H        1.9120     0.7860    -0.5650 H     1 <1>   0.0800 
 20 H        3.2730     0.5050    -1.6040 H     1 <1>   0.0800 
 21 H       -1.3390    -4.1060     0.5200 H     1 <1>   0.1500 
 22 H       -0.4010    -2.8290    -2.7810 H     1 <1>   0.0800 
 23 H       -1.1090    -4.1530    -1.9110 H     1 <1>   0.0800 
 24 H        0.6060    -3.8630    -1.7840 H     1 <1>   0.0800 
 25 H       -1.5110    -0.2970     2.3830 H     1 <1>   0.1500 
 26 H       -0.5560     1.5870    -0.6210 H     1 <1>   0.0800 
 27 H        0.3920     1.4900     0.8510 H     1 <1>   0.0800 
 28 H       -1.3410     1.6710     0.9230 H     1 <1>   0.0800 
 29 H        3.8250    -1.4760    -0.3680 H     1 <1>   0.4500 
 30 H       -1.8670    -2.7150     2.4600 H     1 <1>   0.1500 
 31 H        1.5760    -2.0850     0.3120 H     1 <1>   0.0800 
 32 H        1.6630    -0.8430     1.5310 H     1 <1>   0.0800 
 33 H        4.4250    -0.4040     1.7760 H     1 <1>   0.0800 
 34 H        3.5350     0.9860     1.2140 H     1 <1>   0.0800 
 35 H        3.6100    -3.1710     1.2480 H     1 <1>   0.0800 
 36 H        3.5550    -2.0330     2.5910 H     1 <1>   0.0800 
 37 H        2.2460    -3.1350     2.3260 H     1 <1>   0.0800 
 38 H        5.9710     1.0970     0.7240 H     1 <1>   0.0800 
 39 H        5.8530    -0.3290    -0.2610 H     1 <1>   0.0800 
 40 H        5.0490     1.1610    -0.7420 H     1 <1>   0.0800 
@<TRIPOS>BOND
  1   1   2  1   
  2   1   3  1   
  3   2   4  ar  
  4   2   5  ar  
  5   3   6  1   
  6   3  17  1   
  7   3  18  1   
  8   4   7  ar  
  9   4   8  1   
 10   5   9  ar  
 11   5  10  1   
 12   6  11  1   
 13   6  19  1   
 14   6  20  1   
 15   7  12  ar  
 16   7  21  1   
 17   8  22  1   
 18   8  23  1   
 19   8  24  1   
 20   9  12  ar  
 21   9  25  1   
 22  10  26  1   
 23  10  27  1   
 24  10  28  1   
 25  11  13  1   
 26  11  14  1   
 27  11  29  1   
 28  12  30  1   
 29  13  15  1   
 30  13  31  1   
 31  13  32  1   
 32  14  16  1   
 33  14  33  1   
 34  14  34  1   
 35  15  35  1   
 36  15  36  1   
 37  15  37  1   
 38  16  38  1   
 39  16  39  1   
 40  16  40  1   
@<TRIPOS>SUBSTRUCTURE
  1 ****   2 GROUP 4 **** **** 0

# MOE 2024.06 (io_trps.svl 2023.06)
