@<TRIPOS>MOLECULE
Structure424
22 23 1 0 0 
SMALL
USER_CHARGES


@<TRIPOS>ATOM
  1 CL      -0.8690    -0.2830     1.3860 Cl    1 <1>  -0.1770 
  2 C       -2.0430     0.7560     0.6360 C.ar  1 <1>   0.7970 
  3 N       -3.1780     0.1740     0.3010 N.ar  1 <1>  -0.6200 
  4 N       -1.6670     2.0170     0.4870 N.ar  1 <1>  -0.6200 
  5 C       -4.0540     0.9690    -0.2590 C.ar  1 <1>   0.4100 
  6 C       -2.5680     2.7880    -0.0880 C.ar  1 <1>   0.1600 
  7 N       -5.2260     0.3760    -0.6040 N.pl3 1 <1>  -0.8690 
  8 C       -3.7860     2.3070    -0.4830 C.ar  1 <1>  -0.1500 
  9 C       -6.5470     0.9810    -0.3760 C.3   1 <1>   0.3040 
 10 C       -7.3470     0.0270     0.5090 C.3   1 <1>  -0.1950 
 11 C       -7.9830    -1.2070    -0.0510 C.3   1 <1>  -0.2000 
 12 C       -8.8380    -0.0570     0.4030 C.3   1 <1>  -0.2000 
 13 H       -2.3160     3.8240    -0.2420 H     1 <1>   0.1500 
 14 H       -5.2290    -0.6280    -0.4010 H     1 <1>   0.4000 
 15 H       -4.5120     2.9360    -0.9590 H     1 <1>   0.1500 
 16 H       -7.0420     1.1150    -1.3240 H     1 <1>   0.0800 
 17 H       -6.4540     1.9380     0.1080 H     1 <1>   0.0800 
 18 H       -6.9320    -0.0360     1.5010 H     1 <1>   0.1000 
 19 H       -7.9680    -2.1080     0.5380 H     1 <1>   0.1000 
 20 H       -7.9010    -1.4050    -1.1070 H     1 <1>   0.1000 
 21 H       -9.3540     0.5190    -0.3450 H     1 <1>   0.1000 
 22 H       -9.4160    -0.1720     1.3050 H     1 <1>   0.1000 
@<TRIPOS>BOND
  1   1   2  1   
  2   2   3  ar  
  3   2   4  ar  
  4   3   5  ar  
  5   4   6  ar  
  6   5   7  1   
  7   5   8  ar  
  8   6   8  ar  
  9   6  13  1   
 10   7   9  1   
 11   7  14  1   
 12   8  15  1   
 13   9  10  1   
 14   9  16  1   
 15   9  17  1   
 16  10  11  1   
 17  10  12  1   
 18  10  18  1   
 19  11  12  1   
 20  11  19  1   
 21  11  20  1   
 22  12  21  1   
 23  12  22  1   
@<TRIPOS>SUBSTRUCTURE
  1 ****   5 GROUP 4 **** **** 0

# MOE 2024.06 (io_trps.svl 2023.06)
