@<TRIPOS>MOLECULE
NONAME
23 24 1 0 0 
SMALL
USER_CHARGES


@<TRIPOS>ATOM
  1 BR       0.2270    -0.2290    -1.9230 Br    1 <1>  -0.1110 
  2 C        0.0590    -1.9320    -1.0130 C.ar  1 <1>   0.1110 
  3 C        1.2220    -2.5660    -0.5260 C.ar  1 <1>  -0.1710 
  4 C       -1.1940    -2.4680    -0.8730 C.ar  1 <1>  -0.1500 
  5 O        2.3700    -2.0890    -0.6580 O.3   1 <1>  -0.8290 
  6 C        1.0560    -3.7940     0.1290 C.ar  1 <1>  -0.1500 
  7 C       -1.3430    -3.7020    -0.2230 C.ar  1 <1>   0.0860 
  8 C       -0.1980    -4.3420     0.2580 C.ar  1 <1>   0.0820 
  9 C       -2.5490    -4.3980     0.0310 C.2   1 <1>   0.6340 
 10 O       -0.3990    -5.5480     0.8560 O.3   1 <1>  -0.3630 
 11 O       -3.6730    -4.0090    -0.2420 O.2   1 <1>  -0.5700 
 12 O       -2.4350    -5.5940     0.6220 O.3   1 <1>  -0.4300 
 13 C       -1.3460    -6.4310     0.2450 C.3   1 <1>   0.5600 
 14 C       -0.1440    -7.3160    -0.2580 C.3   1 <1>  -0.2400 
 15 C       -2.3910    -7.4530    -0.3400 C.3   1 <1>  -0.2400 
 16 H       -2.0580    -1.9550    -1.2510 H     1 <1>   0.1500 
 17 H        1.9330    -4.2810     0.5100 H     1 <1>   0.1500 
 18 H        0.8070    -6.8110    -0.3520 H     1 <1>   0.0800 
 19 H       -0.2910    -7.7260    -1.2440 H     1 <1>   0.0800 
 20 H        0.0070    -8.1300     0.4280 H     1 <1>   0.0800 
 21 H       -3.3730    -7.4220     0.1130 H     1 <1>   0.0800 
 22 H       -2.1150    -8.4880    -0.2250 H     1 <1>   0.0800 
 23 H       -2.5240    -7.2590    -1.3900 H     1 <1>   0.0800 
@<TRIPOS>BOND
  1   1   2  1   
  2   2   3  ar  
  3   2   4  ar  
  4   3   5  1   
  5   3   6  ar  
  6   4   7  ar  
  7   4  16  1   
  8   6   8  ar  
  9   6  17  1   
 10   7   8  ar  
 11   7   9  1   
 12   8  10  1   
 13   9  11  2   
 14   9  12  1   
 15  10  13  1   
 16  12  13  1   
 17  13  14  1   
 18  13  15  1   
 19  14  18  1   
 20  14  19  1   
 21  14  20  1   
 22  15  21  1   
 23  15  22  1   
 24  15  23  1   
@<TRIPOS>SUBSTRUCTURE
  1 ****   7 GROUP 4 **** **** 0

# MOE 2024.06 (io_trps.svl 2023.06)
