@<TRIPOS>MOLECULE
NONAME
46 49 1 0 0 
SMALL
USER_CHARGES


@<TRIPOS>ATOM
  1 O        0.1600    -0.5460     1.1310 O.2   1 <1>  -0.5700 
  2 C        0.5970    -1.5360     0.5970 C.2   1 <1>   0.5690 
  3 N        1.9070    -1.8200     0.2940 N.am  1 <1>  -0.4200 
  4 C       -0.2430    -2.6620     0.0200 C.3   1 <1>   0.2510 
  5 C        2.0030    -3.1000    -0.1900 C.2   1 <1>   0.5690 
  6 C        3.0700    -0.9140     0.4250 C.3   1 <1>   0.2200 
  7 N       -1.4750    -3.2880     0.4960 N.3   1 <1>  -0.5400 
  8 C        0.7190    -3.8120     0.0970 C.3   1 <1>  -0.0190 
  9 O        2.9530    -3.6010    -0.7320 O.2   1 <1>  -0.5700 
 10 C        3.3030    -0.5630     1.8950 C.3   1 <1>  -0.2400 
 11 C        2.8650     0.3400    -0.4270 C.3   1 <1>  -0.2400 
 12 N       -1.3980    -4.6520    -0.0760 N.3   1 <1>  -0.6300 
 13 C       -2.6740    -2.5410     0.0650 C.3   1 <1>   0.2530 
 14 C       -0.0620    -4.8350    -0.6890 C.3   1 <1>   0.3700 
 15 C       -3.9660    -3.3070     0.3300 C.ar  1 <1>  -0.1440 
 16 C        0.4400    -6.2660    -0.5650 C.2   1 <1>  -0.0400 
 17 C       -4.1740    -3.9580     1.5370 C.ar  1 <1>  -0.1500 
 18 C       -4.9590    -3.3500    -0.6390 C.ar  1 <1>  -0.1500 
 19 O       -0.2210    -7.2190    -1.1970 O.3   1 <1>  -0.2800 
 20 C        1.5030    -6.7880     0.0890 C.2   1 <1>  -0.1500 
 21 C       -5.3530    -4.6430     1.7730 C.ar  1 <1>  -0.1500 
 22 C       -6.1390    -4.0350    -0.4050 C.ar  1 <1>  -0.1500 
 23 C        0.3920    -8.3600    -0.9560 C.2   1 <1>  -0.0100 
 24 C        1.4690    -8.1650    -0.1670 C.2   1 <1>  -0.1500 
 25 C       -6.3370    -4.6820     0.8020 C.ar  1 <1>  -0.1500 
 26 H       -0.3870    -2.3990    -1.0150 H     1 <1>   0.0800 
 27 H        3.9450    -1.4270     0.0600 H     1 <1>   0.0800 
 28 H        0.7910    -4.1550     1.1150 H     1 <1>   0.0800 
 29 H        2.4740    -0.0080     2.2950 H     1 <1>   0.0800 
 30 H        4.1880     0.0410     1.9890 H     1 <1>   0.0800 
 31 H        3.4440    -1.4580     2.4730 H     1 <1>   0.0800 
 32 H        2.0290     0.9170    -0.0710 H     1 <1>   0.0800 
 33 H        2.7020     0.0690    -1.4550 H     1 <1>   0.0800 
 34 H        3.7430     0.9590    -0.3790 H     1 <1>   0.0800 
 35 H       -2.1540    -4.8540    -0.7490 H     1 <1>   0.3600 
 36 H       -2.6050    -2.3240    -0.9860 H     1 <1>   0.0800 
 37 H       -2.7070    -1.6060     0.5990 H     1 <1>   0.0800 
 38 H       -0.1000    -4.5600    -1.7290 H     1 <1>   0.0800 
 39 H       -3.4070    -3.9370     2.2920 H     1 <1>   0.1500 
 40 H       -4.8220    -2.8510    -1.5820 H     1 <1>   0.1500 
 41 H        2.2460    -6.2900     0.6860 H     1 <1>   0.1500 
 42 H       -5.5000    -5.1470     2.7120 H     1 <1>   0.1500 
 43 H       -6.9050    -4.0650    -1.1610 H     1 <1>   0.1500 
 44 H       -0.0050    -9.2630    -1.3860 H     1 <1>   0.1500 
 45 H        2.1720    -8.8870     0.2070 H     1 <1>   0.1500 
 46 H       -7.2530    -5.2150     0.9850 H     1 <1>   0.1500 
@<TRIPOS>BOND
  1   1   2  2   
  2   2   3  am  
  3   2   4  1   
  4   3   5  am  
  5   3   6  1   
  6   4   7  1   
  7   4   8  1   
  8   4  26  1   
  9   5   8  1   
 10   5   9  2   
 11   6  10  1   
 12   6  11  1   
 13   6  27  1   
 14   7  12  1   
 15   7  13  1   
 16   8  14  1   
 17   8  28  1   
 18  10  29  1   
 19  10  30  1   
 20  10  31  1   
 21  11  32  1   
 22  11  33  1   
 23  11  34  1   
 24  12  14  1   
 25  12  35  1   
 26  13  15  1   
 27  13  36  1   
 28  13  37  1   
 29  14  16  1   
 30  14  38  1   
 31  15  17  ar  
 32  15  18  ar  
 33  16  19  1   
 34  16  20  2   
 35  17  21  ar  
 36  17  39  1   
 37  18  22  ar  
 38  18  40  1   
 39  19  23  1   
 40  20  24  1   
 41  20  41  1   
 42  21  25  ar  
 43  21  42  1   
 44  22  25  ar  
 45  22  43  1   
 46  23  24  2   
 47  23  44  1   
 48  24  45  1   
 49  25  46  1   
@<TRIPOS>SUBSTRUCTURE
  1 ****   7 GROUP 4 **** **** 0

# MOE 2024.06 (io_trps.svl 2023.06)
