@<TRIPOS>MOLECULE
NONAME
35 35 1 0 0 
SMALL
USER_CHARGES


@<TRIPOS>ATOM
  1 F       -0.7090     0.4800     0.3200 F     1 <1>  -0.3400 
  2 C        0.5760     0.7160     0.0940 C.3   1 <1>   1.0200 
  3 F        0.9810    -0.2720    -0.6950 F     1 <1>  -0.3400 
  4 F        1.2000     0.5260     1.2480 F     1 <1>  -0.3400 
  5 C        0.8480     2.0760    -0.5700 C.3   1 <1>   0.2200 
  6 N        2.3140     2.3330    -0.9560 N.am  1 <1>  -0.7300 
  7 C        0.1210     3.1640     0.2510 C.3   1 <1>   1.0200 
  8 C        3.2910     2.7200    -0.1120 C.2   1 <1>   0.7800 
  9 F       -1.1860     3.1550     0.0170 F     1 <1>  -0.3400 
 10 F        0.2530     3.0830     1.5670 F     1 <1>  -0.3400 
 11 F        0.5220     4.3850    -0.0850 F     1 <1>  -0.3400 
 12 O        3.0840     2.9230     1.0620 O.2   1 <1>  -0.5700 
 13 O        4.4930     2.8630    -0.6520 O.3   1 <1>  -0.4300 
 14 C        5.6130     3.2960     0.0940 C.3   1 <1>   0.2000 
 15 C        5.9000     4.7820    -0.2130 C.3   1 <1>  -0.0800 
 16 C        6.7940     2.4010    -0.2990 C.3   1 <1>  -0.1600 
 17 C        7.1980     5.2260     0.4860 C.3   1 <1>  -0.1600 
 18 C        4.7450     5.7040     0.2110 C.3   1 <1>  -0.2400 
 19 C        8.0870     2.8530     0.3940 C.3   1 <1>  -0.1600 
 20 C        8.3820     4.3290     0.1000 C.3   1 <1>  -0.1600 
 21 H        0.3150     2.0450    -1.5000 H     1 <1>   0.0800 
 22 H        2.6100     2.1110    -1.9080 H     1 <1>   0.3700 
 23 H        5.4210     3.1700     1.1470 H     1 <1>   0.0800 
 24 H        6.0450     4.8830    -1.2750 H     1 <1>   0.0800 
 25 H        6.9330     2.4440    -1.3650 H     1 <1>   0.0800 
 26 H        6.5790     1.3850    -0.0200 H     1 <1>   0.0800 
 27 H        7.0610     5.1910     1.5530 H     1 <1>   0.0800 
 28 H        7.4240     6.2440     0.2170 H     1 <1>   0.0800 
 29 H        4.5270     5.5810     1.2580 H     1 <1>   0.0800 
 30 H        3.8550     5.4790    -0.3490 H     1 <1>   0.0800 
 31 H        4.9990     6.7330     0.0300 H     1 <1>   0.0800 
 32 H        8.9100     2.2460     0.0570 H     1 <1>   0.0800 
 33 H        7.9890     2.7150     1.4580 H     1 <1>   0.0800 
 34 H        9.2580     4.6360     0.6460 H     1 <1>   0.0800 
 35 H        8.5920     4.4490    -0.9500 H     1 <1>   0.0800 
@<TRIPOS>BOND
  1   1   2  1   
  2   2   3  1   
  3   2   4  1   
  4   2   5  1   
  5   5   6  1   
  6   5   7  1   
  7   5  21  1   
  8   6   8  am  
  9   6  22  1   
 10   7   9  1   
 11   7  10  1   
 12   7  11  1   
 13   8  12  2   
 14   8  13  1   
 15  13  14  1   
 16  14  15  1   
 17  14  16  1   
 18  14  23  1   
 19  15  17  1   
 20  15  18  1   
 21  15  24  1   
 22  16  19  1   
 23  16  25  1   
 24  16  26  1   
 25  17  20  1   
 26  17  27  1   
 27  17  28  1   
 28  18  29  1   
 29  18  30  1   
 30  18  31  1   
 31  19  20  1   
 32  19  32  1   
 33  19  33  1   
 34  20  34  1   
 35  20  35  1   
@<TRIPOS>SUBSTRUCTURE
  1 ****   8 GROUP 4 **** **** 0

# MOE 2024.06 (io_trps.svl 2023.06)
