@<TRIPOS>MOLECULE
NONAME
41 42 1 0 0 
SMALL
USER_CHARGES


@<TRIPOS>ATOM
  1 BR      -0.1260     0.6460     0.3410 Br    1 <1>  -0.1110 
  2 C        1.6920     1.2490     0.1510 C.ar  1 <1>   0.1110 
  3 C        2.7190     0.3840     0.4810 C.ar  1 <1>  -0.1500 
  4 C        1.9240     2.5320    -0.3100 C.ar  1 <1>  -0.1500 
  5 C        4.0260     0.8200     0.3440 C.ar  1 <1>  -0.1500 
  6 C        3.2340     2.9570    -0.4430 C.ar  1 <1>  -0.1500 
  7 C        4.2870     2.1110    -0.1200 C.ar  1 <1>   0.0830 
  8 O        5.5370     2.6140    -0.2820 O.3   1 <1>  -0.3630 
  9 C        6.6790     1.8470     0.0150 C.3   1 <1>   0.1200 
 10 C        7.9100     2.7070    -0.2770 C.3   1 <1>  -0.1600 
 11 C        9.2110     1.9500     0.0230 C.3   1 <1>  -0.1600 
 12 C       10.4350     2.8280    -0.2770 C.3   1 <1>  -0.1600 
 13 C       11.7330     2.0770     0.0200 C.3   1 <1>   0.3430 
 14 N       12.9080     2.9100    -0.3540 N.4   1 <1>  -0.9590 
 15 C       14.1830     2.1540    -0.3070 C.3   1 <1>   0.3430 
 16 C       13.1130     4.1000     0.5100 C.3   1 <1>   0.3430 
 17 C       15.2580     3.2310    -0.2580 C.3   1 <1>  -0.1600 
 18 C       14.5690     4.4860     0.2860 C.3   1 <1>  -0.1600 
 19 H        2.4960    -0.6060     0.8360 H     1 <1>   0.1500 
 20 H        1.1010     3.1780    -0.5570 H     1 <1>   0.1500 
 21 H        4.8210     0.1460     0.6010 H     1 <1>   0.1500 
 22 H        3.4500     3.9490    -0.7990 H     1 <1>   0.1500 
 23 H        6.6690     0.9690    -0.6070 H     1 <1>   0.0800 
 24 H        6.6410     1.5710     1.0550 H     1 <1>   0.0800 
 25 H        7.8590     3.5960     0.3290 H     1 <1>   0.0800 
 26 H        7.8880     2.9960    -1.3140 H     1 <1>   0.0800 
 27 H        9.2470     1.0570    -0.5800 H     1 <1>   0.0800 
 28 H        9.2180     1.6570     1.0600 H     1 <1>   0.0800 
 29 H       10.3750     3.7170     0.3270 H     1 <1>   0.0800 
 30 H       10.4120     3.1120    -1.3150 H     1 <1>   0.0800 
 31 H       11.7450     1.1620    -0.5500 H     1 <1>   0.0800 
 32 H       11.7780     1.8220     1.0670 H     1 <1>   0.0800 
 33 H       12.7860     3.2450    -1.3190 H     1 <1>   0.4500 
 34 H       14.3000     1.5100    -1.1640 H     1 <1>   0.0800 
 35 H       14.2250     1.5640     0.5950 H     1 <1>   0.0800 
 36 H       12.9680     3.8300     1.5440 H     1 <1>   0.0800 
 37 H       12.4420     4.9040     0.2520 H     1 <1>   0.0800 
 38 H       15.6380     3.4110    -1.2490 H     1 <1>   0.0800 
 39 H       16.0750     2.9180     0.3690 H     1 <1>   0.0800 
 40 H       15.0140     4.8180     1.2080 H     1 <1>   0.0800 
 41 H       14.6290     5.2880    -0.4290 H     1 <1>   0.0800 
@<TRIPOS>BOND
  1   1   2  1   
  2   2   3  ar  
  3   2   4  ar  
  4   3   5  ar  
  5   3  19  1   
  6   4   6  ar  
  7   4  20  1   
  8   5   7  ar  
  9   5  21  1   
 10   6   7  ar  
 11   6  22  1   
 12   7   8  1   
 13   8   9  1   
 14   9  10  1   
 15   9  23  1   
 16   9  24  1   
 17  10  11  1   
 18  10  25  1   
 19  10  26  1   
 20  11  12  1   
 21  11  27  1   
 22  11  28  1   
 23  12  13  1   
 24  12  29  1   
 25  12  30  1   
 26  13  14  1   
 27  13  31  1   
 28  13  32  1   
 29  14  15  1   
 30  14  16  1   
 31  14  33  1   
 32  15  17  1   
 33  15  34  1   
 34  15  35  1   
 35  16  18  1   
 36  16  36  1   
 37  16  37  1   
 38  17  18  1   
 39  17  38  1   
 40  17  39  1   
 41  18  40  1   
 42  18  41  1   
@<TRIPOS>SUBSTRUCTURE
  1 ****  10 GROUP 4 **** **** 0

# MOE 2024.06 (io_trps.svl 2023.06)
