@<TRIPOS>MOLECULE
NONAME
40 43 1 0 0 
SMALL
USER_CHARGES


@<TRIPOS>ATOM
  1 O        0.0510     0.8320    -0.3880 O.2   1 <1>  -0.5700 
  2 C       -0.0220     2.0260    -0.1630 C.2   1 <1>   0.7150 
  3 N        1.1370     2.7380    -0.0320 N.am  1 <1>  -0.7300 
  4 C       -1.2960     2.7030    -0.0310 C.2   1 <1>   0.0550 
  5 C        2.5030     2.1860    -0.1170 C.3   1 <1>   0.2200 
  6 O       -2.4410     2.0140    -0.1330 O.3   1 <1>  -0.2800 
  7 C       -1.5880     4.0090     0.1970 C.2   1 <1>  -0.1500 
  8 C        3.2750     2.5010     1.1770 C.3   1 <1>  -0.0800 
  9 C        3.3110     2.9420    -1.1860 C.3   1 <1>  -0.1600 
 10 C       -3.4700     2.8520     0.0250 C.ar  1 <1>   0.1400 
 11 C       -2.9860     4.1310     0.2380 C.ar  1 <1>   0.0000 
 12 C        3.7700     3.9200     0.9270 C.3   1 <1>  -0.1600 
 13 C        4.5970     1.7150     1.1420 C.3   1 <1>  -0.1600 
 14 C        4.4610     3.5770    -0.3820 C.3   1 <1>  -0.0800 
 15 C       -4.8500     2.5920     0.0000 C.ar  1 <1>   0.0820 
 16 C       -3.8710     5.1940     0.4330 C.ar  1 <1>  -0.1500 
 17 C        5.4110     2.4540     0.0650 C.3   1 <1>  -0.1600 
 18 O       -5.4230     1.3720    -0.2010 O.3   1 <1>  -0.3630 
 19 C       -5.7110     3.6560     0.1950 C.ar  1 <1>  -0.1500 
 20 C       -5.2270     4.9480     0.4100 C.ar  1 <1>  -0.1500 
 21 C       -4.6380     0.2190    -0.4150 C.3   1 <1>   0.0400 
 22 H        1.0890     3.7300     0.1810 H     1 <1>   0.3700 
 23 H        2.4780     1.1260    -0.3120 H     1 <1>   0.0800 
 24 H       -0.9150     4.8350     0.3290 H     1 <1>   0.1500 
 25 H        2.7060     2.3460     2.0780 H     1 <1>   0.0800 
 26 H        2.7190     3.7030    -1.6630 H     1 <1>   0.0800 
 27 H        3.6850     2.2680    -1.9360 H     1 <1>   0.0800 
 28 H        4.4570     4.2600     1.6840 H     1 <1>   0.0800 
 29 H        2.9750     4.6350     0.8040 H     1 <1>   0.0800 
 30 H        4.4430     0.6790     0.8930 H     1 <1>   0.0800 
 31 H        5.0950     1.7780     2.0950 H     1 <1>   0.0800 
 32 H        4.9500     4.3980    -0.8780 H     1 <1>   0.0800 
 33 H       -3.4860     6.1840     0.5980 H     1 <1>   0.1500 
 34 H        5.6840     1.8070    -0.7510 H     1 <1>   0.0800 
 35 H        6.3050     2.8710     0.4960 H     1 <1>   0.0800 
 36 H       -6.7710     3.4800     0.1800 H     1 <1>   0.1500 
 37 H       -5.9270     5.7530     0.5590 H     1 <1>   0.1500 
 38 H       -5.3000    -0.6170    -0.5510 H     1 <1>   0.0800 
 39 H       -4.0130     0.0560     0.4450 H     1 <1>   0.0800 
 40 H       -4.0410     0.3610    -1.2990 H     1 <1>   0.0800 
@<TRIPOS>BOND
  1   1   2  2   
  2   2   3  am  
  3   2   4  1   
  4   3   5  1   
  5   3  22  1   
  6   4   6  1   
  7   4   7  2   
  8   5   8  1   
  9   5   9  1   
 10   5  23  1   
 11   6  10  1   
 12   7  11  1   
 13   7  24  1   
 14   8  12  1   
 15   8  13  1   
 16   8  25  1   
 17   9  14  1   
 18   9  26  1   
 19   9  27  1   
 20  10  11  ar  
 21  10  15  ar  
 22  11  16  ar  
 23  12  14  1   
 24  12  28  1   
 25  12  29  1   
 26  13  17  1   
 27  13  30  1   
 28  13  31  1   
 29  14  17  1   
 30  14  32  1   
 31  15  18  1   
 32  15  19  ar  
 33  16  20  ar  
 34  16  33  1   
 35  17  34  1   
 36  17  35  1   
 37  18  21  1   
 38  19  20  ar  
 39  19  36  1   
 40  20  37  1   
 41  21  38  1   
 42  21  39  1   
 43  21  40  1   
@<TRIPOS>SUBSTRUCTURE
  1 ****   4 GROUP 4 **** **** 0

# MOE 2024.06 (io_trps.svl 2023.06)
