@<TRIPOS>MOLECULE
NONAME
54 56 1 0 0 
SMALL
USER_CHARGES


@<TRIPOS>ATOM
  1 O       -1.8850    -0.4650    -1.0940 O.3   1 <1>  -0.3630 
  2 C       -2.4050     0.5940    -0.4270 C.ar  1 <1>   0.0830 
  3 C       -0.6600    -0.3700    -1.7890 C.3   1 <1>   0.0400 
  4 C       -1.8500     1.8690    -0.4360 C.ar  1 <1>  -0.1500 
  5 C       -3.5630     0.3510     0.2930 C.ar  1 <1>  -0.1500 
  6 C       -2.4620     2.8920     0.2810 C.ar  1 <1>   0.0830 
  7 C       -4.1820     1.3680     1.0020 C.ar  1 <1>  -0.1430 
  8 O       -2.0010     4.1650     0.3300 O.3   1 <1>  -0.3630 
  9 C       -3.6200     2.6350     0.9960 C.ar  1 <1>  -0.1500 
 10 C       -5.4650     1.1030     1.7610 C.3   1 <1>   0.4860 
 11 C       -0.7740     4.5290    -0.2670 C.3   1 <1>   0.0400 
 12 N       -6.5710     0.9920     0.7740 N.4   1 <1>  -0.9590 
 13 C       -6.7700     2.2800     0.0080 C.3   1 <1>   0.3430 
 14 C       -7.8570     0.5380     1.4160 C.3   1 <1>   0.3430 
 15 C       -7.9140     2.1970    -1.0240 C.3   1 <1>   0.2090 
 16 C       -9.0040     0.3870     0.3960 C.3   1 <1>   0.2090 
 17 N       -9.1570     1.6150    -0.4340 N.pl3 1 <1>  -0.8380 
 18 C      -10.2230     2.4610    -0.1270 C.ar  1 <1>   0.1000 
 19 C      -11.4830     2.2910    -0.7120 C.ar  1 <1>  -0.1430 
 20 C      -10.0380     3.4830     0.7990 C.ar  1 <1>  -0.1500 
 21 C      -12.5340     3.1270    -0.3440 C.ar  1 <1>  -0.1430 
 22 C      -11.7020     1.1880    -1.7500 C.3   1 <1>  -0.0970 
 23 C      -11.0770     4.3180     1.1510 C.ar  1 <1>  -0.1500 
 24 C      -12.3220     4.1370     0.5810 C.ar  1 <1>  -0.1500 
 25 C      -13.9340     2.9750    -0.9270 C.3   1 <1>  -0.0970 
 26 H       -0.4340    -1.3370    -2.2020 H     1 <1>   0.0800 
 27 H        0.1130    -0.0800    -1.0980 H     1 <1>   0.0800 
 28 H       -0.7600     0.3500    -2.5810 H     1 <1>   0.0800 
 29 H       -0.9570     2.0630    -0.9930 H     1 <1>   0.1500 
 30 H       -3.9580    -0.6500     0.2830 H     1 <1>   0.1500 
 31 H       -4.0620     3.4480     1.5450 H     1 <1>   0.1500 
 32 H       -5.6580     1.9050     2.4540 H     1 <1>   0.0800 
 33 H       -5.3660     0.1840     2.3160 H     1 <1>   0.0800 
 34 H       -0.5970     5.5690    -0.0590 H     1 <1>   0.0800 
 35 H       -0.8420     4.3760    -1.3290 H     1 <1>   0.0800 
 36 H        0.0140     3.9340     0.1600 H     1 <1>   0.0800 
 37 H       -6.2860     0.2860     0.0830 H     1 <1>   0.4500 
 38 H       -5.8610     2.5470    -0.5060 H     1 <1>   0.0800 
 39 H       -6.9990     3.0750     0.6970 H     1 <1>   0.0800 
 40 H       -8.1650     1.2580     2.1550 H     1 <1>   0.0800 
 41 H       -7.7080    -0.4050     1.9140 H     1 <1>   0.0800 
 42 H       -7.6060     1.5900    -1.8570 H     1 <1>   0.0800 
 43 H       -8.1270     3.1820    -1.4040 H     1 <1>   0.0800 
 44 H       -9.9250     0.1940     0.9210 H     1 <1>   0.0800 
 45 H       -8.8150    -0.4530    -0.2490 H     1 <1>   0.0800 
 46 H       -9.0800     3.6280     1.2530 H     1 <1>   0.1500 
 47 H      -10.7860     0.9270    -2.2460 H     1 <1>   0.0800 
 48 H      -12.3880     1.5060    -2.5130 H     1 <1>   0.0800 
 49 H      -12.0960     0.3120    -1.2690 H     1 <1>   0.0800 
 50 H      -10.9270     5.1070     1.8660 H     1 <1>   0.1500 
 51 H      -13.1280     4.7910     0.8650 H     1 <1>   0.1500 
 52 H      -14.2560     1.9520    -0.8630 H     1 <1>   0.0800 
 53 H      -13.9370     3.2840    -1.9560 H     1 <1>   0.0800 
 54 H      -14.6430     3.5790    -0.3900 H     1 <1>   0.0800 
@<TRIPOS>BOND
  1   1   2  1   
  2   1   3  1   
  3   2   4  ar  
  4   2   5  ar  
  5   3  26  1   
  6   3  27  1   
  7   3  28  1   
  8   4   6  ar  
  9   4  29  1   
 10   5   7  ar  
 11   5  30  1   
 12   6   8  1   
 13   6   9  ar  
 14   7   9  ar  
 15   7  10  1   
 16   8  11  1   
 17   9  31  1   
 18  10  12  1   
 19  10  32  1   
 20  10  33  1   
 21  11  34  1   
 22  11  35  1   
 23  11  36  1   
 24  12  13  1   
 25  12  14  1   
 26  12  37  1   
 27  13  15  1   
 28  13  38  1   
 29  13  39  1   
 30  14  16  1   
 31  14  40  1   
 32  14  41  1   
 33  15  17  1   
 34  15  42  1   
 35  15  43  1   
 36  16  17  1   
 37  16  44  1   
 38  16  45  1   
 39  17  18  1   
 40  18  19  ar  
 41  18  20  ar  
 42  19  21  ar  
 43  19  22  1   
 44  20  23  ar  
 45  20  46  1   
 46  21  24  ar  
 47  21  25  1   
 48  22  47  1   
 49  22  48  1   
 50  22  49  1   
 51  23  24  ar  
 52  23  50  1   
 53  24  51  1   
 54  25  52  1   
 55  25  53  1   
 56  25  54  1   
@<TRIPOS>SUBSTRUCTURE
  1 ****  13 GROUP 4 **** **** 0

# MOE 2024.06 (io_trps.svl 2023.06)
