@<TRIPOS>MOLECULE
NONAME
39 40 1 0 0 
SMALL
USER_CHARGES


@<TRIPOS>ATOM
  1 S       -2.8030     0.3470    -1.5620 S.3   1 <1>  -0.3320 
  2 C       -2.1170     1.5930    -0.4590 C.ar  1 <1>   0.1020 
  3 C       -2.1150    -1.2470    -0.9200 C.3   1 <1>  -0.0100 
  4 C       -2.3420     1.5500     0.9190 C.ar  1 <1>   0.0860 
  5 C       -1.3660     2.5950    -1.0450 C.ar  1 <1>  -0.1500 
  6 C       -3.1970     0.5600     1.5330 C.2   1 <1>   0.5440 
  7 C       -1.7360     2.5370     1.6950 C.ar  1 <1>  -0.1500 
  8 C       -0.7910     3.5720    -0.2530 C.ar  1 <1>  -0.1500 
  9 O       -2.7000    -0.3790     2.1220 O.2   1 <1>  -0.5700 
 10 N       -4.5750     0.6390     1.4610 N.am  1 <1>  -0.6600 
 11 C       -0.9720     3.5370     1.1190 C.ar  1 <1>  -0.1500 
 12 C       -5.3090     1.6680     0.6630 C.3   1 <1>   0.1400 
 13 C       -5.4500    -0.4560     1.9770 C.3   1 <1>   0.1400 
 14 C       -6.0820     0.9990    -0.4920 C.3   1 <1>   0.3430 
 15 C       -6.2000    -1.1220     0.8100 C.3   1 <1>   0.3430 
 16 N       -6.9740    -0.1230    -0.0210 N.4   1 <1>  -0.9590 
 17 C       -7.6420    -0.7640    -1.1830 C.3   1 <1>   0.3430 
 18 C       -8.8100    -1.6170    -0.7010 C.3   1 <1>  -0.2400 
 19 H       -2.0450    -1.9320    -1.7450 H     1 <1>   0.0800 
 20 H       -2.7770    -1.6250    -0.1630 H     1 <1>   0.0800 
 21 H       -1.1410    -1.0460    -0.5090 H     1 <1>   0.0800 
 22 H       -1.2240     2.6070    -2.1120 H     1 <1>   0.1500 
 23 H       -1.8710     2.5160     2.7640 H     1 <1>   0.1500 
 24 H       -0.1990     4.3530    -0.7000 H     1 <1>   0.1500 
 25 H       -0.5150     4.2910     1.7390 H     1 <1>   0.1500 
 26 H       -4.6340     2.4000     0.2590 H     1 <1>   0.0800 
 27 H       -5.9970     2.1890     1.3070 H     1 <1>   0.0800 
 28 H       -6.1520    -0.0500     2.6840 H     1 <1>   0.0800 
 29 H       -4.8700    -1.2020     2.4930 H     1 <1>   0.0800 
 30 H       -5.3660     0.6140    -1.1990 H     1 <1>   0.0800 
 31 H       -6.6700     1.7460    -0.9990 H     1 <1>   0.0800 
 32 H       -6.8680    -1.8680     1.2070 H     1 <1>   0.0800 
 33 H       -5.4760    -1.6240     0.1890 H     1 <1>   0.0800 
 34 H       -7.7020     0.2860     0.5790 H     1 <1>   0.4500 
 35 H       -6.9370    -1.3710    -1.7300 H     1 <1>   0.0800 
 36 H       -8.0190    -0.0040    -1.8490 H     1 <1>   0.0800 
 37 H       -8.4750    -2.4500    -0.1110 H     1 <1>   0.0800 
 38 H       -9.3290    -2.0130    -1.5560 H     1 <1>   0.0800 
 39 H       -9.5100    -1.0270    -0.1360 H     1 <1>   0.0800 
@<TRIPOS>BOND
  1   1   2  1   
  2   1   3  1   
  3   2   4  ar  
  4   2   5  ar  
  5   3  19  1   
  6   3  20  1   
  7   3  21  1   
  8   4   6  1   
  9   4   7  ar  
 10   5   8  ar  
 11   5  22  1   
 12   6   9  2   
 13   6  10  am  
 14   7  11  ar  
 15   7  23  1   
 16   8  11  ar  
 17   8  24  1   
 18  10  12  1   
 19  10  13  1   
 20  11  25  1   
 21  12  14  1   
 22  12  26  1   
 23  12  27  1   
 24  13  15  1   
 25  13  28  1   
 26  13  29  1   
 27  14  16  1   
 28  14  30  1   
 29  14  31  1   
 30  15  16  1   
 31  15  32  1   
 32  15  33  1   
 33  16  17  1   
 34  16  34  1   
 35  17  18  1   
 36  17  35  1   
 37  17  36  1   
 38  18  37  1   
 39  18  38  1   
 40  18  39  1   
@<TRIPOS>SUBSTRUCTURE
  1 ****  10 GROUP 4 **** **** 0

# MOE 2024.06 (io_trps.svl 2023.06)
