@<TRIPOS>MOLECULE
NONAME
36 36 1 0 0 
SMALL
USER_CHARGES


@<TRIPOS>ATOM
  1 O       -2.2180     3.3000     2.2810 O.2   1 <1>  -0.5700 
  2 C       -2.6880     2.9690     1.2220 C.2   1 <1>   0.4230 
  3 C       -4.1110     2.7990     1.0050 C.ar  1 <1>   0.0860 
  4 C       -1.6960     2.7320     0.0920 C.3   1 <1>  -0.0990 
  5 C       -4.6580     2.3530    -0.2050 C.ar  1 <1>  -0.1500 
  6 C       -5.0130     3.0830     2.0340 C.ar  1 <1>  -0.1500 
  7 C       -0.2790     3.0950     0.5490 C.3   1 <1>   0.3430 
  8 C       -6.0230     2.2040    -0.3770 C.ar  1 <1>  -0.1500 
  9 C       -6.3770     2.9370     1.8690 C.ar  1 <1>  -0.1500 
 10 N        0.7300     2.9330    -0.5450 N.4   1 <1>  -0.9590 
 11 C       -6.8970     2.4970     0.6640 C.ar  1 <1>   0.0830 
 12 C        0.9820     1.4950    -0.8780 C.3   1 <1>   0.2630 
 13 C        2.0100     3.5970    -0.1460 C.3   1 <1>   0.2630 
 14 O       -8.2390     2.3800     0.5810 O.3   1 <1>  -0.3620 
 15 C       -8.8830     1.9390    -0.5910 C.3   1 <1>   0.1200 
 16 C      -10.3860     1.9270    -0.3280 C.3   1 <1>  -0.2400 
 17 H       -1.9730     3.3480    -0.7430 H     1 <1>   0.0800 
 18 H       -1.7440     1.6950    -0.1840 H     1 <1>   0.0800 
 19 H       -4.0240     2.1120    -1.0370 H     1 <1>   0.1500 
 20 H       -4.6390     3.4270     2.9840 H     1 <1>   0.1500 
 21 H       -0.0090     2.4830     1.3960 H     1 <1>   0.0800 
 22 H       -0.2870     4.1210     0.8850 H     1 <1>   0.0800 
 23 H       -6.3940     1.8590    -1.3240 H     1 <1>   0.1500 
 24 H       -7.0520     3.1630     2.6750 H     1 <1>   0.1500 
 25 H        0.3760     3.4140    -1.3860 H     1 <1>   0.4500 
 26 H        1.3370     0.9660    -0.0080 H     1 <1>   0.0800 
 27 H        1.7260     1.4150    -1.6550 H     1 <1>   0.0800 
 28 H        0.0780     1.0210    -1.2230 H     1 <1>   0.0800 
 29 H        2.4140     3.1310     0.7380 H     1 <1>   0.0800 
 30 H        1.8420     4.6410     0.0630 H     1 <1>   0.0800 
 31 H        2.7360     3.5190    -0.9390 H     1 <1>   0.0800 
 32 H       -8.5310     0.9490    -0.8230 H     1 <1>   0.0800 
 33 H       -8.6430     2.6200    -1.3900 H     1 <1>   0.0800 
 34 H      -10.6130     1.2580     0.4830 H     1 <1>   0.0800 
 35 H      -10.9080     1.5940    -1.2060 H     1 <1>   0.0800 
 36 H      -10.7250     2.9180    -0.0810 H     1 <1>   0.0800 
@<TRIPOS>BOND
  1   1   2  2   
  2   2   3  1   
  3   2   4  1   
  4   3   5  ar  
  5   3   6  ar  
  6   4   7  1   
  7   4  17  1   
  8   4  18  1   
  9   5   8  ar  
 10   5  19  1   
 11   6   9  ar  
 12   6  20  1   
 13   7  10  1   
 14   7  21  1   
 15   7  22  1   
 16   8  11  ar  
 17   8  23  1   
 18   9  11  ar  
 19   9  24  1   
 20  10  12  1   
 21  10  13  1   
 22  10  25  1   
 23  11  14  1   
 24  12  26  1   
 25  12  27  1   
 26  12  28  1   
 27  13  29  1   
 28  13  30  1   
 29  13  31  1   
 30  14  15  1   
 31  15  16  1   
 32  15  32  1   
 33  15  33  1   
 34  16  34  1   
 35  16  35  1   
 36  16  36  1   
@<TRIPOS>SUBSTRUCTURE
  1 ****   3 GROUP 4 **** **** 0

# MOE 2024.06 (io_trps.svl 2023.06)
