@<TRIPOS>MOLECULE
NONAME
42 43 1 0 0 
SMALL
USER_CHARGES


@<TRIPOS>ATOM
  1 O       -1.0030     4.0610    -2.7360 O.2   1 <1>  -0.5700 
  2 C       -0.8360     4.0230    -1.5380 C.2   1 <1>   0.5690 
  3 N        0.0670     3.1550    -0.9670 N.am  1 <1>  -0.6600 
  4 C       -1.6820     4.9810    -0.6930 C.3   1 <1>   0.2010 
  5 C        0.8370     2.2060    -1.8090 C.3   1 <1>   0.1400 
  6 C        0.3750     3.0670     0.4880 C.3   1 <1>   0.1400 
  7 N       -2.7950     4.3000     0.0380 N.am  1 <1>  -0.7300 
  8 C        0.0420     0.9210    -2.0680 C.3   1 <1>  -0.1600 
  9 C       -0.3070     1.8630     1.1490 C.3   1 <1>  -0.1600 
 10 C       -2.9680     4.2860     1.3830 C.2   1 <1>   0.5690 
 11 C       -0.7640     0.3680    -0.8780 C.3   1 <1>  -0.1600 
 12 C       -0.0610     0.4950     0.4840 C.3   1 <1>  -0.1600 
 13 O       -2.2210     4.8760     2.1240 O.2   1 <1>  -0.5700 
 14 C       -4.1240     3.4970     1.9790 C.3   1 <1>   0.0440 
 15 C       -4.7040     2.4680     1.0120 C.ar  1 <1>  -0.1440 
 16 C       -5.7240     2.8230     0.1420 C.ar  1 <1>  -0.1500 
 17 C       -4.2040     1.1750     0.9820 C.ar  1 <1>  -0.1500 
 18 C       -6.2330     1.8980    -0.7520 C.ar  1 <1>  -0.1500 
 19 C       -4.7120     0.2490     0.0870 C.ar  1 <1>  -0.1500 
 20 C       -5.7260     0.6110    -0.7810 C.ar  1 <1>  -0.1500 
 21 H       -2.1090     5.7170    -1.3500 H     1 <1>   0.0800 
 22 H       -1.0470     5.5030    -0.0010 H     1 <1>   0.0800 
 23 H        1.7640     1.9620    -1.3200 H     1 <1>   0.0800 
 24 H        1.0830     2.6700    -2.7500 H     1 <1>   0.0800 
 25 H        0.0670     3.9640     0.9950 H     1 <1>   0.0800 
 26 H        1.4410     2.9860     0.6150 H     1 <1>   0.0800 
 27 H       -3.3840     3.6860    -0.5360 H     1 <1>   0.3700 
 28 H        0.7350     0.1700    -2.4020 H     1 <1>   0.0800 
 29 H       -0.6370     1.1030    -2.8840 H     1 <1>   0.0800 
 30 H       -1.3620     2.0500     1.1920 H     1 <1>   0.0800 
 31 H        0.0390     1.8140     2.1660 H     1 <1>   0.0800 
 32 H       -0.9720    -0.6700    -1.0710 H     1 <1>   0.0800 
 33 H       -1.7140     0.8730    -0.8350 H     1 <1>   0.0800 
 34 H       -0.4670    -0.2590     1.1350 H     1 <1>   0.0800 
 35 H        0.9930     0.3010     0.3880 H     1 <1>   0.0800 
 36 H       -4.8870     4.1920     2.2750 H     1 <1>   0.0800 
 37 H       -3.7750     3.0030     2.8670 H     1 <1>   0.0800 
 38 H       -6.1260     3.8210     0.1530 H     1 <1>   0.1500 
 39 H       -3.4150     0.8790     1.6520 H     1 <1>   0.1500 
 40 H       -7.0230     2.1780    -1.4270 H     1 <1>   0.1500 
 41 H       -4.3170    -0.7520     0.0670 H     1 <1>   0.1500 
 42 H       -6.1210    -0.1090    -1.4780 H     1 <1>   0.1500 
@<TRIPOS>BOND
  1   1   2  2   
  2   2   3  am  
  3   2   4  1   
  4   3   5  1   
  5   3   6  1   
  6   4   7  1   
  7   4  21  1   
  8   4  22  1   
  9   5   8  1   
 10   5  23  1   
 11   5  24  1   
 12   6   9  1   
 13   6  25  1   
 14   6  26  1   
 15   7  10  am  
 16   7  27  1   
 17   8  11  1   
 18   8  28  1   
 19   8  29  1   
 20   9  12  1   
 21   9  30  1   
 22   9  31  1   
 23  10  13  2   
 24  10  14  1   
 25  11  12  1   
 26  11  32  1   
 27  11  33  1   
 28  12  34  1   
 29  12  35  1   
 30  14  15  1   
 31  14  36  1   
 32  14  37  1   
 33  15  16  ar  
 34  15  17  ar  
 35  16  18  ar  
 36  16  38  1   
 37  17  19  ar  
 38  17  39  1   
 39  18  20  ar  
 40  18  40  1   
 41  19  20  ar  
 42  19  41  1   
 43  20  42  1   
@<TRIPOS>SUBSTRUCTURE
  1 ****   7 GROUP 4 **** **** 0

# MOE 2024.06 (io_trps.svl 2023.06)
