@<TRIPOS>MOLECULE
NONAME
41 42 1 0 0 
SMALL
USER_CHARGES


@<TRIPOS>ATOM
  1 BR       1.6520     1.6060     2.2160 Br    1 <1>  -0.1110 
  2 C        0.8710     2.7330     0.8560 C.ar  1 <1>   0.1110 
  3 C        1.6590     3.1650    -0.2000 C.ar  1 <1>   0.0820 
  4 C       -0.4600     3.0760     0.9820 C.ar  1 <1>  -0.1500 
  5 O        2.9590     2.7740    -0.2350 O.3   1 <1>  -0.3630 
  6 C        1.0660     3.9750    -1.1610 C.ar  1 <1>  -0.1500 
  7 C       -1.0600     3.8870     0.0210 C.ar  1 <1>  -0.1440 
  8 C        3.8320     3.1740    -1.2840 C.3   1 <1>   0.1810 
  9 C       -0.2710     4.3240    -1.0420 C.ar  1 <1>  -0.1500 
 10 C       -2.5430     4.3130     0.0920 C.3   1 <1>   0.1440 
 11 C        5.2230     2.5930    -1.0710 C.2   1 <1>   0.5690 
 12 C       -2.6340     5.8450     0.1590 C.3   1 <1>  -0.2400 
 13 C       -3.2820     3.8100    -1.1560 C.3   1 <1>  -0.2400 
 14 C       -3.2740     3.7500     1.3230 C.3   1 <1>  -0.2400 
 15 O        6.0770     2.8470    -1.8850 O.2   1 <1>  -0.5700 
 16 N        5.4290     1.8110     0.0370 N.am  1 <1>  -0.5470 
 17 C        6.5520     1.1370     0.5260 C.ar  1 <1>   0.1170 
 18 C        6.4580     0.4090     1.6990 C.ar  1 <1>  -0.1500 
 19 C        7.7980     1.1320    -0.0800 C.ar  1 <1>  -0.1500 
 20 C        7.5630    -0.2600     2.1890 C.ar  1 <1>   0.1600 
 21 C        8.8400     0.4300     0.4920 C.ar  1 <1>   0.1600 
 22 N        8.7550    -0.2680     1.6150 N.ar  1 <1>  -0.6200 
 23 H       -0.9950     2.6970     1.8310 H     1 <1>   0.1500 
 24 H        1.6180     4.3450    -2.0040 H     1 <1>   0.1500 
 25 H        3.8900     4.2460    -1.2910 H     1 <1>   0.0800 
 26 H        3.4340     2.8160    -2.2150 H     1 <1>   0.0800 
 27 H       -0.6980     4.9520    -1.8040 H     1 <1>   0.1500 
 28 H       -2.0910     6.2090     1.0130 H     1 <1>   0.0800 
 29 H       -2.2220     6.2990    -0.7230 H     1 <1>   0.0800 
 30 H       -3.6590     6.1600     0.2470 H     1 <1>   0.0800 
 31 H       -3.1940     2.7410    -1.2300 H     1 <1>   0.0800 
 32 H       -2.8760     4.2440    -2.0510 H     1 <1>   0.0800 
 33 H       -4.3250     4.0650    -1.1080 H     1 <1>   0.0800 
 34 H       -3.2630     2.6750     1.3110 H     1 <1>   0.0800 
 35 H       -4.3010     4.0710     1.3320 H     1 <1>   0.0800 
 36 H       -2.8110     4.0960     2.2300 H     1 <1>   0.0800 
 37 H        4.5800     1.7170     0.6020 H     1 <1>   0.3700 
 38 H        5.5280     0.3610     2.2320 H     1 <1>   0.1500 
 39 H        7.9680     1.6680    -0.9940 H     1 <1>   0.1500 
 40 H        7.4650    -0.8200     3.1030 H     1 <1>   0.1500 
 41 H        9.7990     0.4420     0.0010 H     1 <1>   0.1500 
@<TRIPOS>BOND
  1   1   2  1   
  2   2   3  ar  
  3   2   4  ar  
  4   3   5  1   
  5   3   6  ar  
  6   4   7  ar  
  7   4  23  1   
  8   5   8  1   
  9   6   9  ar  
 10   6  24  1   
 11   7   9  ar  
 12   7  10  1   
 13   8  11  1   
 14   8  25  1   
 15   8  26  1   
 16   9  27  1   
 17  10  12  1   
 18  10  13  1   
 19  10  14  1   
 20  11  15  2   
 21  11  16  am  
 22  12  28  1   
 23  12  29  1   
 24  12  30  1   
 25  13  31  1   
 26  13  32  1   
 27  13  33  1   
 28  14  34  1   
 29  14  35  1   
 30  14  36  1   
 31  16  17  1   
 32  16  37  1   
 33  17  18  ar  
 34  17  19  ar  
 35  18  20  ar  
 36  18  38  1   
 37  19  21  ar  
 38  19  39  1   
 39  20  22  ar  
 40  20  40  1   
 41  21  22  ar  
 42  21  41  1   
@<TRIPOS>SUBSTRUCTURE
  1 ****   5 GROUP 4 **** **** 0

# MOE 2024.06 (io_trps.svl 2023.06)
