@<TRIPOS>MOLECULE
NONAME
32 33 1 0 0 
SMALL
USER_CHARGES


@<TRIPOS>ATOM
  1 O      -10.3730     2.3250    -1.2680 O.3   1 <1>  -0.0190 
  2 N       -9.1580     2.7670    -1.1650 N.2   1 <1>  -0.4100 
  3 C      -10.3310     1.1430    -0.7110 C.2   1 <1>   0.2980 
  4 C       -8.4590     1.8670    -0.5680 C.2   1 <1>   0.4620 
  5 N       -9.1940     0.7910    -0.2670 N.2   1 <1>  -0.5650 
  6 C      -11.6120     0.3160    -0.6710 C.3   1 <1>   0.2900 
  7 C       -7.0450     1.9660    -0.2470 C.ar  1 <1>   0.0540 
  8 N      -12.7130     1.0120     0.0190 N.3   1 <1>  -0.9000 
  9 C       -6.3740     0.9530     0.4420 C.ar  1 <1>  -0.1500 
 10 C       -6.2940     3.0860    -0.6160 C.ar  1 <1>  -0.1500 
 11 C      -13.9630     0.2740    -0.0460 C.3   1 <1>   0.1100 
 12 C       -5.0290     1.0520     0.7450 C.ar  1 <1>  -0.1500 
 13 C       -4.9480     3.1930    -0.3180 C.ar  1 <1>  -0.1500 
 14 C      -15.0260     1.0930     0.6710 C.3   1 <1>  -0.2400 
 15 C       -4.3030     2.1700     0.3690 C.ar  1 <1>   0.0830 
 16 O       -2.9900     2.1910     0.7020 O.3   1 <1>  -0.3630 
 17 C       -2.1640     3.2830     0.3660 C.3   1 <1>   0.0400 
 18 H      -11.4070    -0.6110    -0.1640 H     1 <1>   0.0800 
 19 H      -11.9020     0.0930    -1.6820 H     1 <1>   0.0800 
 20 H      -12.8450     1.9340    -0.4150 H     1 <1>   0.3600 
 21 H       -6.9140     0.0740     0.7470 H     1 <1>   0.1500 
 22 H       -6.7770     3.8880    -1.1480 H     1 <1>   0.1500 
 23 H      -13.8490    -0.6810     0.4410 H     1 <1>   0.0800 
 24 H      -14.2520     0.1150    -1.0720 H     1 <1>   0.0800 
 25 H       -4.5300     0.2620     1.2760 H     1 <1>   0.1500 
 26 H       -4.4200     4.0750    -0.6250 H     1 <1>   0.1500 
 27 H      -14.7380     1.2550     1.6950 H     1 <1>   0.0800 
 28 H      -15.9610     0.5620     0.6610 H     1 <1>   0.0800 
 29 H      -15.1660     2.0410     0.1840 H     1 <1>   0.0800 
 30 H       -1.1740     3.0760     0.7290 H     1 <1>   0.0800 
 31 H       -2.5490     4.1700     0.8360 H     1 <1>   0.0800 
 32 H       -2.1460     3.3890    -0.7050 H     1 <1>   0.0800 
@<TRIPOS>BOND
  1   1   2  1   
  2   1   3  1   
  3   2   4  2   
  4   3   5  2   
  5   3   6  1   
  6   4   5  1   
  7   4   7  1   
  8   6   8  1   
  9   6  18  1   
 10   6  19  1   
 11   7   9  ar  
 12   7  10  ar  
 13   8  11  1   
 14   8  20  1   
 15   9  12  ar  
 16   9  21  1   
 17  10  13  ar  
 18  10  22  1   
 19  11  14  1   
 20  11  23  1   
 21  11  24  1   
 22  12  15  ar  
 23  12  25  1   
 24  13  15  ar  
 25  13  26  1   
 26  14  27  1   
 27  14  28  1   
 28  14  29  1   
 29  15  16  1   
 30  16  17  1   
 31  17  30  1   
 32  17  31  1   
 33  17  32  1   
@<TRIPOS>SUBSTRUCTURE
  1 ****   4 GROUP 4 **** **** 0

# MOE 2024.06 (io_trps.svl 2023.06)
