@<TRIPOS>MOLECULE
NONAME
32 32 1 0 0 
SMALL
USER_CHARGES


@<TRIPOS>ATOM
  1 CL       4.4600    -2.3020     2.0650 Cl    1 <1>  -0.1770 
  2 C        3.7330    -1.1790     0.9440 C.ar  1 <1>   0.1770 
  3 C        4.0220     0.1660     1.0480 C.ar  1 <1>  -0.1500 
  4 C        2.8770    -1.6600    -0.0300 C.ar  1 <1>  -0.1500 
  5 C        3.4450     1.0650     0.1630 C.ar  1 <1>   0.1990 
  6 C        2.3010    -0.7700    -0.9200 C.ar  1 <1>  -0.1500 
  7 N        3.7180     2.4240     0.2540 N.am  1 <1>  -0.6930 
  8 C        2.5860     0.5820    -0.8220 C.ar  1 <1>  -0.1500 
  9 S        5.2850     3.0530    -0.1420 S.o2  1 <1>   1.3330 
 10 C        2.5890     3.3820     0.4720 C.3   1 <1>   0.3370 
 11 O        6.2500     2.2840     0.6040 O.2   1 <1>  -0.6500 
 12 O        5.2390     4.4880    -0.0090 O.2   1 <1>  -0.6500 
 13 C        5.4500     2.6490    -1.8690 C.3   1 <1>  -0.1350 
 14 C        2.3930     4.4070    -0.6700 C.2   1 <1>   0.6590 
 15 C        2.7300     3.9890     1.8780 C.3   1 <1>  -0.2400 
 16 O        2.4740     4.0760    -1.8290 O.2   1 <1>  -0.5700 
 17 O        2.0980     5.6590    -0.3270 O.3   1 <1>  -0.4300 
 18 C        1.9460     6.6810    -1.2890 C.3   1 <1>   0.0400 
 19 H        4.6940     0.5150     1.8120 H     1 <1>   0.1500 
 20 H        2.6700    -2.7140    -0.0870 H     1 <1>   0.1500 
 21 H        1.6340    -1.1290    -1.6870 H     1 <1>   0.1500 
 22 H        2.1430     1.2710    -1.5200 H     1 <1>   0.1500 
 23 H        1.6800     2.8080     0.4890 H     1 <1>   0.0800 
 24 H        5.3670     1.5900    -2.0120 H     1 <1>   0.0800 
 25 H        6.4090     2.9690    -2.2260 H     1 <1>   0.0800 
 26 H        4.6920     3.1380    -2.4470 H     1 <1>   0.0800 
 27 H        3.5770     4.6490     1.9300 H     1 <1>   0.0800 
 28 H        2.8450     3.2080     2.6090 H     1 <1>   0.0800 
 29 H        1.8510     4.5550     2.1220 H     1 <1>   0.0800 
 30 H        2.8690     6.7840    -1.8330 H     1 <1>   0.0800 
 31 H        1.7140     7.5990    -0.7790 H     1 <1>   0.0800 
 32 H        1.1470     6.4150    -1.9590 H     1 <1>   0.0800 
@<TRIPOS>BOND
  1   1   2  1   
  2   2   3  ar  
  3   2   4  ar  
  4   3   5  ar  
  5   3  19  1   
  6   4   6  ar  
  7   4  20  1   
  8   5   7  1   
  9   5   8  ar  
 10   6   8  ar  
 11   6  21  1   
 12   7   9  am  
 13   7  10  1   
 14   8  22  1   
 15   9  11  2   
 16   9  12  2   
 17   9  13  1   
 18  10  14  1   
 19  10  15  1   
 20  10  23  1   
 21  13  24  1   
 22  13  25  1   
 23  13  26  1   
 24  14  16  2   
 25  14  17  1   
 26  15  27  1   
 27  15  28  1   
 28  15  29  1   
 29  17  18  1   
 30  18  30  1   
 31  18  31  1   
 32  18  32  1   
@<TRIPOS>SUBSTRUCTURE
  1 ****   7 GROUP 4 **** **** 0

# MOE 2024.06 (io_trps.svl 2023.06)
