@<TRIPOS>MOLECULE
NONAME
36 37 1 0 0 
SMALL
USER_CHARGES


@<TRIPOS>ATOM
  1 CL      -1.4950    -1.1290    -2.0000 Cl    1 <1>  -0.1770 
  2 C       -0.1900    -1.8010    -1.0500 C.ar  1 <1>   0.1770 
  3 C       -0.4620    -2.6270     0.0320 C.ar  1 <1>  -0.1440 
  4 C        1.1080    -1.4840    -1.4190 C.ar  1 <1>  -0.1500 
  5 C        0.6320    -3.1210     0.7280 C.ar  1 <1>   0.1900 
  6 C       -1.9020    -2.9550     0.4360 C.3   1 <1>   0.0450 
  7 C        2.1780    -1.9950    -0.7010 C.ar  1 <1>  -0.1500 
  8 F        0.4430    -3.9090     1.7530 F     1 <1>  -0.1900 
  9 C        1.9390    -2.8220     0.3830 C.ar  1 <1>  -0.1500 
 10 C       -2.6040    -1.8090     1.1600 C.2   1 <1>   0.5690 
 11 O       -1.9210    -0.9580     1.6830 O.2   1 <1>  -0.5700 
 12 N       -3.9780    -1.7540     1.2200 N.am  1 <1>  -0.6600 
 13 C       -4.6700    -0.5240     1.6930 C.3   1 <1>   0.1400 
 14 C       -4.9070    -2.8350     0.7890 C.3   1 <1>   0.1400 
 15 C       -5.5580     0.0210     0.5700 C.3   1 <1>  -0.1600 
 16 C       -5.7840    -2.3190    -0.3540 C.3   1 <1>  -0.1600 
 17 C       -6.5460    -1.0420     0.0550 C.3   1 <1>  -0.0190 
 18 C       -7.4030    -0.4880    -1.0830 C.2   1 <1>   0.5690 
 19 O       -7.0350    -0.5590    -2.2270 O.2   1 <1>  -0.5700 
 20 N       -8.5850     0.0910    -0.8000 N.am  1 <1>  -0.8000 
 21 H        1.2740    -0.8380    -2.2620 H     1 <1>   0.1500 
 22 H       -1.9280    -3.8160     1.0750 H     1 <1>   0.0800 
 23 H       -2.4500    -3.1960    -0.4540 H     1 <1>   0.0800 
 24 H        3.1880    -1.7490    -0.9840 H     1 <1>   0.1500 
 25 H        2.7500    -3.2310     0.9580 H     1 <1>   0.1500 
 26 H       -3.9570     0.2310     1.9820 H     1 <1>   0.0800 
 27 H       -5.2650    -0.7650     2.5570 H     1 <1>   0.0800 
 28 H       -5.5260    -3.1130     1.6250 H     1 <1>   0.0800 
 29 H       -4.3740    -3.7140     0.4740 H     1 <1>   0.0800 
 30 H       -4.9270     0.3500    -0.2390 H     1 <1>   0.0800 
 31 H       -6.0970     0.8780     0.9300 H     1 <1>   0.0800 
 32 H       -6.4860    -3.0820    -0.6400 H     1 <1>   0.0800 
 33 H       -5.1590    -2.1150    -1.2070 H     1 <1>   0.0800 
 34 H       -7.2080    -1.3010     0.8620 H     1 <1>   0.0800 
 35 H       -9.1440     0.4650    -1.5680 H     1 <1>   0.3700 
 36 H       -8.9620     0.2070     0.1380 H     1 <1>   0.3700 
@<TRIPOS>BOND
  1   1   2  1   
  2   2   3  ar  
  3   2   4  ar  
  4   3   5  ar  
  5   3   6  1   
  6   4   7  ar  
  7   4  21  1   
  8   5   8  1   
  9   5   9  ar  
 10   6  10  1   
 11   6  22  1   
 12   6  23  1   
 13   7   9  ar  
 14   7  24  1   
 15   9  25  1   
 16  10  11  2   
 17  10  12  am  
 18  12  13  1   
 19  12  14  1   
 20  13  15  1   
 21  13  26  1   
 22  13  27  1   
 23  14  16  1   
 24  14  28  1   
 25  14  29  1   
 26  15  17  1   
 27  15  30  1   
 28  15  31  1   
 29  16  17  1   
 30  16  32  1   
 31  16  33  1   
 32  17  18  1   
 33  17  34  1   
 34  18  19  2   
 35  18  20  am  
 36  20  35  1   
 37  20  36  1   
@<TRIPOS>SUBSTRUCTURE
  1 ****  10 GROUP 4 **** **** 0

# MOE 2024.06 (io_trps.svl 2023.06)
