@<TRIPOS>MOLECULE
NONAME
45 46 1 0 0 
SMALL
USER_CHARGES


@<TRIPOS>ATOM
  1 S        0.4490     0.8800    -0.0210 S.3   1 <1>  -0.2860 
  2 C       -1.3140     1.0870    -0.3000 C.2   1 <1>   0.2420 
  3 C        1.1440     1.0080    -1.7440 C.3   1 <1>   0.1310 
  4 N       -1.8340     1.2230    -1.4660 N.2   1 <1>  -0.3380 
  5 N       -2.2040     1.1150     0.6910 N.pl3 1 <1>   0.0480 
  6 C        2.6480     0.7840    -1.7640 C.2   1 <1>   0.5690 
  7 N       -3.1480     1.3520    -1.2600 N.2   1 <1>  -0.3380 
  8 C       -3.3530     1.2890     0.0170 C.2   1 <1>   0.0060 
  9 C       -1.9570     0.9980     2.1420 C.3   1 <1>   0.0160 
 10 O        3.2700     1.2330    -2.6950 O.2   1 <1>  -0.5700 
 11 N        3.2220     0.0870    -0.7340 N.am  1 <1>  -0.5470 
 12 C       -4.7140     1.3950     0.6970 C.3   1 <1>   0.0200 
 13 C        4.5510    -0.3030    -0.4980 C.ar  1 <1>   0.1170 
 14 C       -5.8610     1.6910    -0.2820 C.3   1 <1>  -0.1600 
 15 C        4.9290    -0.6240     0.8010 C.ar  1 <1>  -0.1500 
 16 C        5.5050    -0.3990    -1.5060 C.ar  1 <1>  -0.1500 
 17 C       -7.2100     1.8010     0.4420 C.3   1 <1>  -0.1600 
 18 C        6.2200    -1.0270     1.0930 C.ar  1 <1>  -0.1500 
 19 C        6.7980    -0.8000    -1.2200 C.ar  1 <1>  -0.1500 
 20 C       -8.3400     2.0950    -0.5480 C.3   1 <1>  -0.2400 
 21 C        7.1670    -1.1170     0.0770 C.ar  1 <1>   0.0830 
 22 O        8.4560    -1.5020     0.2710 O.3   1 <1>  -0.3620 
 23 C        8.9320    -1.8230     1.5590 C.3   1 <1>   0.0400 
 24 H        0.9060     1.9900    -2.1100 H     1 <1>   0.0800 
 25 H        0.6490     0.2680    -2.3460 H     1 <1>   0.0800 
 26 H       -1.2320     0.2240     2.3200 H     1 <1>   0.0800 
 27 H       -2.8690     0.7500     2.6530 H     1 <1>   0.0800 
 28 H       -1.5790     1.9340     2.5120 H     1 <1>   0.0800 
 29 H        2.5720    -0.1390     0.0200 H     1 <1>   0.3700 
 30 H       -4.6720     2.1810     1.4300 H     1 <1>   0.0800 
 31 H       -4.9180     0.4700     1.2050 H     1 <1>   0.0800 
 32 H       -5.9090     0.9040    -1.0160 H     1 <1>   0.0800 
 33 H       -5.6540     2.6120    -0.7990 H     1 <1>   0.0800 
 34 H        4.2080    -0.5560     1.5950 H     1 <1>   0.1500 
 35 H        5.2450    -0.1650    -2.5210 H     1 <1>   0.1500 
 36 H       -7.1670     2.5900     1.1730 H     1 <1>   0.0800 
 37 H       -7.4230     0.8780     0.9560 H     1 <1>   0.0800 
 38 H        6.4710    -1.2640     2.1090 H     1 <1>   0.1500 
 39 H        7.5300    -0.8710    -2.0040 H     1 <1>   0.1500 
 40 H       -8.1590     3.0240    -1.0600 H     1 <1>   0.0800 
 41 H       -9.2780     2.1680    -0.0260 H     1 <1>   0.0800 
 42 H       -8.4150     1.3070    -1.2770 H     1 <1>   0.0800 
 43 H        9.9700    -2.0880     1.4740 H     1 <1>   0.0800 
 44 H        8.3720    -2.6580     1.9400 H     1 <1>   0.0800 
 45 H        8.8250    -0.9620     2.1950 H     1 <1>   0.0800 
@<TRIPOS>BOND
  1   1   2  1   
  2   1   3  1   
  3   2   4  2   
  4   2   5  1   
  5   3   6  1   
  6   3  24  1   
  7   3  25  1   
  8   4   7  1   
  9   5   8  1   
 10   5   9  1   
 11   6  10  2   
 12   6  11  am  
 13   7   8  2   
 14   8  12  1   
 15   9  26  1   
 16   9  27  1   
 17   9  28  1   
 18  11  13  1   
 19  11  29  1   
 20  12  14  1   
 21  12  30  1   
 22  12  31  1   
 23  13  15  ar  
 24  13  16  ar  
 25  14  17  1   
 26  14  32  1   
 27  14  33  1   
 28  15  18  ar  
 29  15  34  1   
 30  16  19  ar  
 31  16  35  1   
 32  17  20  1   
 33  17  36  1   
 34  17  37  1   
 35  18  21  ar  
 36  18  38  1   
 37  19  21  ar  
 38  19  39  1   
 39  20  40  1   
 40  20  41  1   
 41  20  42  1   
 42  21  22  1   
 43  22  23  1   
 44  23  43  1   
 45  23  44  1   
 46  23  45  1   
@<TRIPOS>SUBSTRUCTURE
  1 ****   1 GROUP 4 **** **** 0

# MOE 2024.06 (io_trps.svl 2023.06)
