@<TRIPOS>MOLECULE
NONAME
36 38 1 0 0 
SMALL
USER_CHARGES


@<TRIPOS>ATOM
  1 BR      -0.7710    -0.4350     1.7490 Br    1 <1>  -0.1110 
  2 C       -0.6380    -2.1970     0.9790 C.ar  1 <1>   0.1110 
  3 C        0.4350    -2.4860     0.1580 C.ar  1 <1>  -0.1500 
  4 C       -1.6210    -3.1240     1.2640 C.ar  1 <1>  -0.1500 
  5 C        0.5380    -3.7500    -0.4020 C.ar  1 <1>  -0.1440 
  6 C       -1.5110    -4.3840     0.7060 C.ar  1 <1>  -0.1500 
  7 C       -0.4380    -4.7130    -0.1170 C.ar  1 <1>   0.1170 
  8 C        1.7150    -4.0490    -1.3210 C.3   1 <1>  -0.0960 
  9 N       -0.4200    -6.0130    -0.6330 N.am  1 <1>  -0.5470 
 10 C        0.4460    -7.0290    -0.3510 C.2   1 <1>   0.5690 
 11 O        1.5410    -6.8050     0.1170 O.2   1 <1>  -0.5700 
 12 C        0.1020    -8.4790    -0.7390 C.3   1 <1>  -0.0190 
 13 C       -1.3460    -9.0290    -0.5740 C.3   1 <1>  -0.1860 
 14 C        0.8550    -9.4740     0.1630 C.3   1 <1>   0.2000 
 15 C       -2.4630    -8.0610    -0.2630 C.2   1 <1>   0.9060 
 16 C       -1.1490   -10.1060     0.5010 C.3   1 <1>   0.2000 
 17 O       -0.0460    -9.6430     1.1890 O.3   1 <1>  -0.5600 
 18 C        0.8740   -10.8890    -0.4350 C.3   1 <1>  -0.1600 
 19 O       -2.7640    -7.2650    -1.1600 O.co2 1 <1>  -0.9000 
 20 O       -3.0550    -8.0680     0.8160 O.co2 1 <1>  -0.9000 
 21 C       -0.5530   -11.3640    -0.1340 C.3   1 <1>  -0.1600 
 22 H        1.1730    -1.7300    -0.0360 H     1 <1>   0.1500 
 23 H       -2.4480    -2.8730     1.9020 H     1 <1>   0.1500 
 24 H       -2.2600    -5.1360     0.9070 H     1 <1>   0.1500 
 25 H        2.1030    -3.1460    -1.7520 H     1 <1>   0.0800 
 26 H        1.4110    -4.7010    -2.1190 H     1 <1>   0.0800 
 27 H        2.4960    -4.5310    -0.7610 H     1 <1>   0.0800 
 28 H       -1.3520    -6.3320    -0.9600 H     1 <1>   0.3700 
 29 H        0.4230    -8.6020    -1.7560 H     1 <1>   0.0800 
 30 H       -1.6500    -9.5020    -1.4870 H     1 <1>   0.0800 
 31 H        1.8090    -9.1450     0.5370 H     1 <1>   0.0800 
 32 H       -1.9860   -10.2730     1.1600 H     1 <1>   0.0800 
 33 H        1.5970   -11.4950     0.0810 H     1 <1>   0.0800 
 34 H        1.0970   -10.8750    -1.4860 H     1 <1>   0.0800 
 35 H       -1.0910   -11.6730    -1.0120 H     1 <1>   0.0800 
 36 H       -0.5500   -12.1620     0.5860 H     1 <1>   0.0800 
@<TRIPOS>BOND
  1   1   2  1   
  2   2   3  ar  
  3   2   4  ar  
  4   3   5  ar  
  5   3  22  1   
  6   4   6  ar  
  7   4  23  1   
  8   5   7  ar  
  9   5   8  1   
 10   6   7  ar  
 11   6  24  1   
 12   7   9  1   
 13   8  25  1   
 14   8  26  1   
 15   8  27  1   
 16   9  10  am  
 17   9  28  1   
 18  10  11  2   
 19  10  12  1   
 20  12  13  1   
 21  12  14  1   
 22  12  29  1   
 23  13  15  1   
 24  13  16  1   
 25  13  30  1   
 26  14  17  1   
 27  14  18  1   
 28  14  31  1   
 29  15  19  ar  
 30  15  20  ar  
 31  16  17  1   
 32  16  21  1   
 33  16  32  1   
 34  18  21  1   
 35  18  33  1   
 36  18  34  1   
 37  21  35  1   
 38  21  36  1   
@<TRIPOS>SUBSTRUCTURE
  1 ****   9 GROUP 4 **** **** 0

# MOE 2024.06 (io_trps.svl 2023.06)
