@<TRIPOS>MOLECULE
NONAME
37 38 1 0 0 
SMALL
USER_CHARGES


@<TRIPOS>ATOM
  1 S       -0.0470    -0.0760     0.5120 S.3   1 <1>  -0.3320 
  2 C        1.4770     0.8510     0.2570 C.ar  1 <1>   0.1020 
  3 C       -1.4260     1.0040    -0.0530 C.3   1 <1>   0.0700 
  4 C        1.4940     2.1000    -0.3430 C.ar  1 <1>  -0.1500 
  5 C        2.6490     0.2580     0.6890 C.ar  1 <1>  -0.1500 
  6 C       -2.7210     0.2340     0.2190 C.3   1 <1>   0.3430 
  7 C        2.7030     2.7570    -0.5050 C.ar  1 <1>  -0.1500 
  8 C        3.8520     0.9210     0.5240 C.ar  1 <1>  -0.1500 
  9 N       -3.9400     0.9870    -0.2140 N.4   1 <1>  -0.9590 
 10 C        3.8840     2.1730    -0.0710 C.ar  1 <1>  -0.1430 
 11 C       -4.1720     2.2300     0.6120 C.3   1 <1>   0.3430 
 12 C       -5.1520     0.0920    -0.1470 C.3   1 <1>   0.3430 
 13 C        5.2060     2.8980    -0.2520 C.3   1 <1>  -0.0970 
 14 C       -5.4740     2.9540     0.2060 C.3   1 <1>   0.1100 
 15 C       -6.4430     0.8390    -0.5460 C.3   1 <1>   0.1100 
 16 N       -6.6300     2.0480     0.2700 N.3   1 <1>  -0.9000 
 17 H       -1.2760     1.1830    -1.1030 H     1 <1>   0.0800 
 18 H       -1.3620     1.9120     0.5180 H     1 <1>   0.0800 
 19 H        0.6000     2.5740    -0.6900 H     1 <1>   0.1500 
 20 H        2.6220    -0.7130     1.1510 H     1 <1>   0.1500 
 21 H       -2.7840     0.0150     1.2730 H     1 <1>   0.0800 
 22 H       -2.6710    -0.7040    -0.3110 H     1 <1>   0.0800 
 23 H        2.7260     3.7270    -0.9710 H     1 <1>   0.1500 
 24 H        4.7630     0.4580     0.8610 H     1 <1>   0.1500 
 25 H       -3.8360     1.2750    -1.1950 H     1 <1>   0.4500 
 26 H       -3.3440     2.9090     0.5020 H     1 <1>   0.0800 
 27 H       -4.2470     1.9630     1.6540 H     1 <1>   0.0800 
 28 H       -5.2750    -0.2770     0.8580 H     1 <1>   0.0800 
 29 H       -5.0200    -0.7570    -0.7980 H     1 <1>   0.0800 
 30 H        5.0600     3.9620    -0.2210 H     1 <1>   0.0800 
 31 H        5.6380     2.6330    -1.2000 H     1 <1>   0.0800 
 32 H        5.8920     2.6280     0.5310 H     1 <1>   0.0800 
 33 H       -5.3760     3.3550    -0.7890 H     1 <1>   0.0800 
 34 H       -5.6410     3.7800     0.8780 H     1 <1>   0.0800 
 35 H       -7.2870     0.1860    -0.3990 H     1 <1>   0.0800 
 36 H       -6.4070     1.1020    -1.5900 H     1 <1>   0.0800 
 37 H       -7.4850     2.5460    -0.0280 H     1 <1>   0.3600 
@<TRIPOS>BOND
  1   1   2  1   
  2   1   3  1   
  3   2   4  ar  
  4   2   5  ar  
  5   3   6  1   
  6   3  17  1   
  7   3  18  1   
  8   4   7  ar  
  9   4  19  1   
 10   5   8  ar  
 11   5  20  1   
 12   6   9  1   
 13   6  21  1   
 14   6  22  1   
 15   7  10  ar  
 16   7  23  1   
 17   8  10  ar  
 18   8  24  1   
 19   9  11  1   
 20   9  12  1   
 21   9  25  1   
 22  10  13  1   
 23  11  14  1   
 24  11  26  1   
 25  11  27  1   
 26  12  15  1   
 27  12  28  1   
 28  12  29  1   
 29  13  30  1   
 30  13  31  1   
 31  13  32  1   
 32  14  16  1   
 33  14  33  1   
 34  14  34  1   
 35  15  16  1   
 36  15  35  1   
 37  15  36  1   
 38  16  37  1   
@<TRIPOS>SUBSTRUCTURE
  1 ****   3 GROUP 4 **** **** 0

# MOE 2024.06 (io_trps.svl 2023.06)
