@<TRIPOS>MOLECULE
NONAME
35 35 1 0 0 
SMALL
USER_CHARGES


@<TRIPOS>ATOM
  1 S        0.3990    -0.2400     0.1010 S.o   1 <1>   0.1130 
  2 O        1.2860    -0.9270    -0.8980 O.2   1 <1>  -0.5000 
  3 C        0.2220     1.4910    -0.4230 C.3   1 <1>   0.1770 
  4 C       -1.2790    -0.8780    -0.1650 C.3   1 <1>   0.0330 
  5 C        1.4210     2.3470    -0.0400 C.ar  1 <1>  -0.1440 
  6 C       -1.3700    -2.3760     0.1430 C.3   1 <1>  -0.1600 
  7 C        2.6770     2.0530    -0.5490 C.ar  1 <1>  -0.1500 
  8 C        1.2710     3.4300     0.8140 C.ar  1 <1>  -0.1500 
  9 C       -2.7920    -2.9090    -0.0750 C.3   1 <1>  -0.1600 
 10 C        3.7700     2.8320    -0.2110 C.ar  1 <1>  -0.1500 
 11 C        2.3640     4.2100     1.1520 C.ar  1 <1>  -0.1500 
 12 C       -2.8700    -4.4080     0.2350 C.3   1 <1>  -0.1600 
 13 C        3.6140     3.9120     0.6400 C.ar  1 <1>  -0.1500 
 14 C       -4.2890    -4.9450     0.0180 C.3   1 <1>  -0.1600 
 15 C       -4.3650    -6.4430     0.3280 C.3   1 <1>  -0.2400 
 16 H       -0.6560     1.9180     0.0240 H     1 <1>   0.0800 
 17 H        0.0950     1.5390    -1.4890 H     1 <1>   0.0800 
 18 H       -1.5700    -0.7200    -1.1880 H     1 <1>   0.0800 
 19 H       -1.9770    -0.3550     0.4630 H     1 <1>   0.0800 
 20 H       -1.0690    -2.5450     1.1620 H     1 <1>   0.0800 
 21 H       -0.6820    -2.9040    -0.4970 H     1 <1>   0.0800 
 22 H        2.8090     1.2110    -1.2080 H     1 <1>   0.1500 
 23 H        0.3070     3.6770     1.2220 H     1 <1>   0.1500 
 24 H       -3.0840    -2.7420    -1.0980 H     1 <1>   0.0800 
 25 H       -3.4780    -2.3770     0.5630 H     1 <1>   0.0800 
 26 H        4.7400     2.5930    -0.6100 H     1 <1>   0.1500 
 27 H        2.2430     5.0490     1.8150 H     1 <1>   0.1500 
 28 H       -2.5760    -4.5800     1.2570 H     1 <1>   0.0800 
 29 H       -2.1850    -4.9420    -0.4030 H     1 <1>   0.0800 
 30 H        4.4640     4.5170     0.9030 H     1 <1>   0.1500 
 31 H       -4.5860    -4.7810    -1.0040 H     1 <1>   0.0800 
 32 H       -4.9790    -4.4180     0.6550 H     1 <1>   0.0800 
 33 H       -3.6990    -6.9930    -0.3140 H     1 <1>   0.0800 
 34 H       -5.3660    -6.8010     0.1690 H     1 <1>   0.0800 
 35 H       -4.0920    -6.6290     1.3520 H     1 <1>   0.0800 
@<TRIPOS>BOND
  1   1   2  2   
  2   1   3  1   
  3   1   4  1   
  4   3   5  1   
  5   3  16  1   
  6   3  17  1   
  7   4   6  1   
  8   4  18  1   
  9   4  19  1   
 10   5   7  ar  
 11   5   8  ar  
 12   6   9  1   
 13   6  20  1   
 14   6  21  1   
 15   7  10  ar  
 16   7  22  1   
 17   8  11  ar  
 18   8  23  1   
 19   9  12  1   
 20   9  24  1   
 21   9  25  1   
 22  10  13  ar  
 23  10  26  1   
 24  11  13  ar  
 25  11  27  1   
 26  12  14  1   
 27  12  28  1   
 28  12  29  1   
 29  13  30  1   
 30  14  15  1   
 31  14  31  1   
 32  14  32  1   
 33  15  33  1   
 34  15  34  1   
 35  15  35  1   
@<TRIPOS>SUBSTRUCTURE
  1 ****   1 GROUP 4 **** **** 0

# MOE 2024.06 (io_trps.svl 2023.06)
