@<TRIPOS>MOLECULE
NONAME
52 55 1 0 0 
SMALL
USER_CHARGES


@<TRIPOS>ATOM
  1 O       -0.6210    -0.3550    -0.1810 O.2   1 <1>  -0.5700 
  2 C       -1.7410    -0.8040    -0.0460 C.2   1 <1>   0.5440 
  3 N       -2.7020    -0.0140     0.5410 N.am  1 <1>  -0.6600 
  4 C       -2.0510    -2.1350    -0.5190 C.ar  1 <1>   0.0860 
  5 C       -3.8580    -0.5760     1.3010 C.3   1 <1>   0.1400 
  6 C       -2.7930     1.4320     0.1690 C.3   1 <1>   0.1400 
  7 C       -2.8910    -2.3180    -1.6280 C.ar  1 <1>   0.0860 
  8 C       -1.5150    -3.2550     0.1130 C.ar  1 <1>  -0.1500 
  9 C       -5.2220    -0.2320     0.6640 C.3   1 <1>   0.0610 
 10 C       -4.1490     1.7970    -0.4880 C.3   1 <1>   0.0610 
 11 C       -3.4540    -1.1770    -2.3160 C.2   1 <1>   0.5440 
 12 C       -3.1650    -3.6130    -2.0620 C.ar  1 <1>  -0.1500 
 13 C       -1.8060    -4.5330    -0.3230 C.ar  1 <1>  -0.1500 
 14 C       -5.2320     1.2850     0.4630 C.2   1 <1>   0.4480 
 15 C       -5.3870    -0.9010    -0.7180 C.3   1 <1>   0.1400 
 16 C       -6.3250    -0.7260     1.6470 C.3   1 <1>  -0.1600 
 17 C       -4.3430     1.0950    -1.8570 C.3   1 <1>   0.1400 
 18 C       -4.1650     3.3430    -0.6700 C.3   1 <1>  -0.1600 
 19 O       -3.0660    -0.8850    -3.4290 O.2   1 <1>  -0.5700 
 20 N       -4.4140    -0.3890    -1.7250 N.am  1 <1>  -0.6600 
 21 C       -2.6350    -4.7130    -1.4150 C.ar  1 <1>  -0.1500 
 22 O       -5.9890     2.0090     1.0430 O.2   1 <1>  -0.5700 
 23 C       -7.7880    -0.5780     1.1800 C.3   1 <1>  -0.1600 
 24 C       -5.3820     3.9290    -1.4120 C.3   1 <1>  -0.1600 
 25 C       -8.3620    -1.8710     0.5830 C.3   1 <1>  -0.2400 
 26 C       -5.3450     5.4600    -1.3890 C.3   1 <1>  -0.2400 
 27 H       -3.8230    -0.1660     2.2960 H     1 <1>   0.0800 
 28 H       -3.7570    -1.6430     1.3920 H     1 <1>   0.0800 
 29 H       -1.9920     1.6820    -0.5060 H     1 <1>   0.0800 
 30 H       -2.6560     2.0150     1.0640 H     1 <1>   0.0800 
 31 H       -0.8570    -3.1110     0.9540 H     1 <1>   0.1500 
 32 H       -3.7970    -3.7500    -2.9230 H     1 <1>   0.1500 
 33 H       -1.3830    -5.3870     0.1790 H     1 <1>   0.1500 
 34 H       -6.3700    -0.6900    -1.1010 H     1 <1>   0.0800 
 35 H       -5.2980    -1.9690    -0.6220 H     1 <1>   0.0800 
 36 H       -6.2230    -0.1610     2.5590 H     1 <1>   0.0800 
 37 H       -6.1450    -1.7550     1.9080 H     1 <1>   0.0800 
 38 H       -5.2610     1.4190    -2.3140 H     1 <1>   0.0800 
 39 H       -3.5350     1.3660    -2.5160 H     1 <1>   0.0800 
 40 H       -3.2780     3.6400    -1.2050 H     1 <1>   0.0800 
 41 H       -4.1130     3.7980     0.3050 H     1 <1>   0.0800 
 42 H       -2.8580    -5.7080    -1.7650 H     1 <1>   0.1500 
 43 H       -7.8900     0.2330     0.4780 H     1 <1>   0.0800 
 44 H       -8.3890    -0.3210     2.0360 H     1 <1>   0.0800 
 45 H       -6.2980     3.6010    -0.9490 H     1 <1>   0.0800 
 46 H       -5.3900     3.6080    -2.4380 H     1 <1>   0.0800 
 47 H       -7.8200    -2.1880    -0.2870 H     1 <1>   0.0800 
 48 H       -9.3880    -1.7120     0.2990 H     1 <1>   0.0800 
 49 H       -8.3370    -2.6620     1.3120 H     1 <1>   0.0800 
 50 H       -5.3760     5.8220    -0.3760 H     1 <1>   0.0800 
 51 H       -6.1940     5.8560    -1.9170 H     1 <1>   0.0800 
 52 H       -4.4490     5.8240    -1.8610 H     1 <1>   0.0800 
@<TRIPOS>BOND
  1   1   2  2   
  2   2   3  am  
  3   2   4  1   
  4   3   5  1   
  5   3   6  1   
  6   4   7  ar  
  7   4   8  ar  
  8   5   9  1   
  9   5  27  1   
 10   5  28  1   
 11   6  10  1   
 12   6  29  1   
 13   6  30  1   
 14   7  11  1   
 15   7  12  ar  
 16   8  13  ar  
 17   8  31  1   
 18   9  14  1   
 19   9  15  1   
 20   9  16  1   
 21  10  14  1   
 22  10  17  1   
 23  10  18  1   
 24  11  19  2   
 25  11  20  am  
 26  12  21  ar  
 27  12  32  1   
 28  13  21  ar  
 29  13  33  1   
 30  14  22  2   
 31  15  20  1   
 32  15  34  1   
 33  15  35  1   
 34  16  23  1   
 35  16  36  1   
 36  16  37  1   
 37  17  20  1   
 38  17  38  1   
 39  17  39  1   
 40  18  24  1   
 41  18  40  1   
 42  18  41  1   
 43  21  42  1   
 44  23  25  1   
 45  23  43  1   
 46  23  44  1   
 47  24  26  1   
 48  24  45  1   
 49  24  46  1   
 50  25  47  1   
 51  25  48  1   
 52  25  49  1   
 53  26  50  1   
 54  26  51  1   
 55  26  52  1   
@<TRIPOS>SUBSTRUCTURE
  1 ****  20 GROUP 4 **** **** 0

# MOE 2024.06 (io_trps.svl 2023.06)
