@<TRIPOS>MOLECULE
NONAME
33 33 1 0 0 
SMALL
USER_CHARGES


@<TRIPOS>ATOM
  1 O        0.7700     1.4730    -2.5560 O.2   1 <1>  -0.5700 
  2 C        0.1790     1.8020    -1.5560 C.2   1 <1>   0.5690 
  3 N        0.7830     1.8050    -0.3400 N.am  1 <1>  -0.7300 
  4 C       -1.2820     2.2200    -1.6750 C.3   1 <1>   0.1810 
  5 C        2.1830     1.4550    -0.0790 C.3   1 <1>   0.2780 
  6 O       -1.8300     2.5770    -0.4120 O.3   1 <1>  -0.3630 
  7 C        2.6880     2.3930     0.9960 C.2   1 <1>  -0.2880 
  8 C       -3.1210     2.9740    -0.2960 C.ar  1 <1>   0.0820 
  9 C        3.0930     2.0280     2.2170 C.2   1 <1>  -0.3000 
 10 C       -3.5630     3.2970     0.9770 C.ar  1 <1>  -0.1500 
 11 C       -4.0040     3.0700    -1.3690 C.ar  1 <1>  -0.1500 
 12 C       -4.8670     3.7100     1.1840 C.ar  1 <1>  -0.1500 
 13 C       -5.3070     3.4850    -1.1570 C.ar  1 <1>  -0.1500 
 14 C       -5.7470     3.8070     0.1170 C.ar  1 <1>  -0.1430 
 15 C       -7.1800     4.2600     0.3440 C.3   1 <1>  -0.0170 
 16 C       -8.0830     3.0570     0.6240 C.3   1 <1>  -0.2400 
 17 H        0.2390     2.0920     0.4770 H     1 <1>   0.3700 
 18 H       -1.8510     1.4010    -2.0730 H     1 <1>   0.0800 
 19 H       -1.3530     3.0700    -2.3280 H     1 <1>   0.0800 
 20 H        2.7690     1.5600    -0.9770 H     1 <1>   0.0800 
 21 H        2.2380     0.4330     0.2550 H     1 <1>   0.0800 
 22 H        2.6890     3.4180     0.6660 H     1 <1>   0.1500 
 23 H        3.4480     2.7200     2.9610 H     1 <1>   0.1500 
 24 H        3.1040     1.0140     2.5770 H     1 <1>   0.1500 
 25 H       -2.8820     3.2220     1.8040 H     1 <1>   0.1500 
 26 H       -3.7020     2.8300    -2.3700 H     1 <1>   0.1500 
 27 H       -5.1950     3.9550     2.1790 H     1 <1>   0.1500 
 28 H       -5.9840     3.5540    -1.9910 H     1 <1>   0.1500 
 29 H       -7.5370     4.7860    -0.5240 H     1 <1>   0.0800 
 30 H       -7.2190     4.9410     1.1760 H     1 <1>   0.0800 
 31 H       -8.0660     2.3780    -0.2090 H     1 <1>   0.0800 
 32 H       -9.0950     3.3820     0.7850 H     1 <1>   0.0800 
 33 H       -7.7440     2.5340     1.5010 H     1 <1>   0.0800 
@<TRIPOS>BOND
  1   1   2  2   
  2   2   3  am  
  3   2   4  1   
  4   3   5  1   
  5   3  17  1   
  6   4   6  1   
  7   4  18  1   
  8   4  19  1   
  9   5   7  1   
 10   5  20  1   
 11   5  21  1   
 12   6   8  1   
 13   7   9  2   
 14   7  22  1   
 15   8  10  ar  
 16   8  11  ar  
 17   9  23  1   
 18   9  24  1   
 19  10  12  ar  
 20  10  25  1   
 21  11  13  ar  
 22  11  26  1   
 23  12  14  ar  
 24  12  27  1   
 25  13  14  ar  
 26  13  28  1   
 27  14  15  1   
 28  15  16  1   
 29  15  29  1   
 30  15  30  1   
 31  16  31  1   
 32  16  32  1   
 33  16  33  1   
@<TRIPOS>SUBSTRUCTURE
  1 ****   6 GROUP 4 **** **** 0

# MOE 2024.06 (io_trps.svl 2023.06)
