@<TRIPOS>MOLECULE
NONAME
31 32 1 0 0 
SMALL
USER_CHARGES


@<TRIPOS>ATOM
  1 S        0.1050     0.0230     1.1430 S.3   1 <1>  -0.2860 
  2 C       -1.6820    -0.0290     1.1030 C.2   1 <1>   0.5340 
  3 C        0.5970    -1.3040    -0.0380 C.3   1 <1>   0.2130 
  4 O       -2.2680    -0.9100     0.3640 O.3   1 <1>  -0.2800 
  5 N       -2.4800     0.7340     1.7420 N.2   1 <1>  -0.3380 
  6 C        2.1100    -1.4720     0.0490 C.ar  1 <1>  -0.1440 
  7 C       -3.5230    -0.6630     0.5770 C.2   1 <1>   0.2980 
  8 N       -3.7000     0.3130     1.3920 N.2   1 <1>  -0.3380 
  9 C        2.6970    -2.3140     0.9960 C.ar  1 <1>   0.0730 
 10 C        2.9080    -0.7610    -0.8360 C.ar  1 <1>  -0.1500 
 11 C       -4.5710    -1.5120    -0.1250 C.3   1 <1>   0.0200 
 12 C        1.9150    -3.0720     1.9350 C.1   1 <1>   0.4840 
 13 C        4.0840    -2.4220     1.0240 C.ar  1 <1>  -0.1500 
 14 C        4.2850    -0.8820    -0.7940 C.ar  1 <1>  -0.1500 
 15 C       -6.0130    -1.1030     0.2170 C.3   1 <1>  -0.1600 
 16 N        1.2720    -3.6830     2.6510 N.1   1 <1>  -0.5570 
 17 C        4.8740    -1.7150     0.1370 C.ar  1 <1>  -0.1500 
 18 C       -7.0380    -1.9820    -0.5100 C.3   1 <1>  -0.2400 
 19 H        0.2860    -0.9860    -1.0170 H     1 <1>   0.0800 
 20 H        0.0660    -2.1990     0.2360 H     1 <1>   0.0800 
 21 H        2.4630    -0.1030    -1.5630 H     1 <1>   0.1500 
 22 H       -4.4150    -2.5390     0.1560 H     1 <1>   0.0800 
 23 H       -4.4180    -1.4290    -1.1850 H     1 <1>   0.0800 
 24 H        4.5530    -3.0680     1.7480 H     1 <1>   0.1500 
 25 H        4.8970    -0.3260    -1.4840 H     1 <1>   0.1500 
 26 H       -6.1670    -0.0740    -0.0590 H     1 <1>   0.0800 
 27 H       -6.1650    -1.1850     1.2800 H     1 <1>   0.0800 
 28 H        5.9460    -1.8100     0.1720 H     1 <1>   0.1500 
 29 H       -6.9230    -1.8950    -1.5760 H     1 <1>   0.0800 
 30 H       -8.0350    -1.6720    -0.2490 H     1 <1>   0.0800 
 31 H       -6.9190    -3.0140    -0.2290 H     1 <1>   0.0800 
@<TRIPOS>BOND
  1   1   2  1   
  2   1   3  1   
  3   2   4  1   
  4   2   5  2   
  5   3   6  1   
  6   3  19  1   
  7   3  20  1   
  8   4   7  1   
  9   5   8  1   
 10   6   9  ar  
 11   6  10  ar  
 12   7   8  2   
 13   7  11  1   
 14   9  12  1   
 15   9  13  ar  
 16  10  14  ar  
 17  10  21  1   
 18  11  15  1   
 19  11  22  1   
 20  11  23  1   
 21  12  16  3   
 22  13  17  ar  
 23  13  24  1   
 24  14  17  ar  
 25  14  25  1   
 26  15  18  1   
 27  15  26  1   
 28  15  27  1   
 29  17  28  1   
 30  18  29  1   
 31  18  30  1   
 32  18  31  1   
@<TRIPOS>SUBSTRUCTURE
  1 ****   3 GROUP 4 **** **** 0

# MOE 2024.06 (io_trps.svl 2023.06)
