@<TRIPOS>MOLECULE
NONAME
43 44 1 0 0 
SMALL
USER_CHARGES


@<TRIPOS>ATOM
  1 F       -0.7910    -0.8290    -0.2370 F     1 <1>  -0.3400 
  2 C       -1.6710    -0.8790     0.7560 C.3   1 <1>   1.1640 
  3 F       -1.9040     0.3760     1.1150 F     1 <1>  -0.3400 
  4 F       -1.0470    -1.4520     1.7780 F     1 <1>  -0.3400 
  5 C       -2.9700    -1.6080     0.3660 C.ar  1 <1>  -0.1440 
  6 C       -3.7160    -2.2930     1.3190 C.ar  1 <1>  -0.1500 
  7 C       -3.4300    -1.5920    -0.9460 C.ar  1 <1>  -0.1500 
  8 C       -4.8870    -2.9430     0.9710 C.ar  1 <1>  -0.1500 
  9 C       -4.6000    -2.2410    -1.2970 C.ar  1 <1>  -0.1500 
 10 C       -5.3410    -2.9160    -0.3390 C.ar  1 <1>  -0.1430 
 11 C       -6.6340    -3.6120    -0.7210 C.3   1 <1>   0.4870 
 12 N       -7.7780    -2.7980    -0.2260 N.4   1 <1>  -0.9590 
 13 C       -9.0670    -3.5490    -0.3710 C.3   1 <1>   0.3430 
 14 C       -7.8250    -1.4600    -0.8890 C.3   1 <1>   0.3430 
 15 C      -10.2490    -2.7570     0.2020 C.3   1 <1>  -0.0190 
 16 C       -8.9630    -0.6290    -0.2950 C.3   1 <1>  -0.1600 
 17 C      -11.5240    -3.5400    -0.0520 C.2   1 <1>   0.6590 
 18 C      -10.3170    -1.3440    -0.4110 C.3   1 <1>  -0.1600 
 19 O      -11.5340    -4.4920    -0.7880 O.2   1 <1>  -0.5700 
 20 O      -12.6030    -3.1130     0.5830 O.3   1 <1>  -0.4300 
 21 C      -13.8520    -3.7480     0.4290 C.3   1 <1>   0.1200 
 22 C      -14.8690    -3.0040     1.2880 C.3   1 <1>  -0.2400 
 23 H       -3.3840    -2.3250     2.3450 H     1 <1>   0.1500 
 24 H       -2.8710    -1.0710    -1.7090 H     1 <1>   0.1500 
 25 H       -5.4310    -3.4710     1.7370 H     1 <1>   0.1500 
 26 H       -4.9190    -2.2120    -2.3260 H     1 <1>   0.1500 
 27 H       -6.6530    -4.5920    -0.2720 H     1 <1>   0.0800 
 28 H       -6.6900    -3.7270    -1.7910 H     1 <1>   0.0800 
 29 H       -7.6020    -2.6270     0.7710 H     1 <1>   0.4500 
 30 H       -9.0040    -4.5000     0.1340 H     1 <1>   0.0800 
 31 H       -9.2570    -3.7440    -1.4150 H     1 <1>   0.0800 
 32 H       -7.9850    -1.5820    -1.9490 H     1 <1>   0.0800 
 33 H       -6.8910    -0.9400    -0.7450 H     1 <1>   0.0800 
 34 H      -10.1290    -2.6790     1.2670 H     1 <1>   0.0800 
 35 H       -9.0150     0.3130    -0.8140 H     1 <1>   0.0800 
 36 H       -8.7470    -0.4110     0.7370 H     1 <1>   0.0800 
 37 H      -11.0780    -0.7660     0.0880 H     1 <1>   0.0800 
 38 H      -10.5940    -1.4170    -1.4510 H     1 <1>   0.0800 
 39 H      -13.7570    -4.7740     0.7450 H     1 <1>   0.0800 
 40 H      -14.1280    -3.7150    -0.6120 H     1 <1>   0.0800 
 41 H      -14.5800    -3.0380     2.3230 H     1 <1>   0.0800 
 42 H      -15.8340    -3.4680     1.1890 H     1 <1>   0.0800 
 43 H      -14.9490    -1.9810     0.9680 H     1 <1>   0.0800 
@<TRIPOS>BOND
  1   1   2  1   
  2   2   3  1   
  3   2   4  1   
  4   2   5  1   
  5   5   6  ar  
  6   5   7  ar  
  7   6   8  ar  
  8   6  23  1   
  9   7   9  ar  
 10   7  24  1   
 11   8  10  ar  
 12   8  25  1   
 13   9  10  ar  
 14   9  26  1   
 15  10  11  1   
 16  11  12  1   
 17  11  27  1   
 18  11  28  1   
 19  12  13  1   
 20  12  14  1   
 21  12  29  1   
 22  13  15  1   
 23  13  30  1   
 24  13  31  1   
 25  14  16  1   
 26  14  32  1   
 27  14  33  1   
 28  15  17  1   
 29  15  18  1   
 30  15  34  1   
 31  16  18  1   
 32  16  35  1   
 33  16  36  1   
 34  17  19  2   
 35  17  20  1   
 36  18  37  1   
 37  18  38  1   
 38  20  21  1   
 39  21  22  1   
 40  21  39  1   
 41  21  40  1   
 42  22  41  1   
 43  22  42  1   
 44  22  43  1   
@<TRIPOS>SUBSTRUCTURE
  1 ****  12 GROUP 4 **** **** 0

# MOE 2024.06 (io_trps.svl 2023.06)
