@<TRIPOS>MOLECULE
NONAME
41 43 1 0 0 
SMALL
USER_CHARGES


@<TRIPOS>ATOM
  1 BR      -1.0790     1.5600     2.5110 Br    1 <1>  -0.0580 
  2 C       -2.1900     0.8250     1.1280 C.2   1 <1>   0.0980 
  3 S       -3.6010    -0.0540     1.6670 S.3   1 <1>  -0.0800 
  4 C       -2.0750     0.8660    -0.2090 C.2   1 <1>  -0.1500 
  5 C       -4.0460    -0.3720    -0.0120 C.2   1 <1>  -0.1400 
  6 C       -3.1470     0.1740    -0.8610 C.2   1 <1>  -0.1500 
  7 C       -5.3120    -1.1700    -0.2400 C.3   1 <1>   0.5230 
  8 N       -6.4470    -0.4360     0.3760 N.4   1 <1>  -0.9590 
  9 C       -7.7090    -1.2650     0.3970 C.3   1 <1>   0.3430 
 10 C       -6.6740     0.9020    -0.2940 C.3   1 <1>   0.3430 
 11 C       -8.9080    -0.5080     1.0050 C.3   1 <1>   0.2090 
 12 C       -7.8620     1.6760     0.3140 C.3   1 <1>   0.2090 
 13 N       -9.0760     0.8130     0.3370 N.pl3 1 <1>  -0.8380 
 14 C      -10.3390     1.3980     0.3820 C.ar  1 <1>   0.1000 
 15 C      -11.3580     0.8840    -0.4080 C.ar  1 <1>  -0.1500 
 16 C      -10.6190     2.4840     1.2050 C.ar  1 <1>  -0.1500 
 17 C      -12.6280     1.4300    -0.3860 C.ar  1 <1>   0.0820 
 18 C      -11.8850     3.0410     1.2330 C.ar  1 <1>  -0.1500 
 19 O      -13.5530     0.8520    -1.1940 O.3   1 <1>  -0.3620 
 20 C      -12.8930     2.5180     0.4410 C.ar  1 <1>  -0.1500 
 21 C      -14.8710     1.3490    -1.2670 C.3   1 <1>   0.0400 
 22 H       -1.2840     1.3490    -0.7570 H     1 <1>   0.1500 
 23 H       -3.1760     0.1260    -1.9380 H     1 <1>   0.1500 
 24 H       -5.2050    -2.1400     0.2170 H     1 <1>   0.0800 
 25 H       -5.4810    -1.3010    -1.2970 H     1 <1>   0.0800 
 26 H       -6.1730    -0.2400     1.3480 H     1 <1>   0.4500 
 27 H       -7.5480    -2.1710     0.9580 H     1 <1>   0.0800 
 28 H       -7.9730    -1.5420    -0.6110 H     1 <1>   0.0800 
 29 H       -6.8790     0.7510    -1.3400 H     1 <1>   0.0800 
 30 H       -5.7860     1.5090    -0.2160 H     1 <1>   0.0800 
 31 H       -8.7580    -0.3600     2.0600 H     1 <1>   0.0800 
 32 H       -9.8040    -1.0920     0.8790 H     1 <1>   0.0800 
 33 H       -8.0600     2.5540    -0.2780 H     1 <1>   0.0800 
 34 H       -7.6210     1.9930     1.3140 H     1 <1>   0.0800 
 35 H      -11.1620     0.0520    -1.0550 H     1 <1>   0.1500 
 36 H       -9.8510     2.8940     1.8320 H     1 <1>   0.1500 
 37 H      -12.0900     3.8810     1.8740 H     1 <1>   0.1500 
 38 H      -13.8670     2.9670     0.4810 H     1 <1>   0.1500 
 39 H      -15.4160     0.7470    -1.9710 H     1 <1>   0.0800 
 40 H      -14.8410     2.3690    -1.6050 H     1 <1>   0.0800 
 41 H      -15.3260     1.2760    -0.2950 H     1 <1>   0.0800 
@<TRIPOS>BOND
  1   1   2  1   
  2   2   3  1   
  3   2   4  2   
  4   3   5  1   
  5   4   6  1   
  6   4  22  1   
  7   5   6  2   
  8   5   7  1   
  9   6  23  1   
 10   7   8  1   
 11   7  24  1   
 12   7  25  1   
 13   8   9  1   
 14   8  10  1   
 15   8  26  1   
 16   9  11  1   
 17   9  27  1   
 18   9  28  1   
 19  10  12  1   
 20  10  29  1   
 21  10  30  1   
 22  11  13  1   
 23  11  31  1   
 24  11  32  1   
 25  12  13  1   
 26  12  33  1   
 27  12  34  1   
 28  13  14  1   
 29  14  15  ar  
 30  14  16  ar  
 31  15  17  ar  
 32  15  35  1   
 33  16  18  ar  
 34  16  36  1   
 35  17  19  1   
 36  17  20  ar  
 37  18  20  ar  
 38  18  37  1   
 39  19  21  1   
 40  20  38  1   
 41  21  39  1   
 42  21  40  1   
 43  21  41  1   
@<TRIPOS>SUBSTRUCTURE
  1 ****  12 GROUP 4 **** **** 0

# MOE 2024.06 (io_trps.svl 2023.06)
