@<TRIPOS>MOLECULE
NONAME
49 50 1 0 0 
SMALL
USER_CHARGES


@<TRIPOS>ATOM
  1 S        0.1290     0.2440    -0.5280 S.o2  1 <1>   1.4470 
  2 O        0.3150     0.4820    -1.9410 O.2   1 <1>  -0.6500 
  3 O        0.4820    -1.0250     0.0710 O.2   1 <1>  -0.6500 
  4 N        1.0130     1.4680     0.3370 N.am  1 <1>  -0.6930 
  5 C       -1.5830     0.6370    -0.0730 C.ar  1 <1>  -0.0090 
  6 C        1.2430     2.7140    -0.2430 C.ar  1 <1>   0.1990 
  7 C        1.8280     1.0080     1.4890 C.3   1 <1>   0.1160 
  8 C       -2.4580     1.2160    -0.9850 C.ar  1 <1>  -0.1500 
  9 C       -2.0570     0.3920     1.2110 C.ar  1 <1>  -0.1500 
 10 C        2.5040     3.1300    -0.7120 C.ar  1 <1>   0.0860 
 11 C        0.1630     3.5880    -0.3520 C.ar  1 <1>  -0.1500 
 12 C       -3.7560     1.5400    -0.6300 C.ar  1 <1>  -0.1500 
 13 C       -3.3540     0.7140     1.5730 C.ar  1 <1>  -0.1500 
 14 C        3.6890     2.3170    -0.5900 C.2   1 <1>   0.5440 
 15 C        2.6130     4.3940    -1.2980 C.ar  1 <1>  -0.1500 
 16 C        0.2960     4.8340    -0.9280 C.ar  1 <1>  -0.1500 
 17 C       -4.2110     1.2910     0.6530 C.ar  1 <1>  -0.1430 
 18 O        3.7640     1.2250    -1.1150 O.2   1 <1>  -0.5700 
 19 N        4.7440     2.7980     0.1410 N.am  1 <1>  -0.7300 
 20 C        1.5280     5.2390    -1.4080 C.ar  1 <1>  -0.1500 
 21 C       -5.6340     1.6460     1.0470 C.3   1 <1>  -0.0970 
 22 C        6.0380     2.1720     0.4330 C.3   1 <1>   0.3000 
 23 C        6.8120     3.1650     1.2970 C.3   1 <1>  -0.2400 
 24 C        5.8230     0.8750     1.2140 C.3   1 <1>  -0.2400 
 25 C        6.8010     1.9240    -0.8690 C.3   1 <1>  -0.2400 
 26 H        1.1980     0.5190     2.2110 H     1 <1>   0.0800 
 27 H        2.3190     1.8420     1.9580 H     1 <1>   0.0800 
 28 H        2.5730     0.3080     1.1460 H     1 <1>   0.0800 
 29 H       -2.1190     1.4160    -1.9880 H     1 <1>   0.1500 
 30 H       -1.4020    -0.0600     1.9360 H     1 <1>   0.1500 
 31 H       -0.7970     3.2860     0.0250 H     1 <1>   0.1500 
 32 H       -4.4100     1.9880    -1.3590 H     1 <1>   0.1500 
 33 H       -3.6920     0.5130     2.5750 H     1 <1>   0.1500 
 34 H        3.5700     4.7100    -1.6770 H     1 <1>   0.1500 
 35 H       -0.5550     5.4900    -1.0060 H     1 <1>   0.1500 
 36 H        4.6430     3.7180     0.5660 H     1 <1>   0.3700 
 37 H        1.6350     6.2080    -1.8660 H     1 <1>   0.1500 
 38 H       -6.0060     0.9490     1.7770 H     1 <1>   0.0800 
 39 H       -6.2820     1.6160     0.1900 H     1 <1>   0.0800 
 40 H       -5.6590     2.6350     1.4670 H     1 <1>   0.0800 
 41 H        6.2860     3.3610     2.2140 H     1 <1>   0.0800 
 42 H        6.9650     4.0890     0.7690 H     1 <1>   0.0800 
 43 H        7.7770     2.7610     1.5460 H     1 <1>   0.0800 
 44 H        6.7700     0.4540     1.4980 H     1 <1>   0.0800 
 45 H        5.3090     0.1490     0.6090 H     1 <1>   0.0800 
 46 H        5.2500     1.0600     2.1030 H     1 <1>   0.0800 
 47 H        7.7830     1.5430    -0.6560 H     1 <1>   0.0800 
 48 H        6.9020     2.8370    -1.4270 H     1 <1>   0.0800 
 49 H        6.2910     1.1990    -1.4760 H     1 <1>   0.0800 
@<TRIPOS>BOND
  1   1   2  2   
  2   1   3  2   
  3   1   4  am  
  4   1   5  1   
  5   4   6  1   
  6   4   7  1   
  7   5   8  ar  
  8   5   9  ar  
  9   6  10  ar  
 10   6  11  ar  
 11   7  26  1   
 12   7  27  1   
 13   7  28  1   
 14   8  12  ar  
 15   8  29  1   
 16   9  13  ar  
 17   9  30  1   
 18  10  14  1   
 19  10  15  ar  
 20  11  16  ar  
 21  11  31  1   
 22  12  17  ar  
 23  12  32  1   
 24  13  17  ar  
 25  13  33  1   
 26  14  18  2   
 27  14  19  am  
 28  15  20  ar  
 29  15  34  1   
 30  16  20  ar  
 31  16  35  1   
 32  17  21  1   
 33  19  22  1   
 34  19  36  1   
 35  20  37  1   
 36  21  38  1   
 37  21  39  1   
 38  21  40  1   
 39  22  23  1   
 40  22  24  1   
 41  22  25  1   
 42  23  41  1   
 43  23  42  1   
 44  23  43  1   
 45  24  44  1   
 46  24  45  1   
 47  24  46  1   
 48  25  47  1   
 49  25  48  1   
 50  25  49  1   
@<TRIPOS>SUBSTRUCTURE
  1 ****   4 GROUP 4 **** **** 0

# MOE 2024.06 (io_trps.svl 2023.06)
