@<TRIPOS>MOLECULE
NONAME
39 40 1 0 0 
SMALL
USER_CHARGES


@<TRIPOS>ATOM
  1 CL       1.4690     0.5570    -0.2650 Cl    1 <1>  -0.1770 
  2 C        0.4840     1.9940    -0.3880 C.ar  1 <1>   0.1770 
  3 C       -0.7140     2.0550     0.2930 C.ar  1 <1>  -0.1500 
  4 C        0.9280     3.0450    -1.1670 C.ar  1 <1>  -0.1500 
  5 C       -1.5060     3.1950     0.2020 C.ar  1 <1>   0.1170 
  6 C        0.1510     4.1870    -1.2670 C.ar  1 <1>  -0.1500 
  7 N       -2.7390     3.3340     0.8650 N.am  1 <1>  -0.5470 
  8 C       -1.0620     4.2660    -0.5860 C.ar  1 <1>   0.0830 
  9 C       -3.4860     2.4950     1.6400 C.2   1 <1>   0.5690 
 10 O       -1.8720     5.3670    -0.6470 O.3   1 <1>  -0.3630 
 11 O       -3.1680     1.3670     1.9200 O.2   1 <1>  -0.5700 
 12 C       -4.8010     3.0290     2.1760 C.3   1 <1>  -0.0990 
 13 C       -1.5440     6.4800    -1.4500 C.3   1 <1>   0.0400 
 14 C       -5.8530     3.1940     1.0660 C.3   1 <1>  -0.1600 
 15 C       -7.1650     3.7550     1.6210 C.3   1 <1>   0.1400 
 16 N       -8.1190     3.9860     0.5160 N.am  1 <1>  -0.4200 
 17 C       -8.0890     5.0730    -0.2990 C.2   1 <1>   0.5690 
 18 C       -9.1400     3.1500     0.1950 C.2   1 <1>   0.5690 
 19 O       -7.2930     5.9740    -0.2430 O.2   1 <1>  -0.5700 
 20 C       -9.2040     5.0090    -1.3180 C.3   1 <1>  -0.0990 
 21 O       -9.4130     2.1190     0.7520 O.2   1 <1>  -0.5700 
 22 C       -9.9220     3.6870    -0.9820 C.3   1 <1>  -0.0990 
 23 H       -1.0150     1.2130     0.8870 H     1 <1>   0.1500 
 24 H        1.8670     2.9660    -1.6850 H     1 <1>   0.1500 
 25 H        0.5100     4.9960    -1.8750 H     1 <1>   0.1500 
 26 H       -3.1510     4.2530     0.6890 H     1 <1>   0.3700 
 27 H       -4.6170     3.9720     2.6570 H     1 <1>   0.0800 
 28 H       -5.1680     2.3440     2.9200 H     1 <1>   0.0800 
 29 H       -2.3330     7.2040    -1.3560 H     1 <1>   0.0800 
 30 H       -1.4620     6.1620    -2.4740 H     1 <1>   0.0800 
 31 H       -0.6190     6.9040    -1.1010 H     1 <1>   0.0800 
 32 H       -6.0390     2.2350     0.6120 H     1 <1>   0.0800 
 33 H       -5.4730     3.8630     0.3130 H     1 <1>   0.0800 
 34 H       -6.9850     4.6900     2.1250 H     1 <1>   0.0800 
 35 H       -7.5940     3.0640     2.3280 H     1 <1>   0.0800 
 36 H       -8.7920     4.9960    -2.3100 H     1 <1>   0.0800 
 37 H       -9.8550     5.8560    -1.1990 H     1 <1>   0.0800 
 38 H      -10.9450     3.8530    -0.6970 H     1 <1>   0.0800 
 39 H       -9.8730     2.9920    -1.8000 H     1 <1>   0.0800 
@<TRIPOS>BOND
  1   1   2  1   
  2   2   3  ar  
  3   2   4  ar  
  4   3   5  ar  
  5   3  23  1   
  6   4   6  ar  
  7   4  24  1   
  8   5   7  1   
  9   5   8  ar  
 10   6   8  ar  
 11   6  25  1   
 12   7   9  am  
 13   7  26  1   
 14   8  10  1   
 15   9  11  2   
 16   9  12  1   
 17  10  13  1   
 18  12  14  1   
 19  12  27  1   
 20  12  28  1   
 21  13  29  1   
 22  13  30  1   
 23  13  31  1   
 24  14  15  1   
 25  14  32  1   
 26  14  33  1   
 27  15  16  1   
 28  15  34  1   
 29  15  35  1   
 30  16  17  am  
 31  16  18  am  
 32  17  19  2   
 33  17  20  1   
 34  18  21  2   
 35  18  22  1   
 36  20  22  1   
 37  20  36  1   
 38  20  37  1   
 39  22  38  1   
 40  22  39  1   
@<TRIPOS>SUBSTRUCTURE
  1 ****   7 GROUP 4 **** **** 0

# MOE 2024.06 (io_trps.svl 2023.06)
