@<TRIPOS>MOLECULE
NONAME
38 39 1 0 0 
SMALL
USER_CHARGES


@<TRIPOS>ATOM
  1 O        0.0080    -0.7590     1.6950 O.2   1 <1>  -0.5700 
  2 C       -0.1420    -1.4550     0.7100 C.2   1 <1>   0.7160 
  3 N       -1.3030    -1.3770     0.0120 N.am  1 <1>  -0.7300 
  4 C        0.8980    -2.3490     0.2620 C.2   1 <1>  -0.0860 
  5 C       -2.5530    -0.7950     0.5090 C.3   1 <1>   0.3640 
  6 C        0.8330    -3.5510    -0.3810 C.2   1 <1>  -0.0400 
  7 C        2.2800    -2.1180     0.4200 C.2   1 <1>  -0.1500 
  8 C       -3.6430    -1.8410     0.3010 C.ar  1 <1>  -0.1440 
  9 C       -2.8620     0.5210    -0.2230 C.3   1 <1>  -0.1600 
 10 O        2.0340    -4.0180    -0.6260 O.3   1 <1>  -0.2800 
 11 C       -0.3440    -4.4070    -0.8110 C.3   1 <1>  -0.0600 
 12 C        2.9110    -3.1650    -0.1450 C.2   1 <1>  -0.0100 
 13 C       -4.2350    -2.4400     1.4040 C.ar  1 <1>  -0.1500 
 14 C       -4.0510    -2.2290    -0.9690 C.ar  1 <1>  -0.1500 
 15 C       -1.8310     1.6260     0.0550 C.3   1 <1>  -0.2400 
 16 C       -5.2160    -3.4020     1.2420 C.ar  1 <1>  -0.1500 
 17 C       -5.0320    -3.1920    -1.1300 C.ar  1 <1>  -0.1500 
 18 C       -5.6210    -3.7820    -0.0260 C.ar  1 <1>  -0.1430 
 19 C       -6.6980    -4.8380    -0.2020 C.3   1 <1>  -0.0970 
 20 H       -1.4180    -1.9790    -0.7980 H     1 <1>   0.3700 
 21 H       -2.4580    -0.5860     1.5620 H     1 <1>   0.0800 
 22 H        2.7000    -1.2550     0.9060 H     1 <1>   0.1500 
 23 H       -3.8280     0.8650     0.1040 H     1 <1>   0.0800 
 24 H       -2.9210     0.3500    -1.2820 H     1 <1>   0.0800 
 25 H       -1.2700    -4.0290    -0.4190 H     1 <1>   0.0800 
 26 H       -0.2080    -5.4080    -0.4440 H     1 <1>   0.0800 
 27 H       -0.3980    -4.4380    -1.8840 H     1 <1>   0.0800 
 28 H        3.9600    -3.3840    -0.2450 H     1 <1>   0.1500 
 29 H       -3.9320    -2.1620     2.3990 H     1 <1>   0.1500 
 30 H       -3.6100    -1.7860    -1.8440 H     1 <1>   0.1500 
 31 H       -1.7490     1.8060     1.1130 H     1 <1>   0.0800 
 32 H       -2.1280     2.5400    -0.4280 H     1 <1>   0.0800 
 33 H       -0.8620     1.3430    -0.3180 H     1 <1>   0.0800 
 34 H       -5.6620    -3.8550     2.1100 H     1 <1>   0.1500 
 35 H       -5.3360    -3.4790    -2.1210 H     1 <1>   0.1500 
 36 H       -6.2470    -5.8130    -0.2400 H     1 <1>   0.0800 
 37 H       -7.2440    -4.6710    -1.1120 H     1 <1>   0.0800 
 38 H       -7.3910    -4.8080     0.6200 H     1 <1>   0.0800 
@<TRIPOS>BOND
  1   1   2  2   
  2   2   3  am  
  3   2   4  1   
  4   3   5  1   
  5   3  20  1   
  6   4   6  2   
  7   4   7  1   
  8   5   8  1   
  9   5   9  1   
 10   5  21  1   
 11   6  10  1   
 12   6  11  1   
 13   7  12  2   
 14   7  22  1   
 15   8  13  ar  
 16   8  14  ar  
 17   9  15  1   
 18   9  23  1   
 19   9  24  1   
 20  10  12  1   
 21  11  25  1   
 22  11  26  1   
 23  11  27  1   
 24  12  28  1   
 25  13  16  ar  
 26  13  29  1   
 27  14  17  ar  
 28  14  30  1   
 29  15  31  1   
 30  15  32  1   
 31  15  33  1   
 32  16  18  ar  
 33  16  34  1   
 34  17  18  ar  
 35  17  35  1   
 36  18  19  1   
 37  19  36  1   
 38  19  37  1   
 39  19  38  1   
@<TRIPOS>SUBSTRUCTURE
  1 ****   3 GROUP 4 **** **** 0

# MOE 2024.06 (io_trps.svl 2023.06)
