@<TRIPOS>MOLECULE
Structure2167
34 35 1 0 0 
SMALL
USER_CHARGES


@<TRIPOS>ATOM
  1 O        1.0000     1.2080     1.5810 O.2   1 <1>  -0.5700 
  2 C        0.6930     1.8180     0.5860 C.2   1 <1>   0.6590 
  3 O        1.1460     1.4650    -0.6150 O.3   1 <1>  -0.4300 
  4 C       -0.2430     3.0360     0.6570 C.3   1 <1>   0.2510 
  5 C        1.9840     0.3420    -0.7950 C.3   1 <1>   0.0400 
  6 N       -1.6230     2.7960     0.1180 N.3   1 <1>  -0.8100 
  7 C        0.4210     4.2230    -0.0670 C.3   1 <1>   0.1200 
  8 C       -2.4000     4.0550     0.1420 C.3   1 <1>   0.1100 
  9 C       -2.3140     1.7240     0.8620 C.3   1 <1>   0.2540 
 10 O       -0.3800     5.3690     0.0090 O.3   1 <1>  -0.5600 
 11 C       -1.6440     5.1940    -0.5630 C.3   1 <1>   0.1200 
 12 C       -3.6730     1.4130     0.2500 C.ar  1 <1>  -0.1440 
 13 C       -3.7690     1.0540    -1.0860 C.ar  1 <1>  -0.1500 
 14 C       -4.8260     1.4820     1.0180 C.ar  1 <1>  -0.1500 
 15 C       -5.0000     0.7660    -1.6490 C.ar  1 <1>  -0.1500 
 16 C       -6.0590     1.1950     0.4560 C.ar  1 <1>  -0.1500 
 17 C       -6.1460     0.8370    -0.8770 C.ar  1 <1>  -0.1500 
 18 H       -0.3250     3.3020     1.6960 H     1 <1>   0.0800 
 19 H        1.4650    -0.5370    -0.4520 H     1 <1>   0.0800 
 20 H        2.8870     0.4860    -0.2270 H     1 <1>   0.0800 
 21 H        2.2130     0.2520    -1.8420 H     1 <1>   0.0800 
 22 H        0.5870     3.9890    -1.1050 H     1 <1>   0.0800 
 23 H        1.3670     4.4560     0.3900 H     1 <1>   0.0800 
 24 H       -2.6040     4.3460     1.1580 H     1 <1>   0.0800 
 25 H       -3.3410     3.9090    -0.3600 H     1 <1>   0.0800 
 26 H       -2.4280     2.0120     1.8930 H     1 <1>   0.0800 
 27 H       -1.7250     0.8230     0.8320 H     1 <1>   0.0800 
 28 H       -2.1830     6.1180    -0.4600 H     1 <1>   0.0800 
 29 H       -1.5250     4.9760    -1.6100 H     1 <1>   0.0800 
 30 H       -2.8770     1.0050    -1.6870 H     1 <1>   0.1500 
 31 H       -4.7710     1.7590     2.0560 H     1 <1>   0.1500 
 32 H       -5.0640     0.4890    -2.6870 H     1 <1>   0.1500 
 33 H       -6.9500     1.2500     1.0570 H     1 <1>   0.1500 
 34 H       -7.1040     0.6130    -1.3140 H     1 <1>   0.1500 
@<TRIPOS>BOND
  1   1   2  2   
  2   2   3  1   
  3   2   4  1   
  4   3   5  1   
  5   4   6  1   
  6   4   7  1   
  7   4  18  1   
  8   5  19  1   
  9   5  20  1   
 10   5  21  1   
 11   6   8  1   
 12   6   9  1   
 13   7  10  1   
 14   7  22  1   
 15   7  23  1   
 16   8  11  1   
 17   8  24  1   
 18   8  25  1   
 19   9  12  1   
 20   9  26  1   
 21   9  27  1   
 22  10  11  1   
 23  11  28  1   
 24  11  29  1   
 25  12  13  ar  
 26  12  14  ar  
 27  13  15  ar  
 28  13  30  1   
 29  14  16  ar  
 30  14  31  1   
 31  15  17  ar  
 32  15  32  1   
 33  16  17  ar  
 34  16  33  1   
 35  17  34  1   
@<TRIPOS>SUBSTRUCTURE
  1 ****   6 GROUP 4 **** **** 0

# MOE 2024.06 (io_trps.svl 2023.06)
