@<TRIPOS>MOLECULE
NONAME
34 34 1 0 0 
SMALL
USER_CHARGES


@<TRIPOS>ATOM
  1 S        0.9750    -0.6700    -2.2260 S.3   1 <1>  -0.3310 
  2 C        1.8580     0.4120    -1.0680 C.2   1 <1>   0.1150 
  3 C        0.2480    -2.0370    -1.2080 C.3   1 <1>   0.1500 
  4 C        3.1960     0.0960    -0.6920 C.2   1 <1>   0.6160 
  5 C        1.2720     1.5310    -0.5580 C.2   1 <1>   0.1150 
  6 C       -0.7130    -1.4390    -0.1820 C.3   1 <1>  -0.2400 
  7 C        1.3730    -2.8430    -0.5620 C.3   1 <1>  -0.2400 
  8 O        3.8180    -0.8750    -1.1200 O.2   1 <1>  -0.5700 
  9 N        3.8020     0.9610     0.2210 N.am  1 <1>  -0.2980 
 10 S       -0.4120     1.9970    -1.0260 S.3   1 <1>  -0.3310 
 11 C        2.0030     2.3470     0.3440 C.2   1 <1>   0.3760 
 12 N        3.2080     2.0880     0.7370 N.2   1 <1>  -0.5120 
 13 C        5.1880     0.6880     0.6690 C.3   1 <1>   0.0600 
 14 C       -1.1200     3.0370     0.3290 C.3   1 <1>   0.1500 
 15 C       -1.2600     2.1600     1.5750 C.3   1 <1>  -0.2400 
 16 C       -2.4730     3.5410    -0.1660 C.3   1 <1>  -0.2400 
 17 H       -0.2930    -2.6560    -1.9030 H     1 <1>   0.0800 
 18 H       -0.1870    -0.8190     0.5200 H     1 <1>   0.0800 
 19 H       -1.2050    -2.2260     0.3600 H     1 <1>   0.0800 
 20 H       -1.4620    -0.8500    -0.6810 H     1 <1>   0.0800 
 21 H        1.8800    -2.2660     0.1880 H     1 <1>   0.0800 
 22 H        2.0840    -3.1470    -1.3090 H     1 <1>   0.0800 
 23 H        0.9700    -3.7240    -0.0950 H     1 <1>   0.0800 
 24 H        1.5350     3.2330     0.7240 H     1 <1>   0.0600 
 25 H        5.2300    -0.2800     1.1360 H     1 <1>   0.0800 
 26 H        5.5030     1.4360     1.3750 H     1 <1>   0.0800 
 27 H        5.8470     0.7000    -0.1800 H     1 <1>   0.0800 
 28 H       -0.4570     3.8670     0.4950 H     1 <1>   0.0800 
 29 H       -1.8890     1.3130     1.3650 H     1 <1>   0.0800 
 30 H       -1.7060     2.7270     2.3730 H     1 <1>   0.0800 
 31 H       -0.3020     1.8070     1.9070 H     1 <1>   0.0800 
 32 H       -3.1260     2.7140    -0.3860 H     1 <1>   0.0800 
 33 H       -2.3430     4.1260    -1.0590 H     1 <1>   0.0800 
 34 H       -2.9360     4.1580     0.5830 H     1 <1>   0.0800 
@<TRIPOS>BOND
  1   1   2  1   
  2   1   3  1   
  3   2   4  1   
  4   2   5  2   
  5   3   6  1   
  6   3   7  1   
  7   3  17  1   
  8   4   8  2   
  9   4   9  am  
 10   5  10  1   
 11   5  11  1   
 12   6  18  1   
 13   6  19  1   
 14   6  20  1   
 15   7  21  1   
 16   7  22  1   
 17   7  23  1   
 18   9  12  1   
 19   9  13  1   
 20  10  14  1   
 21  11  12  2   
 22  11  24  1   
 23  13  25  1   
 24  13  26  1   
 25  13  27  1   
 26  14  15  1   
 27  14  16  1   
 28  14  28  1   
 29  15  29  1   
 30  15  30  1   
 31  15  31  1   
 32  16  32  1   
 33  16  33  1   
 34  16  34  1   
@<TRIPOS>SUBSTRUCTURE
  1 ****   5 GROUP 4 **** **** 0

# MOE 2024.06 (io_trps.svl 2023.06)
