@<TRIPOS>MOLECULE
NONAME
30 30 1 0 0 
SMALL
USER_CHARGES


@<TRIPOS>ATOM
  1 BR      -0.3560     0.1120    -0.3650 Br    1 <1>  -0.1110 
  2 C        0.7270     1.6950    -0.1660 C.ar  1 <1>   0.1110 
  3 C        0.1340     2.8840     0.2240 C.ar  1 <1>   0.0820 
  4 C        2.0800     1.5970    -0.4290 C.ar  1 <1>  -0.1500 
  5 O       -1.2010     2.9380     0.4700 O.3   1 <1>  -0.2330 
  6 C        0.9420     4.0100     0.3620 C.ar  1 <1>   0.0830 
  7 C        2.8890     2.7210    -0.2960 C.ar  1 <1>   0.0730 
  8 C       -2.0310     3.6290    -0.3100 C.2   1 <1>   0.8700 
  9 O        0.3920     5.1780     0.7680 O.3   1 <1>  -0.3630 
 10 C        2.3040     3.9210     0.1040 C.ar  1 <1>  -0.1500 
 11 C        4.2970     2.6460    -0.5610 C.1   1 <1>   0.4840 
 12 O       -1.6780     4.1680    -1.3400 O.2   1 <1>  -0.5700 
 13 O       -3.2910     3.6800     0.1150 O.3   1 <1>  -0.4300 
 14 C        0.5330     6.2940    -0.0800 C.3   1 <1>   0.1200 
 15 N        5.4160     2.5870    -0.7730 N.1   1 <1>  -0.5570 
 16 C       -4.2730     4.3770    -0.6140 C.3   1 <1>   0.1200 
 17 C       -0.4550     7.3600     0.3820 C.3   1 <1>  -0.2400 
 18 C       -5.5940     4.2560     0.1390 C.3   1 <1>  -0.2400 
 19 H        2.4970     0.6530    -0.7340 H     1 <1>   0.1500 
 20 H        2.9210     4.7940     0.2260 H     1 <1>   0.1500 
 21 H        0.3150     5.9880    -1.0900 H     1 <1>   0.0800 
 22 H        1.5450     6.6540    -0.0130 H     1 <1>   0.0800 
 23 H       -4.3460     3.9390    -1.5960 H     1 <1>   0.0800 
 24 H       -3.9700     5.4070    -0.6980 H     1 <1>   0.0800 
 25 H       -1.4590     6.9830     0.3140 H     1 <1>   0.0800 
 26 H       -0.3720     8.2290    -0.2460 H     1 <1>   0.0800 
 27 H       -0.2450     7.6470     1.3970 H     1 <1>   0.0800 
 28 H       -5.8780     3.2220     0.2240 H     1 <1>   0.0800 
 29 H       -6.3660     4.7800    -0.3950 H     1 <1>   0.0800 
 30 H       -5.5030     4.6860     1.1200 H     1 <1>   0.0800 
@<TRIPOS>BOND
  1   1   2  1   
  2   2   3  ar  
  3   2   4  ar  
  4   3   5  1   
  5   3   6  ar  
  6   4   7  ar  
  7   4  19  1   
  8   5   8  1   
  9   6   9  1   
 10   6  10  ar  
 11   7  10  ar  
 12   7  11  1   
 13   8  12  2   
 14   8  13  1   
 15   9  14  1   
 16  10  20  1   
 17  11  15  3   
 18  13  16  1   
 19  14  17  1   
 20  14  21  1   
 21  14  22  1   
 22  16  18  1   
 23  16  23  1   
 24  16  24  1   
 25  17  25  1   
 26  17  26  1   
 27  17  27  1   
 28  18  28  1   
 29  18  29  1   
 30  18  30  1   
@<TRIPOS>SUBSTRUCTURE
  1 ****   3 GROUP 4 **** **** 0

# MOE 2024.06 (io_trps.svl 2023.06)
