@<TRIPOS>MOLECULE
NONAME
44 47 1 0 0 
SMALL
USER_CHARGES


@<TRIPOS>ATOM
  1 N        0.2480     0.2740    -0.0820 N.3   1 <1>  -0.3020 
  2 N        1.3900     0.8350    -0.8360 N.4   1 <1>  -0.6410 
  3 C       -0.7070     1.3230     0.3230 C.3   1 <1>   0.1100 
  4 C       -0.4090    -0.8030    -0.8420 C.3   1 <1>   0.1100 
  5 C        2.4450     1.3860     0.0510 C.3   1 <1>   0.4230 
  6 C       -1.8070     0.7270     1.2090 C.3   1 <1>  -0.1600 
  7 C       -1.5010    -1.4630     0.0080 C.3   1 <1>  -0.1600 
  8 C        3.4900     2.1410    -0.7990 C.3   1 <1>  -0.0800 
  9 C        3.1460     0.2560     0.8430 C.3   1 <1>  -0.0800 
 10 C       -2.5220    -0.4330     0.5060 C.3   1 <1>  -0.1600 
 11 C        4.2290     1.1750    -1.7560 C.3   1 <1>  -0.1600 
 12 C        4.5260     2.7750     0.1520 C.3   1 <1>  -0.1600 
 13 C        3.8830    -0.7120    -0.1120 C.3   1 <1>  -0.1600 
 14 C        4.1820     0.8960     1.7890 C.3   1 <1>  -0.1600 
 15 C        4.9230     0.0620    -0.9450 C.3   1 <1>  -0.0800 
 16 C        5.2290     1.6780     0.9730 C.3   1 <1>  -0.0800 
 17 C        5.9420     0.7090     0.0110 C.3   1 <1>  -0.1600 
 18 H        1.0870     1.5590    -1.4980 H     1 <1>   0.4500 
 19 H        1.8540     0.0980    -1.3810 H     1 <1>   0.4500 
 20 H       -1.1520     1.7690    -0.5510 H     1 <1>   0.0800 
 21 H       -0.1940     2.0900     0.8760 H     1 <1>   0.0800 
 22 H        0.3190    -1.5490    -1.1120 H     1 <1>   0.0800 
 23 H       -0.8440    -0.4030    -1.7420 H     1 <1>   0.0800 
 24 H        1.9980     2.0780     0.7440 H     1 <1>   0.0800 
 25 H       -2.5220     1.4910     1.4580 H     1 <1>   0.0800 
 26 H       -1.3700     0.3790     2.1300 H     1 <1>   0.0800 
 27 H       -1.0450    -1.9570     0.8490 H     1 <1>   0.0800 
 28 H       -2.0050    -2.2150    -0.5750 H     1 <1>   0.0800 
 29 H        3.0150     2.9290    -1.3580 H     1 <1>   0.0800 
 30 H        2.4270    -0.2820     1.4370 H     1 <1>   0.0800 
 31 H       -3.0880    -0.0540    -0.3290 H     1 <1>   0.0800 
 32 H       -3.2140    -0.9020     1.1850 H     1 <1>   0.0800 
 33 H        3.5570     0.7420    -2.4750 H     1 <1>   0.0800 
 34 H        4.9720     1.7200    -2.3140 H     1 <1>   0.0800 
 35 H        4.0460     3.4740     0.8160 H     1 <1>   0.0800 
 36 H        5.2590     3.3250    -0.4150 H     1 <1>   0.0800 
 37 H        3.1920    -1.2240    -0.7570 H     1 <1>   0.0800 
 38 H        4.3860    -1.4700     0.4670 H     1 <1>   0.0800 
 39 H        3.6930     1.5570     2.4850 H     1 <1>   0.0800 
 40 H        4.6730     0.1300     2.3670 H     1 <1>   0.0800 
 41 H        5.4360    -0.6130    -1.6110 H     1 <1>   0.0800 
 42 H        5.9520     2.1240     1.6380 H     1 <1>   0.0800 
 43 H        6.6890     1.2400    -0.5540 H     1 <1>   0.0800 
 44 H        6.4510    -0.0550     0.5750 H     1 <1>   0.0800 
@<TRIPOS>BOND
  1   1   2  1   
  2   1   3  1   
  3   1   4  1   
  4   2   5  1   
  5   2  18  1   
  6   2  19  1   
  7   3   6  1   
  8   3  20  1   
  9   3  21  1   
 10   4   7  1   
 11   4  22  1   
 12   4  23  1   
 13   5   8  1   
 14   5   9  1   
 15   5  24  1   
 16   6  10  1   
 17   6  25  1   
 18   6  26  1   
 19   7  10  1   
 20   7  27  1   
 21   7  28  1   
 22   8  11  1   
 23   8  12  1   
 24   8  29  1   
 25   9  13  1   
 26   9  14  1   
 27   9  30  1   
 28  10  31  1   
 29  10  32  1   
 30  11  15  1   
 31  11  33  1   
 32  11  34  1   
 33  12  16  1   
 34  12  35  1   
 35  12  36  1   
 36  13  15  1   
 37  13  37  1   
 38  13  38  1   
 39  14  16  1   
 40  14  39  1   
 41  14  40  1   
 42  15  17  1   
 43  15  41  1   
 44  16  17  1   
 45  16  42  1   
 46  17  43  1   
 47  17  44  1   
@<TRIPOS>SUBSTRUCTURE
  1 ****   5 GROUP 4 **** **** 0

# MOE 2024.06 (io_trps.svl 2023.06)
