@<TRIPOS>MOLECULE
NONAME
37 40 1 0 0 
SMALL
USER_CHARGES


@<TRIPOS>ATOM
  1 CL      -0.3790     1.0230     2.1070 Cl    1 <1>  -0.1770 
  2 C        0.9980     1.5910     1.1870 C.ar  1 <1>   0.1770 
  3 C        0.8790     2.7130     0.3730 C.ar  1 <1>   0.1170 
  4 C        2.1870     0.8970     1.2860 C.ar  1 <1>  -0.1500 
  5 N       -0.3320     3.4230     0.2750 N.am  1 <1>  -0.2370 
  6 C        1.9930     3.1190    -0.3540 C.ar  1 <1>  -0.1500 
  7 C        3.2870     1.3190     0.5590 C.ar  1 <1>  -0.1500 
  8 C       -1.2320     3.3270    -0.7680 C.2   1 <1>   0.5690 
  9 C       -0.8810     4.1960     1.2800 C.2   1 <1>   0.5690 
 10 C        3.2040     2.4360    -0.2700 C.ar  1 <1>  -0.1440 
 11 O       -1.1610     2.6100    -1.7320 O.2   1 <1>  -0.5700 
 12 C       -2.3090     4.3520    -0.5300 C.3   1 <1>  -0.0190 
 13 O       -0.3120     4.6880     2.2200 O.2   1 <1>  -0.5700 
 14 C       -2.3540     4.3120     1.0000 C.3   1 <1>  -0.0190 
 15 C        4.4290     2.8950    -1.0820 C.3   1 <1>   1.1640 
 16 C       -3.7500     4.5550    -1.0750 C.3   1 <1>   0.0580 
 17 C       -3.4890     5.2480     1.4900 C.3   1 <1>   0.0580 
 18 F        4.5220     2.2530    -2.2380 F     1 <1>  -0.3400 
 19 F        4.3990     4.1900    -1.3740 F     1 <1>  -0.3400 
 20 F        5.5740     2.6850    -0.4440 F     1 <1>  -0.3400 
 21 C       -4.8040     3.9860    -0.1170 C.2   1 <1>  -0.2880 
 22 C       -3.9790     6.0830    -0.8960 C.3   1 <1>  -0.1600 
 23 C       -4.7110     4.3850     1.1600 C.2   1 <1>  -0.2880 
 24 C       -3.6360     6.5010     0.5780 C.3   1 <1>  -0.1600 
 25 H        2.2480     0.0340     1.9260 H     1 <1>   0.1500 
 26 H        1.9000     3.9820    -0.9930 H     1 <1>   0.1500 
 27 H        4.2100     0.7670     0.6420 H     1 <1>   0.1500 
 28 H       -1.7780     5.2420    -0.8280 H     1 <1>   0.0800 
 29 H       -2.6750     3.3260     1.3020 H     1 <1>   0.0800 
 30 H       -3.8730     4.2360    -2.0970 H     1 <1>   0.0800 
 31 H       -3.4110     5.4760     2.5390 H     1 <1>   0.0800 
 32 H       -5.5580     3.3470    -0.5450 H     1 <1>   0.1500 
 33 H       -5.0110     6.3110    -1.1030 H     1 <1>   0.0800 
 34 H       -3.3840     6.6490    -1.5930 H     1 <1>   0.0800 
 35 H       -5.3770     4.1400     1.9710 H     1 <1>   0.1500 
 36 H       -2.7220     7.0690     0.6040 H     1 <1>   0.0800 
 37 H       -4.4220     7.1300     0.9600 H     1 <1>   0.0800 
@<TRIPOS>BOND
  1   1   2  1   
  2   2   3  ar  
  3   2   4  ar  
  4   3   5  1   
  5   3   6  ar  
  6   4   7  ar  
  7   4  25  1   
  8   5   8  am  
  9   5   9  am  
 10   6  10  ar  
 11   6  26  1   
 12   7  10  ar  
 13   7  27  1   
 14   8  11  2   
 15   8  12  1   
 16   9  13  2   
 17   9  14  1   
 18  10  15  1   
 19  12  14  1   
 20  12  16  1   
 21  12  28  1   
 22  14  17  1   
 23  14  29  1   
 24  15  18  1   
 25  15  19  1   
 26  15  20  1   
 27  16  21  1   
 28  16  22  1   
 29  16  30  1   
 30  17  23  1   
 31  17  24  1   
 32  17  31  1   
 33  21  23  2   
 34  21  32  1   
 35  22  24  1   
 36  22  33  1   
 37  22  34  1   
 38  23  35  1   
 39  24  36  1   
 40  24  37  1   
@<TRIPOS>SUBSTRUCTURE
  1 ****   5 GROUP 4 **** **** 0

# MOE 2024.06 (io_trps.svl 2023.06)
