@<TRIPOS>MOLECULE
NONAME
41 41 1 0 0 
SMALL
USER_CHARGES


@<TRIPOS>ATOM
  1 O       -0.1750    -0.7260    -1.1550 O.2   1 <1>  -0.5700 
  2 C       -0.4660    -1.7460    -0.5780 C.2   1 <1>   0.5690 
  3 N       -1.6670    -1.9380     0.0510 N.am  1 <1>  -0.5470 
  4 C        0.5420    -2.9000    -0.5510 C.3   1 <1>  -0.0190 
  5 C       -2.7530    -1.0650     0.2260 C.ar  1 <1>   0.1170 
  6 C        1.8720    -2.4750     0.0950 C.3   1 <1>  -0.2400 
  7 C        0.7980    -3.4560    -1.9610 C.3   1 <1>  -0.2400 
  8 C       -4.0250    -1.5970     0.3900 C.ar  1 <1>  -0.1500 
  9 C       -2.6030     0.3170     0.2640 C.ar  1 <1>  -0.1500 
 10 C       -5.1370    -0.7880     0.5860 C.ar  1 <1>   0.1170 
 11 C       -3.6970     1.1400     0.4580 C.ar  1 <1>  -0.1500 
 12 N       -6.3980    -1.3900     0.7250 N.am  1 <1>  -0.5470 
 13 C       -4.9560     0.5910     0.6170 C.ar  1 <1>  -0.1500 
 14 C       -7.5390    -0.9410     1.3300 C.2   1 <1>   0.5690 
 15 O       -7.6230     0.1070     1.9200 O.2   1 <1>  -0.5700 
 16 C       -8.7640    -1.8330     1.2620 C.3   1 <1>  -0.0990 
 17 C       -9.3830    -1.8660    -0.1450 C.3   1 <1>  -0.1600 
 18 C      -10.6220    -2.7670    -0.1890 C.3   1 <1>  -0.1600 
 19 C      -11.2330    -2.7940    -1.5920 C.3   1 <1>  -0.2400 
 20 H       -1.8070    -2.8700     0.4310 H     1 <1>   0.3700 
 21 H        0.1320    -3.6960     0.0450 H     1 <1>   0.0800 
 22 H        2.3310    -1.6890    -0.4810 H     1 <1>   0.0800 
 23 H        2.5510    -3.3070     0.1470 H     1 <1>   0.0800 
 24 H        1.6990    -2.1080     1.0910 H     1 <1>   0.0800 
 25 H        1.2240    -2.6920    -2.5890 H     1 <1>   0.0800 
 26 H       -0.1250    -3.7820    -2.4060 H     1 <1>   0.0800 
 27 H        1.4760    -4.2900    -1.9240 H     1 <1>   0.0800 
 28 H       -4.1520    -2.6610     0.3630 H     1 <1>   0.1500 
 29 H       -1.6290     0.7570     0.1460 H     1 <1>   0.1500 
 30 H       -3.5690     2.2080     0.4840 H     1 <1>   0.1500 
 31 H       -6.4750    -2.3160     0.3130 H     1 <1>   0.3700 
 32 H       -5.7980     1.2430     0.7620 H     1 <1>   0.1500 
 33 H       -9.4920    -1.4630     1.9630 H     1 <1>   0.0800 
 34 H       -8.4900    -2.8250     1.5700 H     1 <1>   0.0800 
 35 H       -8.6570    -2.2220    -0.8560 H     1 <1>   0.0800 
 36 H       -9.6590    -0.8630    -0.4290 H     1 <1>   0.0800 
 37 H      -11.3590    -2.4050     0.5090 H     1 <1>   0.0800 
 38 H      -10.3550    -3.7700     0.0990 H     1 <1>   0.0800 
 39 H      -11.5300    -1.8040    -1.8930 H     1 <1>   0.0800 
 40 H      -12.1020    -3.4280    -1.6040 H     1 <1>   0.0800 
 41 H      -10.5240    -3.1750    -2.3060 H     1 <1>   0.0800 
@<TRIPOS>BOND
  1   1   2  2   
  2   2   3  am  
  3   2   4  1   
  4   3   5  1   
  5   3  20  1   
  6   4   6  1   
  7   4   7  1   
  8   4  21  1   
  9   5   8  ar  
 10   5   9  ar  
 11   6  22  1   
 12   6  23  1   
 13   6  24  1   
 14   7  25  1   
 15   7  26  1   
 16   7  27  1   
 17   8  10  ar  
 18   8  28  1   
 19   9  11  ar  
 20   9  29  1   
 21  10  12  1   
 22  10  13  ar  
 23  11  13  ar  
 24  11  30  1   
 25  12  14  am  
 26  12  31  1   
 27  13  32  1   
 28  14  15  2   
 29  14  16  1   
 30  16  17  1   
 31  16  33  1   
 32  16  34  1   
 33  17  18  1   
 34  17  35  1   
 35  17  36  1   
 36  18  19  1   
 37  18  37  1   
 38  18  38  1   
 39  19  39  1   
 40  19  40  1   
 41  19  41  1   
@<TRIPOS>SUBSTRUCTURE
  1 ****   8 GROUP 4 **** **** 0

# MOE 2024.06 (io_trps.svl 2023.06)
