@<TRIPOS>MOLECULE
NONAME
39 40 1 0 0 
SMALL
USER_CHARGES


@<TRIPOS>ATOM
  1 O        1.4760     0.3770     2.0060 O.2   1 <1>  -0.5700 
  2 C        1.6860     1.1470     1.0900 C.2   1 <1>   0.6340 
  3 O        0.6510     1.5670     0.3540 O.3   1 <1>  -0.4300 
  4 C        3.0080     1.6370     0.7510 C.ar  1 <1>   0.0860 
  5 C       -0.6710     1.1380     0.6160 C.3   1 <1>   0.0400 
  6 C        4.1310     1.2370     1.4800 C.ar  1 <1>  -0.1500 
  7 C        3.2230     2.5240    -0.3090 C.ar  1 <1>  -0.1500 
  8 C        5.3970     1.6950     1.1700 C.ar  1 <1>  -0.1500 
  9 C        4.4860     2.9870    -0.6270 C.ar  1 <1>  -0.1500 
 10 C        5.5870     2.5730     0.1160 C.ar  1 <1>   0.0830 
 11 O        6.8530     2.9750    -0.1250 O.3   1 <1>  -0.3620 
 12 C        7.1610     3.8760    -1.1830 C.3   1 <1>   0.1810 
 13 C        8.6530     4.1740    -1.2490 C.2   1 <1>   0.5690 
 14 O        9.0490     4.9280    -2.1050 O.2   1 <1>  -0.5700 
 15 N        9.4930     3.5930    -0.3550 N.am  1 <1>  -0.7300 
 16 C       10.9500     3.7750    -0.2830 C.3   1 <1>   0.2200 
 17 C       11.6190     2.4090    -0.3710 C.3   1 <1>  -0.1600 
 18 C       11.3160     4.2550     1.1160 C.3   1 <1>  -0.1600 
 19 C       11.5420     1.8140     1.0400 C.3   1 <1>  -0.1600 
 20 C       11.3470     2.9990     1.9940 C.3   1 <1>  -0.1600 
 21 H       -1.3280     1.6020    -0.0980 H     1 <1>   0.0800 
 22 H       -0.9410     1.4330     1.6150 H     1 <1>   0.0800 
 23 H       -0.7150     0.0670     0.5200 H     1 <1>   0.0800 
 24 H        4.0040     0.5550     2.3040 H     1 <1>   0.1500 
 25 H        2.3840     2.8560    -0.8960 H     1 <1>   0.1500 
 26 H        6.2460     1.3740     1.7450 H     1 <1>   0.1500 
 27 H        4.5900     3.6670    -1.4520 H     1 <1>   0.1500 
 28 H        6.6260     4.7920    -1.0160 H     1 <1>   0.0800 
 29 H        6.8510     3.4300    -2.1100 H     1 <1>   0.0800 
 30 H        9.0950     2.9640     0.3460 H     1 <1>   0.3700 
 31 H       11.2890     4.4500    -1.0520 H     1 <1>   0.0800 
 32 H       12.6530     2.5550    -0.6320 H     1 <1>   0.0800 
 33 H       11.1630     1.7800    -1.1150 H     1 <1>   0.0800 
 34 H       10.6330     5.0030     1.4800 H     1 <1>   0.0800 
 35 H       12.3030     4.6810     1.0800 H     1 <1>   0.0800 
 36 H       12.4370     1.2630     1.2730 H     1 <1>   0.0800 
 37 H       10.6980     1.1490     1.1110 H     1 <1>   0.0800 
 38 H       10.4110     2.8940     2.5160 H     1 <1>   0.0800 
 39 H       12.1420     3.0580     2.7180 H     1 <1>   0.0800 
@<TRIPOS>BOND
  1   1   2  2   
  2   2   3  1   
  3   2   4  1   
  4   3   5  1   
  5   4   6  ar  
  6   4   7  ar  
  7   5  21  1   
  8   5  22  1   
  9   5  23  1   
 10   6   8  ar  
 11   6  24  1   
 12   7   9  ar  
 13   7  25  1   
 14   8  10  ar  
 15   8  26  1   
 16   9  10  ar  
 17   9  27  1   
 18  10  11  1   
 19  11  12  1   
 20  12  13  1   
 21  12  28  1   
 22  12  29  1   
 23  13  14  2   
 24  13  15  am  
 25  15  16  1   
 26  15  30  1   
 27  16  17  1   
 28  16  18  1   
 29  16  31  1   
 30  17  19  1   
 31  17  32  1   
 32  17  33  1   
 33  18  20  1   
 34  18  34  1   
 35  18  35  1   
 36  19  20  1   
 37  19  36  1   
 38  19  37  1   
 39  20  38  1   
 40  20  39  1   
@<TRIPOS>SUBSTRUCTURE
  1 ****  11 GROUP 4 **** **** 0

# MOE 2024.06 (io_trps.svl 2023.06)
