@<TRIPOS>MOLECULE
NONAME
37 38 1 0 0 
SMALL
USER_CHARGES


@<TRIPOS>ATOM
  1 N        0.3720     1.5760    -0.1160 N.ar  1 <1>  -0.2100 
  2 C        0.2450     2.5290    -1.0730 C.ar  1 <1>   0.2110 
  3 C       -0.6430     1.3650     0.7580 C.ar  1 <1>   0.2110 
  4 C        1.6080     0.7460    -0.0310 C.3   1 <1>   0.8160 
  5 C       -0.8940     3.3060    -1.1630 C.ar  1 <1>  -0.1440 
  6 C       -1.8010     2.1180     0.7050 C.ar  1 <1>  -0.1440 
  7 N        2.8150     1.6040     0.1540 N.ar  1 <1>  -0.2100 
  8 C       -1.9270     3.0990    -0.2640 C.ar  1 <1>  -0.1500 
  9 C       -1.0470     4.3820    -2.2290 C.3   1 <1>  -0.0970 
 10 C       -2.9470     1.8940     1.6820 C.3   1 <1>  -0.0970 
 11 C        2.9090     2.4410     1.2170 C.ar  1 <1>   0.2110 
 12 C        3.8350     1.5320    -0.7350 C.ar  1 <1>   0.2110 
 13 C        4.0210     3.2410     1.4010 C.ar  1 <1>  -0.1430 
 14 C        4.9660     2.3140    -0.5910 C.ar  1 <1>  -0.1430 
 15 C        5.0590     3.1780     0.4870 C.ar  1 <1>  -0.1500 
 16 C        4.1380     4.1900     2.5860 C.3   1 <1>  -0.0970 
 17 C        6.1180     2.2470    -1.5850 C.3   1 <1>  -0.0970 
 18 H        1.0430     2.6930    -1.7810 H     1 <1>   0.1500 
 19 H       -0.5570     0.5980     1.5130 H     1 <1>   0.1500 
 20 H        1.7030     0.1660    -0.9340 H     1 <1>   0.0800 
 21 H        1.5360     0.0610     0.7980 H     1 <1>   0.0800 
 22 H       -2.8260     3.6970    -0.3200 H     1 <1>   0.1500 
 23 H       -0.1730     4.4570    -2.8510 H     1 <1>   0.0800 
 24 H       -1.2150     5.3400    -1.7660 H     1 <1>   0.0800 
 25 H       -1.8920     4.1610    -2.8580 H     1 <1>   0.0800 
 26 H       -2.7290     1.1060     2.3810 H     1 <1>   0.0800 
 27 H       -3.8430     1.6300     1.1460 H     1 <1>   0.0800 
 28 H       -3.1410     2.7960     2.2380 H     1 <1>   0.0800 
 29 H        2.1080     2.4930     1.9380 H     1 <1>   0.1500 
 30 H        3.7750     0.8560    -1.5750 H     1 <1>   0.1500 
 31 H        5.9360     3.7970     0.6150 H     1 <1>   0.1500 
 32 H        3.2630     4.1590     3.2110 H     1 <1>   0.0800 
 33 H        4.2700     5.2010     2.2390 H     1 <1>   0.0800 
 34 H        4.9910     3.9260     3.1870 H     1 <1>   0.0800 
 35 H        5.9260     1.5390    -2.3720 H     1 <1>   0.0800 
 36 H        7.0230     1.9540    -1.0810 H     1 <1>   0.0800 
 37 H        6.2790     3.2140    -2.0310 H     1 <1>   0.0800 
@<TRIPOS>BOND
  1   1   2  ar  
  2   1   3  ar  
  3   1   4  1   
  4   2   5  ar  
  5   2  18  1   
  6   3   6  ar  
  7   3  19  1   
  8   4   7  1   
  9   4  20  1   
 10   4  21  1   
 11   5   8  ar  
 12   5   9  1   
 13   6   8  ar  
 14   6  10  1   
 15   7  11  ar  
 16   7  12  ar  
 17   8  22  1   
 18   9  23  1   
 19   9  24  1   
 20   9  25  1   
 21  10  26  1   
 22  10  27  1   
 23  10  28  1   
 24  11  13  ar  
 25  11  29  1   
 26  12  14  ar  
 27  12  30  1   
 28  13  15  ar  
 29  13  16  1   
 30  14  15  ar  
 31  14  17  1   
 32  15  31  1   
 33  16  32  1   
 34  16  33  1   
 35  16  34  1   
 36  17  35  1   
 37  17  36  1   
 38  17  37  1   
@<TRIPOS>SUBSTRUCTURE
  1 ****   7 GROUP 4 **** **** 0

# MOE 2024.06 (io_trps.svl 2023.06)
