@<TRIPOS>MOLECULE
NONAME
36 37 1 0 0 
SMALL
USER_CHARGES


@<TRIPOS>ATOM
  1 F       -0.4070     1.9250    -2.8820 F     1 <1>  -0.1900 
  2 C       -0.9710     2.2350    -1.7450 C.ar  1 <1>   0.1900 
  3 C       -0.1770     2.5700    -0.6570 C.ar  1 <1>  -0.1440 
  4 C       -2.3520     2.2130    -1.6870 C.ar  1 <1>  -0.1500 
  5 C       -0.8240     2.8780     0.5350 C.ar  1 <1>  -0.1500 
  6 C        1.3490     2.5840    -0.7780 C.3   1 <1>   0.3440 
  7 C       -2.9740     2.5320    -0.4930 C.ar  1 <1>  -0.1500 
  8 C       -2.2080     2.8610     0.6140 C.ar  1 <1>  -0.1500 
  9 O        1.8820     2.0650     0.4160 O.3   1 <1>  -0.4300 
 10 C        1.9760     3.9720    -1.0590 C.3   1 <1>   0.0610 
 11 C        3.1630     2.1380     0.7400 C.2   1 <1>   0.6590 
 12 C        3.4930     3.7470    -1.1700 C.2   1 <1>   0.4480 
 13 C        1.4140     4.5530    -2.3790 C.3   1 <1>  -0.2400 
 14 C        1.6880     5.0060     0.0560 C.3   1 <1>  -0.2400 
 15 O        3.5110     1.7630     1.8270 O.2   1 <1>  -0.5700 
 16 C        4.1700     2.6890    -0.2840 C.3   1 <1>   0.1220 
 17 O        4.1480     4.3780    -1.9500 O.2   1 <1>  -0.5700 
 18 C        4.6900     1.5300    -1.1640 C.3   1 <1>  -0.2400 
 19 C        5.3870     3.3270     0.4320 C.3   1 <1>  -0.2400 
 20 H       -2.9250     1.9500    -2.5580 H     1 <1>   0.1500 
 21 H       -0.2530     3.1290     1.4130 H     1 <1>   0.1500 
 22 H        1.6380     1.9030    -1.5610 H     1 <1>   0.0800 
 23 H       -4.0480     2.5210    -0.4220 H     1 <1>   0.1500 
 24 H       -2.6920     3.1040     1.5450 H     1 <1>   0.1500 
 25 H        0.3540     4.7230    -2.3110 H     1 <1>   0.0800 
 26 H        1.8840     5.4950    -2.6060 H     1 <1>   0.0800 
 27 H        1.6030     3.8830    -3.1990 H     1 <1>   0.0800 
 28 H        2.0100     4.6540     1.0200 H     1 <1>   0.0800 
 29 H        0.6370     5.2260     0.1110 H     1 <1>   0.0800 
 30 H        2.2080     5.9250    -0.1530 H     1 <1>   0.0800 
 31 H        3.8840     1.0590    -1.6960 H     1 <1>   0.0800 
 32 H        5.1740     0.7870    -0.5540 H     1 <1>   0.0800 
 33 H        5.4020     1.8960    -1.8840 H     1 <1>   0.0800 
 34 H        5.0650     4.1380     1.0620 H     1 <1>   0.0800 
 35 H        6.0920     3.7120    -0.2830 H     1 <1>   0.0800 
 36 H        5.8910     2.6010     1.0470 H     1 <1>   0.0800 
@<TRIPOS>BOND
  1   1   2  1   
  2   2   3  ar  
  3   2   4  ar  
  4   3   5  ar  
  5   3   6  1   
  6   4   7  ar  
  7   4  20  1   
  8   5   8  ar  
  9   5  21  1   
 10   6   9  1   
 11   6  10  1   
 12   6  22  1   
 13   7   8  ar  
 14   7  23  1   
 15   8  24  1   
 16   9  11  1   
 17  10  12  1   
 18  10  13  1   
 19  10  14  1   
 20  11  15  2   
 21  11  16  1   
 22  12  16  1   
 23  12  17  2   
 24  13  25  1   
 25  13  26  1   
 26  13  27  1   
 27  14  28  1   
 28  14  29  1   
 29  14  30  1   
 30  16  18  1   
 31  16  19  1   
 32  18  31  1   
 33  18  32  1   
 34  18  33  1   
 35  19  34  1   
 36  19  35  1   
 37  19  36  1   
@<TRIPOS>SUBSTRUCTURE
  1 ****   6 GROUP 4 **** **** 0

# MOE 2024.06 (io_trps.svl 2023.06)
