@<TRIPOS>MOLECULE
NONAME
39 41 1 0 0 
SMALL
USER_CHARGES


@<TRIPOS>ATOM
  1 O       -2.1260     0.9990     0.2910 O.3   1 <1>  -0.3630 
  2 C       -1.2160     1.9480    -0.0600 C.ar  1 <1>   0.0830 
  3 C       -1.8260     0.0250     1.2720 C.3   1 <1>   0.0400 
  4 C       -1.5220     2.7620    -1.1480 C.ar  1 <1>  -0.1440 
  5 C       -0.0170     2.1370     0.6230 C.ar  1 <1>  -0.1500 
  6 C       -0.6330     3.7510    -1.5430 C.ar  1 <1>  -0.1500 
  7 C       -2.8240     2.5710    -1.8990 C.3   1 <1>   0.4870 
  8 C        0.8610     3.1270     0.2230 C.ar  1 <1>  -0.1500 
  9 C        0.5550     3.9330    -0.8580 C.ar  1 <1>  -0.1500 
 10 N       -3.9450     2.7760    -0.9530 N.4   1 <1>  -0.9590 
 11 C       -5.2530     2.3370    -1.4980 C.3   1 <1>   0.4860 
 12 C       -4.0130     4.1590    -0.4050 C.3   1 <1>   0.3430 
 13 C       -6.3500     2.5240    -0.4620 C.ar  1 <1>  -0.1430 
 14 C       -4.9180     4.1800     0.8270 C.3   1 <1>  -0.0170 
 15 C       -6.2030     3.3920     0.6160 C.ar  1 <1>  -0.1430 
 16 C       -7.5320     1.8120    -0.6100 C.ar  1 <1>  -0.1500 
 17 C       -7.2360     3.5360     1.5290 C.ar  1 <1>  -0.1500 
 18 C       -8.5590     1.9620     0.3050 C.ar  1 <1>  -0.1500 
 19 C       -8.4110     2.8240     1.3740 C.ar  1 <1>  -0.1500 
 20 H       -1.6840     0.5110     2.2210 H     1 <1>   0.0800 
 21 H       -0.9380    -0.5080     0.9790 H     1 <1>   0.0800 
 22 H       -2.6540    -0.6590     1.3350 H     1 <1>   0.0800 
 23 H        0.2530     1.5300     1.4670 H     1 <1>   0.1500 
 24 H       -0.8470     4.3880    -2.3850 H     1 <1>   0.1500 
 25 H       -2.8510     1.5670    -2.2920 H     1 <1>   0.0800 
 26 H       -2.8890     3.2670    -2.7190 H     1 <1>   0.0800 
 27 H        1.7890     3.2710     0.7520 H     1 <1>   0.1500 
 28 H        1.2470     4.7000    -1.1660 H     1 <1>   0.1500 
 29 H       -3.7220     2.1510    -0.1600 H     1 <1>   0.4500 
 30 H       -5.2020     1.2970    -1.7770 H     1 <1>   0.0800 
 31 H       -5.4980     2.9150    -2.3750 H     1 <1>   0.0800 
 32 H       -4.4100     4.8260    -1.1530 H     1 <1>   0.0800 
 33 H       -3.0290     4.5040    -0.1270 H     1 <1>   0.0800 
 34 H       -5.1520     5.2010     1.0700 H     1 <1>   0.0800 
 35 H       -4.3830     3.7620     1.6620 H     1 <1>   0.0800 
 36 H       -7.6730     1.1350    -1.4350 H     1 <1>   0.1500 
 37 H       -7.1340     4.2020     2.3690 H     1 <1>   0.1500 
 38 H       -9.4750     1.4080     0.1870 H     1 <1>   0.1500 
 39 H       -9.2100     2.9410     2.0860 H     1 <1>   0.1500 
@<TRIPOS>BOND
  1   1   2  1   
  2   1   3  1   
  3   2   4  ar  
  4   2   5  ar  
  5   3  20  1   
  6   3  21  1   
  7   3  22  1   
  8   4   6  ar  
  9   4   7  1   
 10   5   8  ar  
 11   5  23  1   
 12   6   9  ar  
 13   6  24  1   
 14   7  10  1   
 15   7  25  1   
 16   7  26  1   
 17   8   9  ar  
 18   8  27  1   
 19   9  28  1   
 20  10  11  1   
 21  10  12  1   
 22  10  29  1   
 23  11  13  1   
 24  11  30  1   
 25  11  31  1   
 26  12  14  1   
 27  12  32  1   
 28  12  33  1   
 29  13  15  ar  
 30  13  16  ar  
 31  14  15  1   
 32  14  34  1   
 33  14  35  1   
 34  15  17  ar  
 35  16  18  ar  
 36  16  36  1   
 37  17  19  ar  
 38  17  37  1   
 39  18  19  ar  
 40  18  38  1   
 41  19  39  1   
@<TRIPOS>SUBSTRUCTURE
  1 ****  10 GROUP 4 **** **** 0

# MOE 2024.06 (io_trps.svl 2023.06)
