@<TRIPOS>MOLECULE
NONAME
33 33 1 0 0 
SMALL
USER_CHARGES


@<TRIPOS>ATOM
  1 S        3.4010    -3.1070     0.4940 S.3   1 <1>  -0.4600 
  2 C        4.9110    -3.2880    -0.4750 C.3   1 <1>   0.1500 
  3 C        3.4040    -1.2660     0.5390 C.3   1 <1>   0.0700 
  4 C        5.6500    -2.0860     0.0230 C.3   1 <1>   0.4230 
  5 C        5.7770    -4.5530    -0.3090 C.3   1 <1>  -0.1600 
  6 C        4.7300    -0.8610    -0.1510 C.3   1 <1>   0.4230 
  7 N        6.0990    -2.2990     1.4530 N.4   1 <1>  -0.8530 
  8 C        7.1720    -4.3950    -1.0050 C.3   1 <1>  -0.1600 
  9 N        5.4020     0.3940     0.3300 N.4   1 <1>  -0.8530 
 10 C        8.3670    -3.7400    -0.2340 C.3   1 <1>  -0.1600 
 11 C        8.9450    -2.3710    -0.7400 C.3   1 <1>  -0.2660 
 12 C        8.3750    -1.0760    -0.1740 C.2   1 <1>   0.9060 
 13 O        8.2610    -0.9280     1.0450 O.co2 1 <1>  -0.9000 
 14 O        7.6800    -0.3400    -0.8850 O.co2 1 <1>  -0.9000 
 15 H        4.6350    -3.1640    -1.5090 H     1 <1>   0.0800 
 16 H        2.5380    -0.9220     0.0000 H     1 <1>   0.0800 
 17 H        3.3580    -0.9730     1.5740 H     1 <1>   0.0800 
 18 H        6.4750    -2.0100    -0.6440 H     1 <1>   0.0800 
 19 H        5.8940    -4.8420     0.7200 H     1 <1>   0.0800 
 20 H        5.2520    -5.3600    -0.7930 H     1 <1>   0.0800 
 21 H        4.5380    -0.7600    -1.2080 H     1 <1>   0.0800 
 22 H        5.3600    -2.2790     2.1570 H     1 <1>   0.4500 
 23 H        6.8900    -1.6380     1.6550 H     1 <1>   0.4500 
 24 H        6.5560    -3.2130     1.5110 H     1 <1>   0.4500 
 25 H        7.4910    -5.3990    -1.2370 H     1 <1>   0.0800 
 26 H        7.0560    -3.9150    -1.9630 H     1 <1>   0.0800 
 27 H        5.6030     0.4490     1.3310 H     1 <1>   0.4500 
 28 H        4.9610     1.2600     0.0080 H     1 <1>   0.4500 
 29 H        6.3670     0.3950    -0.1100 H     1 <1>   0.4500 
 30 H        9.1850    -4.4330    -0.3530 H     1 <1>   0.0800 
 31 H        8.2050    -3.7160     0.8270 H     1 <1>   0.0800 
 32 H        8.8900    -2.3250    -1.8120 H     1 <1>   0.0800 
 33 H        9.9890    -2.3460    -0.4890 H     1 <1>   0.0800 
@<TRIPOS>BOND
  1   1   2  1   
  2   1   3  1   
  3   2   4  1   
  4   2   5  1   
  5   2  15  1   
  6   3   6  1   
  7   3  16  1   
  8   3  17  1   
  9   4   6  1   
 10   4   7  1   
 11   4  18  1   
 12   5   8  1   
 13   5  19  1   
 14   5  20  1   
 15   6   9  1   
 16   6  21  1   
 17   7  22  1   
 18   7  23  1   
 19   7  24  1   
 20   8  10  1   
 21   8  25  1   
 22   8  26  1   
 23   9  27  1   
 24   9  28  1   
 25   9  29  1   
 26  10  11  1   
 27  10  30  1   
 28  10  31  1   
 29  11  12  1   
 30  11  32  1   
 31  11  33  1   
 32  12  13  ar  
 33  12  14  ar  
@<TRIPOS>SUBSTRUCTURE
  1 ****   4 GROUP 4 **** **** 0

# MOE 2024.06 (io_trps.svl 2023.06)
