@<TRIPOS>MOLECULE
NONAME
50 52 1 0 0 
SMALL
USER_CHARGES


@<TRIPOS>ATOM
  1 F        1.7100     1.2010    -1.1560 F     1 <1>  -0.1900 
  2 C        0.9400     2.0760    -0.5620 C.ar  1 <1>   0.1900 
  3 C        1.3670     2.6510     0.6270 C.ar  1 <1>  -0.1440 
  4 C       -0.2650     2.3970    -1.1570 C.ar  1 <1>  -0.1500 
  5 C        0.5360     3.5840     1.2310 C.ar  1 <1>  -0.1500 
  6 C        2.7030     2.2730     1.2480 C.3   1 <1>  -0.0160 
  7 C       -1.0790     3.3320    -0.5410 C.ar  1 <1>  -0.1500 
  8 C       -0.6760     3.9210     0.6470 C.ar  1 <1>  -0.1500 
  9 C        3.8320     2.7880     0.3530 C.3   1 <1>   0.3430 
 10 N        5.1630     2.3150     0.8430 N.4   1 <1>  -0.9060 
 11 C        6.2940     2.6700    -0.0520 C.3   1 <1>   0.4230 
 12 C        7.5340     1.8910     0.3870 C.3   1 <1>  -0.1600 
 13 C        6.5690     4.1780    -0.0100 C.3   1 <1>  -0.1600 
 14 C        8.7510     2.2660    -0.4600 C.3   1 <1>   0.3430 
 15 C        7.7960     4.5410    -0.8500 C.3   1 <1>   0.3430 
 16 N        8.9720     3.7430    -0.4060 N.4   1 <1>  -0.9590 
 17 C       10.2000     4.1240    -1.1740 C.3   1 <1>   0.4860 
 18 C       11.3920     3.4790    -0.4980 C.ar  1 <1>  -0.1430 
 19 C       11.8660     3.9760     0.7090 C.ar  1 <1>  -0.1500 
 20 C       12.0130     2.3800    -1.0760 C.ar  1 <1>  -0.1500 
 21 C       12.9370     3.3670     1.3390 C.ar  1 <1>  -0.1500 
 22 C       13.0830     1.7730    -0.4440 C.ar  1 <1>  -0.1500 
 23 C       13.5430     2.2640     0.7650 C.ar  1 <1>  -0.1500 
 24 H       -0.5600     1.9260    -2.0780 H     1 <1>   0.1500 
 25 H        0.8130     4.0570     2.1580 H     1 <1>   0.1500 
 26 H        2.7470     1.2010     1.3320 H     1 <1>   0.0800 
 27 H        2.7820     2.7000     2.2320 H     1 <1>   0.0800 
 28 H       -2.0240     3.6000    -0.9840 H     1 <1>   0.1500 
 29 H       -1.3160     4.6460     1.1230 H     1 <1>   0.1500 
 30 H        3.7970     3.8650     0.3330 H     1 <1>   0.0800 
 31 H        3.6680     2.4310    -0.6510 H     1 <1>   0.0800 
 32 H        5.1110     1.2900     0.9280 H     1 <1>   0.4500 
 33 H        5.3240     2.6730     1.7930 H     1 <1>   0.4500 
 34 H        6.0470     2.3840    -1.0640 H     1 <1>   0.0800 
 35 H        7.3610     0.8350     0.2720 H     1 <1>   0.0800 
 36 H        7.7620     2.0820     1.4220 H     1 <1>   0.0800 
 37 H        6.7320     4.5070     1.0020 H     1 <1>   0.0800 
 38 H        5.7290     4.7190    -0.4070 H     1 <1>   0.0800 
 39 H        8.5990     1.9560    -1.4820 H     1 <1>   0.0800 
 40 H        9.6220     1.7490    -0.0820 H     1 <1>   0.0800 
 41 H        8.0060     5.5950    -0.7460 H     1 <1>   0.0800 
 42 H        7.5950     4.3440    -1.8920 H     1 <1>   0.0800 
 43 H        9.2090     3.9840     0.5670 H     1 <1>   0.4500 
 44 H       10.3300     5.1940    -1.1700 H     1 <1>   0.0800 
 45 H       10.1290     3.7910    -2.1970 H     1 <1>   0.0800 
 46 H       11.4240     4.8410     1.1730 H     1 <1>   0.1500 
 47 H       11.6820     1.9830    -2.0210 H     1 <1>   0.1500 
 48 H       13.3070     3.7500     2.2750 H     1 <1>   0.1500 
 49 H       13.5670     0.9200    -0.8910 H     1 <1>   0.1500 
 50 H       14.3780     1.7920     1.2550 H     1 <1>   0.1500 
@<TRIPOS>BOND
  1   1   2  1   
  2   2   3  ar  
  3   2   4  ar  
  4   3   5  ar  
  5   3   6  1   
  6   4   7  ar  
  7   4  24  1   
  8   5   8  ar  
  9   5  25  1   
 10   6   9  1   
 11   6  26  1   
 12   6  27  1   
 13   7   8  ar  
 14   7  28  1   
 15   8  29  1   
 16   9  10  1   
 17   9  30  1   
 18   9  31  1   
 19  10  11  1   
 20  10  32  1   
 21  10  33  1   
 22  11  12  1   
 23  11  13  1   
 24  11  34  1   
 25  12  14  1   
 26  12  35  1   
 27  12  36  1   
 28  13  15  1   
 29  13  37  1   
 30  13  38  1   
 31  14  16  1   
 32  14  39  1   
 33  14  40  1   
 34  15  16  1   
 35  15  41  1   
 36  15  42  1   
 37  16  17  1   
 38  16  43  1   
 39  17  18  1   
 40  17  44  1   
 41  17  45  1   
 42  18  19  ar  
 43  18  20  ar  
 44  19  21  ar  
 45  19  46  1   
 46  20  22  ar  
 47  20  47  1   
 48  21  23  ar  
 49  21  48  1   
 50  22  23  ar  
 51  22  49  1   
 52  23  50  1   
@<TRIPOS>SUBSTRUCTURE
  1 ****  11 GROUP 4 **** **** 0

# MOE 2024.06 (io_trps.svl 2023.06)
