@<TRIPOS>MOLECULE
NONAME
35 36 1 0 0 
SMALL
USER_CHARGES


@<TRIPOS>ATOM
  1 F       -6.3150    -2.5680    -1.8660 F     1 <1>  -0.1900 
  2 C       -5.1350    -2.7960    -1.3650 C.ar  1 <1>   0.1900 
  3 C       -4.0750    -2.0020    -1.7550 C.ar  1 <1>  -0.1500 
  4 C       -4.9800    -3.8280    -0.4590 C.ar  1 <1>  -0.1500 
  5 C       -2.8260    -2.2520    -1.2150 C.ar  1 <1>  -0.1500 
  6 C       -3.7230    -4.0650     0.0710 C.ar  1 <1>  -0.1500 
  7 C       -2.6190    -3.2810    -0.2890 C.ar  1 <1>   0.0860 
  8 C       -1.2970    -3.5150     0.2680 C.2   1 <1>   0.5440 
  9 O       -0.2930    -3.2250    -0.3540 O.2   1 <1>  -0.5700 
 10 N       -1.1320    -4.0790     1.5050 N.am  1 <1>  -0.7300 
 11 C        0.1310    -4.0920     2.3080 C.3   1 <1>   0.1400 
 12 C        1.0930    -5.2260     1.8920 C.3   1 <1>   0.3430 
 13 N        1.5800    -5.0410     0.4960 N.4   1 <1>  -0.9590 
 14 C        1.9420    -6.2810    -0.2210 C.3   1 <1>   0.3430 
 15 C        2.7150    -4.1070     0.3450 C.3   1 <1>   0.3430 
 16 C        2.7770    -5.8050    -1.4030 C.3   1 <1>  -0.1600 
 17 C        3.2300    -4.3820    -1.0600 C.3   1 <1>  -0.1600 
 18 H       -4.2300    -1.2090    -2.4650 H     1 <1>   0.1500 
 19 H       -5.8290    -4.4280    -0.1840 H     1 <1>   0.1500 
 20 H       -1.9910    -1.6390    -1.5140 H     1 <1>   0.1500 
 21 H       -3.6040    -4.8770     0.7660 H     1 <1>   0.1500 
 22 H       -1.9830    -4.2190     2.0580 H     1 <1>   0.3700 
 23 H       -0.1240    -4.2190     3.3460 H     1 <1>   0.0800 
 24 H        0.6270    -3.1410     2.2100 H     1 <1>   0.0800 
 25 H        0.5650    -6.1610     1.9730 H     1 <1>   0.0800 
 26 H        1.9320    -5.2580     2.5670 H     1 <1>   0.0800 
 27 H        0.7980    -4.5850    -0.0240 H     1 <1>   0.4500 
 28 H        1.0670    -6.8220    -0.5440 H     1 <1>   0.0800 
 29 H        2.5430    -6.9100     0.4160 H     1 <1>   0.0800 
 30 H        3.4820    -4.3370     1.0670 H     1 <1>   0.0800 
 31 H        2.4000    -3.0810     0.4570 H     1 <1>   0.0800 
 32 H        2.1770    -5.8020    -2.2960 H     1 <1>   0.0800 
 33 H        3.6150    -6.4630    -1.5560 H     1 <1>   0.0800 
 34 H        4.3000    -4.2750    -1.1020 H     1 <1>   0.0800 
 35 H        2.7870    -3.6770    -1.7430 H     1 <1>   0.0800 
@<TRIPOS>BOND
  1   1   2  1   
  2   2   3  ar  
  3   2   4  ar  
  4   3   5  ar  
  5   3  18  1   
  6   4   6  ar  
  7   4  19  1   
  8   5   7  ar  
  9   5  20  1   
 10   6   7  ar  
 11   6  21  1   
 12   7   8  1   
 13   8   9  2   
 14   8  10  am  
 15  10  11  1   
 16  10  22  1   
 17  11  12  1   
 18  11  23  1   
 19  11  24  1   
 20  12  13  1   
 21  12  25  1   
 22  12  26  1   
 23  13  14  1   
 24  13  15  1   
 25  13  27  1   
 26  14  16  1   
 27  14  28  1   
 28  14  29  1   
 29  15  17  1   
 30  15  30  1   
 31  15  31  1   
 32  16  17  1   
 33  16  32  1   
 34  16  33  1   
 35  17  34  1   
 36  17  35  1   
@<TRIPOS>SUBSTRUCTURE
  1 ****   8 GROUP 4 **** **** 0

# MOE 2024.06 (io_trps.svl 2023.06)
