@<TRIPOS>MOLECULE
NONAME
45 48 1 0 0 
SMALL
USER_CHARGES


@<TRIPOS>ATOM
  1 N       -0.0870     0.2730    -0.0630 N.pl3 1 <1>  -0.8380 
  2 C       -1.3800     0.7380    -0.2750 C.ar  1 <1>   0.1000 
  3 C        0.1490    -1.1700    -0.3470 C.3   1 <1>   0.2090 
  4 C        0.6130     0.7980     1.1430 C.3   1 <1>   0.2090 
  5 C       -2.4330     0.3670     0.5550 C.ar  1 <1>  -0.1500 
  6 C       -1.6350     1.5920    -1.3390 C.ar  1 <1>  -0.1500 
  7 C        1.6610    -1.4750    -0.3950 C.3   1 <1>   0.3430 
  8 C        2.1200     0.4750     1.0790 C.3   1 <1>   0.3430 
  9 C       -3.7110     0.8420     0.3260 C.ar  1 <1>  -0.1500 
 10 C       -2.9120     2.0680    -1.5720 C.ar  1 <1>  -0.1500 
 11 N        2.3930    -0.9930     0.8400 N.4   1 <1>  -0.9590 
 12 C       -3.9530     1.6930    -0.7390 C.ar  1 <1>  -0.1500 
 13 C        3.8530    -1.3420     0.8110 C.3   1 <1>   0.3430 
 14 C        4.6770    -0.5810    -0.2510 C.3   1 <1>  -0.0800 
 15 C        6.0720    -1.4060    -0.5590 C.3   1 <1>   0.0580 
 16 C        5.1330     0.9860     0.2090 C.3   1 <1>  -0.1600 
 17 C        7.6790    -1.2180    -0.4490 C.2   1 <1>  -0.2880 
 18 C        6.3860    -0.1570    -0.2290 C.3   1 <1>  -0.1600 
 19 C        6.7770     1.0600     0.1340 C.3   1 <1>   0.0580 
 20 C        8.0490     0.0780    -0.0840 C.2   1 <1>  -0.2880 
 21 H       -0.2970    -1.4200    -1.2960 H     1 <1>   0.0800 
 22 H       -0.3260    -1.7720     0.4080 H     1 <1>   0.0800 
 23 H        0.1800     0.3700     2.0300 H     1 <1>   0.0800 
 24 H        0.4770     1.8660     1.1920 H     1 <1>   0.0800 
 25 H       -2.2530    -0.2930     1.3820 H     1 <1>   0.1500 
 26 H       -0.8260     1.8810    -1.9830 H     1 <1>   0.1500 
 27 H        2.0640    -0.9890    -1.2670 H     1 <1>   0.0800 
 28 H        1.8000    -2.5360    -0.5150 H     1 <1>   0.0800 
 29 H        2.5860     0.7920     1.9970 H     1 <1>   0.0800 
 30 H        2.5430     1.0540     0.2760 H     1 <1>   0.0800 
 31 H       -4.5210     0.5510     0.9720 H     1 <1>   0.1500 
 32 H       -3.0990     2.7300    -2.4000 H     1 <1>   0.1500 
 33 H        1.9750    -1.4950     1.6330 H     1 <1>   0.4500 
 34 H       -4.9470     2.0640    -0.9190 H     1 <1>   0.1500 
 35 H        3.9500    -2.3980     0.6170 H     1 <1>   0.0800 
 36 H        4.2900    -1.1560     1.7790 H     1 <1>   0.0800 
 37 H        4.1120    -0.5340    -1.1690 H     1 <1>   0.0800 
 38 H        5.9580    -1.6950    -1.5960 H     1 <1>   0.0800 
 39 H        4.8190     1.2140     1.2160 H     1 <1>   0.0800 
 40 H        4.6940     1.7210    -0.4490 H     1 <1>   0.0800 
 41 H        8.3160    -2.0640    -0.6580 H     1 <1>   0.1500 
 42 H        6.3440     0.1740    -1.3530 H     1 <1>   0.0800 
 43 H        6.3710    -0.4840     0.9420 H     1 <1>   0.0800 
 44 H        6.9560     1.8300    -0.6040 H     1 <1>   0.0800 
 45 H        9.0400     0.4790     0.0590 H     1 <1>   0.1500 
@<TRIPOS>BOND
  1   1   2  1   
  2   1   3  1   
  3   1   4  1   
  4   2   5  ar  
  5   2   6  ar  
  6   3   7  1   
  7   3  21  1   
  8   3  22  1   
  9   4   8  1   
 10   4  23  1   
 11   4  24  1   
 12   5   9  ar  
 13   5  25  1   
 14   6  10  ar  
 15   6  26  1   
 16   7  11  1   
 17   7  27  1   
 18   7  28  1   
 19   8  11  1   
 20   8  29  1   
 21   8  30  1   
 22   9  12  ar  
 23   9  31  1   
 24  10  12  ar  
 25  10  32  1   
 26  11  13  1   
 27  11  33  1   
 28  12  34  1   
 29  13  14  1   
 30  13  35  1   
 31  13  36  1   
 32  14  15  1   
 33  14  16  1   
 34  14  37  1   
 35  15  17  1   
 36  15  18  1   
 37  15  38  1   
 38  16  19  1   
 39  16  39  1   
 40  16  40  1   
 41  17  20  2   
 42  17  41  1   
 43  18  19  1   
 44  18  42  1   
 45  18  43  1   
 46  19  20  1   
 47  19  44  1   
 48  20  45  1   
@<TRIPOS>SUBSTRUCTURE
  1 ****   8 GROUP 4 **** **** 0

# MOE 2024.06 (io_trps.svl 2023.06)
