@<TRIPOS>MOLECULE
NONAME
37 38 1 0 0 
SMALL
USER_CHARGES


@<TRIPOS>ATOM
  1 O       -0.2350     0.8250    -0.6380 O.2   1 <1>  -0.5700 
  2 C        0.0450     1.9400    -0.2450 C.2   1 <1>   0.6900 
  3 N        1.3230     2.2340     0.1580 N.am  1 <1>  -0.6600 
  4 N       -0.9730     2.8390    -0.2960 N.am  1 <1>  -0.4900 
  5 C        1.9100     3.6030     0.1410 C.3   1 <1>   0.1400 
  6 C        2.2540     1.1640     0.6070 C.3   1 <1>   0.1400 
  7 C       -1.3660     3.8400     0.5560 C.2   1 <1>   0.5440 
  8 C        3.1820     3.6200    -0.7160 C.3   1 <1>  -0.1600 
  9 C        3.5150     1.1660    -0.2640 C.3   1 <1>  -0.1600 
 10 O       -0.6460     4.1890     1.4690 O.2   1 <1>  -0.5700 
 11 C       -2.6500     4.4800     0.3510 C.ar  1 <1>   0.0860 
 12 C        4.1850     2.5460    -0.2760 C.3   1 <1>  -0.1600 
 13 C       -2.8250     5.8330     0.6480 C.ar  1 <1>  -0.1500 
 14 C       -3.7590     3.7880    -0.1460 C.ar  1 <1>  -0.1500 
 15 C       -4.0350     6.4680     0.4420 C.ar  1 <1>  -0.1500 
 16 C       -4.9730     4.4170    -0.3550 C.ar  1 <1>  -0.1500 
 17 C       -5.1190     5.7700    -0.0640 C.ar  1 <1>   0.0820 
 18 O       -6.2660     6.4610    -0.2410 O.3   1 <1>  -0.3620 
 19 C       -7.4400     5.8490    -0.7290 C.3   1 <1>   0.0400 
 20 H       -1.6810     2.5100    -0.9380 H     1 <1>   0.3700 
 21 H        2.1370     3.8960     1.1510 H     1 <1>   0.0800 
 22 H        1.2100     4.3100    -0.2640 H     1 <1>   0.0800 
 23 H        1.7780     0.2000     0.5530 H     1 <1>   0.0800 
 24 H        2.5190     1.3460     1.6340 H     1 <1>   0.0800 
 25 H        3.6390     4.5910    -0.6500 H     1 <1>   0.0800 
 26 H        2.9070     3.4570    -1.7430 H     1 <1>   0.0800 
 27 H        3.2420     0.8820    -1.2650 H     1 <1>   0.0800 
 28 H        4.2040     0.4300     0.1100 H     1 <1>   0.0800 
 29 H        4.5460     2.7770     0.7120 H     1 <1>   0.0800 
 30 H        5.0270     2.5360    -0.9460 H     1 <1>   0.0800 
 31 H       -1.9950     6.3910     1.0470 H     1 <1>   0.1500 
 32 H       -3.6820     2.7370    -0.3640 H     1 <1>   0.1500 
 33 H       -4.1510     7.5120     0.6740 H     1 <1>   0.1500 
 34 H       -5.7960     3.8440    -0.7400 H     1 <1>   0.1500 
 35 H       -8.2110     6.5970    -0.7750 H     1 <1>   0.0800 
 36 H       -7.7320     5.0650    -0.0530 H     1 <1>   0.0800 
 37 H       -7.2480     5.4600    -1.7130 H     1 <1>   0.0800 
@<TRIPOS>BOND
  1   1   2  2   
  2   2   3  am  
  3   2   4  am  
  4   3   5  1   
  5   3   6  1   
  6   4   7  am  
  7   4  20  1   
  8   5   8  1   
  9   5  21  1   
 10   5  22  1   
 11   6   9  1   
 12   6  23  1   
 13   6  24  1   
 14   7  10  2   
 15   7  11  1   
 16   8  12  1   
 17   8  25  1   
 18   8  26  1   
 19   9  12  1   
 20   9  27  1   
 21   9  28  1   
 22  11  13  ar  
 23  11  14  ar  
 24  12  29  1   
 25  12  30  1   
 26  13  15  ar  
 27  13  31  1   
 28  14  16  ar  
 29  14  32  1   
 30  15  17  ar  
 31  15  33  1   
 32  16  17  ar  
 33  16  34  1   
 34  17  18  1   
 35  18  19  1   
 36  19  35  1   
 37  19  36  1   
 38  19  37  1   
@<TRIPOS>SUBSTRUCTURE
  1 ****   7 GROUP 4 **** **** 0

# MOE 2024.06 (io_trps.svl 2023.06)
