@<TRIPOS>MOLECULE
NONAME
44 45 1 0 0 
SMALL
USER_CHARGES


@<TRIPOS>ATOM
  1 O       -3.9540     3.0240    -1.4040 O.3   1 <1>  -0.6840 
  2 C       -5.1770     3.0590    -0.7290 C.3   1 <1>   0.1920 
  3 C       -5.6120     4.5450    -0.5430 C.3   1 <1>  -0.0090 
  4 C       -5.0630     2.2490     0.5870 C.3   1 <1>   0.3470 
  5 C       -4.6500     5.3260     0.3710 C.3   1 <1>  -0.2480 
  6 C       -7.0250     4.6210     0.0660 C.3   1 <1>  -0.2480 
  7 C       -5.6660     5.2580    -1.9090 C.3   1 <1>  -0.2480 
  8 N       -4.8470     0.7860     0.3690 N.pl3 1 <1>  -0.7680 
  9 C       -3.7230     0.1710     0.0060 C.cat 1 <1>   1.0690 
 10 C       -5.7760    -0.2020     0.6700 C.ar  1 <1>   0.3020 
 11 N       -2.6500     0.8010    -0.4000 N.pl3 1 <1>  -0.8400 
 12 N       -3.8420    -1.1490     0.0940 N.pl3 1 <1>  -0.7680 
 13 C       -5.1420    -1.4200     0.4970 C.ar  1 <1>   0.3020 
 14 C       -7.1060    -0.1470     1.0760 C.ar  1 <1>  -0.1180 
 15 C       -2.8410    -2.1850    -0.1970 C.3   1 <1>   0.4860 
 16 C       -5.8210    -2.6130     0.7200 C.ar  1 <1>  -0.1180 
 17 C       -7.7800    -1.3320     1.3030 C.ar  1 <1>  -0.1580 
 18 C       -3.1870    -2.8190    -1.5280 C.2   1 <1>  -0.2950 
 19 C       -7.1410    -2.5590     1.1260 C.ar  1 <1>  -0.1580 
 20 C       -3.4400    -4.1170    -1.7320 C.2   1 <1>  -0.3070 
 21 H       -3.9980     3.6720    -2.1420 H     1 <1>   0.3940 
 22 H       -5.9020     2.5760    -1.3620 H     1 <1>   0.0710 
 23 H       -5.9610     2.3750     1.1620 H     1 <1>   0.0710 
 24 H       -4.2540     2.6430     1.1770 H     1 <1>   0.0710 
 25 H       -4.6440     4.9300     1.3700 H     1 <1>   0.0710 
 26 H       -4.9500     6.3580     0.4330 H     1 <1>   0.0710 
 27 H       -3.6450     5.2990    -0.0130 H     1 <1>   0.0710 
 28 H       -7.0470     4.2560     1.0760 H     1 <1>   0.0710 
 29 H       -7.7250     4.0540    -0.5230 H     1 <1>   0.0710 
 30 H       -7.3660     5.6420     0.0910 H     1 <1>   0.0710 
 31 H       -4.6890     5.3520    -2.3470 H     1 <1>   0.0710 
 32 H       -6.0630     6.2530    -1.7990 H     1 <1>   0.0710 
 33 H       -6.3020     4.7230    -2.5930 H     1 <1>   0.0710 
 34 H       -1.8120     0.3490    -0.7440 H     1 <1>   0.4440 
 35 H       -2.7690     1.7860    -0.6760 H     1 <1>   0.4440 
 36 H       -7.6020     0.7960     1.2080 H     1 <1>   0.1420 
 37 H       -2.8520    -2.9270     0.5840 H     1 <1>   0.0710 
 38 H       -1.8540    -1.7580    -0.2400 H     1 <1>   0.0710 
 39 H       -5.3280    -3.5570     0.5760 H     1 <1>   0.1420 
 40 H       -8.8110    -1.3160     1.6180 H     1 <1>   0.1420 
 41 H       -3.2130    -2.1030    -2.3310 H     1 <1>   0.1420 
 42 H       -7.6890    -3.4710     1.3060 H     1 <1>   0.1420 
 43 H       -3.6840    -4.5330    -2.6960 H     1 <1>   0.1420 
 44 H       -3.4260    -4.8780    -0.9690 H     1 <1>   0.1420 
@<TRIPOS>BOND
  1   1   2  1   
  2   1  21  1   
  3   2   3  1   
  4   2   4  1   
  5   2  22  1   
  6   3   5  1   
  7   3   6  1   
  8   3   7  1   
  9   4   8  1   
 10   4  23  1   
 11   4  24  1   
 12   5  25  1   
 13   5  26  1   
 14   5  27  1   
 15   6  28  1   
 16   6  29  1   
 17   6  30  1   
 18   7  31  1   
 19   7  32  1   
 20   7  33  1   
 21   8   9  ar  
 22   8  10  1   
 23   9  11  ar  
 24   9  12  ar  
 25  10  13  ar  
 26  10  14  ar  
 27  11  34  1   
 28  11  35  1   
 29  12  13  1   
 30  12  15  1   
 31  13  16  ar  
 32  14  17  ar  
 33  14  36  1   
 34  15  18  1   
 35  15  37  1   
 36  15  38  1   
 37  16  19  ar  
 38  16  39  1   
 39  17  19  ar  
 40  17  40  1   
 41  18  20  2   
 42  18  41  1   
 43  19  42  1   
 44  20  43  1   
 45  20  44  1   
@<TRIPOS>SUBSTRUCTURE
  1 ****   8 GROUP 4 **** **** 0

# MOE 2024.06 (io_trps.svl 2023.06)
