@<TRIPOS>MOLECULE
Structure903
16 16 1 0 0 
SMALL
USER_CHARGES


@<TRIPOS>ATOM
  1 CL      -0.3860     0.4820    -1.6160 Cl    1 <1>  -0.1770 
  2 C       -1.6750     1.0850    -0.6170 C.ar  1 <1>   0.4870 
  3 N       -1.4670     2.2200     0.0060 N.ar  1 <1>  -0.6200 
  4 C       -2.8350     0.3590    -0.5230 C.ar  1 <1>  -0.1500 
  5 C       -2.4880     2.6160     0.7440 C.ar  1 <1>   0.4700 
  6 C       -3.8230     0.8760     0.2770 C.ar  1 <1>   0.1660 
  7 N       -3.6540     2.0130     0.9190 N.ar  1 <1>  -0.6200 
  8 C       -5.1500     0.1540     0.4500 C.3   1 <1>  -0.0160 
  9 C       -6.2400     0.7650    -0.4390 C.3   1 <1>  -0.2400 
 10 H       -2.9490    -0.5630    -1.0570 H     1 <1>   0.1500 
 11 H       -2.3560     3.5460     1.2710 H     1 <1>   0.1500 
 12 H       -5.4500     0.2190     1.4820 H     1 <1>   0.0800 
 13 H       -5.0330    -0.8870     0.2080 H     1 <1>   0.0800 
 14 H       -6.3820     1.8020    -0.1860 H     1 <1>   0.0800 
 15 H       -7.1700     0.2450    -0.2960 H     1 <1>   0.0800 
 16 H       -5.9590     0.6990    -1.4750 H     1 <1>   0.0800 
@<TRIPOS>BOND
  1   1   2  1   
  2   2   3  ar  
  3   2   4  ar  
  4   3   5  ar  
  5   4   6  ar  
  6   4  10  1   
  7   5   7  ar  
  8   5  11  1   
  9   6   7  ar  
 10   6   8  1   
 11   8   9  1   
 12   8  12  1   
 13   8  13  1   
 14   9  14  1   
 15   9  15  1   
 16   9  16  1   
@<TRIPOS>SUBSTRUCTURE
  1 ****   6 GROUP 4 **** **** 0

# MOE 2024.06 (io_trps.svl 2023.06)
