@<TRIPOS>MOLECULE
NONAME
48 49 1 0 0 
SMALL
USER_CHARGES


@<TRIPOS>ATOM
  1 O       -0.8300    -0.1850    -1.1460 O.2   1 <1>  -0.5700 
  2 C       -1.0670    -1.1940    -0.5070 C.2   1 <1>   0.7150 
  3 N       -0.0230    -2.0050    -0.1570 N.am  1 <1>  -0.7300 
  4 C       -2.4130    -1.5520    -0.1140 C.2   1 <1>   0.0550 
  5 C        1.3900    -1.7800    -0.4790 C.3   1 <1>   0.2200 
  6 O       -3.4520    -0.7860    -0.4380 O.3   1 <1>  -0.2800 
  7 C       -2.8830    -2.6210     0.5920 C.2   1 <1>  -0.1500 
  8 C        1.8810    -2.9570    -1.3140 C.3   1 <1>  -0.2400 
  9 C        2.1640    -1.6660     0.8300 C.3   1 <1>  -0.2400 
 10 C       -4.5540    -1.3250     0.0320 C.2   1 <1>  -0.0400 
 11 C       -4.2670    -2.4710     0.6850 C.2   1 <1>  -0.1500 
 12 C       -5.8710    -0.6160    -0.2210 C.3   1 <1>   0.3000 
 13 O       -6.9280    -1.3510     0.3610 O.3   1 <1>  -0.3630 
 14 C       -8.2100    -0.9200     0.2710 C.ar  1 <1>   0.0830 
 15 C       -9.1770    -1.7040     0.8720 C.ar  1 <1>  -0.1500 
 16 C       -8.5970     0.2460    -0.3800 C.ar  1 <1>  -0.1500 
 17 C      -10.5110    -1.3390     0.8280 C.ar  1 <1>  -0.1500 
 18 C       -9.9330     0.6050    -0.4200 C.ar  1 <1>  -0.1500 
 19 C      -10.9170    -0.1750     0.1800 C.ar  1 <1>  -0.1430 
 20 C      -12.3940     0.2750     0.1050 C.3   1 <1>   0.1430 
 21 C      -13.3590    -0.6900     0.8150 C.3   1 <1>  -0.2400 
 22 C      -12.5460     1.6520     0.7680 C.3   1 <1>  -0.2400 
 23 C      -12.8290     0.3660    -1.3660 C.3   1 <1>  -0.2400 
 24 H       -0.2170    -2.8480     0.3770 H     1 <1>   0.3700 
 25 H        1.5020    -0.8670    -1.0430 H     1 <1>   0.0800 
 26 H       -2.3280    -3.4400     1.0120 H     1 <1>   0.1500 
 27 H        1.7890    -3.8800    -0.7700 H     1 <1>   0.0800 
 28 H        2.9150    -2.8140    -1.5720 H     1 <1>   0.0800 
 29 H        1.3140    -3.0200    -2.2250 H     1 <1>   0.0800 
 30 H        2.0760    -2.5680     1.4090 H     1 <1>   0.0800 
 31 H        1.7930    -0.8350     1.4020 H     1 <1>   0.0800 
 32 H        3.2040    -1.4920     0.6230 H     1 <1>   0.0800 
 33 H       -4.9490    -3.1410     1.1780 H     1 <1>   0.1500 
 34 H       -6.0490    -0.5420    -1.2790 H     1 <1>   0.0800 
 35 H       -5.8510     0.3630     0.2230 H     1 <1>   0.0800 
 36 H       -8.8800    -2.6060     1.3760 H     1 <1>   0.1500 
 37 H       -7.8830     0.8860    -0.8610 H     1 <1>   0.1500 
 38 H      -11.2160    -1.9870     1.3130 H     1 <1>   0.1500 
 39 H      -10.2000     1.5120    -0.9310 H     1 <1>   0.1500 
 40 H      -13.1140    -0.7690     1.8590 H     1 <1>   0.0800 
 41 H      -13.3110    -1.6670     0.3680 H     1 <1>   0.0800 
 42 H      -14.3720    -0.3380     0.7370 H     1 <1>   0.0800 
 43 H      -12.2110     1.6070     1.7890 H     1 <1>   0.0800 
 44 H      -13.5740     1.9670     0.7580 H     1 <1>   0.0800 
 45 H      -11.9650     2.3970     0.2560 H     1 <1>   0.0800 
 46 H      -12.6930    -0.5860    -1.8480 H     1 <1>   0.0800 
 47 H      -12.2500     1.0980    -1.8980 H     1 <1>   0.0800 
 48 H      -13.8650     0.6420    -1.4390 H     1 <1>   0.0800 
@<TRIPOS>BOND
  1   1   2  2   
  2   2   3  am  
  3   2   4  1   
  4   3   5  1   
  5   3  24  1   
  6   4   6  1   
  7   4   7  2   
  8   5   8  1   
  9   5   9  1   
 10   5  25  1   
 11   6  10  1   
 12   7  11  1   
 13   7  26  1   
 14   8  27  1   
 15   8  28  1   
 16   8  29  1   
 17   9  30  1   
 18   9  31  1   
 19   9  32  1   
 20  10  11  2   
 21  10  12  1   
 22  11  33  1   
 23  12  13  1   
 24  12  34  1   
 25  12  35  1   
 26  13  14  1   
 27  14  15  ar  
 28  14  16  ar  
 29  15  17  ar  
 30  15  36  1   
 31  16  18  ar  
 32  16  37  1   
 33  17  19  ar  
 34  17  38  1   
 35  18  19  ar  
 36  18  39  1   
 37  19  20  1   
 38  20  21  1   
 39  20  22  1   
 40  20  23  1   
 41  21  40  1   
 42  21  41  1   
 43  21  42  1   
 44  22  43  1   
 45  22  44  1   
 46  22  45  1   
 47  23  46  1   
 48  23  47  1   
 49  23  48  1   
@<TRIPOS>SUBSTRUCTURE
  1 ****  12 GROUP 4 **** **** 0

# MOE 2024.06 (io_trps.svl 2023.06)
