@<TRIPOS>MOLECULE
22293
38 39 1 0 0 
SMALL
USER_CHARGES


@<TRIPOS>ATOM
  1 O        0.4130    -1.1190    -2.0620 O.2   1 <1>  -0.5700 
  2 C       -0.0730    -1.7850    -1.1760 C.2   1 <1>   0.5690 
  3 N        0.6440    -2.0990    -0.0450 N.am  1 <1>  -0.6600 
  4 C       -1.4980    -2.2920    -1.3950 C.3   1 <1>   0.1810 
  5 C        0.1420    -2.9270     1.0950 C.3   1 <1>   0.1400 
  6 C        2.0140    -1.5510     0.1900 C.3   1 <1>   0.1400 
  7 O       -2.3620    -1.9120    -0.3330 O.3   1 <1>  -0.3620 
  8 C        1.2060    -3.9420     1.5470 C.3   1 <1>   0.1200 
  9 C        2.9650    -2.6510     0.6880 C.3   1 <1>   0.1200 
 10 C       -3.6410    -2.3660    -0.2790 C.ar  1 <1>   0.0820 
 11 O        2.4260    -3.3070     1.8010 O.3   1 <1>  -0.5600 
 12 C       -4.2440    -3.1080    -1.2910 C.ar  1 <1>  -0.1500 
 13 C       -4.3610    -2.0590     0.8640 C.ar  1 <1>  -0.1500 
 14 C       -5.5510    -3.5380    -1.1430 C.ar  1 <1>  -0.1500 
 15 C       -5.6680    -2.4900     1.0120 C.ar  1 <1>  -0.1500 
 16 C       -6.2710    -3.2370     0.0030 C.ar  1 <1>   0.0820 
 17 O       -7.5450    -3.7020     0.0610 O.3   1 <1>  -0.3630 
 18 C       -8.3700    -3.4300     1.1700 C.3   1 <1>   0.1200 
 19 C       -9.7280    -4.0790     0.9180 C.3   1 <1>  -0.2400 
 20 H       -1.4850    -3.3630    -1.4610 H     1 <1>   0.0800 
 21 H       -1.8870    -1.8740    -2.3060 H     1 <1>   0.0800 
 22 H       -0.7490    -3.4620     0.8220 H     1 <1>   0.0800 
 23 H       -0.1010    -2.2790     1.9190 H     1 <1>   0.0800 
 24 H        1.9590    -0.7700     0.9270 H     1 <1>   0.0800 
 25 H        2.4110    -1.1240    -0.7140 H     1 <1>   0.0800 
 26 H        1.3590    -4.6920     0.7900 H     1 <1>   0.0800 
 27 H        0.8930    -4.4270     2.4540 H     1 <1>   0.0800 
 28 H        3.9060    -2.2210     0.9830 H     1 <1>   0.0800 
 29 H        3.1450    -3.3750    -0.0880 H     1 <1>   0.0800 
 30 H       -3.7240    -3.3570    -2.1960 H     1 <1>   0.1500 
 31 H       -3.8900    -1.4800     1.6380 H     1 <1>   0.1500 
 32 H       -6.0270    -4.1120    -1.9180 H     1 <1>   0.1500 
 33 H       -6.1960    -2.2350     1.9110 H     1 <1>   0.1500 
 34 H       -8.4720    -2.3630     1.2660 H     1 <1>   0.0800 
 35 H       -7.9090    -3.8450     2.0490 H     1 <1>   0.0800 
 36 H      -10.1720    -3.6710     0.0280 H     1 <1>   0.0800 
 37 H      -10.3820    -3.8890     1.7480 H     1 <1>   0.0800 
 38 H       -9.6130    -5.1430     0.8060 H     1 <1>   0.0800 
@<TRIPOS>BOND
  1   1   2  2   
  2   2   3  am  
  3   2   4  1   
  4   3   5  1   
  5   3   6  1   
  6   4   7  1   
  7   4  20  1   
  8   4  21  1   
  9   5   8  1   
 10   5  22  1   
 11   5  23  1   
 12   6   9  1   
 13   6  24  1   
 14   6  25  1   
 15   7  10  1   
 16   8  11  1   
 17   8  26  1   
 18   8  27  1   
 19   9  11  1   
 20   9  28  1   
 21   9  29  1   
 22  10  12  ar  
 23  10  13  ar  
 24  12  14  ar  
 25  12  30  1   
 26  13  15  ar  
 27  13  31  1   
 28  14  16  ar  
 29  14  32  1   
 30  15  16  ar  
 31  15  33  1   
 32  16  17  1   
 33  17  18  1   
 34  18  19  1   
 35  18  34  1   
 36  18  35  1   
 37  19  36  1   
 38  19  37  1   
 39  19  38  1   
@<TRIPOS>SUBSTRUCTURE
  1 ****   7 GROUP 4 **** **** 0

# MOE 2024.06 (io_trps.svl 2023.06)
