@<TRIPOS>MOLECULE
NONAME
44 46 1 0 0 
SMALL
USER_CHARGES


@<TRIPOS>ATOM
  1 O        0.1730    -1.3260     2.1310 O.2   1 <1>  -0.5700 
  2 C        0.2290    -1.9630     1.0960 C.2   1 <1>   0.7800 
  3 O       -0.8650    -2.1110     0.3480 O.3   1 <1>  -0.4300 
  4 N        1.3850    -2.5430     0.6520 N.am  1 <1>  -0.6600 
  5 C       -2.0900    -1.5380     0.7390 C.3   1 <1>   0.1200 
  6 C        1.4410    -3.3380    -0.6140 C.3   1 <1>   0.1400 
  7 C        2.6640    -2.3820     1.4070 C.3   1 <1>   0.1400 
  8 C       -3.1350    -1.8880    -0.3160 C.3   1 <1>  -0.2400 
  9 C        2.6030    -4.3430    -0.6180 C.3   1 <1>   0.1400 
 10 C        3.8880    -2.4370     0.4800 C.3   1 <1>   0.1400 
 11 N        3.9210    -3.6910    -0.3370 N.am  1 <1>  -0.6600 
 12 C        5.0940    -4.2420    -0.8110 C.2   1 <1>   0.5440 
 13 O        5.0480    -5.3370    -1.3420 O.2   1 <1>  -0.5700 
 14 C        6.3800    -3.5990    -0.6340 C.ar  1 <1>   0.0860 
 15 C        6.7110    -2.3690    -1.2540 C.ar  1 <1>   0.0820 
 16 C        7.3430    -4.1870     0.1560 C.ar  1 <1>  -0.1500 
 17 O        5.8200    -1.7640    -2.0580 O.3   1 <1>  -0.5320 
 18 C        7.9330    -1.7830    -1.0600 C.ar  1 <1>  -0.1500 
 19 C        8.6040    -3.6090     0.3800 C.ar  1 <1>   0.0000 
 20 C        8.9070    -2.3770    -0.2380 C.ar  1 <1>   0.0000 
 21 C        9.5790    -4.2120     1.2000 C.ar  1 <1>  -0.1500 
 22 C       10.1700    -1.7960    -0.0090 C.ar  1 <1>  -0.1500 
 23 C       10.7970    -3.6260     1.4060 C.ar  1 <1>  -0.1500 
 24 C       11.0960    -2.4020     0.7950 C.ar  1 <1>  -0.1500 
 25 H       -1.9580    -0.4720     0.8160 H     1 <1>   0.0800 
 26 H       -2.3620    -1.9390     1.7020 H     1 <1>   0.0800 
 27 H        1.5570    -2.6650    -1.4450 H     1 <1>   0.0800 
 28 H        0.5170    -3.8750    -0.7470 H     1 <1>   0.0800 
 29 H        2.7390    -3.1660     2.1390 H     1 <1>   0.0800 
 30 H        2.6610    -1.4410     1.9290 H     1 <1>   0.0800 
 31 H       -2.8420    -1.4910    -1.2710 H     1 <1>   0.0800 
 32 H       -4.0820    -1.4610    -0.0430 H     1 <1>   0.0800 
 33 H       -3.2470    -2.9550    -0.3860 H     1 <1>   0.0800 
 34 H        2.6400    -4.8290    -1.5790 H     1 <1>   0.0800 
 35 H        2.4230    -5.1000     0.1250 H     1 <1>   0.0800 
 36 H        4.7800    -2.3670     1.0770 H     1 <1>   0.0800 
 37 H        3.8620    -1.5890    -0.1830 H     1 <1>   0.0800 
 38 H        7.1250    -5.1320     0.6220 H     1 <1>   0.1500 
 39 H        6.1720    -0.9890    -2.5320 H     1 <1>   0.4500 
 40 H        8.1770    -0.8500    -1.5330 H     1 <1>   0.1500 
 41 H        9.3460    -5.1530     1.6660 H     1 <1>   0.1500 
 42 H       10.3990    -0.8570    -0.4810 H     1 <1>   0.1500 
 43 H       11.5370    -4.0910     2.0330 H     1 <1>   0.1500 
 44 H       12.0590    -1.9540     0.9670 H     1 <1>   0.1500 
@<TRIPOS>BOND
  1   1   2  2   
  2   2   3  1   
  3   2   4  am  
  4   3   5  1   
  5   4   6  1   
  6   4   7  1   
  7   5   8  1   
  8   5  25  1   
  9   5  26  1   
 10   6   9  1   
 11   6  27  1   
 12   6  28  1   
 13   7  10  1   
 14   7  29  1   
 15   7  30  1   
 16   8  31  1   
 17   8  32  1   
 18   8  33  1   
 19   9  11  1   
 20   9  34  1   
 21   9  35  1   
 22  10  11  1   
 23  10  36  1   
 24  10  37  1   
 25  11  12  am  
 26  12  13  2   
 27  12  14  1   
 28  14  15  ar  
 29  14  16  ar  
 30  15  17  1   
 31  15  18  ar  
 32  16  19  ar  
 33  16  38  1   
 34  17  39  1   
 35  18  20  ar  
 36  18  40  1   
 37  19  20  ar  
 38  19  21  ar  
 39  20  22  ar  
 40  21  23  ar  
 41  21  41  1   
 42  22  24  ar  
 43  22  42  1   
 44  23  24  ar  
 45  23  43  1   
 46  24  44  1   
@<TRIPOS>SUBSTRUCTURE
  1 ****  10 GROUP 4 **** **** 0

# MOE 2024.06 (io_trps.svl 2023.06)
