@<TRIPOS>MOLECULE
NONAME
55 57 1 0 0 
SMALL
USER_CHARGES


@<TRIPOS>ATOM
  1 S       -0.0410     0.2800    -0.4340 S.o2  1 <1>   1.5760 
  2 O       -0.2170    -0.6180     0.6860 O.2   1 <1>  -0.6500 
  3 O        0.2280    -0.2390    -1.7560 O.2   1 <1>  -0.6500 
  4 N        1.1350     1.4340    -0.0610 N.am  1 <1>  -0.8490 
  5 N       -1.4080     1.2620    -0.5150 N.am  1 <1>  -0.8490 
  6 C        2.3650     0.7930     0.4140 C.3   1 <1>   0.1960 
  7 C        1.3580     2.3290    -1.2020 C.3   1 <1>   0.1960 
  8 C       -1.7670     1.8080     0.8050 C.3   1 <1>   0.1960 
  9 C       -2.5510     0.5250    -1.0720 C.3   1 <1>   0.1960 
 10 C        3.1410     1.7450     1.3280 C.3   1 <1>  -0.1600 
 11 C        2.2350     3.5420    -0.8630 C.3   1 <1>  -0.1600 
 12 C       -3.0230     2.6950     0.7260 C.3   1 <1>   0.1960 
 13 C       -3.8080     1.4110    -1.1520 C.3   1 <1>   0.1960 
 14 C        4.1520     2.6620     0.6200 C.3   1 <1>  -0.1600 
 15 C        3.7270     3.1960    -0.7550 C.3   1 <1>  -0.1600 
 16 N       -4.1670     1.9610     0.1670 N.am  1 <1>  -0.8490 
 17 S       -5.5280     2.9500     0.0810 S.o2  1 <1>   1.5760 
 18 O       -5.3600     3.8400    -1.0460 O.2   1 <1>  -0.6500 
 19 O       -5.7980     3.4750     1.4000 O.2   1 <1>  -0.6500 
 20 N       -6.7050     1.8000    -0.2900 N.am  1 <1>  -0.8490 
 21 C       -7.9370     2.4470    -0.7430 C.3   1 <1>   0.1960 
 22 C       -6.9650     0.9140     0.8490 C.3   1 <1>   0.1960 
 23 C       -8.9490     1.3940    -1.2070 C.3   1 <1>  -0.1600 
 24 C       -7.9350    -0.2000     0.4420 C.3   1 <1>  -0.1600 
 25 C       -9.2490     0.3770    -0.1000 C.3   1 <1>  -0.1600 
 26 H        2.9690     0.4510    -0.4110 H     1 <1>   0.0800 
 27 H        2.1120    -0.0680     1.0090 H     1 <1>   0.0800 
 28 H        0.4070     2.7080    -1.5370 H     1 <1>   0.0800 
 29 H        1.7890     1.7810    -2.0240 H     1 <1>   0.0800 
 30 H       -0.9500     2.3970     1.1860 H     1 <1>   0.0800 
 31 H       -1.9530     1.0080     1.5030 H     1 <1>   0.0800 
 32 H       -2.7660    -0.3380    -0.4630 H     1 <1>   0.0800 
 33 H       -2.3060     0.1810    -2.0630 H     1 <1>   0.0800 
 34 H        3.6840     1.1550     2.0440 H     1 <1>   0.0800 
 35 H        2.4370     2.3380     1.8860 H     1 <1>   0.0800 
 36 H        1.8770     4.0250     0.0290 H     1 <1>   0.0800 
 37 H        2.1230     4.2440    -1.6700 H     1 <1>   0.0800 
 38 H       -2.8060     3.5580     0.1180 H     1 <1>   0.0800 
 39 H       -3.2680     3.0380     1.7170 H     1 <1>   0.0800 
 40 H       -4.6250     0.8220    -1.5320 H     1 <1>   0.0800 
 41 H       -3.6220     2.2100    -1.8520 H     1 <1>   0.0800 
 42 H        5.0810     2.1320     0.4980 H     1 <1>   0.0800 
 43 H        4.3510     3.4970     1.2700 H     1 <1>   0.0800 
 44 H        4.3050     4.0810    -0.9600 H     1 <1>   0.0800 
 45 H        3.9800     2.4760    -1.5140 H     1 <1>   0.0800 
 46 H       -7.7180     3.1040    -1.5690 H     1 <1>   0.0800 
 47 H       -8.3560     3.0380     0.0560 H     1 <1>   0.0800 
 48 H       -7.3800     1.4780     1.6690 H     1 <1>   0.0800 
 49 H       -6.0430     0.4690     1.1830 H     1 <1>   0.0800 
 50 H       -8.5500     0.8880    -2.0680 H     1 <1>   0.0800 
 51 H       -9.8590     1.8830    -1.5060 H     1 <1>   0.0800 
 52 H       -8.1380    -0.8250     1.2930 H     1 <1>   0.0800 
 53 H       -7.4650    -0.8080    -0.3110 H     1 <1>   0.0800 
 54 H       -9.8690    -0.4150    -0.4830 H     1 <1>   0.0800 
 55 H       -9.7810     0.8640     0.6990 H     1 <1>   0.0800 
@<TRIPOS>BOND
  1   1   2  2   
  2   1   3  2   
  3   1   4  am  
  4   1   5  am  
  5   4   6  1   
  6   4   7  1   
  7   5   8  1   
  8   5   9  1   
  9   6  10  1   
 10   6  26  1   
 11   6  27  1   
 12   7  11  1   
 13   7  28  1   
 14   7  29  1   
 15   8  12  1   
 16   8  30  1   
 17   8  31  1   
 18   9  13  1   
 19   9  32  1   
 20   9  33  1   
 21  10  14  1   
 22  10  34  1   
 23  10  35  1   
 24  11  15  1   
 25  11  36  1   
 26  11  37  1   
 27  12  16  1   
 28  12  38  1   
 29  12  39  1   
 30  13  16  1   
 31  13  40  1   
 32  13  41  1   
 33  14  15  1   
 34  14  42  1   
 35  14  43  1   
 36  15  44  1   
 37  15  45  1   
 38  16  17  am  
 39  17  18  2   
 40  17  19  2   
 41  17  20  am  
 42  20  21  1   
 43  20  22  1   
 44  21  23  1   
 45  21  46  1   
 46  21  47  1   
 47  22  24  1   
 48  22  48  1   
 49  22  49  1   
 50  23  25  1   
 51  23  50  1   
 52  23  51  1   
 53  24  25  1   
 54  24  52  1   
 55  24  53  1   
 56  25  54  1   
 57  25  55  1   
@<TRIPOS>SUBSTRUCTURE
  1 ****   8 GROUP 4 **** **** 0

# MOE 2024.06 (io_trps.svl 2023.06)
