@<TRIPOS>MOLECULE
NONAME
42 44 1 0 0 
SMALL
USER_CHARGES


@<TRIPOS>ATOM
  1 BR      -2.7300    -1.8520    -3.9850 Br    1 <1>  -0.1110 
  2 C       -3.6650    -1.2410    -2.4190 C.ar  1 <1>   0.1110 
  3 C       -3.2630    -1.6980    -1.1800 C.ar  1 <1>  -0.1500 
  4 C       -4.7160    -0.3590    -2.5710 C.ar  1 <1>  -0.1500 
  5 C       -3.9450    -1.2540    -0.0600 C.ar  1 <1>  -0.1500 
  6 C       -5.3830     0.0740    -1.4370 C.ar  1 <1>  -0.1500 
  7 C       -5.0160    -0.3670    -0.1660 C.ar  1 <1>  -0.0090 
  8 S       -5.9020     0.2180     1.3160 S.o2  1 <1>   1.4970 
  9 O       -5.5150     1.6040     1.4950 O.2   1 <1>  -0.6500 
 10 O       -5.6630    -0.6880     2.4250 O.2   1 <1>  -0.6500 
 11 N       -7.5050     0.1950     0.8640 N.2   1 <1>  -0.6380 
 12 C       -8.0900    -0.9000     0.5070 C.2   1 <1>   0.5770 
 13 S       -7.2430    -2.4820     0.5880 S.3   1 <1>  -0.2420 
 14 C       -9.4050    -1.1240     0.0010 C.2   1 <1>   0.0140 
 15 C       -8.6410    -3.3610    -0.0050 C.2   1 <1>  -0.0370 
 16 C       -9.6480    -2.5210    -0.2770 C.2   1 <1>  -0.1380 
 17 C      -10.3610    -0.1100    -0.2180 C.2   1 <1>  -0.0730 
 18 C       -8.5790    -4.8650    -0.1440 C.3   1 <1>  -0.0220 
 19 C      -10.9500    -3.0760    -0.8440 C.3   1 <1>  -0.0220 
 20 O      -11.5300    -0.2990    -0.5750 O.3   1 <1>  -0.8500 
 21 O      -10.0060     1.1750    -0.0340 O.3   1 <1>  -0.3570 
 22 C      -10.0060    -5.4060    -0.3320 C.3   1 <1>  -0.1600 
 23 C      -10.8120    -4.5390    -1.3180 C.3   1 <1>  -0.1600 
 24 C      -10.9550     2.1970    -0.2150 C.3   1 <1>   0.1200 
 25 C      -10.2770     3.5360     0.0690 C.3   1 <1>  -0.2400 
 26 H       -2.4400    -2.3840    -1.0950 H     1 <1>   0.1500 
 27 H       -5.0070    -0.0200    -3.5490 H     1 <1>   0.1500 
 28 H       -3.6480    -1.6030     0.9160 H     1 <1>   0.1500 
 29 H       -6.2070     0.7640    -1.5390 H     1 <1>   0.1500 
 30 H       -8.1350    -5.2970     0.7350 H     1 <1>   0.0800 
 31 H       -7.9710    -5.1090    -0.9960 H     1 <1>   0.0800 
 32 H      -11.2610    -2.4730    -1.6800 H     1 <1>   0.0800 
 33 H      -11.7100    -2.9940    -0.0870 H     1 <1>   0.0800 
 34 H      -10.5100    -5.3980     0.6200 H     1 <1>   0.0800 
 35 H       -9.9660    -6.4230    -0.6800 H     1 <1>   0.0800 
 36 H      -10.3130    -4.5420    -2.2720 H     1 <1>   0.0800 
 37 H      -11.7940    -4.9550    -1.4590 H     1 <1>   0.0800 
 38 H      -11.7690     2.0110     0.4630 H     1 <1>   0.0800 
 39 H      -11.3120     2.1380    -1.2280 H     1 <1>   0.0800 
 40 H       -9.9110     3.5470     1.0800 H     1 <1>   0.0800 
 41 H      -10.9840     4.3340    -0.0580 H     1 <1>   0.0800 
 42 H       -9.4590     3.6780    -0.6120 H     1 <1>   0.0800 
@<TRIPOS>BOND
  1   1   2  1   
  2   2   3  ar  
  3   2   4  ar  
  4   3   5  ar  
  5   3  26  1   
  6   4   6  ar  
  7   4  27  1   
  8   5   7  ar  
  9   5  28  1   
 10   6   7  ar  
 11   6  29  1   
 12   7   8  1   
 13   8   9  2   
 14   8  10  2   
 15   8  11  1   
 16  11  12  2   
 17  12  13  1   
 18  12  14  1   
 19  13  15  1   
 20  14  16  1   
 21  14  17  2   
 22  15  16  2   
 23  15  18  1   
 24  16  19  1   
 25  17  20  1   
 26  17  21  1   
 27  18  22  1   
 28  18  30  1   
 29  18  31  1   
 30  19  23  1   
 31  19  32  1   
 32  19  33  1   
 33  21  24  1   
 34  22  23  1   
 35  22  34  1   
 36  22  35  1   
 37  23  36  1   
 38  23  37  1   
 39  24  25  1   
 40  24  38  1   
 41  24  39  1   
 42  25  40  1   
 43  25  41  1   
 44  25  42  1   
@<TRIPOS>SUBSTRUCTURE
  1 ****  12 GROUP 4 **** **** 0

# MOE 2024.06 (io_trps.svl 2023.06)
