@<TRIPOS>MOLECULE
NONAME
44 46 1 0 0 
SMALL
USER_CHARGES


@<TRIPOS>ATOM
  1 O        1.7310    -0.7960     0.8100 O.co2 1 <1>  -0.9000 
  2 C        1.8560    -1.8430     1.4490 C.2   1 <1>   0.9060 
  3 O        2.7150    -1.9560     2.3340 O.co2 1 <1>  -0.9000 
  4 C        0.9810    -3.0490     1.1330 C.3   1 <1>  -0.1860 
  5 C        1.6880    -4.4050     1.3900 C.3   1 <1>  -0.0190 
  6 C        0.4330    -3.0030    -0.3040 C.3   1 <1>  -0.0220 
  7 C        2.9570    -4.6070     0.5430 C.2   1 <1>   0.5690 
  8 C        0.6620    -5.5470     1.2420 C.3   1 <1>  -0.0220 
  9 C       -0.3460    -4.2640    -0.6760 C.2   1 <1>  -0.2760 
 10 O        3.0030    -5.4610    -0.3140 O.2   1 <1>  -0.5700 
 11 N        4.0280    -3.8100     0.8290 N.am  1 <1>  -0.5470 
 12 C       -0.2580    -5.4030     0.0300 C.2   1 <1>  -0.2760 
 13 C       -1.1810    -4.0300    -1.9300 C.3   1 <1>  -0.1020 
 14 C        5.1610    -3.5310     0.0600 C.ar  1 <1>   0.1170 
 15 C       -1.0140    -6.6990    -0.2390 C.3   1 <1>  -0.1020 
 16 C        6.1390    -4.5120    -0.2740 C.ar  1 <1>   0.0000 
 17 C        5.3240    -2.2320    -0.3560 C.ar  1 <1>  -0.1500 
 18 C        7.2520    -4.1200    -1.0550 C.ar  1 <1>   0.0000 
 19 C        6.0770    -5.8590     0.1460 C.ar  1 <1>  -0.1500 
 20 C        6.4220    -1.8500    -1.1250 C.ar  1 <1>  -0.1500 
 21 C        7.3650    -2.7780    -1.4690 C.ar  1 <1>  -0.1500 
 22 C        8.2290    -5.0790    -1.3920 C.ar  1 <1>  -0.1500 
 23 C        7.0410    -6.7700    -0.1910 C.ar  1 <1>  -0.1500 
 24 C        8.1310    -6.3760    -0.9720 C.ar  1 <1>  -0.1500 
 25 H        0.1450    -2.9810     1.8010 H     1 <1>   0.0800 
 26 H        2.0140    -4.4180     2.4140 H     1 <1>   0.0800 
 27 H        1.2470    -2.8730    -0.9970 H     1 <1>   0.0800 
 28 H       -0.2040    -2.1390    -0.3890 H     1 <1>   0.0800 
 29 H        0.0460    -5.5700     2.1230 H     1 <1>   0.0800 
 30 H        1.1900    -6.4840     1.1940 H     1 <1>   0.0800 
 31 H        3.7810    -3.0570     1.5030 H     1 <1>   0.3700 
 32 H       -0.5480    -3.6610    -2.7170 H     1 <1>   0.0800 
 33 H       -1.9410    -3.2970    -1.7290 H     1 <1>   0.0800 
 34 H       -1.6550    -4.9210    -2.2870 H     1 <1>   0.0800 
 35 H       -1.5230    -7.0150     0.6530 H     1 <1>   0.0800 
 36 H       -0.3190    -7.4660    -0.5310 H     1 <1>   0.0800 
 37 H       -1.7470    -6.5990    -1.0130 H     1 <1>   0.0800 
 38 H        4.5850    -1.4910    -0.0890 H     1 <1>   0.1500 
 39 H        5.2410    -6.1680     0.7450 H     1 <1>   0.1500 
 40 H        6.5070    -0.8240    -1.4360 H     1 <1>   0.1500 
 41 H        8.2130    -2.4930    -2.0640 H     1 <1>   0.1500 
 42 H        9.0650    -4.7680    -1.9920 H     1 <1>   0.1500 
 43 H        6.9670    -7.7910     0.1360 H     1 <1>   0.1500 
 44 H        8.8790    -7.1040    -1.2330 H     1 <1>   0.1500 
@<TRIPOS>BOND
  1   1   2  ar  
  2   2   3  ar  
  3   2   4  1   
  4   4   5  1   
  5   4   6  1   
  6   4  25  1   
  7   5   7  1   
  8   5   8  1   
  9   5  26  1   
 10   6   9  1   
 11   6  27  1   
 12   6  28  1   
 13   7  10  2   
 14   7  11  am  
 15   8  12  1   
 16   8  29  1   
 17   8  30  1   
 18   9  12  2   
 19   9  13  1   
 20  11  14  1   
 21  11  31  1   
 22  12  15  1   
 23  13  32  1   
 24  13  33  1   
 25  13  34  1   
 26  14  16  ar  
 27  14  17  ar  
 28  15  35  1   
 29  15  36  1   
 30  15  37  1   
 31  16  18  ar  
 32  16  19  ar  
 33  17  20  ar  
 34  17  38  1   
 35  18  21  ar  
 36  18  22  ar  
 37  19  23  ar  
 38  19  39  1   
 39  20  21  ar  
 40  20  40  1   
 41  21  41  1   
 42  22  24  ar  
 43  22  42  1   
 44  23  24  ar  
 45  23  43  1   
 46  24  44  1   
@<TRIPOS>SUBSTRUCTURE
  1 ****   7 GROUP 4 **** **** 0

# MOE 2024.06 (io_trps.svl 2023.06)
