@<TRIPOS>MOLECULE
NONAME
31 33 1 0 0 
SMALL
USER_CHARGES


@<TRIPOS>ATOM
  1 O        8.3540    -0.7260    -1.5120 O.2   1 <1>  -0.5700 
  2 C        7.4560    -1.3010    -0.9120 C.2   1 <1>   0.7160 
  3 N        7.6500    -2.6150    -0.6120 N.am  1 <1>  -0.4900 
  4 C        6.2110    -0.7420    -0.4910 C.2   1 <1>   0.1410 
  5 C        6.7130    -3.3540     0.0450 C.2   1 <1>   0.5600 
  6 N        5.6680     0.5080    -0.5980 N.2   1 <1>  -0.5650 
  7 C        5.3390    -1.5740     0.1580 C.2   1 <1>  -0.0260 
  8 N        5.5710    -2.8950     0.4410 N.2   1 <1>  -0.5760 
  9 N        7.0090    -4.6380     0.2930 N.pl3 1 <1>  -0.8500 
 10 C        4.5160     0.3950    -0.0260 C.2   1 <1>   0.0360 
 11 N        4.2420    -0.8500     0.4490 N.pl3 1 <1>   0.0480 
 12 C        3.0200    -1.3480     1.1250 C.3   1 <1>   0.4560 
 13 O        2.1490    -0.2670     1.3370 O.3   1 <1>  -0.5600 
 14 C        2.2450    -2.3330     0.2520 C.3   1 <1>  -0.1600 
 15 C        1.0080    -0.3380     0.5310 C.3   1 <1>   0.2000 
 16 C        1.2860    -1.4330    -0.4970 C.3   1 <1>  -0.1600 
 17 C        0.7180     1.0470    -0.0650 C.3   1 <1>   0.1200 
 18 O       -0.3470     0.9750    -0.9580 O.3   1 <1>  -0.6800 
 19 H        8.5160    -3.0220    -0.9360 H     1 <1>   0.3700 
 20 H        6.3440    -5.1730     0.8530 H     1 <1>   0.4000 
 21 H        7.9450    -5.0300     0.2130 H     1 <1>   0.4000 
 22 H        3.8130     1.2020     0.0840 H     1 <1>   0.1500 
 23 H        3.2880    -1.7780     2.0740 H     1 <1>   0.0800 
 24 H        2.8810    -2.9090    -0.3970 H     1 <1>   0.0800 
 25 H        1.7000    -3.0050     0.8910 H     1 <1>   0.0800 
 26 H        0.1940    -0.6320     1.1730 H     1 <1>   0.0800 
 27 H        0.3860    -1.9400    -0.7970 H     1 <1>   0.0800 
 28 H        1.7700    -1.0160    -1.3640 H     1 <1>   0.0800 
 29 H        1.5730     1.4240    -0.5980 H     1 <1>   0.0800 
 30 H        0.4460     1.7340     0.7170 H     1 <1>   0.0800 
 31 H       -0.0930     0.4750    -1.7570 H     1 <1>   0.4000 
@<TRIPOS>BOND
  1   1   2  2   
  2   2   3  am  
  3   2   4  1   
  4   3   5  1   
  5   3  19  1   
  6   4   6  1   
  7   4   7  2   
  8   5   8  2   
  9   5   9  1   
 10   6  10  2   
 11   7   8  1   
 12   7  11  1   
 13   9  20  1   
 14   9  21  1   
 15  10  11  1   
 16  10  22  1   
 17  11  12  1   
 18  12  13  1   
 19  12  14  1   
 20  12  23  1   
 21  13  15  1   
 22  14  16  1   
 23  14  24  1   
 24  14  25  1   
 25  15  16  1   
 26  15  17  1   
 27  15  26  1   
 28  16  27  1   
 29  16  28  1   
 30  17  18  1   
 31  17  29  1   
 32  17  30  1   
 33  18  31  1   
@<TRIPOS>SUBSTRUCTURE
  1 ****  11 GROUP 4 **** **** 0

# MOE 2024.06 (io_trps.svl 2023.06)
