@<TRIPOS>MOLECULE
NONAME
54 57 1 0 0 
SMALL
USER_CHARGES


@<TRIPOS>ATOM
  1 O        0.5460    -0.4670     1.3710 O.2   1 <1>  -0.5700 
  2 C        0.8470    -1.1180     0.3890 C.2   1 <1>   0.5440 
  3 N       -0.1240    -1.7090    -0.3700 N.am  1 <1>  -0.7300 
  4 C        2.2310    -1.3040     0.0220 C.ar  1 <1>   0.0860 
  5 C       -1.5790    -1.7780    -0.1450 C.3   1 <1>   0.3000 
  6 C        3.0410    -0.2450    -0.4010 C.ar  1 <1>   0.0830 
  7 C        2.8060    -2.5740     0.0740 C.ar  1 <1>  -0.1500 
  8 C       -2.1850    -2.5930    -1.3030 C.3   1 <1>  -0.1600 
  9 C       -2.2090    -0.3720    -0.1440 C.3   1 <1>  -0.1600 
 10 C       -1.8940    -2.4920     1.1830 C.3   1 <1>  -0.1600 
 11 O        2.5450     1.0020    -0.4940 O.3   1 <1>  -0.3630 
 12 C        4.3630    -0.4540    -0.7630 C.ar  1 <1>  -0.1500 
 13 C        4.1260    -2.7850    -0.2800 C.ar  1 <1>  -0.1500 
 14 C       -3.7120    -2.7130    -1.1340 C.3   1 <1>  -0.0800 
 15 C       -3.7360    -0.4780     0.0380 C.3   1 <1>  -0.0800 
 16 C       -3.4210    -2.6040     1.3710 C.3   1 <1>  -0.0800 
 17 C        2.7720     1.8560     0.6180 C.3   1 <1>   0.1810 
 18 C        4.9080    -1.7220    -0.7010 C.ar  1 <1>  -0.1500 
 19 C       -4.3290    -1.3010    -1.1210 C.3   1 <1>  -0.1600 
 20 C       -4.0170    -3.4130     0.2030 C.3   1 <1>  -0.1600 
 21 C       -4.0360    -1.1900     1.3710 C.3   1 <1>  -0.1600 
 22 C        2.2860     3.2770     0.3410 C.2   1 <1>   0.5690 
 23 O        3.1300     4.1360     0.2100 O.2   1 <1>  -0.5700 
 24 N        0.9420     3.5660     0.2740 N.am  1 <1>  -0.6600 
 25 C        0.4430     4.9460     0.0210 C.3   1 <1>   0.0600 
 26 C       -0.1140     2.5270     0.4190 C.3   1 <1>   0.0600 
 27 H        0.1700    -2.1750    -1.2270 H     1 <1>   0.3700 
 28 H        2.2050    -3.4040     0.4050 H     1 <1>   0.1500 
 29 H       -1.9700    -2.1100    -2.2400 H     1 <1>   0.0800 
 30 H       -1.7540    -3.5780    -1.3220 H     1 <1>   0.0800 
 31 H       -1.9830     0.1310    -1.0660 H     1 <1>   0.0800 
 32 H       -1.8070     0.2050     0.6680 H     1 <1>   0.0800 
 33 H       -1.4800    -1.9370     2.0060 H     1 <1>   0.0800 
 34 H       -1.4550    -3.4730     1.1850 H     1 <1>   0.0800 
 35 H        4.9580     0.3780    -1.0960 H     1 <1>   0.1500 
 36 H        4.5490    -3.7740    -0.2290 H     1 <1>   0.1500 
 37 H       -4.1260    -3.2840    -1.9480 H     1 <1>   0.0800 
 38 H       -4.1700     0.5070     0.0450 H     1 <1>   0.0800 
 39 H       -3.6370    -3.0950     2.3040 H     1 <1>   0.0800 
 40 H        3.8270     1.8760     0.8180 H     1 <1>   0.0800 
 41 H        2.2590     1.4520     1.4710 H     1 <1>   0.0800 
 42 H        5.9350    -1.8840    -0.9800 H     1 <1>   0.1500 
 43 H       -5.3970    -1.3720    -1.0070 H     1 <1>   0.0800 
 44 H       -4.1340    -0.8080    -2.0570 H     1 <1>   0.0800 
 45 H       -3.6030    -4.4060     0.1990 H     1 <1>   0.0800 
 46 H       -5.0820    -3.5050     0.3310 H     1 <1>   0.0800 
 47 H       -5.1000    -1.2570     1.5170 H     1 <1>   0.0800 
 48 H       -3.6300    -0.6190     2.1880 H     1 <1>   0.0800 
 49 H        1.2610     5.6410    -0.0560 H     1 <1>   0.0800 
 50 H       -0.1950     5.2550     0.8290 H     1 <1>   0.0800 
 51 H       -0.1120     4.9660    -0.9000 H     1 <1>   0.0800 
 52 H       -0.0920     2.1170     1.4140 H     1 <1>   0.0800 
 53 H        0.0520     1.7340    -0.2890 H     1 <1>   0.0800 
 54 H       -1.0880     2.9470     0.2390 H     1 <1>   0.0800 
@<TRIPOS>BOND
  1   1   2  2   
  2   2   3  am  
  3   2   4  1   
  4   3   5  1   
  5   3  27  1   
  6   4   6  ar  
  7   4   7  ar  
  8   5   8  1   
  9   5   9  1   
 10   5  10  1   
 11   6  11  1   
 12   6  12  ar  
 13   7  13  ar  
 14   7  28  1   
 15   8  14  1   
 16   8  29  1   
 17   8  30  1   
 18   9  15  1   
 19   9  31  1   
 20   9  32  1   
 21  10  16  1   
 22  10  33  1   
 23  10  34  1   
 24  11  17  1   
 25  12  18  ar  
 26  12  35  1   
 27  13  18  ar  
 28  13  36  1   
 29  14  19  1   
 30  14  20  1   
 31  14  37  1   
 32  15  19  1   
 33  15  21  1   
 34  15  38  1   
 35  16  20  1   
 36  16  21  1   
 37  16  39  1   
 38  17  22  1   
 39  17  40  1   
 40  17  41  1   
 41  18  42  1   
 42  19  43  1   
 43  19  44  1   
 44  20  45  1   
 45  20  46  1   
 46  21  47  1   
 47  21  48  1   
 48  22  23  2   
 49  22  24  am  
 50  24  25  1   
 51  24  26  1   
 52  25  49  1   
 53  25  50  1   
 54  25  51  1   
 55  26  52  1   
 56  26  53  1   
 57  26  54  1   
@<TRIPOS>SUBSTRUCTURE
  1 ****   2 GROUP 4 **** **** 0

# MOE 2024.06 (io_trps.svl 2023.06)
