@<TRIPOS>MOLECULE
NONAME
47 49 1 0 0 
SMALL
USER_CHARGES


@<TRIPOS>ATOM
  1 CL      -0.3380    -0.3610     0.0330 Cl    1 <1>  -0.1770 
  2 C        1.2220    -1.1330    -0.0980 C.ar  1 <1>   0.1770 
  3 C        1.3330    -2.3190    -0.8020 C.ar  1 <1>  -0.1500 
  4 C        2.3200    -0.5440     0.5050 C.ar  1 <1>  -0.1500 
  5 C        2.5730    -2.9290    -0.9040 C.ar  1 <1>  -0.1500 
  6 C        3.5610    -1.1540     0.4040 C.ar  1 <1>  -0.1500 
  7 C        3.6760    -2.3440    -0.3020 C.ar  1 <1>   0.1020 
  8 S        5.2470    -3.2050    -0.4860 S.3   1 <1>  -0.3320 
  9 C        6.5140    -2.2030     0.4120 C.3   1 <1>   0.2140 
 10 C        7.8620    -2.8920     0.2710 C.ar  1 <1>  -0.1430 
 11 C        8.5130    -2.9090    -0.9520 C.ar  1 <1>  -0.1500 
 12 C        8.4550    -3.5120     1.3590 C.ar  1 <1>  -0.1500 
 13 C        9.7430    -3.5290    -1.0800 C.ar  1 <1>  -0.1500 
 14 C        9.6860    -4.1290     1.2250 C.ar  1 <1>  -0.1500 
 15 C       10.3620    -4.1440     0.0080 C.ar  1 <1>   0.0860 
 16 C       11.6580    -4.7840    -0.1170 C.2   1 <1>   0.5440 
 17 O       11.7570    -5.9660     0.1530 O.2   1 <1>  -0.5700 
 18 N       12.7820    -4.0900    -0.5270 N.am  1 <1>  -0.6600 
 19 C       12.8530    -2.6040    -0.5960 C.3   1 <1>   0.1400 
 20 C       14.0670    -4.7900    -0.8130 C.3   1 <1>   0.1400 
 21 C       13.9430    -2.0900     0.3500 C.3   1 <1>  -0.1600 
 22 C       15.1560    -4.2880     0.1390 C.3   1 <1>  -0.1600 
 23 C       15.3030    -2.7570     0.0720 C.3   1 <1>  -0.0190 
 24 C       16.3880    -2.2650     1.0290 C.2   1 <1>   0.5690 
 25 O       16.1850    -2.2110     2.2150 O.2   1 <1>  -0.5700 
 26 N       17.5860    -1.8930     0.5420 N.am  1 <1>  -0.8000 
 27 H        0.4640    -2.7540    -1.2600 H     1 <1>   0.1500 
 28 H        2.1990     0.3780     1.0450 H     1 <1>   0.1500 
 29 H        2.6880    -3.8520    -1.4450 H     1 <1>   0.1500 
 30 H        4.4070    -0.6930     0.8740 H     1 <1>   0.1500 
 31 H        6.2050    -2.1420     1.4400 H     1 <1>   0.0800 
 32 H        6.5290    -1.2260    -0.0360 H     1 <1>   0.0800 
 33 H        8.0570    -2.4460    -1.8110 H     1 <1>   0.1500 
 34 H        7.9610    -3.5220     2.3150 H     1 <1>   0.1500 
 35 H       10.2360    -3.5460    -2.0360 H     1 <1>   0.1500 
 36 H       10.1390    -4.6160     2.0720 H     1 <1>   0.1500 
 37 H       11.9150    -2.1570    -0.3180 H     1 <1>   0.0800 
 38 H       13.0770    -2.3120    -1.6080 H     1 <1>   0.0800 
 39 H       14.3500    -4.5940    -1.8320 H     1 <1>   0.0800 
 40 H       13.9580    -5.8550    -0.7010 H     1 <1>   0.0800 
 41 H       13.6410    -2.2910     1.3640 H     1 <1>   0.0800 
 42 H       14.0340    -1.0240     0.2440 H     1 <1>   0.0800 
 43 H       16.0910    -4.7560    -0.1130 H     1 <1>   0.0800 
 44 H       14.9030    -4.5850     1.1430 H     1 <1>   0.0800 
 45 H       15.6010    -2.4940    -0.9270 H     1 <1>   0.0800 
 46 H       18.3030    -1.5730     1.1940 H     1 <1>   0.3700 
 47 H       17.8440    -1.9210    -0.4430 H     1 <1>   0.3700 
@<TRIPOS>BOND
  1   1   2  1   
  2   2   3  ar  
  3   2   4  ar  
  4   3   5  ar  
  5   3  27  1   
  6   4   6  ar  
  7   4  28  1   
  8   5   7  ar  
  9   5  29  1   
 10   6   7  ar  
 11   6  30  1   
 12   7   8  1   
 13   8   9  1   
 14   9  10  1   
 15   9  31  1   
 16   9  32  1   
 17  10  11  ar  
 18  10  12  ar  
 19  11  13  ar  
 20  11  33  1   
 21  12  14  ar  
 22  12  34  1   
 23  13  15  ar  
 24  13  35  1   
 25  14  15  ar  
 26  14  36  1   
 27  15  16  1   
 28  16  17  2   
 29  16  18  am  
 30  18  19  1   
 31  18  20  1   
 32  19  21  1   
 33  19  37  1   
 34  19  38  1   
 35  20  22  1   
 36  20  39  1   
 37  20  40  1   
 38  21  23  1   
 39  21  41  1   
 40  21  42  1   
 41  22  23  1   
 42  22  43  1   
 43  22  44  1   
 44  23  24  1   
 45  23  45  1   
 46  24  25  2   
 47  24  26  am  
 48  26  46  1   
 49  26  47  1   
@<TRIPOS>SUBSTRUCTURE
  1 ****  11 GROUP 4 **** **** 0

# MOE 2024.06 (io_trps.svl 2023.06)
