@<TRIPOS>MOLECULE
NONAME
43 44 1 0 0 
SMALL
USER_CHARGES


@<TRIPOS>ATOM
  1 N        0.0390     0.4020     0.3950 N.4   1 <1>  -0.9590 
  2 C        0.2780     0.9570    -0.9710 C.3   1 <1>   0.3430 
  3 C        1.2530    -0.2190     1.0030 C.3   1 <1>   0.3430 
  4 C       -1.0850    -0.5920     0.3580 C.3   1 <1>   0.2630 
  5 C        1.4100     1.9850    -0.9290 C.3   1 <1>  -0.1600 
  6 C        2.3930     0.8000     1.0600 C.3   1 <1>  -0.1600 
  7 C        2.6800     1.3670    -0.3370 C.3   1 <1>   0.4230 
  8 N        3.8020     2.3610    -0.3440 N.4   1 <1>  -0.9590 
  9 C        5.1240     1.6800    -0.1130 C.3   1 <1>   0.3430 
 10 C        3.6290     3.5310     0.5890 C.3   1 <1>   0.2630 
 11 C        6.3170     2.5490    -0.5180 C.3   1 <1>  -0.0170 
 12 C        7.5730     1.7160    -0.3570 C.ar  1 <1>  -0.1430 
 13 C        8.2340     1.6780     0.8620 C.ar  1 <1>  -0.1500 
 14 C        8.0620     0.9740    -1.4220 C.ar  1 <1>  -0.1500 
 15 C        9.3670     0.8980     1.0160 C.ar  1 <1>  -0.1500 
 16 C        9.1950     0.1940    -1.2660 C.ar  1 <1>  -0.1500 
 17 C        9.8460     0.1540    -0.0460 C.ar  1 <1>  -0.1500 
 18 H       -0.2750     1.1720     1.0090 H     1 <1>   0.4500 
 19 H       -0.6230     1.4250    -1.3390 H     1 <1>   0.0800 
 20 H        0.5360     0.1570    -1.6470 H     1 <1>   0.0800 
 21 H        1.5570    -1.0720     0.4160 H     1 <1>   0.0800 
 22 H        1.0280    -0.5650     2.0000 H     1 <1>   0.0800 
 23 H       -0.8280    -1.4320    -0.2690 H     1 <1>   0.0800 
 24 H       -1.9800    -0.1350    -0.0330 H     1 <1>   0.0800 
 25 H       -1.2980    -0.9580     1.3500 H     1 <1>   0.0800 
 26 H        1.0820     2.8320    -0.3540 H     1 <1>   0.0800 
 27 H        1.6020     2.3130    -1.9360 H     1 <1>   0.0800 
 28 H        3.2640     0.3000     1.4440 H     1 <1>   0.0800 
 29 H        2.1190     1.5780     1.7500 H     1 <1>   0.0800 
 30 H        2.9640     0.5420    -0.9740 H     1 <1>   0.0800 
 31 H        3.8530     2.7470    -1.3000 H     1 <1>   0.4500 
 32 H        5.1690     0.7720    -0.6930 H     1 <1>   0.0800 
 33 H        5.2260     1.4090     0.9260 H     1 <1>   0.0800 
 34 H        3.6460     3.2030     1.6150 H     1 <1>   0.0800 
 35 H        2.6940     4.0340     0.4010 H     1 <1>   0.0800 
 36 H        4.4240     4.2460     0.4490 H     1 <1>   0.0800 
 37 H        6.3940     3.4210     0.1060 H     1 <1>   0.0800 
 38 H        6.2280     2.8610    -1.5430 H     1 <1>   0.0800 
 39 H        7.8840     2.2530     1.7020 H     1 <1>   0.1500 
 40 H        7.5770     0.9930    -2.3820 H     1 <1>   0.1500 
 41 H        9.8800     0.8700     1.9630 H     1 <1>   0.1500 
 42 H        9.5740    -0.3810    -2.0930 H     1 <1>   0.1500 
 43 H       10.7280    -0.4520     0.0740 H     1 <1>   0.1500 
@<TRIPOS>BOND
  1   1   2  1   
  2   1   3  1   
  3   1   4  1   
  4   1  18  1   
  5   2   5  1   
  6   2  19  1   
  7   2  20  1   
  8   3   6  1   
  9   3  21  1   
 10   3  22  1   
 11   4  23  1   
 12   4  24  1   
 13   4  25  1   
 14   5   7  1   
 15   5  26  1   
 16   5  27  1   
 17   6   7  1   
 18   6  28  1   
 19   6  29  1   
 20   7   8  1   
 21   7  30  1   
 22   8   9  1   
 23   8  10  1   
 24   8  31  1   
 25   9  11  1   
 26   9  32  1   
 27   9  33  1   
 28  10  34  1   
 29  10  35  1   
 30  10  36  1   
 31  11  12  1   
 32  11  37  1   
 33  11  38  1   
 34  12  13  ar  
 35  12  14  ar  
 36  13  15  ar  
 37  13  39  1   
 38  14  16  ar  
 39  14  40  1   
 40  15  17  ar  
 41  15  41  1   
 42  16  17  ar  
 43  16  42  1   
 44  17  43  1   
@<TRIPOS>SUBSTRUCTURE
  1 ****   9 GROUP 4 **** **** 0

# MOE 2024.06 (io_trps.svl 2023.06)
