@<TRIPOS>MOLECULE
NONAME
45 47 1 0 0 
SMALL
USER_CHARGES


@<TRIPOS>ATOM
  1 BR       0.7250    -0.9410     1.9560 Br    1 <1>  -0.1110 
  2 C        2.2990    -1.5240     1.0140 C.ar  1 <1>   0.1110 
  3 C        3.0550    -0.5790     0.3390 C.ar  1 <1>  -0.1500 
  4 C        2.6270    -2.8720     1.0380 C.ar  1 <1>  -0.1500 
  5 C        4.1820    -1.0230    -0.3300 C.ar  1 <1>  -0.1440 
  6 C        3.7570    -3.3020     0.3600 C.ar  1 <1>  -0.1500 
  7 C        4.5240    -2.3670    -0.3210 C.ar  1 <1>   0.1170 
  8 C        5.2080    -0.2470    -1.1510 C.3   1 <1>   0.4850 
  9 N        5.6780    -2.5740    -1.0600 N.am  1 <1>  -0.5470 
 10 O        4.5250     0.2770    -2.2480 O.3   1 <1>  -0.6800 
 11 C        6.1620    -1.4030    -1.5430 C.2   1 <1>   0.5690 
 12 C        5.8980     0.9170    -0.4320 C.3   1 <1>  -0.0990 
 13 O        7.1930    -1.2990    -2.1660 O.2   1 <1>  -0.5700 
 14 C        6.8800     0.4340     0.6210 C.2   1 <1>   0.4230 
 15 O        6.4560    -0.3060     1.4710 O.2   1 <1>  -0.5700 
 16 C        8.2660     0.8500     0.5760 C.ar  1 <1>   0.0860 
 17 C        8.6790     2.0950     0.1010 C.ar  1 <1>  -0.1500 
 18 C        9.2670    -0.0060     1.0310 C.ar  1 <1>  -0.1500 
 19 C       10.0150     2.4500     0.0670 C.ar  1 <1>  -0.1500 
 20 C       10.6030     0.3470     0.9980 C.ar  1 <1>  -0.1500 
 21 C       11.0090     1.5850     0.5110 C.ar  1 <1>  -0.1430 
 22 C       12.4880     2.0250     0.4480 C.3   1 <1>   0.1440 
 23 C       13.4600     0.9530     0.9690 C.3   1 <1>  -0.2400 
 24 C       12.8720     2.3300    -1.0080 C.3   1 <1>  -0.2400 
 25 C       12.6850     3.2850     1.3030 C.3   1 <1>  -0.2400 
 26 H        2.7700     0.4580     0.3420 H     1 <1>   0.1500 
 27 H        2.0080    -3.5650     1.5800 H     1 <1>   0.1500 
 28 H        4.0400    -4.3390     0.3610 H     1 <1>   0.1500 
 29 H        6.2040    -3.4450    -1.1270 H     1 <1>   0.3700 
 30 H        4.0450    -0.4490    -2.6890 H     1 <1>   0.4000 
 31 H        5.1610     1.5400     0.0370 H     1 <1>   0.0800 
 32 H        6.4170     1.4890    -1.1760 H     1 <1>   0.0800 
 33 H        7.9540     2.8100    -0.2410 H     1 <1>   0.1500 
 34 H        8.9860    -0.9710     1.4160 H     1 <1>   0.1500 
 35 H       10.2770     3.4200    -0.3140 H     1 <1>   0.1500 
 36 H       11.3130    -0.3720     1.3630 H     1 <1>   0.1500 
 37 H       13.2540     0.7240     1.9990 H     1 <1>   0.0800 
 38 H       14.4760     1.3000     0.9030 H     1 <1>   0.0800 
 39 H       13.3780     0.0530     0.3860 H     1 <1>   0.0800 
 40 H       12.7040     1.4630    -1.6210 H     1 <1>   0.0800 
 41 H       13.9100     2.6030    -1.0780 H     1 <1>   0.0800 
 42 H       12.2880     3.1400    -1.4030 H     1 <1>   0.0800 
 43 H       12.3870     3.0910     2.3180 H     1 <1>   0.0800 
 44 H       12.0970     4.1040     0.9310 H     1 <1>   0.0800 
 45 H       13.7160     3.5880     1.3010 H     1 <1>   0.0800 
@<TRIPOS>BOND
  1   1   2  1   
  2   2   3  ar  
  3   2   4  ar  
  4   3   5  ar  
  5   3  26  1   
  6   4   6  ar  
  7   4  27  1   
  8   5   7  ar  
  9   5   8  1   
 10   6   7  ar  
 11   6  28  1   
 12   7   9  1   
 13   8  10  1   
 14   8  11  1   
 15   8  12  1   
 16   9  11  am  
 17   9  29  1   
 18  10  30  1   
 19  11  13  2   
 20  12  14  1   
 21  12  31  1   
 22  12  32  1   
 23  14  15  2   
 24  14  16  1   
 25  16  17  ar  
 26  16  18  ar  
 27  17  19  ar  
 28  17  33  1   
 29  18  20  ar  
 30  18  34  1   
 31  19  21  ar  
 32  19  35  1   
 33  20  21  ar  
 34  20  36  1   
 35  21  22  1   
 36  22  23  1   
 37  22  24  1   
 38  22  25  1   
 39  23  37  1   
 40  23  38  1   
 41  23  39  1   
 42  24  40  1   
 43  24  41  1   
 44  24  42  1   
 45  25  43  1   
 46  25  44  1   
 47  25  45  1   
@<TRIPOS>SUBSTRUCTURE
  1 ****  14 GROUP 4 **** **** 0

# MOE 2024.06 (io_trps.svl 2023.06)
