@<TRIPOS>MOLECULE
NONAME
32 32 1 0 0 
SMALL
USER_CHARGES


@<TRIPOS>ATOM
  1 S        0.1610     0.3950    -1.4590 S.o2  1 <1>   1.2040 
  2 O        0.8930     1.4770    -2.0800 O.2   1 <1>  -0.6500 
  3 O       -0.0820    -0.8200    -2.2070 O.2   1 <1>  -0.6500 
  4 C       -1.3870     1.0140    -0.7600 C.ar  1 <1>  -0.0090 
  5 C        1.0680    -0.0720     0.0110 C.3   1 <1>  -0.0550 
  6 C       -2.4510     0.1590    -0.5070 C.ar  1 <1>  -0.1500 
  7 C       -1.5380     2.3520    -0.4270 C.ar  1 <1>  -0.1500 
  8 C        2.4590    -0.6450    -0.3110 C.3   1 <1>  -0.0990 
  9 C       -3.6320     0.6090     0.0640 C.ar  1 <1>  -0.1430 
 10 C       -2.7100     2.8170     0.1430 C.ar  1 <1>  -0.1500 
 11 C        3.2240    -1.0410     0.9390 C.2   1 <1>   0.4480 
 12 C       -3.7620     1.9520     0.3940 C.ar  1 <1>  -0.1430 
 13 C       -4.7590    -0.3840     0.3130 C.3   1 <1>  -0.0960 
 14 O        2.7630    -0.9090     2.0310 O.2   1 <1>  -0.5700 
 15 C        4.6080    -1.6140     0.7370 C.3   1 <1>  -0.1790 
 16 C       -5.0360     2.4990     1.0230 C.3   1 <1>  -0.0970 
 17 H        0.5090    -0.8070     0.5580 H     1 <1>   0.0800 
 18 H        1.1850     0.7860     0.6460 H     1 <1>   0.0800 
 19 H       -2.3500    -0.8820    -0.7670 H     1 <1>   0.1500 
 20 H       -0.7340     3.0420    -0.6170 H     1 <1>   0.1500 
 21 H        3.0300     0.0900    -0.8490 H     1 <1>   0.0800 
 22 H        2.3490    -1.5110    -0.9390 H     1 <1>   0.0800 
 23 H       -2.7950     3.8610     0.3880 H     1 <1>   0.1500 
 24 H       -4.4820    -1.3720    -0.0060 H     1 <1>   0.0800 
 25 H       -5.6370    -0.0880    -0.2320 H     1 <1>   0.0800 
 26 H       -4.9930    -0.4220     1.3620 H     1 <1>   0.0800 
 27 H        5.2350    -0.8970     0.2410 H     1 <1>   0.0800 
 28 H        4.5520    -2.5100     0.1480 H     1 <1>   0.0800 
 29 H        5.0430    -1.8530     1.6910 H     1 <1>   0.0800 
 30 H       -5.2270     2.0040     1.9580 H     1 <1>   0.0800 
 31 H       -5.8700     2.3400     0.3630 H     1 <1>   0.0800 
 32 H       -4.9520     3.5540     1.2110 H     1 <1>   0.0800 
@<TRIPOS>BOND
  1   1   2  2   
  2   1   3  2   
  3   1   4  1   
  4   1   5  1   
  5   4   6  ar  
  6   4   7  ar  
  7   5   8  1   
  8   5  17  1   
  9   5  18  1   
 10   6   9  ar  
 11   6  19  1   
 12   7  10  ar  
 13   7  20  1   
 14   8  11  1   
 15   8  21  1   
 16   8  22  1   
 17   9  12  ar  
 18   9  13  1   
 19  10  12  ar  
 20  10  23  1   
 21  11  14  2   
 22  11  15  1   
 23  12  16  1   
 24  13  24  1   
 25  13  25  1   
 26  13  26  1   
 27  15  27  1   
 28  15  28  1   
 29  15  29  1   
 30  16  30  1   
 31  16  31  1   
 32  16  32  1   
@<TRIPOS>SUBSTRUCTURE
  1 ****   4 GROUP 4 **** **** 0

# MOE 2024.06 (io_trps.svl 2023.06)
