@<TRIPOS>MOLECULE
NONAME
52 53 1 0 0 
SMALL
USER_CHARGES


@<TRIPOS>ATOM
  1 N       -0.5150     0.4810    -0.1670 N.4   1 <1>  -0.9590 
  2 C       -1.7350     1.0840     0.4360 C.3   1 <1>   0.3430 
  3 C       -0.2020    -0.8560     0.4130 C.3   1 <1>   0.3430 
  4 C        0.6360     1.4210    -0.0250 C.3   1 <1>   0.3430 
  5 C       -2.9380     0.1610     0.2350 C.3   1 <1>  -0.1600 
  6 C       -1.3820    -1.8050     0.2040 C.3   1 <1>  -0.1600 
  7 C        1.7470     1.0250    -0.9910 C.3   1 <1>  -0.2400 
  8 C       -2.6860    -1.2480     0.7990 C.3   1 <1>   0.4230 
  9 N       -3.8340    -2.1660     0.4900 N.4   1 <1>  -0.9590 
 10 C       -5.1800    -1.6730     0.9320 C.3   1 <1>   0.4860 
 11 C       -3.6480    -3.5600     1.0100 C.3   1 <1>   0.3430 
 12 C       -6.2370    -2.4760     0.2040 C.ar  1 <1>  -0.1440 
 13 C       -3.5070    -4.5250    -0.1660 C.3   1 <1>  -0.1600 
 14 C       -6.9690    -3.4450     0.8760 C.ar  1 <1>  -0.1500 
 15 C       -6.4750    -2.2540    -1.1460 C.ar  1 <1>  -0.1500 
 16 C       -3.3060    -5.9600     0.3330 C.3   1 <1>  -0.1600 
 17 C       -7.9130    -4.1980     0.2000 C.ar  1 <1>  -0.1500 
 18 C       -7.4190    -3.0090    -1.8190 C.ar  1 <1>  -0.1500 
 19 C       -3.1680    -6.9320    -0.8420 C.3   1 <1>  -0.2400 
 20 C       -8.1350    -3.9820    -1.1470 C.ar  1 <1>  -0.1500 
 21 H       -0.6650     0.3760    -1.1820 H     1 <1>   0.4500 
 22 H       -1.9350     2.0400    -0.0230 H     1 <1>   0.0800 
 23 H       -1.5740     1.2500     1.4900 H     1 <1>   0.0800 
 24 H        0.0070    -0.7570     1.4670 H     1 <1>   0.0800 
 25 H        0.6740    -1.2690    -0.0620 H     1 <1>   0.0800 
 26 H        1.0070     1.4170     0.9880 H     1 <1>   0.0800 
 27 H        0.3190     2.4250    -0.2620 H     1 <1>   0.0800 
 28 H       -3.1670     0.1120    -0.8160 H     1 <1>   0.0800 
 29 H       -3.7660     0.6240     0.7400 H     1 <1>   0.0800 
 30 H       -1.1210    -2.7350     0.6750 H     1 <1>   0.0800 
 31 H       -1.4960    -1.9850    -0.8500 H     1 <1>   0.0800 
 32 H        2.1730     0.0700    -0.7410 H     1 <1>   0.0800 
 33 H        2.5360     1.7540    -0.9330 H     1 <1>   0.0800 
 34 H        1.3900     1.0110    -2.0060 H     1 <1>   0.0800 
 35 H       -2.5740    -1.1750     1.8700 H     1 <1>   0.0800 
 36 H       -3.9260    -2.2710    -0.5290 H     1 <1>   0.4500 
 37 H       -5.3160    -0.6360     0.6780 H     1 <1>   0.0800 
 38 H       -5.2950    -1.7830     1.9980 H     1 <1>   0.0800 
 39 H       -4.4990    -3.8600     1.6010 H     1 <1>   0.0800 
 40 H       -2.7760    -3.6210     1.6400 H     1 <1>   0.0800 
 41 H       -2.6680    -4.2520    -0.7790 H     1 <1>   0.0800 
 42 H       -4.4010    -4.4960    -0.7660 H     1 <1>   0.0800 
 43 H       -6.8220    -3.6300     1.9270 H     1 <1>   0.1500 
 44 H       -5.9410    -1.4970    -1.6940 H     1 <1>   0.1500 
 45 H       -4.1480    -6.2630     0.9350 H     1 <1>   0.0800 
 46 H       -2.4200    -6.0240     0.9430 H     1 <1>   0.0800 
 47 H       -8.4800    -4.9520     0.7200 H     1 <1>   0.1500 
 48 H       -7.6050    -2.8400    -2.8670 H     1 <1>   0.1500 
 49 H       -4.0520    -6.9140    -1.4560 H     1 <1>   0.0800 
 50 H       -3.0340    -7.9350    -0.4760 H     1 <1>   0.0800 
 51 H       -2.3180    -6.6790    -1.4520 H     1 <1>   0.0800 
 52 H       -8.8710    -4.5690    -1.6720 H     1 <1>   0.1500 
@<TRIPOS>BOND
  1   1   2  1   
  2   1   3  1   
  3   1   4  1   
  4   1  21  1   
  5   2   5  1   
  6   2  22  1   
  7   2  23  1   
  8   3   6  1   
  9   3  24  1   
 10   3  25  1   
 11   4   7  1   
 12   4  26  1   
 13   4  27  1   
 14   5   8  1   
 15   5  28  1   
 16   5  29  1   
 17   6   8  1   
 18   6  30  1   
 19   6  31  1   
 20   7  32  1   
 21   7  33  1   
 22   7  34  1   
 23   8   9  1   
 24   8  35  1   
 25   9  10  1   
 26   9  11  1   
 27   9  36  1   
 28  10  12  1   
 29  10  37  1   
 30  10  38  1   
 31  11  13  1   
 32  11  39  1   
 33  11  40  1   
 34  12  14  ar  
 35  12  15  ar  
 36  13  16  1   
 37  13  41  1   
 38  13  42  1   
 39  14  17  ar  
 40  14  43  1   
 41  15  18  ar  
 42  15  44  1   
 43  16  19  1   
 44  16  45  1   
 45  16  46  1   
 46  17  20  ar  
 47  17  47  1   
 48  18  20  ar  
 49  18  48  1   
 50  19  49  1   
 51  19  50  1   
 52  19  51  1   
 53  20  52  1   
@<TRIPOS>SUBSTRUCTURE
  1 ****   9 GROUP 4 **** **** 0

# MOE 2024.06 (io_trps.svl 2023.06)
