@<TRIPOS>MOLECULE
NONAME
39 40 1 0 0 
SMALL
USER_CHARGES


@<TRIPOS>ATOM
  1 CL       1.8320     1.8010    -1.3970 Cl    1 <1>  -0.1770 
  2 C        0.7100     2.6880    -0.3940 C.ar  1 <1>   0.1770 
  3 C       -0.6070     2.8040    -0.7890 C.ar  1 <1>  -0.1500 
  4 C        1.1660     3.2590     0.7780 C.ar  1 <1>  -0.1500 
  5 C       -1.5090     3.5080     0.0020 C.ar  1 <1>   0.1170 
  6 C        0.2810     3.9650     1.5750 C.ar  1 <1>  -0.1500 
  7 N       -2.8660     3.6690    -0.3350 N.am  1 <1>  -0.5470 
  8 C       -1.0530     4.0930     1.1930 C.ar  1 <1>   0.0830 
  9 C       -3.6510     3.1910    -1.3480 C.2   1 <1>   0.5690 
 10 O       -1.9710     4.7800     1.9380 O.3   1 <1>  -0.3620 
 11 O       -3.2460     2.4560    -2.2150 O.2   1 <1>  -0.5700 
 12 C       -5.1100     3.6150    -1.4000 C.3   1 <1>   0.1310 
 13 C       -1.6110     5.4090     3.1500 C.3   1 <1>   0.0400 
 14 S       -5.7510     4.0660     0.2860 S.3   1 <1>  -0.2860 
 15 C       -7.4170     4.6330    -0.0700 C.2   1 <1>   0.2420 
 16 N       -7.9050     4.7020    -1.2560 N.2   1 <1>  -0.3380 
 17 N       -8.2620     5.0270     0.8810 N.pl3 1 <1>   0.0480 
 18 N       -9.1470     5.1710    -1.1060 N.2   1 <1>  -0.3380 
 19 C       -9.3450     5.3600     0.1590 C.2   1 <1>   0.0060 
 20 C       -8.0320     5.0780     2.3390 C.3   1 <1>   0.0160 
 21 C      -10.6330     5.8920     0.7800 C.3   1 <1>   0.0200 
 22 C      -11.6820     6.3060    -0.2600 C.3   1 <1>  -0.2400 
 23 H       -0.9120     2.3440    -1.7080 H     1 <1>   0.1500 
 24 H        2.1990     3.1510     1.0580 H     1 <1>   0.1500 
 25 H        0.6520     4.4030     2.4820 H     1 <1>   0.1500 
 26 H       -3.3650     4.2290     0.3610 H     1 <1>   0.3700 
 27 H       -5.7220     2.8120    -1.7680 H     1 <1>   0.0800 
 28 H       -5.2260     4.4770    -2.0300 H     1 <1>   0.0800 
 29 H       -2.4860     5.8840     3.5540 H     1 <1>   0.0800 
 30 H       -0.8550     6.1480     2.9500 H     1 <1>   0.0800 
 31 H       -1.2510     4.6640     3.8370 H     1 <1>   0.0800 
 32 H       -7.4490     5.9500     2.5740 H     1 <1>   0.0800 
 33 H       -7.4980     4.1980     2.6470 H     1 <1>   0.0800 
 34 H       -8.9700     5.1210     2.8590 H     1 <1>   0.0800 
 35 H      -10.3990     6.7460     1.3900 H     1 <1>   0.0800 
 36 H      -11.0540     5.1310     1.4130 H     1 <1>   0.0800 
 37 H      -11.2870     7.0750    -0.9000 H     1 <1>   0.0800 
 38 H      -12.5640     6.6800     0.2270 H     1 <1>   0.0800 
 39 H      -11.9540     5.4610    -0.8680 H     1 <1>   0.0800 
@<TRIPOS>BOND
  1   1   2  1   
  2   2   3  ar  
  3   2   4  ar  
  4   3   5  ar  
  5   3  23  1   
  6   4   6  ar  
  7   4  24  1   
  8   5   7  1   
  9   5   8  ar  
 10   6   8  ar  
 11   6  25  1   
 12   7   9  am  
 13   7  26  1   
 14   8  10  1   
 15   9  11  2   
 16   9  12  1   
 17  10  13  1   
 18  12  14  1   
 19  12  27  1   
 20  12  28  1   
 21  13  29  1   
 22  13  30  1   
 23  13  31  1   
 24  14  15  1   
 25  15  16  2   
 26  15  17  1   
 27  16  18  1   
 28  17  19  1   
 29  17  20  1   
 30  18  19  2   
 31  19  21  1   
 32  20  32  1   
 33  20  33  1   
 34  20  34  1   
 35  21  22  1   
 36  21  35  1   
 37  21  36  1   
 38  22  37  1   
 39  22  38  1   
 40  22  39  1   
@<TRIPOS>SUBSTRUCTURE
  1 ****  14 GROUP 4 **** **** 0

# MOE 2024.06 (io_trps.svl 2023.06)
