@<TRIPOS>MOLECULE
NONAME
39 41 1 0 0 
SMALL
USER_CHARGES


@<TRIPOS>ATOM
  1 S       -0.2580     0.4320    -0.6040 S.3   1 <1>  -0.0800 
  2 C        0.9010     1.7520    -0.4980 C.ar  1 <1>   0.2970 
  3 C        0.8920    -0.7080     0.0920 C.2   1 <1>  -0.1400 
  4 N        0.5990     2.9760    -0.8730 N.ar  1 <1>  -0.5670 
  5 C        2.0980     1.3120     0.0160 C.ar  1 <1>   0.0000 
  6 C        2.0620    -0.0970     0.3670 C.2   1 <1>  -0.1810 
  7 C        0.3720    -2.1230     0.2590 C.3   1 <1>  -0.0600 
  8 C        1.6000     3.8140    -0.7010 C.ar  1 <1>   0.4770 
  9 C        3.0780     2.3110     0.1030 C.ar  1 <1>   0.4100 
 10 C        3.2600    -0.7780     1.0110 C.3   1 <1>  -0.0590 
 11 N        2.8070     3.5610    -0.2290 N.ar  1 <1>  -0.6200 
 12 C        1.3510     5.2510    -1.0900 C.3   1 <1>  -0.0960 
 13 N        4.3710     2.0610     0.5060 N.pl3 1 <1>  -0.8380 
 14 C        5.3160     1.4620    -0.4760 C.3   1 <1>   0.2090 
 15 C        4.9950     2.9050     1.5660 C.3   1 <1>   0.2090 
 16 C        6.2620     2.5150    -1.0560 C.3   1 <1>  -0.1600 
 17 C        5.9600     3.9370     0.9740 C.3   1 <1>  -0.1600 
 18 C        7.0060     3.2820     0.0540 C.3   1 <1>  -0.1860 
 19 C        8.0180     4.3000    -0.4670 C.2   1 <1>   0.9060 
 20 O        7.9980     4.6480    -1.6530 O.co2 1 <1>  -0.9000 
 21 O        8.8550     4.7360     0.3320 O.co2 1 <1>  -0.9000 
 22 H        0.0570    -2.5080    -0.6940 H     1 <1>   0.0800 
 23 H       -0.4700    -2.1230     0.9280 H     1 <1>   0.0800 
 24 H        1.1290    -2.7720     0.6560 H     1 <1>   0.0800 
 25 H        3.0040    -1.7490     1.3870 H     1 <1>   0.0800 
 26 H        3.6190    -0.1860     1.8340 H     1 <1>   0.0800 
 27 H        4.0480    -0.8900     0.2910 H     1 <1>   0.0800 
 28 H        0.4410     5.3390    -1.6530 H     1 <1>   0.0800 
 29 H        2.1690     5.6070    -1.6880 H     1 <1>   0.0800 
 30 H        1.2790     5.8500    -0.2020 H     1 <1>   0.0800 
 31 H        4.7630     1.0030    -1.2780 H     1 <1>   0.0800 
 32 H        5.8940     0.7010     0.0170 H     1 <1>   0.0800 
 33 H        5.5300     2.2660     2.2450 H     1 <1>   0.0800 
 34 H        4.2250     3.4140     2.1210 H     1 <1>   0.0800 
 35 H        5.6950     3.2090    -1.6530 H     1 <1>   0.0800 
 36 H        6.9780     2.0420    -1.7030 H     1 <1>   0.0800 
 37 H        6.4630     4.4540     1.7710 H     1 <1>   0.0800 
 38 H        5.4000     4.6660     0.4150 H     1 <1>   0.0800 
 39 H        7.5730     2.5770     0.6320 H     1 <1>   0.0800 
@<TRIPOS>BOND
  1   1   2  1   
  2   1   3  1   
  3   2   4  ar  
  4   2   5  ar  
  5   3   6  2   
  6   3   7  1   
  7   4   8  ar  
  8   5   6  1   
  9   5   9  ar  
 10   6  10  1   
 11   7  22  1   
 12   7  23  1   
 13   7  24  1   
 14   8  11  ar  
 15   8  12  1   
 16   9  11  ar  
 17   9  13  1   
 18  10  25  1   
 19  10  26  1   
 20  10  27  1   
 21  12  28  1   
 22  12  29  1   
 23  12  30  1   
 24  13  14  1   
 25  13  15  1   
 26  14  16  1   
 27  14  31  1   
 28  14  32  1   
 29  15  17  1   
 30  15  33  1   
 31  15  34  1   
 32  16  18  1   
 33  16  35  1   
 34  16  36  1   
 35  17  18  1   
 36  17  37  1   
 37  17  38  1   
 38  18  19  1   
 39  18  39  1   
 40  19  20  ar  
 41  19  21  ar  
@<TRIPOS>SUBSTRUCTURE
  1 ****   9 GROUP 4 **** **** 0

# MOE 2024.06 (io_trps.svl 2023.06)
