@<TRIPOS>MOLECULE
NONAME
39 40 1 0 0 
SMALL
USER_CHARGES


@<TRIPOS>ATOM
  1 O       -0.1160     0.8370     2.0630 O.2   1 <1>  -0.5700 
  2 C        0.2910    -0.1960     1.5850 C.2   1 <1>   0.5690 
  3 N        1.5130    -0.3430     1.0010 N.am  1 <1>  -0.5470 
  4 C       -0.6080    -1.4360     1.6110 C.3   1 <1>   0.1710 
  5 C        2.5460     0.5480     0.6690 C.ar  1 <1>   0.1170 
  6 N       -0.2680    -2.4670     0.5800 N.3   1 <1>  -0.8100 
  7 C        3.4570     0.1710    -0.3230 C.ar  1 <1>   0.0830 
  8 C        2.6990     1.7800     1.2920 C.ar  1 <1>  -0.1500 
  9 C       -0.9310    -3.7660     0.8480 C.3   1 <1>   0.1100 
 10 C       -0.5430    -1.9710    -0.7960 C.3   1 <1>   0.1100 
 11 O        3.2620    -1.0470    -0.9130 O.3   1 <1>  -0.3630 
 12 C        4.5000     1.0240    -0.6700 C.ar  1 <1>  -0.1500 
 13 C        3.7360     2.6260     0.9410 C.ar  1 <1>  -0.1500 
 14 C       -2.2110    -3.9650     0.0110 C.3   1 <1>   0.1200 
 15 C       -0.8540    -3.1160    -1.7760 C.3   1 <1>   0.1200 
 16 C        4.1060    -1.5130    -1.9380 C.3   1 <1>   0.1200 
 17 C        4.6360     2.2490    -0.0390 C.ar  1 <1>  -0.1500 
 18 O       -1.9740    -3.8630    -1.3700 O.3   1 <1>  -0.5600 
 19 C        3.5830    -2.8730    -2.3890 C.3   1 <1>  -0.2400 
 20 H        1.6280    -1.2740     0.5820 H     1 <1>   0.3700 
 21 H       -1.6300    -1.1240     1.4930 H     1 <1>   0.0800 
 22 H       -0.5060    -1.8680     2.5900 H     1 <1>   0.0800 
 23 H        2.0070     2.0820     2.0570 H     1 <1>   0.1500 
 24 H       -1.1620    -3.8640     1.8950 H     1 <1>   0.0800 
 25 H       -0.2460    -4.5580     0.6010 H     1 <1>   0.0800 
 26 H        0.3110    -1.4230    -1.1560 H     1 <1>   0.0800 
 27 H       -1.3850    -1.3000    -0.7920 H     1 <1>   0.0800 
 28 H        5.2140     0.7590    -1.4260 H     1 <1>   0.1500 
 29 H        3.8400     3.5780     1.4330 H     1 <1>   0.1500 
 30 H       -2.9400    -3.2200     0.2760 H     1 <1>   0.0800 
 31 H       -2.6320    -4.9370     0.1970 H     1 <1>   0.0800 
 32 H       -0.0120    -3.7820    -1.8410 H     1 <1>   0.0800 
 33 H       -1.0610    -2.7260    -2.7570 H     1 <1>   0.0800 
 34 H        5.1050    -1.5990    -1.5460 H     1 <1>   0.0800 
 35 H        4.0810    -0.8070    -2.7510 H     1 <1>   0.0800 
 36 H        5.4430     2.9080    -0.3090 H     1 <1>   0.1500 
 37 H        3.5910    -3.5640    -1.5650 H     1 <1>   0.0800 
 38 H        4.2090    -3.2640    -3.1710 H     1 <1>   0.0800 
 39 H        2.5810    -2.7770    -2.7680 H     1 <1>   0.0800 
@<TRIPOS>BOND
  1   1   2  2   
  2   2   3  am  
  3   2   4  1   
  4   3   5  1   
  5   3  20  1   
  6   4   6  1   
  7   4  21  1   
  8   4  22  1   
  9   5   7  ar  
 10   5   8  ar  
 11   6   9  1   
 12   6  10  1   
 13   7  11  1   
 14   7  12  ar  
 15   8  13  ar  
 16   8  23  1   
 17   9  14  1   
 18   9  24  1   
 19   9  25  1   
 20  10  15  1   
 21  10  26  1   
 22  10  27  1   
 23  11  16  1   
 24  12  17  ar  
 25  12  28  1   
 26  13  17  ar  
 27  13  29  1   
 28  14  18  1   
 29  14  30  1   
 30  14  31  1   
 31  15  18  1   
 32  15  32  1   
 33  15  33  1   
 34  16  19  1   
 35  16  34  1   
 36  16  35  1   
 37  17  36  1   
 38  19  37  1   
 39  19  38  1   
 40  19  39  1   
@<TRIPOS>SUBSTRUCTURE
  1 ****   3 GROUP 4 **** **** 0

# MOE 2024.06 (io_trps.svl 2023.06)
