@<TRIPOS>MOLECULE
NONAME
35 35 1 0 0 
SMALL
USER_CHARGES


@<TRIPOS>ATOM
  1 O        0.5570     0.4550     2.2110 O.2   1 <1>  -0.5700 
  2 C        0.9990     1.4030     1.5980 C.2   1 <1>   0.5440 
  3 N        2.3540     1.5080     1.5680 N.am  1 <1>  -0.7300 
  4 C        0.1150     2.3350     0.9230 C.ar  1 <1>   0.0860 
  5 C        3.1810     2.1840     0.5470 C.3   1 <1>   0.2200 
  6 C       -0.9470     1.8780     0.1450 C.ar  1 <1>  -0.1500 
  7 C        0.2840     3.7140     1.0260 C.ar  1 <1>  -0.1500 
  8 C        3.6560     1.1520    -0.4870 C.3   1 <1>   0.1200 
  9 C        4.3370     2.8700     1.2730 C.3   1 <1>  -0.2400 
 10 C       -1.7960     2.7450    -0.5220 C.ar  1 <1>  -0.1430 
 11 C       -0.5540     4.5910     0.3660 C.ar  1 <1>  -0.1500 
 12 O        4.4340     1.7820    -1.4600 O.3   1 <1>  -0.5600 
 13 C       -1.5970     4.1170    -0.4150 C.ar  1 <1>  -0.1430 
 14 C       -2.9320     2.1700    -1.3570 C.3   1 <1>  -0.0970 
 15 C        4.8880     0.9280    -2.4590 C.3   1 <1>   0.0400 
 16 C       -2.4990     5.1130    -1.1300 C.3   1 <1>  -0.0970 
 17 H        2.8430     0.8160     2.1370 H     1 <1>   0.3700 
 18 H        2.5930     2.9230     0.0320 H     1 <1>   0.0800 
 19 H       -1.0970     0.8150     0.0750 H     1 <1>   0.1500 
 20 H        1.0840     4.0980     1.6350 H     1 <1>   0.1500 
 21 H        2.8050     0.7030    -0.9710 H     1 <1>   0.0800 
 22 H        4.2540     0.3940    -0.0120 H     1 <1>   0.0800 
 23 H        4.9590     2.1470     1.7670 H     1 <1>   0.0800 
 24 H        3.9580     3.5720     1.9940 H     1 <1>   0.0800 
 25 H        4.9410     3.4090     0.5640 H     1 <1>   0.0800 
 26 H       -0.3910     5.6500     0.4650 H     1 <1>   0.1500 
 27 H       -2.9360     1.0960    -1.3160 H     1 <1>   0.0800 
 28 H       -2.8230     2.4680    -2.3840 H     1 <1>   0.0800 
 29 H       -3.8770     2.5250    -0.9860 H     1 <1>   0.0800 
 30 H        5.4730     1.5060    -3.1530 H     1 <1>   0.0800 
 31 H        4.0430     0.4970    -2.9700 H     1 <1>   0.0800 
 32 H        5.5000     0.1590    -2.0200 H     1 <1>   0.0800 
 33 H       -3.5120     5.0010    -0.7890 H     1 <1>   0.0800 
 34 H       -2.4640     4.9450    -2.1910 H     1 <1>   0.0800 
 35 H       -2.1880     6.1230    -0.9380 H     1 <1>   0.0800 
@<TRIPOS>BOND
  1   1   2  2   
  2   2   3  am  
  3   2   4  1   
  4   3   5  1   
  5   3  17  1   
  6   4   6  ar  
  7   4   7  ar  
  8   5   8  1   
  9   5   9  1   
 10   5  18  1   
 11   6  10  ar  
 12   6  19  1   
 13   7  11  ar  
 14   7  20  1   
 15   8  12  1   
 16   8  21  1   
 17   8  22  1   
 18   9  23  1   
 19   9  24  1   
 20   9  25  1   
 21  10  13  ar  
 22  10  14  1   
 23  11  13  ar  
 24  11  26  1   
 25  12  15  1   
 26  13  16  1   
 27  14  27  1   
 28  14  28  1   
 29  14  29  1   
 30  15  30  1   
 31  15  31  1   
 32  15  32  1   
 33  16  33  1   
 34  16  34  1   
 35  16  35  1   
@<TRIPOS>SUBSTRUCTURE
  1 ****   4 GROUP 4 **** **** 0

# MOE 2024.06 (io_trps.svl 2023.06)
