@<TRIPOS>MOLECULE
NONAME
28 27 1 0 0 
SMALL
USER_CHARGES


@<TRIPOS>ATOM
  1 O        0.5010    -1.1270    -1.8070 O.2   1 <1>  -0.5200 
  2 N        0.4680    -1.6100    -0.6600 N.pl3 1 <1>   0.8360 
  3 O        0.8940    -0.9430     0.3010 O.2   1 <1>  -0.5200 
  4 C       -0.1880    -2.8180    -0.4320 C.2   1 <1>   0.2190 
  5 C        0.6750    -3.9490    -0.4880 C.2   1 <1>   0.7060 
  6 C       -1.5380    -2.8080    -0.1870 C.2   1 <1>  -0.0500 
  7 O        1.8710    -3.8830    -0.7150 O.2   1 <1>  -0.5700 
  8 O        0.1580    -5.1740    -0.2810 O.3   1 <1>  -0.4300 
  9 N       -2.3560    -3.8810     0.0580 N.pl3 1 <1>  -0.8690 
 10 C        0.9580    -6.3420    -0.3220 C.3   1 <1>   0.0400 
 11 C       -3.7970    -3.8670     0.3200 C.3   1 <1>   0.3690 
 12 C       -4.5130    -3.2720    -0.8900 C.3   1 <1>  -0.2400 
 13 C       -4.2210    -5.3170     0.5270 C.3   1 <1>  -0.2400 
 14 C       -4.0620    -3.0490     1.5810 C.3   1 <1>  -0.2400 
 15 H       -2.0310    -1.8470    -0.1840 H     1 <1>   0.1500 
 16 H       -1.9690    -4.8370     0.0740 H     1 <1>   0.4000 
 17 H        0.3310    -7.1930    -0.1280 H     1 <1>   0.0800 
 18 H        1.7240    -6.2680     0.4310 H     1 <1>   0.0800 
 19 H        1.4050    -6.4260    -1.2980 H     1 <1>   0.0800 
 20 H       -4.2730    -3.8300    -1.7770 H     1 <1>   0.0800 
 21 H       -4.2280    -2.2460    -1.0350 H     1 <1>   0.0800 
 22 H       -5.5770    -3.3060    -0.7430 H     1 <1>   0.0800 
 23 H       -5.2760    -5.3670     0.7240 H     1 <1>   0.0800 
 24 H       -3.7020    -5.7440     1.3660 H     1 <1>   0.0800 
 25 H       -4.0150    -5.8990    -0.3530 H     1 <1>   0.0800 
 26 H       -5.1090    -3.0750     1.8240 H     1 <1>   0.0800 
 27 H       -3.7780    -2.0240     1.4370 H     1 <1>   0.0800 
 28 H       -3.5100    -3.4530     2.4100 H     1 <1>   0.0800 
@<TRIPOS>BOND
  1   1   2  2   
  2   2   3  2   
  3   2   4  1   
  4   4   5  1   
  5   4   6  2   
  6   5   7  2   
  7   5   8  1   
  8   6   9  1   
  9   6  15  1   
 10   8  10  1   
 11   9  11  1   
 12   9  16  1   
 13  10  17  1   
 14  10  18  1   
 15  10  19  1   
 16  11  12  1   
 17  11  13  1   
 18  11  14  1   
 19  12  20  1   
 20  12  21  1   
 21  12  22  1   
 22  13  23  1   
 23  13  24  1   
 24  13  25  1   
 25  14  26  1   
 26  14  27  1   
 27  14  28  1   
@<TRIPOS>SUBSTRUCTURE
  1 ****   6 GROUP 4 **** **** 0

# MOE 2024.06 (io_trps.svl 2023.06)
