@<TRIPOS>MOLECULE
NONAME
40 41 1 0 0 
SMALL
USER_CHARGES


@<TRIPOS>ATOM
  1 O        0.7480     0.8060    -1.1710 O.2   1 <1>  -0.5700 
  2 C        0.1250     1.8110    -1.4130 C.2   1 <1>   0.5690 
  3 N        0.1200     2.8850    -0.5630 N.am  1 <1>  -0.6600 
  4 C       -0.6720     1.8410    -2.6970 C.3   1 <1>  -0.1790 
  5 C       -0.7040     4.1100    -0.7780 C.3   1 <1>   0.2780 
  6 C        0.8870     2.8460     0.7160 C.3   1 <1>   0.1400 
  7 C       -2.1040     3.9840    -0.1880 C.2   1 <1>  -0.1240 
  8 C        2.3740     3.1890     0.5060 C.3   1 <1>  -0.0800 
  9 C       -2.9250     5.1460    -0.3380 C.2   1 <1>   0.6160 
 10 C       -2.5950     2.8820     0.4400 C.2   1 <1>  -0.1780 
 11 C        3.1300     3.0570     1.8340 C.3   1 <1>  -0.2400 
 12 C        2.5920     4.5980    -0.0670 C.3   1 <1>  -0.2400 
 13 O       -2.5500     6.1630    -0.8950 O.2   1 <1>  -0.5700 
 14 N       -4.1900     5.1160     0.1630 N.am  1 <1>  -0.5470 
 15 C       -3.9290     2.8610     0.9600 C.ar  1 <1>   0.0280 
 16 C       -4.7260     4.0090     0.8110 C.ar  1 <1>   0.1170 
 17 C       -4.4700     1.7500     1.6090 C.ar  1 <1>  -0.1500 
 18 C       -6.0270     4.0200     1.3070 C.ar  1 <1>  -0.1500 
 19 C       -5.7600     1.7730     2.0960 C.ar  1 <1>  -0.1500 
 20 C       -6.5420     2.9110     1.9450 C.ar  1 <1>  -0.1500 
 21 H       -0.2820     2.5970    -3.3500 H     1 <1>   0.0800 
 22 H       -1.7070     2.0360    -2.4850 H     1 <1>   0.0800 
 23 H       -0.5980     0.8890    -3.1900 H     1 <1>   0.0800 
 24 H       -0.7780     4.3220    -1.8300 H     1 <1>   0.0800 
 25 H       -0.2100     4.9520    -0.3250 H     1 <1>   0.0800 
 26 H        0.8130     1.8540     1.1310 H     1 <1>   0.0800 
 27 H        0.4490     3.5260     1.4260 H     1 <1>   0.0800 
 28 H        2.7880     2.4690    -0.1810 H     1 <1>   0.0800 
 29 H       -2.0130     1.9870     0.5730 H     1 <1>   0.1500 
 30 H        2.7530     3.7570     2.5590 H     1 <1>   0.0800 
 31 H        4.1790     3.2450     1.6870 H     1 <1>   0.0800 
 32 H        3.0210     2.0610     2.2260 H     1 <1>   0.0800 
 33 H        2.1500     5.3410     0.5720 H     1 <1>   0.0800 
 34 H        2.1570     4.6760    -1.0470 H     1 <1>   0.0800 
 35 H        3.6440     4.8040    -0.1570 H     1 <1>   0.0800 
 36 H       -4.7340     5.9670     0.0340 H     1 <1>   0.3700 
 37 H       -3.8680     0.8660     1.7280 H     1 <1>   0.1500 
 38 H       -6.6310     4.9000     1.1890 H     1 <1>   0.1500 
 39 H       -6.1670     0.9100     2.5950 H     1 <1>   0.1500 
 40 H       -7.5480     2.9220     2.3280 H     1 <1>   0.1500 
@<TRIPOS>BOND
  1   1   2  2   
  2   2   3  am  
  3   2   4  1   
  4   3   5  1   
  5   3   6  1   
  6   4  21  1   
  7   4  22  1   
  8   4  23  1   
  9   5   7  1   
 10   5  24  1   
 11   5  25  1   
 12   6   8  1   
 13   6  26  1   
 14   6  27  1   
 15   7   9  1   
 16   7  10  2   
 17   8  11  1   
 18   8  12  1   
 19   8  28  1   
 20   9  13  2   
 21   9  14  am  
 22  10  15  1   
 23  10  29  1   
 24  11  30  1   
 25  11  31  1   
 26  11  32  1   
 27  12  33  1   
 28  12  34  1   
 29  12  35  1   
 30  14  16  1   
 31  14  36  1   
 32  15  16  ar  
 33  15  17  ar  
 34  16  18  ar  
 35  17  19  ar  
 36  17  37  1   
 37  18  20  ar  
 38  18  38  1   
 39  19  20  ar  
 40  19  39  1   
 41  20  40  1   
@<TRIPOS>SUBSTRUCTURE
  1 ****   7 GROUP 4 **** **** 0

# MOE 2024.06 (io_trps.svl 2023.06)
