@<TRIPOS>MOLECULE
NONAME
48 50 1 0 0 
SMALL
USER_CHARGES


@<TRIPOS>ATOM
  1 S        0.0670    -1.1640    -0.3140 S.o2  1 <1>   1.4470 
  2 O        1.4380    -1.6070    -0.1780 O.2   1 <1>  -0.6500 
  3 O       -0.8210    -1.8770    -1.2040 O.2   1 <1>  -0.6500 
  4 N        0.1610     0.4590    -0.9040 N.am  1 <1>  -0.6930 
  5 C       -0.6640    -0.9770     1.3350 C.ar  1 <1>  -0.0090 
  6 C       -0.9640     1.2860    -0.9510 C.ar  1 <1>   0.1990 
  7 C        1.4230     0.9140    -1.5650 C.3   1 <1>   0.2570 
  8 C       -0.1250    -0.0990     2.2690 C.ar  1 <1>  -0.1500 
  9 C       -1.7790    -1.7180     1.7120 C.ar  1 <1>  -0.1500 
 10 C       -1.0800     2.4170    -0.1330 C.ar  1 <1>   0.0830 
 11 C       -1.9970     0.9980    -1.8340 C.ar  1 <1>  -0.1500 
 12 C        2.4950     1.4490    -0.6090 C.2   1 <1>   0.5690 
 13 C       -0.6750     0.0370     3.5310 C.ar  1 <1>  -0.1500 
 14 C       -2.3360    -1.5890     2.9730 C.ar  1 <1>  -0.1500 
 15 O       -0.0850     2.7040     0.7490 O.3   1 <1>  -0.3620 
 16 C       -2.2070     3.2210    -0.2060 C.ar  1 <1>  -0.1500 
 17 C       -3.1220     1.8020    -1.9140 C.ar  1 <1>  -0.1440 
 18 O        2.8620     2.5970    -0.7290 O.2   1 <1>  -0.5700 
 19 N        3.0260     0.6160     0.3280 N.am  1 <1>  -0.5790 
 20 C       -1.7820    -0.7100     3.8850 C.ar  1 <1>  -0.1500 
 21 C        0.4530     4.0090     0.7350 C.3   1 <1>   0.0400 
 22 C       -3.2230     2.9150    -1.0960 C.ar  1 <1>  -0.1500 
 23 C       -4.2400     1.4640    -2.8830 C.3   1 <1>  -0.0970 
 24 C        4.0110     0.9720     1.3550 C.3   1 <1>   0.0490 
 25 C        4.9890    -0.0720     1.7770 C.3   1 <1>  -0.2000 
 26 C        3.8760     0.3320     2.6960 C.3   1 <1>  -0.2000 
 27 H        1.1830     1.6980    -2.2610 H     1 <1>   0.0800 
 28 H        1.8410     0.1010    -2.1290 H     1 <1>   0.0800 
 29 H        0.7330     0.4960     2.0050 H     1 <1>   0.1500 
 30 H       -2.2200    -2.4040     1.0080 H     1 <1>   0.1500 
 31 H       -1.9140     0.1300    -2.4640 H     1 <1>   0.1500 
 32 H       -0.2420     0.7280     4.2340 H     1 <1>   0.1500 
 33 H       -3.2000    -2.1720     3.2430 H     1 <1>   0.1500 
 34 H       -2.3040     4.0780     0.4330 H     1 <1>   0.1500 
 35 H        2.7120    -0.3650     0.3400 H     1 <1>   0.3700 
 36 H       -2.2130    -0.6060     4.8660 H     1 <1>   0.1500 
 37 H       -0.2470     4.6880     1.1850 H     1 <1>   0.0800 
 38 H        0.6620     4.2900    -0.2830 H     1 <1>   0.0800 
 39 H        1.3680     3.9970     1.3000 H     1 <1>   0.0800 
 40 H       -4.0950     3.5440    -1.1440 H     1 <1>   0.1500 
 41 H       -3.8720     0.8560    -3.6900 H     1 <1>   0.0800 
 42 H       -4.6590     2.3630    -3.2990 H     1 <1>   0.0800 
 43 H       -5.0150     0.9240    -2.3690 H     1 <1>   0.0800 
 44 H        4.3370     1.9990     1.2980 H     1 <1>   0.1000 
 45 H        5.9910     0.2310     2.0260 H     1 <1>   0.1000 
 46 H        4.9520    -1.0380     1.3030 H     1 <1>   0.1000 
 47 H        3.0700    -0.3590     2.8680 H     1 <1>   0.1000 
 48 H        4.1230     0.9090     3.5700 H     1 <1>   0.1000 
@<TRIPOS>BOND
  1   1   2  2   
  2   1   3  2   
  3   1   4  am  
  4   1   5  1   
  5   4   6  1   
  6   4   7  1   
  7   5   8  ar  
  8   5   9  ar  
  9   6  10  ar  
 10   6  11  ar  
 11   7  12  1   
 12   7  27  1   
 13   7  28  1   
 14   8  13  ar  
 15   8  29  1   
 16   9  14  ar  
 17   9  30  1   
 18  10  15  1   
 19  10  16  ar  
 20  11  17  ar  
 21  11  31  1   
 22  12  18  2   
 23  12  19  am  
 24  13  20  ar  
 25  13  32  1   
 26  14  20  ar  
 27  14  33  1   
 28  15  21  1   
 29  16  22  ar  
 30  16  34  1   
 31  17  22  ar  
 32  17  23  1   
 33  19  24  1   
 34  19  35  1   
 35  20  36  1   
 36  21  37  1   
 37  21  38  1   
 38  21  39  1   
 39  22  40  1   
 40  23  41  1   
 41  23  42  1   
 42  23  43  1   
 43  24  25  1   
 44  24  26  1   
 45  24  44  1   
 46  25  26  1   
 47  25  45  1   
 48  25  46  1   
 49  26  47  1   
 50  26  48  1   
@<TRIPOS>SUBSTRUCTURE
  1 ****   4 GROUP 4 **** **** 0

# MOE 2024.06 (io_trps.svl 2023.06)
