@<TRIPOS>MOLECULE
NONAME
32 32 1 0 0 
SMALL
USER_CHARGES


@<TRIPOS>ATOM
  1 S       -0.1780    -0.0210    -0.8890 S.o2  1 <1>   1.3330 
  2 O        0.3420     1.2950    -1.1800 O.2   1 <1>  -0.6500 
  3 O       -0.4540    -0.9470    -1.9630 O.2   1 <1>  -0.6500 
  4 N       -1.5940     0.1620     0.0200 N.am  1 <1>  -0.8490 
  5 C        0.9300    -0.7920     0.2710 C.3   1 <1>  -0.1350 
  6 C       -2.4180    -1.0640     0.0430 C.3   1 <1>   0.1960 
  7 C       -2.4110     1.2900    -0.4680 C.3   1 <1>   0.1960 
  8 C       -3.6480    -0.9100     0.9520 C.3   1 <1>   0.1400 
  9 C       -3.6600     1.5230     0.4020 C.3   1 <1>   0.1400 
 10 N       -4.4670     0.2700     0.5430 N.am  1 <1>  -0.6600 
 11 C       -5.8140     0.1570     0.2940 C.2   1 <1>   0.5690 
 12 O       -6.3750    -0.9100     0.3900 O.2   1 <1>  -0.5700 
 13 C       -6.6120     1.3910    -0.1110 C.3   1 <1>  -0.0990 
 14 C       -8.1290     1.1910    -0.3120 C.3   1 <1>  -0.2660 
 15 C       -8.8190     2.4860    -0.6730 C.2   1 <1>   0.9060 
 16 O       -9.9030     2.7460    -0.1450 O.co2 1 <1>  -0.9000 
 17 O       -8.2660     3.2480    -1.4720 O.co2 1 <1>  -0.9000 
 18 H        1.0490    -0.1670     1.1340 H     1 <1>   0.0800 
 19 H        1.8900    -0.9380    -0.1830 H     1 <1>   0.0800 
 20 H        0.5470    -1.7440     0.5800 H     1 <1>   0.0800 
 21 H       -1.8280    -1.8910     0.3990 H     1 <1>   0.0800 
 22 H       -2.7540    -1.3040    -0.9530 H     1 <1>   0.0800 
 23 H       -2.7160     1.1080    -1.4860 H     1 <1>   0.0800 
 24 H       -1.8250     2.1930    -0.4580 H     1 <1>   0.0800 
 25 H       -3.3260    -0.7780     1.9700 H     1 <1>   0.0800 
 26 H       -4.2330    -1.8110     0.9050 H     1 <1>   0.0800 
 27 H       -4.2400     2.3140    -0.0360 H     1 <1>   0.0800 
 28 H       -3.3490     1.8480     1.3800 H     1 <1>   0.0800 
 29 H       -6.2040     1.7630    -1.0330 H     1 <1>   0.0800 
 30 H       -6.4760     2.1460     0.6420 H     1 <1>   0.0800 
 31 H       -8.5730     0.8110     0.5890 H     1 <1>   0.0800 
 32 H       -8.3080     0.4900    -1.1030 H     1 <1>   0.0800 
@<TRIPOS>BOND
  1   1   2  2   
  2   1   3  2   
  3   1   4  am  
  4   1   5  1   
  5   4   6  1   
  6   4   7  1   
  7   5  18  1   
  8   5  19  1   
  9   5  20  1   
 10   6   8  1   
 11   6  21  1   
 12   6  22  1   
 13   7   9  1   
 14   7  23  1   
 15   7  24  1   
 16   8  10  1   
 17   8  25  1   
 18   8  26  1   
 19   9  10  1   
 20   9  27  1   
 21   9  28  1   
 22  10  11  am  
 23  11  12  2   
 24  11  13  1   
 25  13  14  1   
 26  13  29  1   
 27  13  30  1   
 28  14  15  1   
 29  14  31  1   
 30  14  32  1   
 31  15  16  ar  
 32  15  17  ar  
@<TRIPOS>SUBSTRUCTURE
  1 ****  10 GROUP 4 **** **** 0

# MOE 2024.06 (io_trps.svl 2023.06)
