@<TRIPOS>MOLECULE
NONAME
49 53 1 0 0 
SMALL
USER_CHARGES


@<TRIPOS>ATOM
  1 S       -0.3430    -0.2010     1.3210 S.3   1 <1>  -0.0800 
  2 C       -1.7760     0.6600     0.7520 C.ar  1 <1>   0.2970 
  3 C        0.7060     1.1950     1.0130 C.ar  1 <1>   0.0400 
  4 N       -2.9440     0.0570     0.7300 N.ar  1 <1>  -0.5670 
  5 C       -1.4490     1.9560     0.3720 C.ar  1 <1>   0.0000 
  6 C        2.0610     1.3710     1.2010 C.ar  1 <1>   0.4120 
  7 C       -0.0410     2.2460     0.5270 C.ar  1 <1>   0.2560 
  8 C       -3.9260     0.8210     0.2710 C.ar  1 <1>   0.4100 
  9 C       -2.5060     2.7420    -0.0900 C.ar  1 <1>  -0.1430 
 10 S        3.1800     0.1050     1.8160 S.3   1 <1>  -0.3320 
 11 N        2.6490     2.5180     0.9450 N.ar  1 <1>  -0.6200 
 12 N        0.5480     3.4050     0.2470 N.ar  1 <1>  -0.5660 
 13 N       -5.1710     0.2360     0.2130 N.pl3 1 <1>  -0.8380 
 14 C       -3.7500     2.1490    -0.1460 C.ar  1 <1>  -0.1430 
 15 C       -2.3400     4.1890    -0.5360 C.3   1 <1>  -0.0170 
 16 C        2.5480    -1.5410     1.2650 C.3   1 <1>  -0.0100 
 17 C        1.8470     3.4660     0.4780 C.ar  1 <1>   0.4700 
 18 C       -5.7040    -0.3630     1.4710 C.3   1 <1>   0.2090 
 19 C       -5.4210    -0.6590    -0.9530 C.3   1 <1>   0.2090 
 20 C       -4.9660     2.9240    -0.6440 C.3   1 <1>   0.2630 
 21 C       -3.6810     4.9430    -0.6070 C.3   1 <1>   0.2800 
 22 C       -7.1770    -0.7760     1.2940 C.3   1 <1>   0.1200 
 23 C       -6.9070    -1.0590    -1.0220 C.3   1 <1>   0.1200 
 24 O       -4.6190     4.1400    -1.2530 O.3   1 <1>  -0.5600 
 25 C       -4.2050     5.3460     0.7810 C.3   1 <1>  -0.2400 
 26 C       -3.5450     6.1950    -1.4740 C.3   1 <1>  -0.2400 
 27 O       -7.3360    -1.6230     0.1880 O.3   1 <1>  -0.5600 
 28 H       -1.8720     4.1920    -1.5040 H     1 <1>   0.0800 
 29 H       -1.6930     4.7160     0.1400 H     1 <1>   0.0800 
 30 H        3.3820    -2.2190     1.2560 H     1 <1>   0.0800 
 31 H        2.1380    -1.4320     0.2780 H     1 <1>   0.0800 
 32 H        1.8060    -1.8690     1.9710 H     1 <1>   0.0800 
 33 H        2.3220     4.4080     0.2580 H     1 <1>   0.1500 
 34 H       -5.6200     0.3510     2.2710 H     1 <1>   0.0800 
 35 H       -5.1220    -1.2300     1.7340 H     1 <1>   0.0800 
 36 H       -4.8170    -1.5450    -0.8600 H     1 <1>   0.0800 
 37 H       -5.1390    -0.1550    -1.8610 H     1 <1>   0.0800 
 38 H       -5.6380     3.1280     0.1700 H     1 <1>   0.0800 
 39 H       -5.4960     2.3470    -1.3800 H     1 <1>   0.0800 
 40 H       -7.7940     0.0940     1.1520 H     1 <1>   0.0800 
 41 H       -7.5190    -1.3060     2.1650 H     1 <1>   0.0800 
 42 H       -7.0570    -1.7900    -1.7960 H     1 <1>   0.0800 
 43 H       -7.5160    -0.1980    -1.2340 H     1 <1>   0.0800 
 44 H       -4.2280     4.5060     1.4510 H     1 <1>   0.0800 
 45 H       -5.1910     5.7660     0.6990 H     1 <1>   0.0800 
 46 H       -3.5570     6.0860     1.2150 H     1 <1>   0.0800 
 47 H       -3.2360     5.9290    -2.4680 H     1 <1>   0.0800 
 48 H       -2.8130     6.8630    -1.0560 H     1 <1>   0.0800 
 49 H       -4.4860     6.7110    -1.5300 H     1 <1>   0.0800 
@<TRIPOS>BOND
  1   1   2  1   
  2   1   3  1   
  3   2   4  ar  
  4   2   5  ar  
  5   3   6  ar  
  6   3   7  ar  
  7   4   8  ar  
  8   5   7  1   
  9   5   9  ar  
 10   6  10  1   
 11   6  11  ar  
 12   7  12  ar  
 13   8  13  1   
 14   8  14  ar  
 15   9  14  ar  
 16   9  15  1   
 17  10  16  1   
 18  11  17  ar  
 19  12  17  ar  
 20  13  18  1   
 21  13  19  1   
 22  14  20  1   
 23  15  21  1   
 24  15  28  1   
 25  15  29  1   
 26  16  30  1   
 27  16  31  1   
 28  16  32  1   
 29  17  33  1   
 30  18  22  1   
 31  18  34  1   
 32  18  35  1   
 33  19  23  1   
 34  19  36  1   
 35  19  37  1   
 36  20  24  1   
 37  20  38  1   
 38  20  39  1   
 39  21  24  1   
 40  21  25  1   
 41  21  26  1   
 42  22  27  1   
 43  22  40  1   
 44  22  41  1   
 45  23  27  1   
 46  23  42  1   
 47  23  43  1   
 48  25  44  1   
 49  25  45  1   
 50  25  46  1   
 51  26  47  1   
 52  26  48  1   
 53  26  49  1   
@<TRIPOS>SUBSTRUCTURE
  1 ****   5 GROUP 4 **** **** 0

# MOE 2024.06 (io_trps.svl 2023.06)
