@<TRIPOS>MOLECULE
NONAME
43 45 1 0 0 
SMALL
USER_CHARGES


@<TRIPOS>ATOM
  1 O        0.6150    -0.2050     1.4780 O.2   1 <1>  -0.5700 
  2 C        1.0800    -1.3060     1.2540 C.2   1 <1>   0.5440 
  3 N        2.4360    -1.4290     1.0330 N.am  1 <1>  -0.6600 
  4 C        0.1980    -2.4560     1.2130 C.ar  1 <1>   0.0860 
  5 C        3.3770    -0.2760     1.2230 C.3   1 <1>   0.1400 
  6 C        3.0620    -2.5990     0.3340 C.3   1 <1>   0.1400 
  7 C       -0.8860    -2.4950     0.3410 C.ar  1 <1>  -0.1500 
  8 C        0.4040    -3.5600     2.0400 C.ar  1 <1>  -0.1500 
  9 C        4.0380     0.1350    -0.1040 C.3   1 <1>   0.2090 
 10 C        3.7180    -2.1660    -0.9890 C.3   1 <1>   0.2090 
 11 C       -1.7260    -3.5930     0.2740 C.ar  1 <1>   0.0820 
 12 C       -0.4280    -4.6630     1.9870 C.ar  1 <1>  -0.1500 
 13 N        4.6840    -1.0490    -0.7550 N.pl3 1 <1>  -0.8380 
 14 O       -2.7430    -3.5280    -0.6190 O.3   1 <1>  -0.3630 
 15 C       -1.4930    -4.6860     1.1050 C.ar  1 <1>  -0.1500 
 16 C        6.0490    -1.2460    -0.7160 C.ar  1 <1>   0.7200 
 17 C       -3.7090    -4.5490    -0.7100 C.3   1 <1>   0.1200 
 18 N        6.4870    -2.5040    -0.7730 N.ar  1 <1>  -0.6200 
 19 N        6.8130    -0.1590    -0.6170 N.ar  1 <1>  -0.6200 
 20 C       -4.7260    -4.1420    -1.7710 C.3   1 <1>  -0.2400 
 21 C        7.7860    -2.6710    -0.7410 C.ar  1 <1>   0.1600 
 22 C        8.1080    -0.3570    -0.5880 C.ar  1 <1>   0.1600 
 23 C        8.6560    -1.6140    -0.6480 C.ar  1 <1>  -0.1500 
 24 H        4.1460    -0.5630     1.9190 H     1 <1>   0.0800 
 25 H        2.8630     0.5720     1.6380 H     1 <1>   0.0800 
 26 H        2.3320    -3.3580     0.1220 H     1 <1>   0.0800 
 27 H        3.8160    -3.0290     0.9700 H     1 <1>   0.0800 
 28 H       -1.0770    -1.6500    -0.2960 H     1 <1>   0.1500 
 29 H        1.2290    -3.5430     2.7310 H     1 <1>   0.1500 
 30 H        4.7510     0.9170     0.0860 H     1 <1>   0.0800 
 31 H        3.2880     0.5350    -0.7630 H     1 <1>   0.0800 
 32 H        2.9530    -1.8290    -1.6670 H     1 <1>   0.0800 
 33 H        4.2010    -3.0100    -1.4490 H     1 <1>   0.0800 
 34 H       -0.2500    -5.5040     2.6350 H     1 <1>   0.1500 
 35 H       -2.1250    -5.5530     1.0790 H     1 <1>   0.1500 
 36 H       -4.1830    -4.6570     0.2500 H     1 <1>   0.0800 
 37 H       -3.2140    -5.4640    -0.9890 H     1 <1>   0.0800 
 38 H       -5.2010    -3.2190    -1.4910 H     1 <1>   0.0800 
 39 H       -5.4800    -4.9020    -1.8640 H     1 <1>   0.0800 
 40 H       -4.2400    -4.0220    -2.7230 H     1 <1>   0.0800 
 41 H        8.1660    -3.6770    -0.7900 H     1 <1>   0.1500 
 42 H        8.7480     0.5060    -0.5140 H     1 <1>   0.1500 
 43 H        9.7190    -1.7630    -0.6240 H     1 <1>   0.1500 
@<TRIPOS>BOND
  1   1   2  2   
  2   2   3  am  
  3   2   4  1   
  4   3   5  1   
  5   3   6  1   
  6   4   7  ar  
  7   4   8  ar  
  8   5   9  1   
  9   5  24  1   
 10   5  25  1   
 11   6  10  1   
 12   6  26  1   
 13   6  27  1   
 14   7  11  ar  
 15   7  28  1   
 16   8  12  ar  
 17   8  29  1   
 18   9  13  1   
 19   9  30  1   
 20   9  31  1   
 21  10  13  1   
 22  10  32  1   
 23  10  33  1   
 24  11  14  1   
 25  11  15  ar  
 26  12  15  ar  
 27  12  34  1   
 28  13  16  1   
 29  14  17  1   
 30  15  35  1   
 31  16  18  ar  
 32  16  19  ar  
 33  17  20  1   
 34  17  36  1   
 35  17  37  1   
 36  18  21  ar  
 37  19  22  ar  
 38  20  38  1   
 39  20  39  1   
 40  20  40  1   
 41  21  23  ar  
 42  21  41  1   
 43  22  23  ar  
 44  22  42  1   
 45  23  43  1   
@<TRIPOS>SUBSTRUCTURE
  1 ****   6 GROUP 4 **** **** 0

# MOE 2024.06 (io_trps.svl 2023.06)
