@<TRIPOS>MOLECULE
NONAME
49 51 1 0 0 
SMALL
USER_CHARGES


@<TRIPOS>ATOM
  1 CL       6.2160    -4.3380    -4.2470 Cl    1 <1>  -0.1770 
  2 C        6.1090    -3.4800    -2.7320 C.ar  1 <1>   0.1770 
  3 C        5.8150    -4.1790    -1.5770 C.ar  1 <1>  -0.1500 
  4 C        6.3230    -2.1150    -2.7090 C.ar  1 <1>  -0.1500 
  5 C        5.7350    -3.4960    -0.3750 C.ar  1 <1>  -0.1500 
  6 C        6.2400    -1.4360    -1.5050 C.ar  1 <1>  -0.1500 
  7 C        5.9460    -2.1240    -0.3350 C.ar  1 <1>  -0.1430 
  8 C        5.8780    -1.3940     0.9950 C.3   1 <1>   0.2840 
  9 N        7.2070    -1.4900     1.6120 N.am  1 <1>  -0.7300 
 10 C        7.5420    -2.3400     2.6110 C.2   1 <1>   0.5690 
 11 O        6.7150    -2.9140     3.2800 O.2   1 <1>  -0.5700 
 12 C        9.0330    -2.5980     2.8470 C.3   1 <1>   0.1710 
 13 N        9.8670    -2.4640     1.6140 N.3   1 <1>  -0.8100 
 14 C        9.5730    -3.5540     0.6510 C.3   1 <1>   0.1100 
 15 C       11.3050    -2.4620     1.9450 C.3   1 <1>   0.1100 
 16 C       10.3910    -3.4080    -0.6410 C.3   1 <1>   0.1400 
 17 C       12.1800    -2.2920     0.6900 C.3   1 <1>   0.1400 
 18 N       11.8520    -3.3270    -0.3390 N.am  1 <1>  -0.6600 
 19 C       12.7750    -4.0990    -1.0090 C.2   1 <1>   0.5690 
 20 O       12.4120    -4.8980    -1.8460 O.2   1 <1>  -0.5700 
 21 C       14.2920    -3.9840    -0.6980 C.3   1 <1>   0.2610 
 22 O       14.7680    -2.6840    -0.9280 O.3   1 <1>  -0.5600 
 23 C       15.2150    -4.8380    -1.5680 C.3   1 <1>  -0.1600 
 24 C       15.1150    -2.5410    -2.2690 C.3   1 <1>   0.1200 
 25 C       15.5150    -3.9330    -2.7540 C.3   1 <1>  -0.1600 
 26 H        5.6530    -5.2410    -1.6200 H     1 <1>   0.1500 
 27 H        6.5500    -1.5950    -3.6230 H     1 <1>   0.1500 
 28 H        5.5130    -4.0320     0.5330 H     1 <1>   0.1500 
 29 H        6.4100    -0.3730    -1.4820 H     1 <1>   0.1500 
 30 H        5.1360    -1.8440     1.6340 H     1 <1>   0.0800 
 31 H        5.6210    -0.3590     0.8510 H     1 <1>   0.0800 
 32 H        7.9920    -1.1910     1.0240 H     1 <1>   0.3700 
 33 H        9.1510    -3.5830     3.2630 H     1 <1>   0.0800 
 34 H        9.3660    -1.8860     3.5800 H     1 <1>   0.0800 
 35 H        8.5290    -3.5450     0.3910 H     1 <1>   0.0800 
 36 H        9.7930    -4.5090     1.0960 H     1 <1>   0.0800 
 37 H       11.5710    -3.3830     2.4350 H     1 <1>   0.0800 
 38 H       11.5140    -1.6500     2.6210 H     1 <1>   0.0800 
 39 H       10.0870    -2.5130    -1.1540 H     1 <1>   0.0800 
 40 H       10.1810    -4.2440    -1.2850 H     1 <1>   0.0800 
 41 H       13.2120    -2.3450     0.9810 H     1 <1>   0.0800 
 42 H       12.0080    -1.3160     0.2700 H     1 <1>   0.0800 
 43 H       14.4430    -4.2160     0.3400 H     1 <1>   0.0800 
 44 H       14.7730    -5.7750    -1.8580 H     1 <1>   0.0800 
 45 H       16.1190    -5.0370    -1.0200 H     1 <1>   0.0800 
 46 H       15.9230    -1.8340    -2.3430 H     1 <1>   0.0800 
 47 H       14.2530    -2.1770    -2.8020 H     1 <1>   0.0800 
 48 H       14.9150    -4.2040    -3.6050 H     1 <1>   0.0800 
 49 H       16.5550    -3.9690    -3.0290 H     1 <1>   0.0800 
@<TRIPOS>BOND
  1   1   2  1   
  2   2   3  ar  
  3   2   4  ar  
  4   3   5  ar  
  5   3  26  1   
  6   4   6  ar  
  7   4  27  1   
  8   5   7  ar  
  9   5  28  1   
 10   6   7  ar  
 11   6  29  1   
 12   7   8  1   
 13   8   9  1   
 14   8  30  1   
 15   8  31  1   
 16   9  10  am  
 17   9  32  1   
 18  10  11  2   
 19  10  12  1   
 20  12  13  1   
 21  12  33  1   
 22  12  34  1   
 23  13  14  1   
 24  13  15  1   
 25  14  16  1   
 26  14  35  1   
 27  14  36  1   
 28  15  17  1   
 29  15  37  1   
 30  15  38  1   
 31  16  18  1   
 32  16  39  1   
 33  16  40  1   
 34  17  18  1   
 35  17  41  1   
 36  17  42  1   
 37  18  19  am  
 38  19  20  2   
 39  19  21  1   
 40  21  22  1   
 41  21  23  1   
 42  21  43  1   
 43  22  24  1   
 44  23  25  1   
 45  23  44  1   
 46  23  45  1   
 47  24  25  1   
 48  24  46  1   
 49  24  47  1   
 50  25  48  1   
 51  25  49  1   
@<TRIPOS>SUBSTRUCTURE
  1 ****  16 GROUP 4 **** **** 0

# MOE 2024.06 (io_trps.svl 2023.06)
