@<TRIPOS>MOLECULE
NONAME
33 34 1 0 0 
SMALL
USER_CHARGES


@<TRIPOS>ATOM
  1 BR      -1.0900     0.3730     0.1340 Br    1 <1>  -0.1110 
  2 C        0.1440     1.8580     0.1160 C.ar  1 <1>   0.1110 
  3 C       -0.3040     3.1310    -0.2230 C.ar  1 <1>   0.0830 
  4 C        1.4610     1.6040     0.4420 C.ar  1 <1>  -0.1500 
  5 O       -1.6020     3.3450    -0.5360 O.3   1 <1>  -0.3630 
  6 C        0.6040     4.1880    -0.2560 C.ar  1 <1>  -0.1440 
  7 C        2.3430     2.6680     0.4170 C.ar  1 <1>   0.1770 
  8 C       -2.4610     3.6090     0.5520 C.3   1 <1>   0.1200 
  9 C        1.9320     3.9450     0.0730 C.ar  1 <1>  -0.1500 
 10 C        0.1650     5.5930    -0.6470 C.3   1 <1>  -0.0960 
 11 CL       4.0170     2.3930     0.8270 Cl    1 <1>  -0.1770 
 12 C       -3.8290     3.9880    -0.0010 C.3   1 <1>   0.1200 
 13 O       -4.6560     4.3590     1.0810 O.3   1 <1>  -0.3160 
 14 N       -5.8960     4.8050     0.6030 N.am  1 <1>  -0.0840 
 15 C       -6.9880     4.0010     0.4650 C.2   1 <1>   0.5690 
 16 C       -6.1650     6.1080     0.3070 C.2   1 <1>   0.5690 
 17 O       -7.0450     2.8060     0.6180 O.2   1 <1>  -0.5700 
 18 C       -8.1860     4.8270     0.0450 C.3   1 <1>  -0.0990 
 19 O       -5.3890     7.0330     0.2960 O.2   1 <1>  -0.5700 
 20 C       -7.6250     6.2630    -0.0600 C.3   1 <1>  -0.0990 
 21 H        1.7910     0.6170     0.7050 H     1 <1>   0.1500 
 22 H       -2.0490     4.4240     1.1200 H     1 <1>   0.0800 
 23 H       -2.5290     2.7240     1.1590 H     1 <1>   0.0800 
 24 H        2.6560     4.7400     0.0630 H     1 <1>   0.1500 
 25 H       -0.4070     6.0350     0.1490 H     1 <1>   0.0800 
 26 H       -0.4460     5.5560    -1.5310 H     1 <1>   0.0800 
 27 H        1.0140     6.2200    -0.8500 H     1 <1>   0.0800 
 28 H       -4.2780     3.1480    -0.5030 H     1 <1>   0.0800 
 29 H       -3.7370     4.8290    -0.6660 H     1 <1>   0.0800 
 30 H       -8.9570     4.7570     0.7920 H     1 <1>   0.0800 
 31 H       -8.5580     4.4770    -0.9010 H     1 <1>   0.0800 
 32 H       -7.7140     6.6510    -1.0580 H     1 <1>   0.0800 
 33 H       -8.1070     6.9270     0.6360 H     1 <1>   0.0800 
@<TRIPOS>BOND
  1   1   2  1   
  2   2   3  ar  
  3   2   4  ar  
  4   3   5  1   
  5   3   6  ar  
  6   4   7  ar  
  7   4  21  1   
  8   5   8  1   
  9   6   9  ar  
 10   6  10  1   
 11   7   9  ar  
 12   7  11  1   
 13   8  12  1   
 14   8  22  1   
 15   8  23  1   
 16   9  24  1   
 17  10  25  1   
 18  10  26  1   
 19  10  27  1   
 20  12  13  1   
 21  12  28  1   
 22  12  29  1   
 23  13  14  1   
 24  14  15  am  
 25  14  16  am  
 26  15  17  2   
 27  15  18  1   
 28  16  19  2   
 29  16  20  1   
 30  18  20  1   
 31  18  30  1   
 32  18  31  1   
 33  20  32  1   
 34  20  33  1   
@<TRIPOS>SUBSTRUCTURE
  1 ****   8 GROUP 4 **** **** 0

# MOE 2024.06 (io_trps.svl 2023.06)
