@<TRIPOS>MOLECULE
NONAME
37 39 1 0 0 
SMALL
USER_CHARGES


@<TRIPOS>ATOM
  1 O       -0.9260     0.0890     0.9660 O.2   1 <1>  -0.5700 
  2 C       -1.7930    -0.6750     0.5880 C.2   1 <1>   0.7060 
  3 O       -3.0180    -0.1910     0.3520 O.3   1 <1>  -0.2330 
  4 C       -1.5910    -2.0730     0.3760 C.2   1 <1>  -0.1240 
  5 C       -4.0620    -0.9560    -0.0720 C.ar  1 <1>   0.0820 
  6 C       -2.5790    -2.8730    -0.0390 C.2   1 <1>  -0.1670 
  7 C       -0.2960    -2.8190     0.5850 C.3   1 <1>  -0.0220 
  8 C       -3.8800    -2.3350    -0.2820 C.ar  1 <1>   0.0280 
  9 C       -5.2990    -0.3530    -0.2890 C.ar  1 <1>  -0.1440 
 10 C       -2.1330    -4.3070    -0.1880 C.3   1 <1>  -0.0220 
 11 C       -0.6190    -4.2460     0.1000 C.3   1 <1>  -0.1600 
 12 C       -4.9660    -3.0950    -0.7140 C.ar  1 <1>  -0.1500 
 13 C       -6.3690    -1.1460    -0.6930 C.ar  1 <1>   0.0830 
 14 C       -5.4580     1.1550    -0.0960 C.3   1 <1>  -0.0960 
 15 C       -6.1940    -2.5050    -0.9190 C.ar  1 <1>  -0.1500 
 16 O       -7.5990    -0.6330    -0.8960 O.3   1 <1>  -0.3620 
 17 C       -8.4010    -0.3720     0.2340 C.3   1 <1>   0.2000 
 18 C       -9.1310    -1.6560     0.6300 C.3   1 <1>  -0.2400 
 19 C       -9.3850     0.7300    -0.1510 C.3   1 <1>  -0.2400 
 20 H       -0.0330    -2.8110     1.6290 H     1 <1>   0.0800 
 21 H        0.4980    -2.3770     0.0080 H     1 <1>   0.0800 
 22 H       -2.3230    -4.6690    -1.1830 H     1 <1>   0.0800 
 23 H       -2.6380    -4.9280     0.5320 H     1 <1>   0.0800 
 24 H       -0.3390    -4.9760     0.8410 H     1 <1>   0.0800 
 25 H       -0.0740    -4.4470    -0.8060 H     1 <1>   0.0800 
 26 H       -4.8440    -4.1480    -0.8890 H     1 <1>   0.1500 
 27 H       -4.5760     1.6740    -0.4260 H     1 <1>   0.0800 
 28 H       -5.6180     1.3750     0.9430 H     1 <1>   0.0800 
 29 H       -6.2860     1.5330    -0.6660 H     1 <1>   0.0800 
 30 H       -7.0330    -3.0880    -1.2550 H     1 <1>   0.1500 
 31 H       -7.7680    -0.0360     1.0380 H     1 <1>   0.0800 
 32 H       -9.7120    -2.0270    -0.1950 H     1 <1>   0.0800 
 33 H       -9.7900    -1.4620     1.4560 H     1 <1>   0.0800 
 34 H       -8.4240    -2.4050     0.9370 H     1 <1>   0.0800 
 35 H      -10.0040     0.4090    -0.9700 H     1 <1>   0.0800 
 36 H       -8.8500     1.6170    -0.4360 H     1 <1>   0.0800 
 37 H      -10.0170     0.9670     0.6850 H     1 <1>   0.0800 
@<TRIPOS>BOND
  1   1   2  2   
  2   2   3  1   
  3   2   4  1   
  4   3   5  1   
  5   4   6  2   
  6   4   7  1   
  7   5   8  ar  
  8   5   9  ar  
  9   6   8  1   
 10   6  10  1   
 11   7  11  1   
 12   7  20  1   
 13   7  21  1   
 14   8  12  ar  
 15   9  13  ar  
 16   9  14  1   
 17  10  11  1   
 18  10  22  1   
 19  10  23  1   
 20  11  24  1   
 21  11  25  1   
 22  12  15  ar  
 23  12  26  1   
 24  13  15  ar  
 25  13  16  1   
 26  14  27  1   
 27  14  28  1   
 28  14  29  1   
 29  15  30  1   
 30  16  17  1   
 31  17  18  1   
 32  17  19  1   
 33  17  31  1   
 34  18  32  1   
 35  18  33  1   
 36  18  34  1   
 37  19  35  1   
 38  19  36  1   
 39  19  37  1   
@<TRIPOS>SUBSTRUCTURE
  1 ****   5 GROUP 4 **** **** 0

# MOE 2024.06 (io_trps.svl 2023.06)
