@<TRIPOS>MOLECULE
ka-06876
25 24 1 0 0 
SMALL
USER_CHARGES


@<TRIPOS>ATOM
  1 O        0.1580    -0.2330    -0.0030 O.3   1 <1>  -0.6800 
  2 C       -0.0170    -1.5700    -0.3580 C.3   1 <1>   0.2000 
  3 C       -1.2740    -2.1050     0.3520 C.3   1 <1>   0.1200 
  4 C        1.2650    -2.3460     0.0010 C.3   1 <1>   0.3430 
  5 O       -2.3050    -1.1840     0.1960 O.3   1 <1>  -0.6800 
  6 N        2.4540    -1.4770    -0.2410 N.4   1 <1>  -0.9060 
  7 C        3.6560    -1.8120     0.5250 C.3   1 <1>   0.4230 
  8 C        4.6340    -0.6560     0.3660 C.3   1 <1>  -0.2400 
  9 C        4.2510    -3.1090    -0.0140 C.3   1 <1>  -0.2400 
 10 H       -0.7470     0.1660     0.0380 H     1 <1>   0.4000 
 11 H       -0.1780    -1.6050    -1.4220 H     1 <1>   0.0800 
 12 H       -1.0960    -2.2340     1.4060 H     1 <1>   0.0800 
 13 H       -1.5860    -3.0430    -0.0760 H     1 <1>   0.0800 
 14 H        1.3290    -3.2570    -0.5710 H     1 <1>   0.0800 
 15 H        1.2200    -2.6070     1.0460 H     1 <1>   0.0800 
 16 H       -3.1360    -1.5010     0.6110 H     1 <1>   0.4000 
 17 H        2.1200    -0.5320     0.0230 H     1 <1>   0.4500 
 18 H        2.6710    -1.4150    -1.2390 H     1 <1>   0.4500 
 19 H        3.4090    -1.9270     1.5700 H     1 <1>   0.0800 
 20 H        4.9080    -0.5140    -0.6650 H     1 <1>   0.0800 
 21 H        5.5310    -0.8630     0.9230 H     1 <1>   0.0800 
 22 H        4.2120     0.2540     0.7540 H     1 <1>   0.0800 
 23 H        4.4900    -3.0230    -1.0590 H     1 <1>   0.0800 
 24 H        3.5800    -3.9350     0.1360 H     1 <1>   0.0800 
 25 H        5.1610    -3.3330     0.5160 H     1 <1>   0.0800 
@<TRIPOS>BOND
  1   1   2  1   
  2   1  10  1   
  3   2   3  1   
  4   2   4  1   
  5   2  11  1   
  6   3   5  1   
  7   3  12  1   
  8   3  13  1   
  9   4   6  1   
 10   4  14  1   
 11   4  15  1   
 12   5  16  1   
 13   6   7  1   
 14   6  17  1   
 15   6  18  1   
 16   7   8  1   
 17   7   9  1   
 18   7  19  1   
 19   8  20  1   
 20   8  21  1   
 21   8  22  1   
 22   9  23  1   
 23   9  24  1   
 24   9  25  1   
@<TRIPOS>SUBSTRUCTURE
  1 ****   4 GROUP 4 **** **** 0

# MOE 2024.06 (io_trps.svl 2023.06)
