@<TRIPOS>MOLECULE
NONAME
44 48 1 0 0 
SMALL
USER_CHARGES


@<TRIPOS>ATOM
  1 S        0.1340    -0.0310    -0.4230 S.3   1 <1>  -0.0800 
  2 C       -0.6400     1.5330    -0.2630 C.2   1 <1>  -0.0360 
  3 C       -1.4360    -0.8150    -0.3400 C.2   1 <1>  -0.1400 
  4 N        0.0400     2.7410    -0.2540 N.pl3 1 <1>   0.3790 
  5 C       -1.9900     1.4480    -0.1500 C.2   1 <1>  -0.0860 
  6 C       -2.4250     0.0760    -0.1910 C.2   1 <1>  -0.1810 
  7 C       -1.5870    -2.3200    -0.4300 C.3   1 <1>   0.3000 
  8 C       -0.6550     3.8920    -0.1290 C.2   1 <1>   0.2500 
  9 C        1.3080     3.1660    -0.3370 C.2   1 <1>   0.0360 
 10 C       -2.7600     2.6650    -0.0180 C.2   1 <1>   0.7160 
 11 C       -3.8550    -0.4270    -0.0970 C.3   1 <1>   0.0210 
 12 O       -2.9500    -2.6400    -0.5820 O.3   1 <1>  -0.5600 
 13 N        0.1400     4.9170    -0.1380 N.2   1 <1>  -0.3380 
 14 N       -2.0720     3.8860    -0.0070 N.am  1 <1>  -0.2410 
 15 N        1.3900     4.4480    -0.2690 N.2   1 <1>  -0.3380 
 16 O       -3.9750     2.6280     0.0800 O.2   1 <1>  -0.5700 
 17 C       -3.8970    -1.9520     0.1990 C.3   1 <1>   0.2800 
 18 C       -2.7630     5.1090     0.1300 C.ar  1 <1>   0.1170 
 19 C       -3.6410    -2.2610     1.6820 C.3   1 <1>  -0.2400 
 20 C       -5.2540    -2.5310    -0.2020 C.3   1 <1>  -0.2400 
 21 C       -2.5480     5.9260     1.2350 C.ar  1 <1>  -0.1500 
 22 C       -3.6730     5.5270    -0.8350 C.ar  1 <1>  -0.1500 
 23 C       -3.2240     7.1250     1.3710 C.ar  1 <1>  -0.1500 
 24 C       -4.3490     6.7260    -0.7000 C.ar  1 <1>  -0.1500 
 25 C       -4.1280     7.5330     0.4040 C.ar  1 <1>  -0.1430 
 26 C       -4.8710     8.8480     0.5550 C.3   1 <1>  -0.0970 
 27 H       -1.2140    -2.8000     0.4560 H     1 <1>   0.0800 
 28 H       -1.0660    -2.7030    -1.2890 H     1 <1>   0.0800 
 29 H        2.1360     2.4910    -0.4460 H     1 <1>   0.1500 
 30 H       -4.3530    -0.2190    -1.0270 H     1 <1>   0.0800 
 31 H       -4.3850     0.0980     0.6780 H     1 <1>   0.0800 
 32 H       -2.7300    -1.8060     2.0250 H     1 <1>   0.0800 
 33 H       -3.5910    -3.3240     1.8380 H     1 <1>   0.0800 
 34 H       -4.4430    -1.8710     2.2810 H     1 <1>   0.0800 
 35 H       -5.4280    -2.3790    -1.2530 H     1 <1>   0.0800 
 36 H       -6.0440    -2.0530     0.3480 H     1 <1>   0.0800 
 37 H       -5.2840    -3.5860     0.0040 H     1 <1>   0.0800 
 38 H       -1.8440     5.6240     1.9880 H     1 <1>   0.1500 
 39 H       -3.8560     4.9080    -1.6950 H     1 <1>   0.1500 
 40 H       -3.0410     7.7410     2.2340 H     1 <1>   0.1500 
 41 H       -5.0510     7.0270    -1.4570 H     1 <1>   0.1500 
 42 H       -4.2670     9.5610     1.0870 H     1 <1>   0.0800 
 43 H       -5.7830     8.6890     1.1010 H     1 <1>   0.0800 
 44 H       -5.1090     9.2580    -0.4100 H     1 <1>   0.0800 
@<TRIPOS>BOND
  1   1   2  1   
  2   1   3  1   
  3   2   4  1   
  4   2   5  2   
  5   3   6  2   
  6   3   7  1   
  7   4   8  1   
  8   4   9  1   
  9   5   6  1   
 10   5  10  1   
 11   6  11  1   
 12   7  12  1   
 13   7  27  1   
 14   7  28  1   
 15   8  13  2   
 16   8  14  1   
 17   9  15  2   
 18   9  29  1   
 19  10  14  am  
 20  10  16  2   
 21  11  17  1   
 22  11  30  1   
 23  11  31  1   
 24  12  17  1   
 25  13  15  1   
 26  14  18  1   
 27  17  19  1   
 28  17  20  1   
 29  18  21  ar  
 30  18  22  ar  
 31  19  32  1   
 32  19  33  1   
 33  19  34  1   
 34  20  35  1   
 35  20  36  1   
 36  20  37  1   
 37  21  23  ar  
 38  21  38  1   
 39  22  24  ar  
 40  22  39  1   
 41  23  25  ar  
 42  23  40  1   
 43  24  25  ar  
 44  24  41  1   
 45  25  26  1   
 46  26  42  1   
 47  26  43  1   
 48  26  44  1   
@<TRIPOS>SUBSTRUCTURE
  1 ****  10 GROUP 4 **** **** 0

# MOE 2024.06 (io_trps.svl 2023.06)
