@<TRIPOS>MOLECULE
NONAME
49 51 1 0 0 
SMALL
USER_CHARGES


@<TRIPOS>ATOM
  1 O        2.1730    -1.6510     1.6780 O.2   1 <1>  -0.5700 
  2 C        2.2080    -1.5550     0.4740 C.2   1 <1>   0.5690 
  3 N        1.3850    -2.1870    -0.4190 N.am  1 <1>  -0.2370 
  4 C        3.2460    -0.6910    -0.2450 C.3   1 <1>   0.2510 
  5 C        0.3090    -3.0370    -0.0730 C.ar  1 <1>   0.1170 
  6 C        1.7710    -1.8720    -1.6970 C.2   1 <1>   0.5690 
  7 N        3.1280     0.7460     0.0690 N.3   1 <1>  -0.9000 
  8 C        2.9450    -0.9270    -1.7260 C.3   1 <1>  -0.0990 
  9 C        0.1320    -4.2640    -0.7050 C.ar  1 <1>  -0.1500 
 10 C       -0.6030    -2.6680     0.9110 C.ar  1 <1>  -0.1500 
 11 O        1.2860    -2.2920    -2.7160 O.2   1 <1>  -0.5700 
 12 C        4.3330     1.5140    -0.2320 C.3   1 <1>   0.1900 
 13 C       -0.9200    -5.0960    -0.3630 C.ar  1 <1>  -0.1500 
 14 C       -1.6550    -3.4980     1.2540 C.ar  1 <1>  -0.1500 
 15 C        5.1350     1.8360     1.0500 C.3   1 <1>  -0.0800 
 16 C        3.8940     2.8040    -0.9470 C.3   1 <1>  -0.1600 
 17 C       -1.8210    -4.7170     0.6180 C.ar  1 <1>  -0.1430 
 18 C        6.4540     2.5820     0.6860 C.3   1 <1>  -0.0800 
 19 C        5.3670     0.6270     1.9800 C.3   1 <1>  -0.2400 
 20 C        4.8550     3.9880    -0.7320 C.3   1 <1>  -0.1600 
 21 C       -2.9740    -5.6300     0.9940 C.3   1 <1>  -0.0970 
 22 C        6.2960     3.5000    -0.5490 C.3   1 <1>  -0.1600 
 23 C        7.6640     1.6600     0.4520 C.3   1 <1>  -0.2400 
 24 H        4.2250    -1.0580     0.0120 H     1 <1>   0.0800 
 25 H        2.9680     0.8320     1.0830 H     1 <1>   0.3600 
 26 H        3.7740    -1.3970    -2.2200 H     1 <1>   0.0800 
 27 H        2.6690    -0.0220    -2.2360 H     1 <1>   0.0800 
 28 H        0.8180    -4.5730    -1.4730 H     1 <1>   0.1500 
 29 H       -0.4870    -1.7270     1.4180 H     1 <1>   0.1500 
 30 H        4.9710     0.9590    -0.9020 H     1 <1>   0.0800 
 31 H       -1.0340    -6.0390    -0.8670 H     1 <1>   0.1500 
 32 H       -2.3430    -3.1910     2.0220 H     1 <1>   0.1500 
 33 H        4.5360     2.5340     1.6110 H     1 <1>   0.0800 
 34 H        2.9170     3.1020    -0.6080 H     1 <1>   0.0800 
 35 H        3.8250     2.5920    -1.9990 H     1 <1>   0.0800 
 36 H        6.6940     3.2120     1.5270 H     1 <1>   0.0800 
 37 H        5.8680    -0.1710     1.4630 H     1 <1>   0.0800 
 38 H        4.4340     0.2510     2.3620 H     1 <1>   0.0800 
 39 H        5.9660     0.9210     2.8240 H     1 <1>   0.0800 
 40 H        4.5590     4.5360     0.1470 H     1 <1>   0.0800 
 41 H        4.7940     4.6610    -1.5700 H     1 <1>   0.0800 
 42 H       -2.6690    -6.2950     1.7810 H     1 <1>   0.0800 
 43 H       -3.2840    -6.2130     0.1460 H     1 <1>   0.0800 
 44 H       -3.8150    -5.0520     1.3330 H     1 <1>   0.0800 
 45 H        6.5810     2.9700    -1.4420 H     1 <1>   0.0800 
 46 H        6.9560     4.3450    -0.4530 H     1 <1>   0.0800 
 47 H        7.4490     0.9370    -0.3150 H     1 <1>   0.0800 
 48 H        7.9340     1.1410     1.3540 H     1 <1>   0.0800 
 49 H        8.5170     2.2400     0.1460 H     1 <1>   0.0800 
@<TRIPOS>BOND
  1   1   2  2   
  2   2   3  am  
  3   2   4  1   
  4   3   5  1   
  5   3   6  am  
  6   4   7  1   
  7   4   8  1   
  8   4  24  1   
  9   5   9  ar  
 10   5  10  ar  
 11   6   8  1   
 12   6  11  2   
 13   7  12  1   
 14   7  25  1   
 15   8  26  1   
 16   8  27  1   
 17   9  13  ar  
 18   9  28  1   
 19  10  14  ar  
 20  10  29  1   
 21  12  15  1   
 22  12  16  1   
 23  12  30  1   
 24  13  17  ar  
 25  13  31  1   
 26  14  17  ar  
 27  14  32  1   
 28  15  18  1   
 29  15  19  1   
 30  15  33  1   
 31  16  20  1   
 32  16  34  1   
 33  16  35  1   
 34  17  21  1   
 35  18  22  1   
 36  18  23  1   
 37  18  36  1   
 38  19  37  1   
 39  19  38  1   
 40  19  39  1   
 41  20  22  1   
 42  20  40  1   
 43  20  41  1   
 44  21  42  1   
 45  21  43  1   
 46  21  44  1   
 47  22  45  1   
 48  22  46  1   
 49  23  47  1   
 50  23  48  1   
 51  23  49  1   
@<TRIPOS>SUBSTRUCTURE
  1 ****   2 GROUP 4 **** **** 0

# MOE 2024.06 (io_trps.svl 2023.06)
