@<TRIPOS>MOLECULE
NONAME
50 52 1 0 0 
SMALL
USER_CHARGES


@<TRIPOS>ATOM
  1 S       -0.0750     0.0000     2.5460 S.o2  1 <1>   1.4470 
  2 O       -0.3110    -1.3850     2.8850 O.2   1 <1>  -0.6500 
  3 O       -0.0920     1.0120     3.5780 O.2   1 <1>  -0.6500 
  4 N        1.5150    -0.0180     1.8460 N.am  1 <1>  -0.5780 
  5 C       -1.1170     0.4820     1.1410 C.ar  1 <1>  -0.0090 
  6 N        2.2080     1.0330     1.2650 N.2   1 <1>  -0.4300 
  7 C       -0.9890     1.7380     0.5590 C.ar  1 <1>  -0.1500 
  8 C       -2.0600    -0.3860     0.6040 C.ar  1 <1>  -0.1500 
  9 C        3.3790     0.8690     0.8020 C.2   1 <1>   0.3280 
 10 C       -1.7710     2.1160    -0.5180 C.ar  1 <1>  -0.1500 
 11 C       -2.8470    -0.0150    -0.4740 C.ar  1 <1>  -0.1500 
 12 C        4.3160     2.2540     0.0040 C.3   1 <1>   0.0610 
 13 C        4.2580    -0.7430     0.8550 C.3   1 <1>  -0.0990 
 14 C       -2.7070     1.2400    -1.0400 C.ar  1 <1>  -0.1430 
 15 C        4.6700     1.2740    -0.2910 C.3   1 <1>  -0.1600 
 16 C        5.9110     2.2560    -0.9900 C.3   1 <1>  -0.1600 
 17 C        3.3020     3.1810    -0.7290 C.3   1 <1>  -0.1600 
 18 C        5.8460    -0.7390    -0.1330 C.3   1 <1>   0.2800 
 19 C       -3.5670     1.6490    -2.2220 C.3   1 <1>  -0.0970 
 20 C        5.5420     0.2610     0.2030 C.3   1 <1>  -0.1600 
 21 C        6.8340     0.6310    -0.9410 C.3   1 <1>  -0.1600 
 22 C        2.8480     4.3090     0.2050 C.3   1 <1>  -0.1600 
 23 O        6.7550    -1.4900     0.6080 O.3   1 <1>  -0.6800 
 24 C        1.8220     5.2150    -0.4820 C.3   1 <1>  -0.2400 
 25 H        1.9220    -0.9490     1.9170 H     1 <1>   0.4200 
 26 H       -0.2620     2.4270     0.9560 H     1 <1>   0.1500 
 27 H       -2.1840    -1.3670     1.0320 H     1 <1>   0.1500 
 28 H       -1.6460     3.0950    -0.9460 H     1 <1>   0.1500 
 29 H       -3.5680    -0.7090    -0.8690 H     1 <1>   0.1500 
 30 H        3.6070    -1.4990     0.4530 H     1 <1>   0.0800 
 31 H        4.4460    -1.0050     1.8870 H     1 <1>   0.0800 
 32 H        5.1150     1.7370     0.7220 H     1 <1>   0.0800 
 33 H        4.0410     1.1330    -1.2350 H     1 <1>   0.0800 
 34 H        5.7270     2.5090    -2.0270 H     1 <1>   0.0800 
 35 H        6.5550     3.0350    -0.6130 H     1 <1>   0.0800 
 36 H        3.7500     3.6140    -1.6050 H     1 <1>   0.0800 
 37 H        2.4330     2.6240    -1.0410 H     1 <1>   0.0800 
 38 H       -3.7110     2.7150    -2.2330 H     1 <1>   0.0800 
 39 H       -4.5320     1.1780    -2.1660 H     1 <1>   0.0800 
 40 H       -3.0890     1.3540    -3.1390 H     1 <1>   0.0800 
 41 H        6.1430     0.4280     1.1560 H     1 <1>   0.0800 
 42 H        5.0690    -0.1690    -0.8170 H     1 <1>   0.0800 
 43 H        7.7790     0.7790    -0.4350 H     1 <1>   0.0800 
 44 H        7.0720     0.3420    -1.9520 H     1 <1>   0.0800 
 45 H        2.4070     3.8870     1.0930 H     1 <1>   0.0800 
 46 H        3.7000     4.8950     0.5040 H     1 <1>   0.0800 
 47 H        7.4970    -1.7640     0.0370 H     1 <1>   0.4000 
 48 H        0.9520     4.6480    -0.7640 H     1 <1>   0.0800 
 49 H        2.2460     5.6650    -1.3620 H     1 <1>   0.0800 
 50 H        1.5170     5.9980     0.1900 H     1 <1>   0.0800 
@<TRIPOS>BOND
  1   1   2  2   
  2   1   3  2   
  3   1   4  am  
  4   1   5  1   
  5   4   6  1   
  6   4  25  1   
  7   5   7  ar  
  8   5   8  ar  
  9   6   9  2   
 10   7  10  ar  
 11   7  26  1   
 12   8  11  ar  
 13   8  27  1   
 14   9  12  1   
 15   9  13  1   
 16  10  14  ar  
 17  10  28  1   
 18  11  14  ar  
 19  11  29  1   
 20  12  15  1   
 21  12  16  1   
 22  12  17  1   
 23  13  18  1   
 24  13  30  1   
 25  13  31  1   
 26  14  19  1   
 27  15  20  1   
 28  15  32  1   
 29  15  33  1   
 30  16  21  1   
 31  16  34  1   
 32  16  35  1   
 33  17  22  1   
 34  17  36  1   
 35  17  37  1   
 36  18  20  1   
 37  18  21  1   
 38  18  23  1   
 39  19  38  1   
 40  19  39  1   
 41  19  40  1   
 42  20  41  1   
 43  20  42  1   
 44  21  43  1   
 45  21  44  1   
 46  22  24  1   
 47  22  45  1   
 48  22  46  1   
 49  23  47  1   
 50  24  48  1   
 51  24  49  1   
 52  24  50  1   
@<TRIPOS>SUBSTRUCTURE
  1 ****   6 GROUP 4 **** **** 0

# MOE 2024.06 (io_trps.svl 2023.06)
