@<TRIPOS>MOLECULE
NONAME
49 51 1 0 0 
SMALL
USER_CHARGES


@<TRIPOS>ATOM
  1 O        0.0200    -0.1050     0.0190 O.2   1 <1>  -0.5700 
  2 C       -0.0200     1.1010    -0.1230 C.2   1 <1>   0.5440 
  3 N        1.1370     1.8050     0.0270 N.am  1 <1>  -0.7300 
  4 C       -1.2690     1.7660    -0.4530 C.ar  1 <1>   0.0860 
  5 C        2.4420     1.2000     0.3330 C.3   1 <1>   0.2840 
  6 C       -2.2790     1.0870    -1.1340 C.ar  1 <1>  -0.1500 
  7 C       -1.5220     3.0950    -0.1080 C.ar  1 <1>  -0.1500 
  8 C        3.4770     2.3100     0.3360 C.ar  1 <1>  -0.1440 
  9 C       -3.4780     1.6940    -1.4570 C.ar  1 <1>  -0.1500 
 10 C       -2.7190     3.7120    -0.4260 C.ar  1 <1>  -0.1500 
 11 C        3.7820     2.9810     1.5100 C.ar  1 <1>  -0.1500 
 12 C        4.1210     2.6700    -0.8370 C.ar  1 <1>  -0.1500 
 13 C       -3.7110     3.0140    -1.0990 C.ar  1 <1>  -0.1430 
 14 C        4.7220     3.9970     1.5110 C.ar  1 <1>  -0.1500 
 15 C        5.0600     3.6870    -0.8350 C.ar  1 <1>  -0.1500 
 16 C       -5.0360     3.6730    -1.4340 C.3   1 <1>   0.4860 
 17 C        5.3670     4.3550     0.3390 C.ar  1 <1>  -0.1430 
 18 N       -5.8450     3.7920    -0.1910 N.4   1 <1>  -0.9590 
 19 C        6.3970     5.4700     0.3390 C.3   1 <1>  -0.0970 
 20 C       -6.0920     2.4810     0.5030 C.3   1 <1>   0.3430 
 21 C       -7.1290     4.5480    -0.3790 C.3   1 <1>   0.3430 
 22 C       -6.8860     2.6840     1.8150 C.3   1 <1>   0.1200 
 23 C       -7.9680     4.5760     0.9200 C.3   1 <1>   0.1200 
 24 O       -7.2520     4.0280     1.9920 O.3   1 <1>  -0.5600 
 25 H        1.1890     2.7990    -0.1950 H     1 <1>   0.3700 
 26 H        2.6820     0.4600    -0.4120 H     1 <1>   0.0800 
 27 H        2.4000     0.7150     1.2940 H     1 <1>   0.0800 
 28 H       -2.1080     0.0590    -1.4140 H     1 <1>   0.1500 
 29 H       -0.7710     3.6520     0.4250 H     1 <1>   0.1500 
 30 H       -4.2200     1.1230    -1.9900 H     1 <1>   0.1500 
 31 H       -2.8630     4.7420    -0.1410 H     1 <1>   0.1500 
 32 H        3.2890     2.7150     2.4290 H     1 <1>   0.1500 
 33 H        3.8920     2.1610    -1.7570 H     1 <1>   0.1500 
 34 H        4.9480     4.5090     2.4300 H     1 <1>   0.1500 
 35 H        5.5510     3.9560    -1.7540 H     1 <1>   0.1500 
 36 H       -5.5630     3.0820    -2.1650 H     1 <1>   0.0800 
 37 H       -4.8530     4.6500    -1.8520 H     1 <1>   0.0800 
 38 H       -5.3010     4.3360     0.4940 H     1 <1>   0.4500 
 39 H        5.9160     6.4090     0.1320 H     1 <1>   0.0800 
 40 H        7.1460     5.2900    -0.4110 H     1 <1>   0.0800 
 41 H        6.8840     5.5320     1.2960 H     1 <1>   0.0800 
 42 H       -5.1550     1.9990     0.7340 H     1 <1>   0.0800 
 43 H       -6.6450     1.8200    -0.1430 H     1 <1>   0.0800 
 44 H       -7.7160     4.0960    -1.1610 H     1 <1>   0.0800 
 45 H       -6.9170     5.5620    -0.6780 H     1 <1>   0.0800 
 46 H       -6.2830     2.3970     2.6590 H     1 <1>   0.0800 
 47 H       -7.7770     2.0790     1.8190 H     1 <1>   0.0800 
 48 H       -8.8830     4.0220     0.7970 H     1 <1>   0.0800 
 49 H       -8.2230     5.5900     1.1770 H     1 <1>   0.0800 
@<TRIPOS>BOND
  1   1   2  2   
  2   2   3  am  
  3   2   4  1   
  4   3   5  1   
  5   3  25  1   
  6   4   6  ar  
  7   4   7  ar  
  8   5   8  1   
  9   5  26  1   
 10   5  27  1   
 11   6   9  ar  
 12   6  28  1   
 13   7  10  ar  
 14   7  29  1   
 15   8  11  ar  
 16   8  12  ar  
 17   9  13  ar  
 18   9  30  1   
 19  10  13  ar  
 20  10  31  1   
 21  11  14  ar  
 22  11  32  1   
 23  12  15  ar  
 24  12  33  1   
 25  13  16  1   
 26  14  17  ar  
 27  14  34  1   
 28  15  17  ar  
 29  15  35  1   
 30  16  18  1   
 31  16  36  1   
 32  16  37  1   
 33  17  19  1   
 34  18  20  1   
 35  18  21  1   
 36  18  38  1   
 37  19  39  1   
 38  19  40  1   
 39  19  41  1   
 40  20  22  1   
 41  20  42  1   
 42  20  43  1   
 43  21  23  1   
 44  21  44  1   
 45  21  45  1   
 46  22  24  1   
 47  22  46  1   
 48  22  47  1   
 49  23  24  1   
 50  23  48  1   
 51  23  49  1   
@<TRIPOS>SUBSTRUCTURE
  1 ****   7 GROUP 4 **** **** 0

# MOE 2024.06 (io_trps.svl 2023.06)
