@<TRIPOS>MOLECULE
NONAME
36 37 1 0 0 
SMALL
USER_CHARGES


@<TRIPOS>ATOM
  1 S        0.4100     0.1040     1.3570 S.o2  1 <1>   1.4970 
  2 O        0.6800     1.4890     1.7120 O.2   1 <1>  -0.6500 
  3 O        0.5360    -0.9190     2.3780 O.2   1 <1>  -0.6500 
  4 N        1.3200    -0.3270     0.0270 N.2   1 <1>  -0.6380 
  5 C       -1.2780     0.0200     0.6870 C.ar  1 <1>  -0.0090 
  6 C        2.5550    -0.0730     0.0290 C.2   1 <1>   0.5500 
  7 C       -1.8340     1.0950     0.0020 C.ar  1 <1>  -0.1500 
  8 C       -2.0530    -1.1280     0.8190 C.ar  1 <1>  -0.1500 
  9 N        3.2330     0.5800     1.0030 N.pl3 1 <1>  -0.8190 
 10 N        3.2790    -0.4740    -1.0360 N.pl3 1 <1>  -0.8190 
 11 C       -3.1140     1.0330    -0.5220 C.ar  1 <1>  -0.1500 
 12 C       -3.3330    -1.1980     0.2980 C.ar  1 <1>  -0.1500 
 13 C        4.6670     0.8380     0.9150 C.3   1 <1>   0.4790 
 14 C        4.7280    -0.3000    -1.1270 C.3   1 <1>   0.4790 
 15 C       -3.8710    -0.1160    -0.3770 C.ar  1 <1>  -0.1430 
 16 N        5.2390    -0.3050     0.2290 N.3   1 <1>  -0.8100 
 17 C       -5.2760    -0.1870    -0.9490 C.3   1 <1>  -0.0970 
 18 C        6.7300    -0.1550     0.1910 C.3   1 <1>   0.0040 
 19 C        7.2720     1.1020    -0.5040 C.2   1 <1>   0.9060 
 20 O        7.5140     1.0490    -1.7150 O.co2 1 <1>  -0.9000 
 21 O        7.3740     2.1440     0.1540 O.co2 1 <1>  -0.9000 
 22 H       -1.2540     1.9950    -0.1210 H     1 <1>   0.1500 
 23 H       -1.6460    -1.9790     1.3390 H     1 <1>   0.1500 
 24 H        2.7030     1.2730     1.5360 H     1 <1>   0.4000 
 25 H        2.9230    -1.3140    -1.4770 H     1 <1>   0.4000 
 26 H       -3.5160     1.8840    -1.0430 H     1 <1>   0.1500 
 27 H       -3.9070    -2.0990     0.4210 H     1 <1>   0.1500 
 28 H        5.0870     0.9190     1.9040 H     1 <1>   0.0800 
 29 H        4.8520     1.7540     0.3740 H     1 <1>   0.0800 
 30 H        4.9550     0.6300    -1.6250 H     1 <1>   0.0800 
 31 H        5.1650    -1.1110    -1.6840 H     1 <1>   0.0800 
 32 H       -5.3530     0.4200    -1.8330 H     1 <1>   0.0800 
 33 H       -5.9840     0.1680    -0.2210 H     1 <1>   0.0800 
 34 H       -5.5250    -1.1990    -1.2110 H     1 <1>   0.0800 
 35 H        7.1550    -1.0040    -0.3100 H     1 <1>   0.0800 
 36 H        7.1070    -0.1520     1.1960 H     1 <1>   0.0800 
@<TRIPOS>BOND
  1   1   2  2   
  2   1   3  2   
  3   1   4  1   
  4   1   5  1   
  5   4   6  2   
  6   5   7  ar  
  7   5   8  ar  
  8   6   9  1   
  9   6  10  1   
 10   7  11  ar  
 11   7  22  1   
 12   8  12  ar  
 13   8  23  1   
 14   9  13  1   
 15   9  24  1   
 16  10  14  1   
 17  10  25  1   
 18  11  15  ar  
 19  11  26  1   
 20  12  15  ar  
 21  12  27  1   
 22  13  16  1   
 23  13  28  1   
 24  13  29  1   
 25  14  16  1   
 26  14  30  1   
 27  14  31  1   
 28  15  17  1   
 29  16  18  1   
 30  17  32  1   
 31  17  33  1   
 32  17  34  1   
 33  18  19  1   
 34  18  35  1   
 35  18  36  1   
 36  19  20  ar  
 37  19  21  ar  
@<TRIPOS>SUBSTRUCTURE
  1 ****   4 GROUP 4 **** **** 0

# MOE 2024.06 (io_trps.svl 2023.06)
