@<TRIPOS>MOLECULE
NONAME
40 41 1 0 0 
SMALL
USER_CHARGES


@<TRIPOS>ATOM
  1 F       -0.1200    -1.3790     0.3750 F     1 <1>  -0.1900 
  2 C        1.1550    -1.5960     0.1820 C.ar  1 <1>   0.1900 
  3 C        1.5510    -2.8010    -0.3670 C.ar  1 <1>  -0.1500 
  4 C        2.0610    -0.6150     0.5340 C.ar  1 <1>  -0.1500 
  5 C        2.9020    -3.0240    -0.5670 C.ar  1 <1>  -0.1500 
  6 C        3.4090    -0.8530     0.3260 C.ar  1 <1>  -0.1500 
  7 C        3.8480    -2.0590    -0.2230 C.ar  1 <1>   0.1170 
  8 N        5.2030    -2.3320    -0.4610 N.am  1 <1>  -0.5470 
  9 C        6.3220    -1.8490     0.1470 C.2   1 <1>   0.6900 
 10 O        6.2760    -1.1340     1.1270 O.2   1 <1>  -0.5700 
 11 N        7.5270    -2.1910    -0.3750 N.am  1 <1>  -0.7300 
 12 C        8.8020    -1.7720     0.2230 C.3   1 <1>   0.2200 
 13 C        9.2000    -0.4080    -0.3360 C.3   1 <1>  -0.1600 
 14 C        9.8810    -2.8110    -0.0670 C.3   1 <1>  -0.1600 
 15 C       10.5450     0.0240     0.2380 C.3   1 <1>   0.3430 
 16 C       11.2210    -2.3460     0.5010 C.3   1 <1>   0.3430 
 17 N       11.5840    -1.0110    -0.0630 N.4   1 <1>  -0.9590 
 18 C       12.9300    -0.6000     0.4190 C.3   1 <1>   0.3430 
 19 C       13.4790     0.5110    -0.4690 C.3   1 <1>  -0.2400 
 20 H        0.8150    -3.5400    -0.6270 H     1 <1>   0.1500 
 21 H        1.7180     0.3110     0.9590 H     1 <1>   0.1500 
 22 H        3.2220    -3.9580    -0.9910 H     1 <1>   0.1500 
 23 H        4.1210    -0.0930     0.5920 H     1 <1>   0.1500 
 24 H        5.3760    -3.0960    -1.1040 H     1 <1>   0.3700 
 25 H        7.5600    -2.6110    -1.3010 H     1 <1>   0.3700 
 26 H        8.6740    -1.6900     1.2920 H     1 <1>   0.0800 
 27 H        8.4560     0.3180    -0.0560 H     1 <1>   0.0800 
 28 H        9.2550    -0.4360    -1.4100 H     1 <1>   0.0800 
 29 H        9.9770    -2.9760    -1.1250 H     1 <1>   0.0800 
 30 H        9.6110    -3.7420     0.3990 H     1 <1>   0.0800 
 31 H       10.4540     0.1520     1.3050 H     1 <1>   0.0800 
 32 H       10.8250     0.9720    -0.1930 H     1 <1>   0.0800 
 33 H       11.9830    -3.0700     0.2580 H     1 <1>   0.0800 
 34 H       11.1490    -2.2800     1.5760 H     1 <1>   0.0800 
 35 H       11.6410    -1.1070    -1.0850 H     1 <1>   0.4500 
 36 H       13.6040    -1.4420     0.3730 H     1 <1>   0.0800 
 37 H       12.8770    -0.2670     1.4440 H     1 <1>   0.0800 
 38 H       13.5200     0.1980    -1.4970 H     1 <1>   0.0800 
 39 H       14.4810     0.7460    -0.1560 H     1 <1>   0.0800 
 40 H       12.8950     1.4100    -0.3850 H     1 <1>   0.0800 
@<TRIPOS>BOND
  1   1   2  1   
  2   2   3  ar  
  3   2   4  ar  
  4   3   5  ar  
  5   3  20  1   
  6   4   6  ar  
  7   4  21  1   
  8   5   7  ar  
  9   5  22  1   
 10   6   7  ar  
 11   6  23  1   
 12   7   8  1   
 13   8   9  am  
 14   8  24  1   
 15   9  10  2   
 16   9  11  am  
 17  11  12  1   
 18  11  25  1   
 19  12  13  1   
 20  12  14  1   
 21  12  26  1   
 22  13  15  1   
 23  13  27  1   
 24  13  28  1   
 25  14  16  1   
 26  14  29  1   
 27  14  30  1   
 28  15  17  1   
 29  15  31  1   
 30  15  32  1   
 31  16  17  1   
 32  16  33  1   
 33  16  34  1   
 34  17  18  1   
 35  17  35  1   
 36  18  19  1   
 37  18  36  1   
 38  18  37  1   
 39  19  38  1   
 40  19  39  1   
 41  19  40  1   
@<TRIPOS>SUBSTRUCTURE
  1 ****   9 GROUP 4 **** **** 0

# MOE 2024.06 (io_trps.svl 2023.06)
