@<TRIPOS>MOLECULE
NONAME
41 42 1 0 0 
SMALL
USER_CHARGES


@<TRIPOS>ATOM
  1 S        0.4930    -0.2410     0.2530 S.o2  1 <1>   1.4970 
  2 O        0.9000    -0.0050     1.6240 O.2   1 <1>  -0.6500 
  3 O        0.5540     0.8500    -0.6990 O.2   1 <1>  -0.6500 
  4 N        1.4140    -1.4990    -0.3480 N.2   1 <1>  -0.6380 
  5 C       -1.1800    -0.9490     0.2410 C.ar  1 <1>  -0.0090 
  6 C        2.6690    -1.3190    -0.4700 C.2   1 <1>   0.4860 
  7 C       -1.9930    -0.8590    -0.8810 C.ar  1 <1>  -0.1500 
  8 C       -1.6860    -1.6260     1.3410 C.ar  1 <1>  -0.1500 
  9 N        3.3590    -2.3990    -0.9720 N.pl3 1 <1>  -0.5500 
 10 C        3.4810    -0.1660    -0.1660 C.2   1 <1>  -0.1360 
 11 C       -3.2590    -1.4170    -0.9040 C.ar  1 <1>  -0.1500 
 12 C       -2.9510    -2.1860     1.3230 C.ar  1 <1>  -0.1500 
 13 C        4.7240    -2.4070    -1.1790 C.2   1 <1>  -0.0500 
 14 C        4.8260    -0.1510    -0.3620 C.2   1 <1>  -0.1380 
 15 C       -3.7660    -2.0950     0.2010 C.ar  1 <1>  -0.1430 
 16 C        5.4610    -1.3090    -0.8850 C.2   1 <1>  -0.1500 
 17 C        5.6850     1.0600    -0.0440 C.3   1 <1>  -0.1020 
 18 C       -5.1700    -2.7360     0.2260 C.3   1 <1>   0.1440 
 19 C       -5.0410    -4.2460     0.4810 C.3   1 <1>  -0.2400 
 20 C       -5.9430    -2.5530    -1.0910 C.3   1 <1>  -0.2400 
 21 C       -6.0060    -2.0990     1.3470 C.3   1 <1>  -0.2400 
 22 H       -1.6290    -0.3430    -1.7540 H     1 <1>   0.1500 
 23 H       -1.0810    -1.7190     2.2280 H     1 <1>   0.1500 
 24 H        2.7780    -3.2110    -1.1840 H     1 <1>   0.4000 
 25 H        2.9990     0.7070     0.2280 H     1 <1>   0.1500 
 26 H       -3.8320    -1.3070    -1.8050 H     1 <1>   0.1500 
 27 H       -3.2950    -2.6980     2.2040 H     1 <1>   0.1500 
 28 H        5.1640    -3.3070    -1.5770 H     1 <1>   0.1500 
 29 H        6.5260    -1.2890    -1.0370 H     1 <1>   0.1500 
 30 H        6.1820     1.4020    -0.9350 H     1 <1>   0.0800 
 31 H        6.4250     0.8020     0.6910 H     1 <1>   0.0800 
 32 H        5.0850     1.8650     0.3420 H     1 <1>   0.0800 
 33 H       -4.4280    -4.6950    -0.2800 H     1 <1>   0.0800 
 34 H       -6.0070    -4.7180     0.4660 H     1 <1>   0.0800 
 35 H       -4.5900    -4.4420     1.4360 H     1 <1>   0.0800 
 36 H       -5.4110    -3.0070    -1.9080 H     1 <1>   0.0800 
 37 H       -6.0880    -1.5090    -1.3020 H     1 <1>   0.0800 
 38 H       -6.9120    -3.0160    -1.0290 H     1 <1>   0.0800 
 39 H       -5.5630    -2.2750     2.3090 H     1 <1>   0.0800 
 40 H       -7.0000    -2.5070     1.3580 H     1 <1>   0.0800 
 41 H       -6.0730    -1.0370     1.1960 H     1 <1>   0.0800 
@<TRIPOS>BOND
  1   1   2  2   
  2   1   3  2   
  3   1   4  1   
  4   1   5  1   
  5   4   6  2   
  6   5   7  ar  
  7   5   8  ar  
  8   6   9  1   
  9   6  10  1   
 10   7  11  ar  
 11   7  22  1   
 12   8  12  ar  
 13   8  23  1   
 14   9  13  1   
 15   9  24  1   
 16  10  14  2   
 17  10  25  1   
 18  11  15  ar  
 19  11  26  1   
 20  12  15  ar  
 21  12  27  1   
 22  13  16  2   
 23  13  28  1   
 24  14  16  1   
 25  14  17  1   
 26  15  18  1   
 27  16  29  1   
 28  17  30  1   
 29  17  31  1   
 30  17  32  1   
 31  18  19  1   
 32  18  20  1   
 33  18  21  1   
 34  19  33  1   
 35  19  34  1   
 36  19  35  1   
 37  20  36  1   
 38  20  37  1   
 39  20  38  1   
 40  21  39  1   
 41  21  40  1   
 42  21  41  1   
@<TRIPOS>SUBSTRUCTURE
  1 ****   5 GROUP 4 **** **** 0

# MOE 2024.06 (io_trps.svl 2023.06)
