@<TRIPOS>MOLECULE
NONAME
36 38 1 0 0 
SMALL
USER_CHARGES


@<TRIPOS>ATOM
  1 S        0.1020    -0.1270    -0.3530 S.o2  1 <1>   1.0900 
  2 O        0.6500    -1.2680    -1.0460 O.2   1 <1>  -0.6500 
  3 O       -1.2940     0.2300    -0.4600 O.2   1 <1>  -0.6500 
  4 C        1.0800     1.3160    -0.7000 C.3   1 <1>  -0.0550 
  5 C        0.5380    -0.2440     1.3750 C.3   1 <1>  -0.0550 
  6 C        1.9510     1.5460     0.5280 C.3   1 <1>   0.2890 
  7 C        1.1810     1.0870     1.7720 C.3   1 <1>  -0.1600 
  8 N        2.3940     2.9640     0.6330 N.pl3 1 <1>  -0.8220 
  9 C        3.7300     3.2680     0.4530 C.2   1 <1>   0.4620 
 10 C        1.3910     4.0320     0.9320 C.3   1 <1>   0.1290 
 11 S        4.3000     4.9060     0.7460 S.3   1 <1>  -0.0800 
 12 N        4.6640     2.4690     0.0860 N.2   1 <1>  -0.5650 
 13 C        5.9090     4.4040     0.3260 C.2   1 <1>  -0.1100 
 14 C        5.9070     3.0920     0.0090 C.2   1 <1>   0.1730 
 15 C        7.0670     2.3130    -0.3910 C.ar  1 <1>   0.0540 
 16 C        8.3550     2.6820    -0.0030 C.ar  1 <1>  -0.1500 
 17 C        6.9400     1.1690    -1.1790 C.ar  1 <1>  -0.1500 
 18 C        9.4640     1.9500    -0.3870 C.ar  1 <1>  -0.1500 
 19 C        8.0440     0.4310    -1.5670 C.ar  1 <1>  -0.1500 
 20 C        9.3110     0.8220    -1.1710 C.ar  1 <1>  -0.1500 
 21 H        0.4320     2.1550    -0.8570 H     1 <1>   0.0800 
 22 H        1.6920     1.1720    -1.5680 H     1 <1>   0.0800 
 23 H        1.2580    -1.0310     1.5030 H     1 <1>   0.0800 
 24 H       -0.3200    -0.4610     1.9830 H     1 <1>   0.0800 
 25 H        2.8110     0.9010     0.4360 H     1 <1>   0.0800 
 26 H        1.8400     0.9680     2.6130 H     1 <1>   0.0800 
 27 H        0.4010     1.7830     2.0200 H     1 <1>   0.0800 
 28 H        1.5660     4.8910     0.3080 H     1 <1>   0.0800 
 29 H        1.4730     4.3250     1.9650 H     1 <1>   0.0800 
 30 H        0.3890     3.6870     0.7470 H     1 <1>   0.0800 
 31 H        6.6880     5.1410     0.3550 H     1 <1>   0.1500 
 32 H        8.4950     3.5510     0.6140 H     1 <1>   0.1500 
 33 H        5.9610     0.8550    -1.4930 H     1 <1>   0.1500 
 34 H       10.4470     2.2560    -0.0740 H     1 <1>   0.1500 
 35 H        7.9170    -0.4470    -2.1760 H     1 <1>   0.1500 
 36 H       10.1710     0.2500    -1.4720 H     1 <1>   0.1500 
@<TRIPOS>BOND
  1   1   2  2   
  2   1   3  2   
  3   1   4  1   
  4   1   5  1   
  5   4   6  1   
  6   4  21  1   
  7   4  22  1   
  8   5   7  1   
  9   5  23  1   
 10   5  24  1   
 11   6   7  1   
 12   6   8  1   
 13   6  25  1   
 14   7  26  1   
 15   7  27  1   
 16   8   9  1   
 17   8  10  1   
 18   9  11  1   
 19   9  12  2   
 20  10  28  1   
 21  10  29  1   
 22  10  30  1   
 23  11  13  1   
 24  12  14  1   
 25  13  14  2   
 26  13  31  1   
 27  14  15  1   
 28  15  16  ar  
 29  15  17  ar  
 30  16  18  ar  
 31  16  32  1   
 32  17  19  ar  
 33  17  33  1   
 34  18  20  ar  
 35  18  34  1   
 36  19  20  ar  
 37  19  35  1   
 38  20  36  1   
@<TRIPOS>SUBSTRUCTURE
  1 ****  12 GROUP 4 **** **** 0

# MOE 2024.06 (io_trps.svl 2023.06)
