@<TRIPOS>MOLECULE
NONAME
49 52 1 0 0 
SMALL
USER_CHARGES


@<TRIPOS>ATOM
  1 CL      -4.5570     2.6630     0.3300 Cl    1 <1>  -0.1770 
  2 C       -2.8450     2.3300     0.4960 C.ar  1 <1>   0.1770 
  3 C       -2.3370     1.0570     0.2210 C.ar  1 <1>   0.0530 
  4 C       -2.0320     3.3760     0.8880 C.ar  1 <1>  -0.1500 
  5 C       -3.1900    -0.0340    -0.1760 C.2   1 <1>   0.3250 
  6 C       -0.9570     0.8860     0.3510 C.ar  1 <1>  -0.1500 
  7 C       -0.6690     3.1760     1.0120 C.ar  1 <1>  -0.1500 
  8 S       -2.6890    -1.0510    -1.5220 S.3   1 <1>  -0.0800 
  9 N       -4.3260    -0.3940     0.3100 N.2   1 <1>  -0.5650 
 10 C       -0.1350     1.9280     0.7410 C.ar  1 <1>  -0.1500 
 11 C       -4.1620    -1.9610    -1.3920 C.2   1 <1>  -0.1100 
 12 C       -4.8820    -1.4600    -0.3770 C.2   1 <1>   0.0460 
 13 C       -6.2620    -1.9100     0.0850 C.3   1 <1>   0.5240 
 14 N       -7.0400    -0.6850     0.4230 N.4   1 <1>  -0.9590 
 15 C       -8.2040    -0.9450     1.3330 C.3   1 <1>   0.3430 
 16 C       -7.4160     0.1120    -0.7960 C.3   1 <1>   0.3430 
 17 C       -8.9230     0.3600     1.7130 C.3   1 <1>   0.1400 
 18 C       -8.1740     1.4080    -0.4440 C.3   1 <1>   0.1400 
 19 N       -9.3100     1.1310     0.4910 N.am  1 <1>  -0.6600 
 20 C      -10.6140     1.5420     0.2980 C.2   1 <1>   0.5690 
 21 O      -11.4960     1.0310     0.9520 O.2   1 <1>  -0.5700 
 22 C      -11.0190     2.6070    -0.7530 C.3   1 <1>   0.2610 
 23 O      -10.0470     3.6110    -0.9450 O.3   1 <1>  -0.5600 
 24 C      -12.3040     3.3670    -0.4260 C.3   1 <1>  -0.1600 
 25 C      -10.6190     4.8690    -1.1450 C.3   1 <1>   0.1200 
 26 C      -12.1260     4.6640    -1.1850 C.3   1 <1>  -0.1600 
 27 H       -2.4600     4.3420     1.0920 H     1 <1>   0.1500 
 28 H       -0.5180    -0.0770     0.1500 H     1 <1>   0.1500 
 29 H       -0.0270     3.9850     1.3170 H     1 <1>   0.1500 
 30 H        0.9270     1.7700     0.8360 H     1 <1>   0.1500 
 31 H       -4.3170    -2.7610    -2.0960 H     1 <1>   0.1500 
 32 H       -6.1440    -2.5190     0.9660 H     1 <1>   0.0800 
 33 H       -6.7550    -2.4870    -0.6790 H     1 <1>   0.0800 
 34 H       -6.3400    -0.1050     0.9220 H     1 <1>   0.4500 
 35 H       -7.8670    -1.4330     2.2330 H     1 <1>   0.0800 
 36 H       -8.9140    -1.5930     0.8460 H     1 <1>   0.0800 
 37 H       -8.0450    -0.4830    -1.4370 H     1 <1>   0.0800 
 38 H       -6.5280     0.3710    -1.3500 H     1 <1>   0.0800 
 39 H       -8.2760     0.9670     2.3210 H     1 <1>   0.0800 
 40 H       -9.7890     0.1210     2.3060 H     1 <1>   0.0800 
 41 H       -8.5290     1.8380    -1.3630 H     1 <1>   0.0800 
 42 H       -7.5030     2.1160     0.0110 H     1 <1>   0.0800 
 43 H      -11.1430     2.1150    -1.7000 H     1 <1>   0.0800 
 44 H      -12.3500     3.5590     0.6330 H     1 <1>   0.0800 
 45 H      -13.1820     2.8220    -0.7230 H     1 <1>   0.0800 
 46 H      -10.2400     5.2890    -2.0610 H     1 <1>   0.0800 
 47 H      -10.3380     5.4900    -0.3120 H     1 <1>   0.0800 
 48 H      -12.6570     5.4850    -0.7360 H     1 <1>   0.0800 
 49 H      -12.4450     4.5510    -2.2070 H     1 <1>   0.0800 
@<TRIPOS>BOND
  1   1   2  1   
  2   2   3  ar  
  3   2   4  ar  
  4   3   5  1   
  5   3   6  ar  
  6   4   7  ar  
  7   4  27  1   
  8   5   8  1   
  9   5   9  2   
 10   6  10  ar  
 11   6  28  1   
 12   7  10  ar  
 13   7  29  1   
 14   8  11  1   
 15   9  12  1   
 16  10  30  1   
 17  11  12  2   
 18  11  31  1   
 19  12  13  1   
 20  13  14  1   
 21  13  32  1   
 22  13  33  1   
 23  14  15  1   
 24  14  16  1   
 25  14  34  1   
 26  15  17  1   
 27  15  35  1   
 28  15  36  1   
 29  16  18  1   
 30  16  37  1   
 31  16  38  1   
 32  17  19  1   
 33  17  39  1   
 34  17  40  1   
 35  18  19  1   
 36  18  41  1   
 37  18  42  1   
 38  19  20  am  
 39  20  21  2   
 40  20  22  1   
 41  22  23  1   
 42  22  24  1   
 43  22  43  1   
 44  23  25  1   
 45  24  26  1   
 46  24  44  1   
 47  24  45  1   
 48  25  26  1   
 49  25  46  1   
 50  25  47  1   
 51  26  48  1   
 52  26  49  1   
@<TRIPOS>SUBSTRUCTURE
  1 ****  16 GROUP 4 **** **** 0

# MOE 2024.06 (io_trps.svl 2023.06)
