@<TRIPOS>MOLECULE
NONAME
31 32 1 0 0 
SMALL
USER_CHARGES


@<TRIPOS>ATOM
  1 S        0.4300    -0.0980     1.3490 S.3   1 <1>  -0.3710 
  2 C        1.6450    -0.1470     0.0730 C.2   1 <1>   0.6510 
  3 C        0.8130     1.6360     1.7490 C.3   1 <1>   0.1310 
  4 N        2.3320     0.9130    -0.0570 N.2   1 <1>  -0.6610 
  5 N        1.8300    -1.2800    -0.6480 N.am  1 <1>  -0.4900 
  6 C        1.9590     1.9180     0.7950 C.2   1 <1>   0.7200 
  7 C        1.0920    -2.3960    -0.9100 C.2   1 <1>   0.5690 
  8 O        2.5080     2.9870     0.8130 O.2   1 <1>  -0.5700 
  9 O        1.6360    -3.3240    -1.4490 O.2   1 <1>  -0.5700 
 10 C       -0.3910    -2.5180    -0.5920 C.3   1 <1>   0.1310 
 11 S       -1.3390    -1.1790    -1.4620 S.3   1 <1>  -0.3320 
 12 C       -2.9720    -1.2770    -0.7560 C.ar  1 <1>   0.7220 
 13 N       -3.8180    -0.3610    -1.1920 N.ar  1 <1>  -0.6200 
 14 N       -3.1590    -2.2470     0.1250 N.ar  1 <1>  -0.6200 
 15 C       -5.0190    -0.4370    -0.6710 C.ar  1 <1>   0.1670 
 16 C       -4.3700    -2.2960     0.6290 C.ar  1 <1>   0.1670 
 17 C       -5.3470    -1.4000     0.2570 C.ar  1 <1>  -0.1500 
 18 C       -6.0330     0.5870    -1.1370 C.3   1 <1>  -0.0970 
 19 C       -4.6470    -3.3860     1.6430 C.3   1 <1>  -0.0970 
 20 H        1.1150     1.6990     2.7770 H     1 <1>   0.0800 
 21 H       -0.0480     2.2400     1.5350 H     1 <1>   0.0800 
 22 H        2.7130    -1.2860    -1.1520 H     1 <1>   0.3700 
 23 H       -0.5750    -2.4380     0.4620 H     1 <1>   0.0800 
 24 H       -0.7770    -3.4540    -0.9510 H     1 <1>   0.0800 
 25 H       -6.3340    -1.4510     0.6750 H     1 <1>   0.1500 
 26 H       -5.6740     1.5750    -0.9140 H     1 <1>   0.0800 
 27 H       -6.9810     0.4420    -0.6540 H     1 <1>   0.0800 
 28 H       -6.1660     0.5010    -2.2000 H     1 <1>   0.0800 
 29 H       -3.9870    -3.2730     2.4830 H     1 <1>   0.0800 
 30 H       -4.4750    -4.3470     1.1940 H     1 <1>   0.0800 
 31 H       -5.6630    -3.3420     1.9910 H     1 <1>   0.0800 
@<TRIPOS>BOND
  1   1   2  1   
  2   1   3  1   
  3   2   4  2   
  4   2   5  1   
  5   3   6  1   
  6   3  20  1   
  7   3  21  1   
  8   4   6  1   
  9   5   7  am  
 10   5  22  1   
 11   6   8  2   
 12   7   9  2   
 13   7  10  1   
 14  10  11  1   
 15  10  23  1   
 16  10  24  1   
 17  11  12  1   
 18  12  13  ar  
 19  12  14  ar  
 20  13  15  ar  
 21  14  16  ar  
 22  15  17  ar  
 23  15  18  1   
 24  16  17  ar  
 25  16  19  1   
 26  17  25  1   
 27  18  26  1   
 28  18  27  1   
 29  18  28  1   
 30  19  29  1   
 31  19  30  1   
 32  19  31  1   
@<TRIPOS>SUBSTRUCTURE
  1 ****  11 GROUP 4 **** **** 0

# MOE 2024.06 (io_trps.svl 2023.06)
