@<TRIPOS>MOLECULE
NONAME
41 42 1 0 0 
SMALL
USER_CHARGES


@<TRIPOS>ATOM
  1 O       -0.0010    -0.0600     0.8520 O.3   1 <1>  -0.3630 
  2 C        1.1070     0.6220     0.4710 C.ar  1 <1>   0.0820 
  3 C       -0.7910     0.5080     1.8770 C.3   1 <1>   0.0400 
  4 C        1.0820     1.9270    -0.0250 C.ar  1 <1>   0.0820 
  5 C        2.3170    -0.0370     0.5950 C.ar  1 <1>  -0.1500 
  6 O       -0.0620     2.6190    -0.2400 O.3   1 <1>  -0.3630 
  7 C        2.2750     2.5650    -0.3060 C.ar  1 <1>  -0.1500 
  8 C        3.5190     0.5660     0.2390 C.ar  1 <1>  -0.1430 
  9 C       -0.9030     2.1380    -1.2670 C.3   1 <1>   0.0400 
 10 C        3.4850     1.9040    -0.1580 C.ar  1 <1>  -0.1430 
 11 C        4.8410    -0.2230     0.3620 C.3   1 <1>   0.5660 
 12 C        4.7680     2.6850    -0.3770 C.3   1 <1>  -0.0160 
 13 N        6.0090     0.6540     0.0860 N.4   1 <1>  -0.9060 
 14 C        5.0290    -1.4620    -0.5570 C.3   1 <1>  -0.0800 
 15 C        5.8770     2.0740     0.4750 C.3   1 <1>   0.3430 
 16 C        3.7460    -2.2430    -0.8890 C.3   1 <1>   0.1200 
 17 C        6.0770    -2.4400     0.0260 C.3   1 <1>   0.1200 
 18 O        4.0710    -3.2690    -1.7560 O.3   1 <1>  -0.6800 
 19 O        7.1970    -1.7600     0.4990 O.3   1 <1>  -0.6800 
 20 H       -1.3110     1.3670     1.4960 H     1 <1>   0.0800 
 21 H       -1.5010    -0.2300     2.2020 H     1 <1>   0.0800 
 22 H       -0.1530     0.7910     2.6950 H     1 <1>   0.0800 
 23 H        2.2820    -1.0340     0.9930 H     1 <1>   0.1500 
 24 H        2.2370     3.5890    -0.6360 H     1 <1>   0.1500 
 25 H       -0.3460     2.1060    -2.1860 H     1 <1>   0.0800 
 26 H       -1.2560     1.1560    -1.0090 H     1 <1>   0.0800 
 27 H       -1.7350     2.8120    -1.3630 H     1 <1>   0.0800 
 28 H        4.9000    -0.5600     1.3850 H     1 <1>   0.0800 
 29 H        4.6280     3.7100    -0.0790 H     1 <1>   0.0800 
 30 H        5.0380     2.6760    -1.4180 H     1 <1>   0.0800 
 31 H        6.1780     0.6000    -0.9200 H     1 <1>   0.4500 
 32 H        6.8170     0.1690     0.5160 H     1 <1>   0.4500 
 33 H        5.3880    -1.1160    -1.5100 H     1 <1>   0.0800 
 34 H        5.6200     2.1510     1.5200 H     1 <1>   0.0800 
 35 H        6.8030     2.5990     0.3040 H     1 <1>   0.0800 
 36 H        3.0220    -1.6180    -1.3860 H     1 <1>   0.0800 
 37 H        3.3090    -2.6850    -0.0090 H     1 <1>   0.0800 
 38 H        6.4040    -3.1340    -0.7320 H     1 <1>   0.0800 
 39 H        5.6610    -3.0010     0.8470 H     1 <1>   0.0800 
 40 H        3.2710    -3.7550    -2.0490 H     1 <1>   0.4000 
 41 H        7.8950    -2.4100     0.7460 H     1 <1>   0.4000 
@<TRIPOS>BOND
  1   1   2  1   
  2   1   3  1   
  3   2   4  ar  
  4   2   5  ar  
  5   3  20  1   
  6   3  21  1   
  7   3  22  1   
  8   4   6  1   
  9   4   7  ar  
 10   5   8  ar  
 11   5  23  1   
 12   6   9  1   
 13   7  10  ar  
 14   7  24  1   
 15   8  10  ar  
 16   8  11  1   
 17   9  25  1   
 18   9  26  1   
 19   9  27  1   
 20  10  12  1   
 21  11  13  1   
 22  11  14  1   
 23  11  28  1   
 24  12  15  1   
 25  12  29  1   
 26  12  30  1   
 27  13  15  1   
 28  13  31  1   
 29  13  32  1   
 30  14  16  1   
 31  14  17  1   
 32  14  33  1   
 33  15  34  1   
 34  15  35  1   
 35  16  18  1   
 36  16  36  1   
 37  16  37  1   
 38  17  19  1   
 39  17  38  1   
 40  17  39  1   
 41  18  40  1   
 42  19  41  1   
@<TRIPOS>SUBSTRUCTURE
  1 ****   8 GROUP 4 **** **** 0

# MOE 2024.06 (io_trps.svl 2023.06)
