@<TRIPOS>MOLECULE
NONAME
31 31 1 0 0 
SMALL
USER_CHARGES


@<TRIPOS>ATOM
  1 O        0.3600     0.5770    -0.7660 O.2   1 <1>  -0.5700 
  2 C        1.4680     0.9330    -0.4140 C.2   1 <1>   0.6900 
  3 N        2.5860     0.3650    -0.9780 N.am  1 <1>  -0.4200 
  4 N        1.6040     1.8940     0.5610 N.am  1 <1>  -0.4200 
  5 C        3.8590     0.7670    -0.6510 C.2   1 <1>   0.5690 
  6 C        2.4030    -0.7950    -1.9050 C.3   1 <1>   0.0600 
  7 C        2.8120     2.4800     0.8580 C.2   1 <1>   0.5690 
  8 C        0.3750     2.3560     1.2790 C.3   1 <1>   0.0600 
  9 O        4.8150     0.1010    -0.9760 O.2   1 <1>  -0.5700 
 10 C        4.0930     2.0850     0.1070 C.3   1 <1>   0.1220 
 11 O        2.8840     3.3560     1.6890 O.2   1 <1>  -0.5700 
 12 C        5.2750     1.9380     1.1170 C.3   1 <1>  -0.1600 
 13 C        4.3920     3.2330    -0.9020 C.3   1 <1>  -0.1600 
 14 C        5.0340     0.9010     2.2290 C.3   1 <1>  -0.2400 
 15 C        5.6310     3.0580    -1.7970 C.3   1 <1>  -0.2400 
 16 H        1.5630    -0.6240    -2.5550 H     1 <1>   0.0800 
 17 H        2.2270    -1.6880    -1.3300 H     1 <1>   0.0800 
 18 H        3.2760    -0.9400    -2.5170 H     1 <1>   0.0800 
 19 H       -0.3160     1.5400     1.4030 H     1 <1>   0.0800 
 20 H       -0.1010     3.1340     0.7100 H     1 <1>   0.0800 
 21 H        0.6210     2.7360     2.2560 H     1 <1>   0.0800 
 22 H        5.4690     2.8920     1.5770 H     1 <1>   0.0800 
 23 H        6.1690     1.6530     0.5910 H     1 <1>   0.0800 
 24 H        4.5050     4.1540    -0.3540 H     1 <1>   0.0800 
 25 H        3.5360     3.3580    -1.5440 H     1 <1>   0.0800 
 26 H        4.1890     1.1720     2.8380 H     1 <1>   0.0800 
 27 H        5.8990     0.8510     2.8660 H     1 <1>   0.0800 
 28 H        4.8690    -0.0780     1.8150 H     1 <1>   0.0800 
 29 H        6.5310     3.0030    -1.2100 H     1 <1>   0.0800 
 30 H        5.7210     3.9010    -2.4590 H     1 <1>   0.0800 
 31 H        5.5560     2.1700    -2.3990 H     1 <1>   0.0800 
@<TRIPOS>BOND
  1   1   2  2   
  2   2   3  am  
  3   2   4  am  
  4   3   5  am  
  5   3   6  1   
  6   4   7  am  
  7   4   8  1   
  8   5   9  2   
  9   5  10  1   
 10   6  16  1   
 11   6  17  1   
 12   6  18  1   
 13   7  10  1   
 14   7  11  2   
 15   8  19  1   
 16   8  20  1   
 17   8  21  1   
 18  10  12  1   
 19  10  13  1   
 20  12  14  1   
 21  12  22  1   
 22  12  23  1   
 23  13  15  1   
 24  13  24  1   
 25  13  25  1   
 26  14  26  1   
 27  14  27  1   
 28  14  28  1   
 29  15  29  1   
 30  15  30  1   
 31  15  31  1   
@<TRIPOS>SUBSTRUCTURE
  1 ****  10 GROUP 4 **** **** 0

# MOE 2024.06 (io_trps.svl 2023.06)
