@<TRIPOS>MOLECULE
NONAME
45 47 1 0 0 
SMALL
USER_CHARGES


@<TRIPOS>ATOM
  1 O       -0.4560    -0.8710     0.6950 O.3   1 <1>  -0.3630 
  2 C       -1.6630    -1.0800     0.1090 C.ar  1 <1>   0.0830 
  3 C        0.2190     0.3640     0.6020 C.3   1 <1>   0.0400 
  4 C       -2.1980    -2.3630     0.1730 C.ar  1 <1>  -0.1440 
  5 C       -2.3700    -0.0730    -0.5440 C.ar  1 <1>  -0.1500 
  6 C       -3.4280    -2.6240    -0.4090 C.ar  1 <1>  -0.1500 
  7 C       -1.4340    -3.4790     0.8720 C.3   1 <1>  -0.0960 
  8 C       -3.5980    -0.3430    -1.1200 C.ar  1 <1>  -0.1500 
  9 C       -4.1370    -1.6190    -1.0490 C.ar  1 <1>  -0.1440 
 10 C       -5.4920    -1.9120    -1.6600 C.3   1 <1>   0.4860 
 11 N       -6.4760    -2.0640    -0.5560 N.4   1 <1>  -0.9590 
 12 C       -7.7960    -2.6080    -1.0540 C.3   1 <1>   0.3430 
 13 C       -6.6520    -0.7630     0.2010 C.3   1 <1>   0.3430 
 14 C       -8.8660    -2.6960     0.0560 C.3   1 <1>   0.2090 
 15 C       -7.7190    -0.8680     1.3100 C.3   1 <1>   0.2090 
 16 N       -8.9980    -1.3740     0.7300 N.pl3 1 <1>  -0.8380 
 17 C       -9.9580    -0.4960     0.2830 C.ar  1 <1>   0.7200 
 18 N      -11.1760    -0.9920     0.1010 N.ar  1 <1>  -0.6200 
 19 N       -9.5630     0.7510     0.0370 N.ar  1 <1>  -0.6200 
 20 C      -12.0880    -0.1460    -0.3120 C.ar  1 <1>   0.1600 
 21 C      -10.4970     1.5760    -0.3760 C.ar  1 <1>   0.1600 
 22 C      -11.7960     1.1720    -0.5660 C.ar  1 <1>  -0.1500 
 23 H        1.1610     0.2680     1.1110 H     1 <1>   0.0800 
 24 H       -0.3750     1.1250     1.0760 H     1 <1>   0.0800 
 25 H        0.3870     0.5930    -0.4360 H     1 <1>   0.0800 
 26 H       -1.9750     0.9230    -0.6130 H     1 <1>   0.1500 
 27 H       -3.8220    -3.6250    -0.3600 H     1 <1>   0.1500 
 28 H       -0.4770    -3.6130     0.4000 H     1 <1>   0.0800 
 29 H       -1.9670    -4.4110     0.8320 H     1 <1>   0.0800 
 30 H       -1.2710    -3.2200     1.9030 H     1 <1>   0.0800 
 31 H       -4.1200     0.4540    -1.6220 H     1 <1>   0.1500 
 32 H       -5.4320    -2.8220    -2.2340 H     1 <1>   0.0800 
 33 H       -5.7870    -1.1100    -2.3170 H     1 <1>   0.0800 
 34 H       -6.0720    -2.7350     0.1080 H     1 <1>   0.4500 
 35 H       -7.6530    -3.5860    -1.4820 H     1 <1>   0.0800 
 36 H       -8.1800    -1.9620    -1.8270 H     1 <1>   0.0800 
 37 H       -6.9610     0.0140    -0.4780 H     1 <1>   0.0800 
 38 H       -5.7160    -0.4640     0.6430 H     1 <1>   0.0800 
 39 H       -8.5900    -3.4420     0.7810 H     1 <1>   0.0800 
 40 H       -9.8030    -3.0010    -0.3780 H     1 <1>   0.0800 
 41 H       -7.8680     0.0960     1.7670 H     1 <1>   0.0800 
 42 H       -7.3840    -1.5390     2.0820 H     1 <1>   0.0800 
 43 H      -13.0920    -0.5110    -0.4500 H     1 <1>   0.1500 
 44 H      -10.2240     2.6000    -0.5680 H     1 <1>   0.1500 
 45 H      -12.5530     1.8570    -0.9010 H     1 <1>   0.1500 
@<TRIPOS>BOND
  1   1   2  1   
  2   1   3  1   
  3   2   4  ar  
  4   2   5  ar  
  5   3  23  1   
  6   3  24  1   
  7   3  25  1   
  8   4   6  ar  
  9   4   7  1   
 10   5   8  ar  
 11   5  26  1   
 12   6   9  ar  
 13   6  27  1   
 14   7  28  1   
 15   7  29  1   
 16   7  30  1   
 17   8   9  ar  
 18   8  31  1   
 19   9  10  1   
 20  10  11  1   
 21  10  32  1   
 22  10  33  1   
 23  11  12  1   
 24  11  13  1   
 25  11  34  1   
 26  12  14  1   
 27  12  35  1   
 28  12  36  1   
 29  13  15  1   
 30  13  37  1   
 31  13  38  1   
 32  14  16  1   
 33  14  39  1   
 34  14  40  1   
 35  15  16  1   
 36  15  41  1   
 37  15  42  1   
 38  16  17  1   
 39  17  18  ar  
 40  17  19  ar  
 41  18  20  ar  
 42  19  21  ar  
 43  20  22  ar  
 44  20  43  1   
 45  21  22  ar  
 46  21  44  1   
 47  22  45  1   
@<TRIPOS>SUBSTRUCTURE
  1 ****  13 GROUP 4 **** **** 0

# MOE 2024.06 (io_trps.svl 2023.06)
