@<TRIPOS>MOLECULE
NONAME
48 50 1 0 0 
SMALL
USER_CHARGES


@<TRIPOS>ATOM
  1 O       -1.2320     0.3400     2.1680 O.2   1 <1>  -0.5700 
  2 C       -1.9340     0.9640     1.3970 C.2   1 <1>   0.7060 
  3 O       -3.1660     0.4910     1.1850 O.3   1 <1>  -0.2330 
  4 C       -1.5110     2.1370     0.6830 C.2   1 <1>   0.0290 
  5 C       -4.0500     1.0460     0.3260 C.ar  1 <1>   0.0830 
  6 C       -0.1910     2.6580     0.9250 C.2   1 <1>   0.6160 
  7 C       -2.3840     2.7340    -0.1750 C.2   1 <1>  -0.1780 
  8 C       -3.6830     2.1940    -0.3870 C.ar  1 <1>   0.0280 
  9 C       -5.3070     0.4700     0.1580 C.ar  1 <1>  -0.1440 
 10 O       -0.0670     3.8510     1.1190 O.2   1 <1>  -0.5700 
 11 N        0.9650     1.8990     0.8900 N.am  1 <1>  -0.6600 
 12 C       -4.6030     2.7530    -1.2720 C.ar  1 <1>  -0.1500 
 13 C       -6.1960     1.0430    -0.7340 C.ar  1 <1>  -0.1500 
 14 C       -5.7200    -0.7780     0.9300 C.3   1 <1>   0.1220 
 15 C        1.0680     0.5480     0.2550 C.3   1 <1>   0.1400 
 16 C        2.2120     2.3690     1.5740 C.3   1 <1>   0.1400 
 17 C       -5.8460     2.1810    -1.4450 C.ar  1 <1>  -0.1500 
 18 C       -5.3210    -2.0270     0.1630 C.2   1 <1>  -0.2880 
 19 C        2.3250     0.4370    -0.6320 C.3   1 <1>   0.3430 
 20 C        3.4330     2.2460     0.6470 C.3   1 <1>   0.3430 
 21 C       -6.1640    -2.9660    -0.2780 C.2   1 <1>  -0.3000 
 22 N        3.5810     0.8520     0.0930 N.4   1 <1>  -0.9590 
 23 C        4.7970     0.7780    -0.7840 C.3   1 <1>   0.3430 
 24 C        5.1790    -0.6610    -1.1650 C.3   1 <1>   0.1200 
 25 O        6.3290    -0.5970    -1.9310 O.3   1 <1>  -0.6800 
 26 H       -2.1200     3.6320    -0.7090 H     1 <1>   0.1500 
 27 H       -4.3390     3.6370    -1.8260 H     1 <1>   0.1500 
 28 H       -7.1680     0.6060    -0.8860 H     1 <1>   0.1500 
 29 H       -6.7840    -0.7710     1.0860 H     1 <1>   0.0800 
 30 H       -5.2570    -0.7910     1.9020 H     1 <1>   0.0800 
 31 H        0.2000     0.3550    -0.3510 H     1 <1>   0.0800 
 32 H        1.1010    -0.2030     1.0270 H     1 <1>   0.0800 
 33 H        2.3680     1.7820     2.4620 H     1 <1>   0.0800 
 34 H        2.1150     3.3960     1.8840 H     1 <1>   0.0800 
 35 H       -6.5510     2.6150    -2.1340 H     1 <1>   0.1500 
 36 H       -4.2570    -2.0850     0.0040 H     1 <1>   0.1500 
 37 H        2.1850     1.0670    -1.4960 H     1 <1>   0.0800 
 38 H        2.4160    -0.5790    -0.9780 H     1 <1>   0.0800 
 39 H        4.3190     2.5180     1.1980 H     1 <1>   0.0800 
 40 H        3.3180     2.9500    -0.1610 H     1 <1>   0.0800 
 41 H       -5.8540    -3.8420    -0.8210 H     1 <1>   0.1500 
 42 H       -7.2310    -2.9410    -0.1380 H     1 <1>   0.1500 
 43 H        3.7130     0.2210     0.8950 H     1 <1>   0.4500 
 44 H        5.6360     1.2150    -0.2660 H     1 <1>   0.0800 
 45 H        4.6290     1.3430    -1.6860 H     1 <1>   0.0800 
 46 H        4.4140    -1.1300    -1.7580 H     1 <1>   0.0800 
 47 H        5.3960    -1.2490    -0.2900 H     1 <1>   0.0800 
 48 H        6.6450    -1.4880    -2.1950 H     1 <1>   0.4000 
@<TRIPOS>BOND
  1   1   2  2   
  2   2   3  1   
  3   2   4  1   
  4   3   5  1   
  5   4   6  1   
  6   4   7  2   
  7   5   8  ar  
  8   5   9  ar  
  9   6  10  2   
 10   6  11  am  
 11   7   8  1   
 12   7  26  1   
 13   8  12  ar  
 14   9  13  ar  
 15   9  14  1   
 16  11  15  1   
 17  11  16  1   
 18  12  17  ar  
 19  12  27  1   
 20  13  17  ar  
 21  13  28  1   
 22  14  18  1   
 23  14  29  1   
 24  14  30  1   
 25  15  19  1   
 26  15  31  1   
 27  15  32  1   
 28  16  20  1   
 29  16  33  1   
 30  16  34  1   
 31  17  35  1   
 32  18  21  2   
 33  18  36  1   
 34  19  22  1   
 35  19  37  1   
 36  19  38  1   
 37  20  22  1   
 38  20  39  1   
 39  20  40  1   
 40  21  41  1   
 41  21  42  1   
 42  22  23  1   
 43  22  43  1   
 44  23  24  1   
 45  23  44  1   
 46  23  45  1   
 47  24  25  1   
 48  24  46  1   
 49  24  47  1   
 50  25  48  1   
@<TRIPOS>SUBSTRUCTURE
  1 ****   4 GROUP 4 **** **** 0

# MOE 2024.06 (io_trps.svl 2023.06)
