@<TRIPOS>MOLECULE
NONAME
37 39 1 0 0 
SMALL
USER_CHARGES


@<TRIPOS>ATOM
  1 O        0.1680     2.2790    -1.8120 O.2   1 <1>  -0.5700 
  2 C        0.1400     2.6890    -0.6680 C.2   1 <1>   0.5440 
  3 N        1.3190     2.9810    -0.0450 N.am  1 <1>  -0.7300 
  4 C       -1.1200     2.8500     0.0360 C.ar  1 <1>   0.0860 
  5 C        2.6630     2.8290    -0.6350 C.3   1 <1>   0.2200 
  6 C       -2.2060     2.0210    -0.2390 C.ar  1 <1>  -0.1500 
  7 C       -1.2960     3.8330     1.0130 C.ar  1 <1>  -0.1500 
  8 C        3.4790     1.7000     0.0290 C.3   1 <1>  -0.0800 
  9 C        3.5230     4.0750    -0.3710 C.3   1 <1>  -0.1600 
 10 C       -3.4110     2.1470     0.4310 C.ar  1 <1>   0.0830 
 11 C       -2.4940     3.9700     1.6910 C.ar  1 <1>  -0.1500 
 12 C        4.8980     2.1500    -0.2880 C.3   1 <1>  -0.1600 
 13 C        3.4810     1.8390     1.5660 C.3   1 <1>  -0.1600 
 14 C        4.7460     3.5100     0.3740 C.3   1 <1>  -0.0800 
 15 O       -4.3960     1.2810     0.0850 O.3   1 <1>  -0.3630 
 16 C       -3.5540     3.1290     1.4050 C.ar  1 <1>  -0.1500 
 17 C        4.3120     3.1140     1.7950 C.3   1 <1>  -0.1600 
 18 C       -5.6730     1.3440     0.6780 C.3   1 <1>   0.0400 
 19 H        1.3230     3.1840     0.9520 H     1 <1>   0.3700 
 20 H        2.5910     2.6540    -1.6960 H     1 <1>   0.0800 
 21 H       -2.1080     1.2610    -0.9940 H     1 <1>   0.1500 
 22 H       -0.4880     4.5050     1.2390 H     1 <1>   0.1500 
 23 H        3.2270     0.7190    -0.3340 H     1 <1>   0.0800 
 24 H        3.0100     4.8260     0.2030 H     1 <1>   0.0800 
 25 H        3.8320     4.4990    -1.3100 H     1 <1>   0.0800 
 26 H       -2.6050     4.7360     2.4400 H     1 <1>   0.1500 
 27 H        5.0890     2.2190    -1.3460 H     1 <1>   0.0800 
 28 H        5.6480     1.5370     0.1830 H     1 <1>   0.0800 
 29 H        3.9820     0.9930     2.0050 H     1 <1>   0.0800 
 30 H        2.4950     1.9050     1.9890 H     1 <1>   0.0800 
 31 H        5.6170     4.1430     0.3380 H     1 <1>   0.0800 
 32 H       -4.4740     3.2530     1.9440 H     1 <1>   0.1500 
 33 H        5.1730     2.8920     2.4020 H     1 <1>   0.0800 
 34 H        3.7380     3.8920     2.2700 H     1 <1>   0.0800 
 35 H       -6.2830     0.5750     0.2380 H     1 <1>   0.0800 
 36 H       -6.1040     2.3090     0.4800 H     1 <1>   0.0800 
 37 H       -5.5760     1.1720     1.7360 H     1 <1>   0.0800 
@<TRIPOS>BOND
  1   1   2  2   
  2   2   3  am  
  3   2   4  1   
  4   3   5  1   
  5   3  19  1   
  6   4   6  ar  
  7   4   7  ar  
  8   5   8  1   
  9   5   9  1   
 10   5  20  1   
 11   6  10  ar  
 12   6  21  1   
 13   7  11  ar  
 14   7  22  1   
 15   8  12  1   
 16   8  13  1   
 17   8  23  1   
 18   9  14  1   
 19   9  24  1   
 20   9  25  1   
 21  10  15  1   
 22  10  16  ar  
 23  11  16  ar  
 24  11  26  1   
 25  12  14  1   
 26  12  27  1   
 27  12  28  1   
 28  13  17  1   
 29  13  29  1   
 30  13  30  1   
 31  14  17  1   
 32  14  31  1   
 33  15  18  1   
 34  16  32  1   
 35  17  33  1   
 36  17  34  1   
 37  18  35  1   
 38  18  36  1   
 39  18  37  1   
@<TRIPOS>SUBSTRUCTURE
  1 ****   2 GROUP 4 **** **** 0

# MOE 2024.06 (io_trps.svl 2023.06)
