@<TRIPOS>MOLECULE
NONAME
43 43 1 0 0 
SMALL
USER_CHARGES


@<TRIPOS>ATOM
  1 O       -0.4400    -0.2680     0.4700 O.3   1 <1>  -0.3630 
  2 C       -1.6030    -0.8750     0.1340 C.ar  1 <1>   0.0830 
  3 C        0.2470    -0.5890     1.6600 C.3   1 <1>   0.0400 
  4 C       -2.2550    -1.8030     0.9390 C.ar  1 <1>  -0.1500 
  5 C       -2.1500    -0.5350    -1.0910 C.ar  1 <1>  -0.1500 
  6 C       -3.4460    -2.3700     0.5190 C.ar  1 <1>  -0.1500 
  7 C       -3.3390    -1.1010    -1.5120 C.ar  1 <1>  -0.1500 
  8 C       -4.0010    -2.0140    -0.7040 C.ar  1 <1>  -0.1430 
  9 C       -5.3210    -2.6090    -1.1450 C.3   1 <1>   0.4860 
 10 N       -6.4000    -1.9520    -0.3410 N.4   1 <1>  -0.9590 
 11 C       -7.6630    -2.7790    -0.3520 C.3   1 <1>   0.3430 
 12 C       -6.5730    -0.5380    -0.7900 C.3   1 <1>   0.3430 
 13 C       -8.7640    -2.3030     0.6410 C.3   1 <1>   0.3430 
 14 C       -6.6250     0.3630     0.4370 C.3   1 <1>  -0.2400 
 15 N       -9.9770    -3.2010     0.7210 N.4   1 <1>  -0.9590 
 16 C      -10.7720    -3.2600    -0.5540 C.3   1 <1>   0.2630 
 17 C      -10.8830    -2.7490     1.8320 C.3   1 <1>   0.2630 
 18 H        1.1470    -0.0020     1.6940 H     1 <1>   0.0800 
 19 H        0.4940    -1.6360     1.6500 H     1 <1>   0.0800 
 20 H       -0.3770    -0.3460     2.5020 H     1 <1>   0.0800 
 21 H       -1.8450    -2.0930     1.8890 H     1 <1>   0.1500 
 22 H       -1.6300     0.1760    -1.7090 H     1 <1>   0.1500 
 23 H       -3.9200    -3.0940     1.1600 H     1 <1>   0.1500 
 24 H       -3.7280    -0.8160    -2.4760 H     1 <1>   0.1500 
 25 H       -5.3020    -3.6710    -0.9590 H     1 <1>   0.0800 
 26 H       -5.4740    -2.4460    -2.2000 H     1 <1>   0.0800 
 27 H       -5.9870    -1.9010     0.6030 H     1 <1>   0.4500 
 28 H       -7.4060    -3.7950    -0.1000 H     1 <1>   0.0800 
 29 H       -8.0700    -2.7770    -1.3490 H     1 <1>   0.0800 
 30 H       -7.4670    -0.4270    -1.3820 H     1 <1>   0.0800 
 31 H       -5.7340    -0.2310    -1.3960 H     1 <1>   0.0800 
 32 H       -9.0840    -1.3140     0.3560 H     1 <1>   0.0800 
 33 H       -8.3230    -2.2380     1.6230 H     1 <1>   0.0800 
 34 H       -7.4600     0.1390     1.0740 H     1 <1>   0.0800 
 35 H       -6.7240     1.3850     0.1150 H     1 <1>   0.0800 
 36 H       -5.7080     0.2910     0.9970 H     1 <1>   0.0800 
 37 H       -9.6910    -4.1670     0.9630 H     1 <1>   0.4500 
 38 H      -11.1220    -2.2770    -0.8270 H     1 <1>   0.0800 
 39 H      -11.6320    -3.9000    -0.4270 H     1 <1>   0.0800 
 40 H      -10.1770    -3.6540    -1.3610 H     1 <1>   0.0800 
 41 H      -11.2460    -1.7520     1.6440 H     1 <1>   0.0800 
 42 H      -10.3580    -2.7520     2.7750 H     1 <1>   0.0800 
 43 H      -11.7310    -3.4100     1.9170 H     1 <1>   0.0800 
@<TRIPOS>BOND
  1   1   2  1   
  2   1   3  1   
  3   2   4  ar  
  4   2   5  ar  
  5   3  18  1   
  6   3  19  1   
  7   3  20  1   
  8   4   6  ar  
  9   4  21  1   
 10   5   7  ar  
 11   5  22  1   
 12   6   8  ar  
 13   6  23  1   
 14   7   8  ar  
 15   7  24  1   
 16   8   9  1   
 17   9  10  1   
 18   9  25  1   
 19   9  26  1   
 20  10  11  1   
 21  10  12  1   
 22  10  27  1   
 23  11  13  1   
 24  11  28  1   
 25  11  29  1   
 26  12  14  1   
 27  12  30  1   
 28  12  31  1   
 29  13  15  1   
 30  13  32  1   
 31  13  33  1   
 32  14  34  1   
 33  14  35  1   
 34  14  36  1   
 35  15  16  1   
 36  15  17  1   
 37  15  37  1   
 38  16  38  1   
 39  16  39  1   
 40  16  40  1   
 41  17  41  1   
 42  17  42  1   
 43  17  43  1   
@<TRIPOS>SUBSTRUCTURE
  1 ****  10 GROUP 4 **** **** 0

# MOE 2024.06 (io_trps.svl 2023.06)
