@<TRIPOS>MOLECULE
NONAME
32 33 1 0 0 
SMALL
USER_CHARGES


@<TRIPOS>ATOM
  1 O       -0.9580    -0.5410     0.1160 O.3   1 <1>  -0.0190 
  2 N       -2.1470    -0.5020    -0.3970 N.2   1 <1>  -0.4100 
  3 C       -0.8040     0.6400     0.6560 C.2   1 <1>   0.2980 
  4 C       -2.6460     0.6580    -0.1500 C.2   1 <1>   0.4620 
  5 N       -1.7950     1.4230     0.5410 N.2   1 <1>  -0.5650 
  6 C        0.4980     0.9610     1.3720 C.3   1 <1>   0.0200 
  7 C       -3.9660     1.1160    -0.5540 C.ar  1 <1>   0.0540 
  8 C        1.6780     1.3420     0.4430 C.3   1 <1>   0.0000 
  9 C       -4.8320     0.2890    -1.2730 C.ar  1 <1>  -0.1500 
 10 C       -4.4250     2.3990    -0.2450 C.ar  1 <1>  -0.1500 
 11 C        1.3250     2.5710    -0.4090 C.3   1 <1>  -0.2400 
 12 C        2.0580     0.1810    -0.4890 C.3   1 <1>  -0.2400 
 13 C        2.8990     1.6850     1.3110 C.3   1 <1>  -0.2400 
 14 C       -6.0880     0.7160    -1.6630 C.ar  1 <1>  -0.1500 
 15 C       -5.6810     2.8330    -0.6310 C.ar  1 <1>  -0.1500 
 16 C       -6.5160     1.9910    -1.3420 C.ar  1 <1>  -0.1500 
 17 H        0.7690     0.1120     1.9720 H     1 <1>   0.0800 
 18 H        0.3070     1.7780     2.0440 H     1 <1>   0.0800 
 19 H       -4.5150    -0.7070    -1.5320 H     1 <1>   0.1500 
 20 H       -3.7880     3.0670     0.3080 H     1 <1>   0.1500 
 21 H        0.5020     2.3570    -1.0690 H     1 <1>   0.0800 
 22 H        2.1650     2.8680    -1.0120 H     1 <1>   0.0800 
 23 H        1.0460     3.4000     0.2170 H     1 <1>   0.0800 
 24 H        2.9340     0.4300    -1.0620 H     1 <1>   0.0800 
 25 H        2.2670    -0.7100     0.0770 H     1 <1>   0.0800 
 26 H        1.2650    -0.0340    -1.1830 H     1 <1>   0.0800 
 27 H        2.6800     2.5090     1.9670 H     1 <1>   0.0800 
 28 H        3.7370     1.9600     0.6950 H     1 <1>   0.0800 
 29 H        3.1880     0.8400     1.9120 H     1 <1>   0.0800 
 30 H       -6.7340     0.0560    -2.2160 H     1 <1>   0.1500 
 31 H       -6.0080     3.8270    -0.3780 H     1 <1>   0.1500 
 32 H       -7.4930     2.3270    -1.6430 H     1 <1>   0.1500 
@<TRIPOS>BOND
  1   1   2  1   
  2   1   3  1   
  3   2   4  2   
  4   3   5  2   
  5   3   6  1   
  6   4   5  1   
  7   4   7  1   
  8   6   8  1   
  9   6  17  1   
 10   6  18  1   
 11   7   9  ar  
 12   7  10  ar  
 13   8  11  1   
 14   8  12  1   
 15   8  13  1   
 16   9  14  ar  
 17   9  19  1   
 18  10  15  ar  
 19  10  20  1   
 20  11  21  1   
 21  11  22  1   
 22  11  23  1   
 23  12  24  1   
 24  12  25  1   
 25  12  26  1   
 26  13  27  1   
 27  13  28  1   
 28  13  29  1   
 29  14  16  ar  
 30  14  30  1   
 31  15  16  ar  
 32  15  31  1   
 33  16  32  1   
@<TRIPOS>SUBSTRUCTURE
  1 ****   5 GROUP 4 **** **** 0

# MOE 2024.06 (io_trps.svl 2023.06)
