@<TRIPOS>MOLECULE
NONAME
50 52 1 0 0 
SMALL
USER_CHARGES


@<TRIPOS>ATOM
  1 S        0.7510     1.1930     1.3200 S.o2  1 <1>   1.3330 
  2 O        1.6060     1.6810     2.3750 O.2   1 <1>  -0.6500 
  3 O        1.2580     0.2660     0.3400 O.2   1 <1>  -0.6500 
  4 N        0.1720     2.5930     0.4920 N.am  1 <1>  -0.6930 
  5 C       -0.7250     0.5290     2.0640 C.3   1 <1>  -0.1350 
  6 C       -0.9960     2.5310    -0.2630 C.ar  1 <1>   0.1990 
  7 C        1.2190     3.5610     0.0380 C.3   1 <1>   0.2570 
  8 C       -2.1290     3.2560     0.1130 C.ar  1 <1>  -0.1440 
  9 C       -1.0530     1.7290    -1.3970 C.ar  1 <1>  -0.1500 
 10 C        2.1720     3.0230    -1.0450 C.2   1 <1>   0.5690 
 11 C       -3.2870     3.1540    -0.6400 C.ar  1 <1>  -0.1500 
 12 C       -2.1120     4.1630     1.3370 C.3   1 <1>  -0.0970 
 13 C       -2.2110     1.6270    -2.1460 C.ar  1 <1>  -0.1440 
 14 O        1.7820     3.0980    -2.1890 O.2   1 <1>  -0.5700 
 15 N        3.4110     2.4960    -0.7620 N.am  1 <1>  -0.6600 
 16 C       -3.3300     2.3440    -1.7610 C.ar  1 <1>  -0.1500 
 17 C       -2.2510     0.7490    -3.3830 C.3   1 <1>  -0.0970 
 18 C        4.1540     1.7720    -1.8380 C.3   1 <1>   0.2840 
 19 C        4.0310     2.3680     0.5870 C.3   1 <1>   0.1400 
 20 C        5.6730     1.8050    -1.6650 C.ar  1 <1>  -0.1430 
 21 C        5.4410     2.9560     0.5690 C.3   1 <1>  -0.0170 
 22 C        6.2820     2.3490    -0.5410 C.ar  1 <1>  -0.1430 
 23 C        6.4630     1.2630    -2.6680 C.ar  1 <1>  -0.1500 
 24 C        7.6640     2.3470    -0.4320 C.ar  1 <1>  -0.1500 
 25 C        7.8420     1.2610    -2.5570 C.ar  1 <1>  -0.1500 
 26 C        8.4440     1.8040    -1.4370 C.ar  1 <1>  -0.1500 
 27 H       -0.4840    -0.3400     2.6440 H     1 <1>   0.0800 
 28 H       -1.4300     0.2510     1.3060 H     1 <1>   0.0800 
 29 H       -1.1760     1.2580     2.7070 H     1 <1>   0.0800 
 30 H        1.7710     3.9100     0.8880 H     1 <1>   0.0800 
 31 H        0.7230     4.4180    -0.3800 H     1 <1>   0.0800 
 32 H       -0.1720     1.1870    -1.6940 H     1 <1>   0.1500 
 33 H       -4.1670     3.7070    -0.3620 H     1 <1>   0.1500 
 34 H       -1.8100     3.6090     2.2070 H     1 <1>   0.0800 
 35 H       -3.0850     4.5820     1.5230 H     1 <1>   0.0800 
 36 H       -1.4180     4.9700     1.1830 H     1 <1>   0.0800 
 37 H       -4.2380     2.2770    -2.3350 H     1 <1>   0.1500 
 38 H       -1.4680     0.0130    -3.3510 H     1 <1>   0.0800 
 39 H       -2.1190     1.3550    -4.2610 H     1 <1>   0.0800 
 40 H       -3.1960     0.2390    -3.4490 H     1 <1>   0.0800 
 41 H        3.9150     2.1990    -2.7960 H     1 <1>   0.0800 
 42 H        3.8250     0.7480    -1.8420 H     1 <1>   0.0800 
 43 H        4.0760     1.3250     0.8530 H     1 <1>   0.0800 
 44 H        3.4620     2.8790     1.3380 H     1 <1>   0.0800 
 45 H        5.9050     2.7720     1.5210 H     1 <1>   0.0800 
 46 H        5.3800     4.0190     0.4260 H     1 <1>   0.0800 
 47 H        6.0050     0.8380    -3.5440 H     1 <1>   0.1500 
 48 H        8.1400     2.7700     0.4350 H     1 <1>   0.1500 
 49 H        8.4460     0.8380    -3.3410 H     1 <1>   0.1500 
 50 H        9.5160     1.8040    -1.3470 H     1 <1>   0.1500 
@<TRIPOS>BOND
  1   1   2  2   
  2   1   3  2   
  3   1   4  am  
  4   1   5  1   
  5   4   6  1   
  6   4   7  1   
  7   5  27  1   
  8   5  28  1   
  9   5  29  1   
 10   6   8  ar  
 11   6   9  ar  
 12   7  10  1   
 13   7  30  1   
 14   7  31  1   
 15   8  11  ar  
 16   8  12  1   
 17   9  13  ar  
 18   9  32  1   
 19  10  14  2   
 20  10  15  am  
 21  11  16  ar  
 22  11  33  1   
 23  12  34  1   
 24  12  35  1   
 25  12  36  1   
 26  13  16  ar  
 27  13  17  1   
 28  15  18  1   
 29  15  19  1   
 30  16  37  1   
 31  17  38  1   
 32  17  39  1   
 33  17  40  1   
 34  18  20  1   
 35  18  41  1   
 36  18  42  1   
 37  19  21  1   
 38  19  43  1   
 39  19  44  1   
 40  20  22  ar  
 41  20  23  ar  
 42  21  22  1   
 43  21  45  1   
 44  21  46  1   
 45  22  24  ar  
 46  23  25  ar  
 47  23  47  1   
 48  24  26  ar  
 49  24  48  1   
 50  25  26  ar  
 51  25  49  1   
 52  26  50  1   
@<TRIPOS>SUBSTRUCTURE
  1 ****  10 GROUP 4 **** **** 0

# MOE 2024.06 (io_trps.svl 2023.06)
