@<TRIPOS>MOLECULE
NONAME
40 42 1 0 0 
SMALL
USER_CHARGES


@<TRIPOS>ATOM
  1 F        0.1840    -0.5850     0.5570 F     1 <1>  -0.1900 
  2 C        1.3540    -1.1390     0.3720 C.ar  1 <1>   0.1900 
  3 C        1.9280    -1.0860    -0.8840 C.ar  1 <1>  -0.1500 
  4 C        1.9750    -1.7590     1.4410 C.ar  1 <1>  -0.1500 
  5 C        3.1660    -1.6750    -1.0710 C.ar  1 <1>  -0.1500 
  6 C        3.2130    -2.3440     1.2390 C.ar  1 <1>  -0.1500 
  7 C        3.8190    -2.3070    -0.0170 C.ar  1 <1>   0.1000 
  8 N        5.0610    -2.8890    -0.2380 N.pl3 1 <1>  -0.8380 
  9 C        5.1100    -4.3790    -0.2020 C.3   1 <1>   0.2090 
 10 C        6.2310    -2.2170     0.3990 C.3   1 <1>   0.2090 
 11 C        6.4390    -4.8950    -0.7940 C.3   1 <1>   0.3430 
 12 C        7.5530    -2.7460    -0.1950 C.3   1 <1>   0.3430 
 13 N        7.6500    -4.2560    -0.1550 N.4   1 <1>  -0.9590 
 14 C        8.9150    -4.7410    -0.7710 C.3   1 <1>   0.4860 
 15 C       10.0850    -4.2180     0.0430 C.ar  1 <1>  -0.1430 
 16 C       10.3860    -4.7850     1.2780 C.ar  1 <1>  -0.1500 
 17 C       10.8580    -3.1690    -0.4450 C.ar  1 <1>  -0.1500 
 18 C       11.4440    -4.3010     2.0280 C.ar  1 <1>  -0.1500 
 19 C       11.9180    -2.6790     0.2980 C.ar  1 <1>  -0.1500 
 20 C       12.1900    -3.2540     1.5240 C.ar  1 <1>   0.1900 
 21 F       13.1860    -2.7920     2.2290 F     1 <1>  -0.1900 
 22 H        1.4130    -0.5940    -1.6910 H     1 <1>   0.1500 
 23 H        1.4940    -1.7780     2.4020 H     1 <1>   0.1500 
 24 H        3.6360    -1.6480    -2.0360 H     1 <1>   0.1500 
 25 H        3.7100    -2.8290     2.0570 H     1 <1>   0.1500 
 26 H        4.2860    -4.7730    -0.7740 H     1 <1>   0.0800 
 27 H        5.0010    -4.7220     0.8130 H     1 <1>   0.0800 
 28 H        6.2120    -2.3830     1.4620 H     1 <1>   0.0800 
 29 H        6.1630    -1.1550     0.2300 H     1 <1>   0.0800 
 30 H        6.4340    -4.6780    -1.8500 H     1 <1>   0.0800 
 31 H        6.4820    -5.9650    -0.6780 H     1 <1>   0.0800 
 32 H        8.3770    -2.3100     0.3480 H     1 <1>   0.0800 
 33 H        7.6160    -2.4080    -1.2150 H     1 <1>   0.0800 
 34 H        7.6750    -4.5240     0.8350 H     1 <1>   0.4500 
 35 H        8.9910    -4.3970    -1.7890 H     1 <1>   0.0800 
 36 H        8.9390    -5.8190    -0.7720 H     1 <1>   0.0800 
 37 H        9.8120    -5.6080     1.6700 H     1 <1>   0.1500 
 38 H       10.6510    -2.7250    -1.4060 H     1 <1>   0.1500 
 39 H       11.6970    -4.7230     2.9860 H     1 <1>   0.1500 
 40 H       12.5310    -1.8690    -0.0600 H     1 <1>   0.1500 
@<TRIPOS>BOND
  1   1   2  1   
  2   2   3  ar  
  3   2   4  ar  
  4   3   5  ar  
  5   3  22  1   
  6   4   6  ar  
  7   4  23  1   
  8   5   7  ar  
  9   5  24  1   
 10   6   7  ar  
 11   6  25  1   
 12   7   8  1   
 13   8   9  1   
 14   8  10  1   
 15   9  11  1   
 16   9  26  1   
 17   9  27  1   
 18  10  12  1   
 19  10  28  1   
 20  10  29  1   
 21  11  13  1   
 22  11  30  1   
 23  11  31  1   
 24  12  13  1   
 25  12  32  1   
 26  12  33  1   
 27  13  14  1   
 28  13  34  1   
 29  14  15  1   
 30  14  35  1   
 31  14  36  1   
 32  15  16  ar  
 33  15  17  ar  
 34  16  18  ar  
 35  16  37  1   
 36  17  19  ar  
 37  17  38  1   
 38  18  20  ar  
 39  18  39  1   
 40  19  20  ar  
 41  19  40  1   
 42  20  21  1   
@<TRIPOS>SUBSTRUCTURE
  1 ****  10 GROUP 4 **** **** 0

# MOE 2024.06 (io_trps.svl 2023.06)
