@<TRIPOS>MOLECULE
NONAME
43 44 1 0 0 
SMALL
USER_CHARGES


@<TRIPOS>ATOM
  1 N        0.1920     0.5710    -1.2930 N.3   1 <1>  -0.8100 
  2 C        0.1460     2.0490    -1.1640 C.3   1 <1>   0.1100 
  3 C       -1.1200     0.0530    -1.7420 C.3   1 <1>   0.1100 
  4 C        1.2890     0.1330    -2.1750 C.3   1 <1>   0.2480 
  5 C       -0.9680     2.5140    -0.1950 C.3   1 <1>   0.3430 
  6 C       -2.2800     0.5260    -0.8290 C.3   1 <1>   0.3430 
  7 C        2.6550     0.3990    -1.5450 C.2   1 <1>  -0.2760 
  8 N       -1.7670     1.3520     0.3170 N.4   1 <1>  -0.9590 
  9 C        2.8750     0.4430    -0.2160 C.2   1 <1>  -0.1780 
 10 C        3.7490     0.5700    -2.5940 C.3   1 <1>  -0.1020 
 11 C       -2.7860     1.7460     1.3180 C.3   1 <1>   0.3430 
 12 C        4.0950     0.7160     0.5050 C.ar  1 <1>   0.0280 
 13 C       -3.2700     0.5150     2.0730 C.3   1 <1>  -0.2400 
 14 C        4.5280    -0.1480     1.5060 C.ar  1 <1>  -0.1500 
 15 C        4.8580     1.8520     0.2480 C.ar  1 <1>  -0.1500 
 16 C        5.6840     0.1070     2.2210 C.ar  1 <1>  -0.1500 
 17 C        6.0160     2.1130     0.9590 C.ar  1 <1>  -0.1500 
 18 C        6.4320     1.2390     1.9480 C.ar  1 <1>  -0.1500 
 19 H        1.0910     2.4150    -0.7990 H     1 <1>   0.0800 
 20 H       -0.0160     2.4950    -2.1310 H     1 <1>   0.0800 
 21 H       -1.3140     0.3700    -2.7530 H     1 <1>   0.0800 
 22 H       -1.0950    -1.0240    -1.7390 H     1 <1>   0.0800 
 23 H        1.2070    -0.9240    -2.3670 H     1 <1>   0.0800 
 24 H        1.2130     0.6490    -3.1180 H     1 <1>   0.0800 
 25 H       -1.6110     3.2120    -0.7050 H     1 <1>   0.0800 
 26 H       -0.5100     3.0330     0.6310 H     1 <1>   0.0800 
 27 H       -2.7990    -0.3420    -0.4570 H     1 <1>   0.0800 
 28 H       -2.9790     1.1010    -1.4130 H     1 <1>   0.0800 
 29 H       -1.0540     0.7470     0.7550 H     1 <1>   0.4500 
 30 H        2.0560     0.2490     0.4540 H     1 <1>   0.1500 
 31 H        3.7460    -0.2660    -3.2700 H     1 <1>   0.0800 
 32 H        4.7240     0.6160    -2.1440 H     1 <1>   0.0800 
 33 H        3.5900     1.4720    -3.1560 H     1 <1>   0.0800 
 34 H       -2.3500     2.4370     2.0230 H     1 <1>   0.0800 
 35 H       -3.6150     2.2360     0.8330 H     1 <1>   0.0800 
 36 H       -2.4460     0.0010     2.5340 H     1 <1>   0.0800 
 37 H       -3.8040    -0.1580     1.4270 H     1 <1>   0.0800 
 38 H       -3.9450     0.8230     2.8520 H     1 <1>   0.0800 
 39 H        3.9540    -1.0300     1.7200 H     1 <1>   0.1500 
 40 H        4.5360     2.5360    -0.5150 H     1 <1>   0.1500 
 41 H        6.0030    -0.5750     2.9890 H     1 <1>   0.1500 
 42 H        6.5920     2.9950     0.7440 H     1 <1>   0.1500 
 43 H        7.3320     1.4390     2.5020 H     1 <1>   0.1500 
@<TRIPOS>BOND
  1   1   2  1   
  2   1   3  1   
  3   1   4  1   
  4   2   5  1   
  5   2  19  1   
  6   2  20  1   
  7   3   6  1   
  8   3  21  1   
  9   3  22  1   
 10   4   7  1   
 11   4  23  1   
 12   4  24  1   
 13   5   8  1   
 14   5  25  1   
 15   5  26  1   
 16   6   8  1   
 17   6  27  1   
 18   6  28  1   
 19   7   9  2   
 20   7  10  1   
 21   8  11  1   
 22   8  29  1   
 23   9  12  1   
 24   9  30  1   
 25  10  31  1   
 26  10  32  1   
 27  10  33  1   
 28  11  13  1   
 29  11  34  1   
 30  11  35  1   
 31  12  14  ar  
 32  12  15  ar  
 33  13  36  1   
 34  13  37  1   
 35  13  38  1   
 36  14  16  ar  
 37  14  39  1   
 38  15  17  ar  
 39  15  40  1   
 40  16  18  ar  
 41  16  41  1   
 42  17  18  ar  
 43  17  42  1   
 44  18  43  1   
@<TRIPOS>SUBSTRUCTURE
  1 ****   9 GROUP 4 **** **** 0

# MOE 2024.06 (io_trps.svl 2023.06)
