@<TRIPOS>MOLECULE
NONAME
40 41 1 0 0 
SMALL
USER_CHARGES


@<TRIPOS>ATOM
  1 CL      -1.7100    -0.0010     3.0650 Cl    1 <1>  -0.1770 
  2 C       -2.3050     0.8530     1.6620 C.ar  1 <1>   0.1770 
  3 C       -1.6430     1.9650     1.1700 C.ar  1 <1>   0.1770 
  4 C       -3.4590     0.3950     1.0520 C.ar  1 <1>  -0.1500 
  5 CL      -0.1880     2.5560     1.9350 Cl    1 <1>  -0.1770 
  6 C       -2.1320     2.6270     0.0590 C.ar  1 <1>  -0.1500 
  7 C       -3.9640     1.0600    -0.0600 C.ar  1 <1>  -0.1440 
  8 C       -3.2900     2.1730    -0.5550 C.ar  1 <1>  -0.1500 
  9 C       -5.2360     0.5730    -0.7350 C.3   1 <1>   0.4870 
 10 N       -6.4160     0.8870     0.1410 N.4   1 <1>  -0.9590 
 11 C       -7.6890     0.2060    -0.2840 C.3   1 <1>   0.4230 
 12 C       -6.5440     2.3860     0.2490 C.3   1 <1>   0.2630 
 13 C       -8.8470     0.5870     0.6540 C.3   1 <1>  -0.1600 
 14 C       -7.5130    -1.3220    -0.2830 C.3   1 <1>  -0.1600 
 15 C      -10.1340    -0.1670     0.3170 C.3   1 <1>   0.3430 
 16 C       -8.8200    -2.0520    -0.6060 C.3   1 <1>   0.3430 
 17 N       -9.8880    -1.6350     0.3430 N.4   1 <1>  -0.9590 
 18 C      -11.1590    -2.3770     0.0500 C.3   1 <1>   0.2630 
 19 H       -3.9340    -0.4800     1.4600 H     1 <1>   0.1500 
 20 H       -1.6050     3.4870    -0.3180 H     1 <1>   0.1500 
 21 H       -3.6490     2.7000    -1.4250 H     1 <1>   0.1500 
 22 H       -5.1460    -0.4890    -0.8900 H     1 <1>   0.0800 
 23 H       -5.3470     1.0470    -1.6970 H     1 <1>   0.0800 
 24 H       -6.1560     0.5500     1.0790 H     1 <1>   0.4500 
 25 H       -7.9400     0.5250    -1.2850 H     1 <1>   0.0800 
 26 H       -6.8180     2.8130    -0.7030 H     1 <1>   0.0800 
 27 H       -5.6090     2.8240     0.5620 H     1 <1>   0.0800 
 28 H       -7.2900     2.6560     0.9780 H     1 <1>   0.0800 
 29 H       -9.0720     1.6340     0.5630 H     1 <1>   0.0800 
 30 H       -8.5850     0.3870     1.6780 H     1 <1>   0.0800 
 31 H       -7.1560    -1.6610     0.6730 H     1 <1>   0.0800 
 32 H       -6.8030    -1.6200    -1.0330 H     1 <1>   0.0800 
 33 H      -10.4850     0.1260    -0.6600 H     1 <1>   0.0800 
 34 H      -10.9000     0.0890     1.0350 H     1 <1>   0.0800 
 35 H       -8.6640    -3.1180    -0.5360 H     1 <1>   0.0800 
 36 H       -9.1240    -1.8280    -1.6170 H     1 <1>   0.0800 
 37 H       -9.6050    -1.9050     1.2990 H     1 <1>   0.4500 
 38 H      -11.5170    -2.1420    -0.9390 H     1 <1>   0.0800 
 39 H      -11.9240    -2.1100     0.7630 H     1 <1>   0.0800 
 40 H      -10.9960    -3.4420     0.1120 H     1 <1>   0.0800 
@<TRIPOS>BOND
  1   1   2  1   
  2   2   3  ar  
  3   2   4  ar  
  4   3   5  1   
  5   3   6  ar  
  6   4   7  ar  
  7   4  19  1   
  8   6   8  ar  
  9   6  20  1   
 10   7   8  ar  
 11   7   9  1   
 12   8  21  1   
 13   9  10  1   
 14   9  22  1   
 15   9  23  1   
 16  10  11  1   
 17  10  12  1   
 18  10  24  1   
 19  11  13  1   
 20  11  14  1   
 21  11  25  1   
 22  12  26  1   
 23  12  27  1   
 24  12  28  1   
 25  13  15  1   
 26  13  29  1   
 27  13  30  1   
 28  14  16  1   
 29  14  31  1   
 30  14  32  1   
 31  15  17  1   
 32  15  33  1   
 33  15  34  1   
 34  16  17  1   
 35  16  35  1   
 36  16  36  1   
 37  17  18  1   
 38  17  37  1   
 39  18  38  1   
 40  18  39  1   
 41  18  40  1   
@<TRIPOS>SUBSTRUCTURE
  1 ****  10 GROUP 4 **** **** 0

# MOE 2024.06 (io_trps.svl 2023.06)
