@<TRIPOS>MOLECULE
NONAME
47 50 1 0 0 
SMALL
USER_CHARGES


@<TRIPOS>ATOM
  1 O        1.1380     3.3490     2.4100 O.2   1 <1>  -0.5700 
  2 C        0.6030     2.9120     1.4200 C.2   1 <1>   0.5690 
  3 N        1.2630     2.1370     0.5230 N.am  1 <1>  -0.7300 
  4 C       -0.8640     3.2430     1.1710 C.3   1 <1>   0.1810 
  5 C        2.6720     1.7090     0.5850 C.3   1 <1>   0.2200 
  6 O       -1.3260     2.6480    -0.0370 O.3   1 <1>  -0.3630 
  7 C        3.4390     2.2290    -0.6500 C.3   1 <1>  -0.0800 
  8 C        2.7560     0.1680     0.6300 C.3   1 <1>  -0.0800 
  9 C       -2.6030     2.8030    -0.4700 C.ar  1 <1>   0.0820 
 10 C        4.9200     1.8200    -0.5140 C.3   1 <1>  -0.1600 
 11 C        2.8740     1.6090    -1.9490 C.3   1 <1>  -0.1600 
 12 C        4.2390    -0.2380     0.7630 C.3   1 <1>  -0.1600 
 13 C        2.1920    -0.4520    -0.6700 C.3   1 <1>  -0.1600 
 14 C       -2.9550     2.1790    -1.6640 C.ar  1 <1>  -0.1430 
 15 C       -3.5530     3.5480     0.2260 C.ar  1 <1>  -0.1500 
 16 C        5.0400     0.2850    -0.4460 C.3   1 <1>  -0.0800 
 17 C        2.9780     0.0720    -1.8880 C.3   1 <1>  -0.0800 
 18 C       -4.2470     2.3080    -2.1480 C.ar  1 <1>  -0.1500 
 19 C       -1.9350     1.3600    -2.4430 C.3   1 <1>  -0.0970 
 20 C       -4.8390     3.6690    -0.2670 C.ar  1 <1>  -0.1500 
 21 C        4.4590    -0.3240    -1.7360 C.3   1 <1>  -0.1600 
 22 C       -5.1870     3.0490    -1.4530 C.ar  1 <1>  -0.1500 
 23 H        0.7440     1.8040    -0.2910 H     1 <1>   0.3700 
 24 H       -0.9780     4.3080     1.0910 H     1 <1>   0.0800 
 25 H       -1.4550     2.8660     1.9840 H     1 <1>   0.0800 
 26 H        3.1200     2.1150     1.4780 H     1 <1>   0.0800 
 27 H        3.3680     3.3020    -0.6870 H     1 <1>   0.0800 
 28 H        2.2100    -0.1940     1.4840 H     1 <1>   0.0800 
 29 H        5.3390     2.2580     0.3750 H     1 <1>   0.0800 
 30 H        5.4800     2.1930    -1.3550 H     1 <1>   0.0800 
 31 H        3.4290     1.9750    -2.7940 H     1 <1>   0.0800 
 32 H        1.8490     1.9030    -2.0900 H     1 <1>   0.0800 
 33 H        4.3200    -1.3090     0.8200 H     1 <1>   0.0800 
 34 H        4.6470     0.1680     1.6730 H     1 <1>   0.0800 
 35 H        1.1480    -0.2140    -0.7760 H     1 <1>   0.0800 
 36 H        2.2710    -1.5240    -0.6220 H     1 <1>   0.0800 
 37 H       -3.3150     4.0410     1.1490 H     1 <1>   0.1500 
 38 H        6.0750     0.0040    -0.3450 H     1 <1>   0.0800 
 39 H        2.5780    -0.3570    -2.7920 H     1 <1>   0.0800 
 40 H       -4.5320     1.8310    -3.0700 H     1 <1>   0.1500 
 41 H       -1.1030     1.9820    -2.7190 H     1 <1>   0.0800 
 42 H       -2.3680     0.9490    -3.3370 H     1 <1>   0.0800 
 43 H       -1.5770     0.5500    -1.8330 H     1 <1>   0.0800 
 44 H       -5.5720     4.2440     0.2720 H     1 <1>   0.1500 
 45 H        4.5480    -1.3960    -1.7050 H     1 <1>   0.0800 
 46 H        5.0180     0.0240    -2.5870 H     1 <1>   0.0800 
 47 H       -6.1880     3.1430    -1.8370 H     1 <1>   0.1500 
@<TRIPOS>BOND
  1   1   2  2   
  2   2   3  am  
  3   2   4  1   
  4   3   5  1   
  5   3  23  1   
  6   4   6  1   
  7   4  24  1   
  8   4  25  1   
  9   5   7  1   
 10   5   8  1   
 11   5  26  1   
 12   6   9  1   
 13   7  10  1   
 14   7  11  1   
 15   7  27  1   
 16   8  12  1   
 17   8  13  1   
 18   8  28  1   
 19   9  14  ar  
 20   9  15  ar  
 21  10  16  1   
 22  10  29  1   
 23  10  30  1   
 24  11  17  1   
 25  11  31  1   
 26  11  32  1   
 27  12  16  1   
 28  12  33  1   
 29  12  34  1   
 30  13  17  1   
 31  13  35  1   
 32  13  36  1   
 33  14  18  ar  
 34  14  19  1   
 35  15  20  ar  
 36  15  37  1   
 37  16  21  1   
 38  16  38  1   
 39  17  21  1   
 40  17  39  1   
 41  18  22  ar  
 42  18  40  1   
 43  19  41  1   
 44  19  42  1   
 45  19  43  1   
 46  20  22  ar  
 47  20  44  1   
 48  21  45  1   
 49  21  46  1   
 50  22  47  1   
@<TRIPOS>SUBSTRUCTURE
  1 ****   3 GROUP 4 **** **** 0

# MOE 2024.06 (io_trps.svl 2023.06)
