@<TRIPOS>MOLECULE
NONAME
41 42 1 0 0 
SMALL
USER_CHARGES


@<TRIPOS>ATOM
  1 S        0.2210    -1.8350    -0.4040 S.3   1 <1>  -0.2860 
  2 C       -1.4490    -1.2050    -0.2000 C.2   1 <1>   0.2420 
  3 C        1.1280    -0.3540    -1.0740 C.3   1 <1>   0.1310 
  4 N       -1.7780     0.0130    -0.4370 N.2   1 <1>  -0.3380 
  5 N       -2.4630    -1.9630     0.2120 N.pl3 1 <1>   0.0480 
  6 C        2.6150    -0.6320    -1.2270 C.2   1 <1>   0.5690 
  7 N       -3.0850     0.0900    -0.1750 N.2   1 <1>  -0.3380 
  8 C       -3.4780    -1.0840     0.2050 C.2   1 <1>   0.0060 
  9 C       -2.4470    -3.3980     0.5610 C.3   1 <1>   0.0160 
 10 O        3.2270     0.0060    -2.0470 O.2   1 <1>  -0.5700 
 11 N        3.1820    -1.5860    -0.4260 N.am  1 <1>  -0.5470 
 12 C       -4.9060    -1.4500     0.6000 C.3   1 <1>   0.0200 
 13 C        4.5000    -2.0600    -0.3080 C.ar  1 <1>   0.1170 
 14 C       -5.9020    -0.3000     0.4060 C.3   1 <1>  -0.2400 
 15 C        4.7350    -3.3490     0.1880 C.ar  1 <1>  -0.1430 
 16 C        5.5820    -1.2590    -0.6520 C.ar  1 <1>  -0.1500 
 17 C        6.0440    -3.8040     0.3430 C.ar  1 <1>  -0.1430 
 18 C        3.5380    -4.2350     0.5500 C.3   1 <1>  -0.0970 
 19 C        6.8760    -1.7150    -0.5080 C.ar  1 <1>  -0.1500 
 20 C        7.1040    -2.9820    -0.0100 C.ar  1 <1>  -0.1500 
 21 C        6.3770    -5.1850     0.8940 C.3   1 <1>  -0.0970 
 22 H        0.9690     0.4580    -0.3900 H     1 <1>   0.0800 
 23 H        0.6900    -0.1160    -2.0260 H     1 <1>   0.0800 
 24 H       -1.5500    -3.6240     1.1080 H     1 <1>   0.0800 
 25 H       -2.4730    -3.9820    -0.3420 H     1 <1>   0.0800 
 26 H       -3.2990    -3.6390     1.1690 H     1 <1>   0.0800 
 27 H        2.5090    -2.1030     0.1370 H     1 <1>   0.3700 
 28 H       -4.9160    -1.7460     1.6340 H     1 <1>   0.0800 
 29 H       -5.2280    -2.2870     0.0070 H     1 <1>   0.0800 
 30 H       -5.6170     0.5430     1.0100 H     1 <1>   0.0800 
 31 H       -6.8920    -0.6110     0.6910 H     1 <1>   0.0800 
 32 H       -5.9180     0.0070    -0.6250 H     1 <1>   0.0800 
 33 H        5.4200    -0.2670    -1.0310 H     1 <1>   0.1500 
 34 H        2.8080    -4.2120    -0.2390 H     1 <1>   0.0800 
 35 H        3.0870    -3.8810     1.4590 H     1 <1>   0.0800 
 36 H        3.8120    -5.2620     0.6890 H     1 <1>   0.0800 
 37 H        7.7030    -1.0840    -0.7810 H     1 <1>   0.1500 
 38 H        8.1180    -3.3220     0.0990 H     1 <1>   0.1500 
 39 H        5.9010    -5.3290     1.8470 H     1 <1>   0.0800 
 40 H        7.4360    -5.3030     1.0320 H     1 <1>   0.0800 
 41 H        6.0420    -5.9430     0.2100 H     1 <1>   0.0800 
@<TRIPOS>BOND
  1   1   2  1   
  2   1   3  1   
  3   2   4  2   
  4   2   5  1   
  5   3   6  1   
  6   3  22  1   
  7   3  23  1   
  8   4   7  1   
  9   5   8  1   
 10   5   9  1   
 11   6  10  2   
 12   6  11  am  
 13   7   8  2   
 14   8  12  1   
 15   9  24  1   
 16   9  25  1   
 17   9  26  1   
 18  11  13  1   
 19  11  27  1   
 20  12  14  1   
 21  12  28  1   
 22  12  29  1   
 23  13  15  ar  
 24  13  16  ar  
 25  14  30  1   
 26  14  31  1   
 27  14  32  1   
 28  15  17  ar  
 29  15  18  1   
 30  16  19  ar  
 31  16  33  1   
 32  17  20  ar  
 33  17  21  1   
 34  18  34  1   
 35  18  35  1   
 36  18  36  1   
 37  19  20  ar  
 38  19  37  1   
 39  20  38  1   
 40  21  39  1   
 41  21  40  1   
 42  21  41  1   
@<TRIPOS>SUBSTRUCTURE
  1 ****   1 GROUP 4 **** **** 0

# MOE 2024.06 (io_trps.svl 2023.06)
