@<TRIPOS>MOLECULE
NONAME
34 35 1 0 0 
SMALL
USER_CHARGES


@<TRIPOS>ATOM
  1 BR       0.7410     2.3640     2.4060 Br    1 <1>  -0.1110 
  2 C        2.2040     2.1750     1.1700 C.ar  1 <1>   0.1110 
  3 C        2.1160     2.6520    -0.1310 C.ar  1 <1>  -0.0090 
  4 C        3.3360     1.5500     1.6580 C.ar  1 <1>  -0.1500 
  5 S        0.6370     3.4830    -0.7620 S.o2  1 <1>   1.4470 
  6 C        3.2350     2.4730    -0.9360 C.ar  1 <1>  -0.1500 
  7 C        4.4280     1.3900     0.8280 C.ar  1 <1>  -0.1500 
  8 O       -0.5250     2.6570    -0.5180 O.2   1 <1>  -0.6500 
  9 O        0.8790     3.9440    -2.1130 O.2   1 <1>  -0.6500 
 10 N        0.5230     4.8710     0.2050 N.am  1 <1>  -0.8490 
 11 C        4.4030     1.8470    -0.4910 C.ar  1 <1>   0.0860 
 12 C       -0.8330     5.4260     0.1980 C.3   1 <1>   0.1960 
 13 C        1.5140     5.8880    -0.1630 C.3   1 <1>   0.1960 
 14 C        5.5430     1.6920    -1.3780 C.2   1 <1>   0.5440 
 15 C       -0.9430     6.5700     1.2120 C.3   1 <1>  -0.1600 
 16 C        1.4940     7.0360     0.8510 C.3   1 <1>  -0.1600 
 17 O        5.7470     2.4650    -2.2860 O.2   1 <1>  -0.5700 
 18 N        6.4260     0.6760    -1.2470 N.am  1 <1>  -0.8000 
 19 C        0.0990     7.6640     0.9480 C.3   1 <1>  -0.1600 
 20 H        3.3570     1.1980     2.6760 H     1 <1>   0.1500 
 21 H        3.2110     2.8330    -1.9530 H     1 <1>   0.1500 
 22 H        5.3140     0.9150     1.2110 H     1 <1>   0.1500 
 23 H       -1.5420     4.6610     0.4700 H     1 <1>   0.0800 
 24 H       -1.0790     5.7780    -0.7910 H     1 <1>   0.0800 
 25 H        1.3030     6.2700    -1.1490 H     1 <1>   0.0800 
 26 H        2.4990     5.4510    -0.1760 H     1 <1>   0.0800 
 27 H       -0.8020     6.1660     2.2000 H     1 <1>   0.0800 
 28 H       -1.9310     6.9910     1.1680 H     1 <1>   0.0800 
 29 H        2.2090     7.7840     0.5590 H     1 <1>   0.0800 
 30 H        1.7900     6.6540     1.8130 H     1 <1>   0.0800 
 31 H        7.1850     0.6060    -1.9270 H     1 <1>   0.3700 
 32 H        6.2960    -0.1210    -0.6250 H     1 <1>   0.3700 
 33 H        0.0760     8.3940     1.7380 H     1 <1>   0.0800 
 34 H       -0.1340     8.1630     0.0220 H     1 <1>   0.0800 
@<TRIPOS>BOND
  1   1   2  1   
  2   2   3  ar  
  3   2   4  ar  
  4   3   5  1   
  5   3   6  ar  
  6   4   7  ar  
  7   4  20  1   
  8   5   8  2   
  9   5   9  2   
 10   5  10  am  
 11   6  11  ar  
 12   6  21  1   
 13   7  11  ar  
 14   7  22  1   
 15  10  12  1   
 16  10  13  1   
 17  11  14  1   
 18  12  15  1   
 19  12  23  1   
 20  12  24  1   
 21  13  16  1   
 22  13  25  1   
 23  13  26  1   
 24  14  17  2   
 25  14  18  am  
 26  15  19  1   
 27  15  27  1   
 28  15  28  1   
 29  16  19  1   
 30  16  29  1   
 31  16  30  1   
 32  18  31  1   
 33  18  32  1   
 34  19  33  1   
 35  19  34  1   
@<TRIPOS>SUBSTRUCTURE
  1 ****   3 GROUP 4 **** **** 0

# MOE 2024.06 (io_trps.svl 2023.06)
