@<TRIPOS>MOLECULE
NONAME
38 39 1 0 0 
SMALL
USER_CHARGES


@<TRIPOS>ATOM
  1 CL      -0.2530    -1.0640    -1.0560 Cl    1 <1>  -0.1770 
  2 C        1.0590    -1.9830    -0.3570 C.ar  1 <1>   0.1770 
  3 C        0.8010    -2.9500     0.6030 C.ar  1 <1>  -0.1440 
  4 C        2.3430    -1.7140    -0.7880 C.ar  1 <1>  -0.1500 
  5 C        1.8740    -3.6550     1.1260 C.ar  1 <1>  -0.1500 
  6 C       -0.6160    -3.2420     1.0720 C.3   1 <1>  -0.0960 
  7 C        3.4280    -2.4060    -0.2570 C.ar  1 <1>   0.0530 
  8 C        3.1630    -3.3860     0.6980 C.ar  1 <1>  -0.1500 
  9 C        4.7830    -2.1340    -0.6730 C.2   1 <1>   0.1330 
 10 N        5.6370    -3.0390    -1.0700 N.2   1 <1>  -0.3380 
 11 N        5.3510    -0.9110    -0.6940 N.pl3 1 <1>   0.0480 
 12 N        6.7760    -2.4220    -1.3770 N.2   1 <1>  -0.3380 
 13 C        6.5740    -1.1750    -1.1400 C.2   1 <1>   0.2430 
 14 C        4.7950     0.3930    -0.2720 C.3   1 <1>   0.0160 
 15 S        7.8070     0.1120    -1.3660 S.3   1 <1>  -0.2860 
 16 C        9.3410    -0.7820    -1.9210 C.3   1 <1>   0.1310 
 17 C       10.4220    -0.6950    -0.8500 C.2   1 <1>   0.5690 
 18 O       11.2860     0.1360    -1.0150 O.2   1 <1>  -0.5700 
 19 N       10.4250    -1.5310     0.2450 N.am  1 <1>  -0.6600 
 20 C       11.4380    -1.3890     1.3280 C.3   1 <1>   0.0600 
 21 C        9.4210    -2.6060     0.4780 C.3   1 <1>   0.0600 
 22 H        2.4940    -0.9690    -1.5460 H     1 <1>   0.1500 
 23 H        1.7130    -4.4190     1.8670 H     1 <1>   0.1500 
 24 H       -1.0540    -2.3560     1.4960 H     1 <1>   0.0800 
 25 H       -0.6260    -4.0170     1.8180 H     1 <1>   0.0800 
 26 H       -1.2190    -3.5620     0.2410 H     1 <1>   0.0800 
 27 H        3.9870    -3.9460     1.1070 H     1 <1>   0.1500 
 28 H        4.0130     0.2410     0.4480 H     1 <1>   0.0800 
 29 H        4.4030     0.9060    -1.1310 H     1 <1>   0.0800 
 30 H        5.5700     0.9890     0.1750 H     1 <1>   0.0800 
 31 H        9.6760    -0.2870    -2.8130 H     1 <1>   0.0800 
 32 H        9.0930    -1.7970    -2.1550 H     1 <1>   0.0800 
 33 H       12.0870    -0.5510     1.1430 H     1 <1>   0.0800 
 34 H       12.0370    -2.2810     1.3830 H     1 <1>   0.0800 
 35 H       10.9430    -1.2340     2.2710 H     1 <1>   0.0800 
 36 H        9.2180    -3.1390    -0.4340 H     1 <1>   0.0800 
 37 H        8.5060    -2.1760     0.8490 H     1 <1>   0.0800 
 38 H        9.7900    -3.3130     1.2010 H     1 <1>   0.0800 
@<TRIPOS>BOND
  1   1   2  1   
  2   2   3  ar  
  3   2   4  ar  
  4   3   5  ar  
  5   3   6  1   
  6   4   7  ar  
  7   4  22  1   
  8   5   8  ar  
  9   5  23  1   
 10   6  24  1   
 11   6  25  1   
 12   6  26  1   
 13   7   8  ar  
 14   7   9  1   
 15   8  27  1   
 16   9  10  2   
 17   9  11  1   
 18  10  12  1   
 19  11  13  1   
 20  11  14  1   
 21  12  13  2   
 22  13  15  1   
 23  14  28  1   
 24  14  29  1   
 25  14  30  1   
 26  15  16  1   
 27  16  17  1   
 28  16  31  1   
 29  16  32  1   
 30  17  18  2   
 31  17  19  am  
 32  19  20  1   
 33  19  21  1   
 34  20  33  1   
 35  20  34  1   
 36  20  35  1   
 37  21  36  1   
 38  21  37  1   
 39  21  38  1   
@<TRIPOS>SUBSTRUCTURE
  1 ****   9 GROUP 4 **** **** 0

# MOE 2024.06 (io_trps.svl 2023.06)
