@<TRIPOS>MOLECULE
NONAME
42 44 1 0 0 
SMALL
USER_CHARGES


@<TRIPOS>ATOM
  1 CL      -1.2630    -0.9650    -2.8380 Cl    1 <1>  -0.1770 
  2 C       -2.6930    -1.1390    -1.8480 C.ar  1 <1>   0.1770 
  3 C       -3.9050    -1.4700    -2.4260 C.ar  1 <1>   0.1600 
  4 C       -2.6080    -0.9450    -0.4870 C.ar  1 <1>  -0.1500 
  5 N       -5.0380    -1.6220    -1.7530 N.ar  1 <1>  -0.6200 
  6 C       -3.7790    -1.1010     0.2220 C.ar  1 <1>  -0.1500 
  7 C       -4.9630    -1.4340    -0.4410 C.ar  1 <1>   0.4270 
  8 N       -6.1700    -1.6080     0.1970 N.am  1 <1>  -0.5470 
  9 C       -6.6230    -1.3270     1.4500 C.2   1 <1>   0.5690 
 10 O       -5.9410    -0.8490     2.3230 O.2   1 <1>  -0.5700 
 11 C       -8.0930    -1.6410     1.7380 C.3   1 <1>   0.1710 
 12 N       -8.9520    -1.6880     0.5180 N.3   1 <1>  -0.8100 
 13 C      -10.2490    -2.3380     0.8090 C.3   1 <1>   0.1100 
 14 C       -9.1950    -0.3260    -0.0240 C.3   1 <1>   0.1100 
 15 C      -11.1580    -2.4260    -0.4340 C.3   1 <1>   0.2090 
 16 C      -10.0700    -0.3410    -1.2940 C.3   1 <1>   0.2090 
 17 N      -11.3400    -1.1010    -1.0970 N.pl3 1 <1>  -0.8380 
 18 C      -12.5110    -0.3920    -0.8530 C.ar  1 <1>   0.1000 
 19 C      -12.7340     0.2520     0.3620 C.ar  1 <1>  -0.1500 
 20 C      -13.4810    -0.3270    -1.8480 C.ar  1 <1>  -0.1500 
 21 C      -13.9080     0.9510     0.5840 C.ar  1 <1>  -0.1500 
 22 C      -14.6600     0.3680    -1.6430 C.ar  1 <1>  -0.1500 
 23 C      -14.8510     0.9960    -0.4260 C.ar  1 <1>   0.1900 
 24 F      -15.9630     1.6560    -0.2230 F     1 <1>  -0.1900 
 25 H       -3.9380    -1.6160    -3.4910 H     1 <1>   0.1500 
 26 H       -1.6760    -0.6890    -0.0140 H     1 <1>   0.1500 
 27 H       -3.7750    -0.9670     1.2870 H     1 <1>   0.1500 
 28 H       -6.9100    -1.9340    -0.4290 H     1 <1>   0.3700 
 29 H       -8.4760    -0.9110     2.4290 H     1 <1>   0.0800 
 30 H       -8.1180    -2.5990     2.2240 H     1 <1>   0.0800 
 31 H      -10.7680    -1.7940     1.5790 H     1 <1>   0.0800 
 32 H      -10.0740    -3.3370     1.1700 H     1 <1>   0.0800 
 33 H       -8.2570     0.1420    -0.2690 H     1 <1>   0.0800 
 34 H       -9.6780     0.2830     0.7190 H     1 <1>   0.0800 
 35 H      -12.1190    -2.8170    -0.1480 H     1 <1>   0.0800 
 36 H      -10.7220    -3.1090    -1.1400 H     1 <1>   0.0800 
 37 H       -9.5160    -0.7940    -2.0970 H     1 <1>   0.0800 
 38 H      -10.2990     0.6700    -1.5820 H     1 <1>   0.0800 
 39 H      -11.9860     0.2010     1.1290 H     1 <1>   0.1500 
 40 H      -13.2950    -0.8270    -2.7800 H     1 <1>   0.1500 
 41 H      -14.0930     1.4520     1.5160 H     1 <1>   0.1500 
 42 H      -15.4150     0.4240    -2.4050 H     1 <1>   0.1500 
@<TRIPOS>BOND
  1   1   2  1   
  2   2   3  ar  
  3   2   4  ar  
  4   3   5  ar  
  5   3  25  1   
  6   4   6  ar  
  7   4  26  1   
  8   5   7  ar  
  9   6   7  ar  
 10   6  27  1   
 11   7   8  1   
 12   8   9  am  
 13   8  28  1   
 14   9  10  2   
 15   9  11  1   
 16  11  12  1   
 17  11  29  1   
 18  11  30  1   
 19  12  13  1   
 20  12  14  1   
 21  13  15  1   
 22  13  31  1   
 23  13  32  1   
 24  14  16  1   
 25  14  33  1   
 26  14  34  1   
 27  15  17  1   
 28  15  35  1   
 29  15  36  1   
 30  16  17  1   
 31  16  37  1   
 32  16  38  1   
 33  17  18  1   
 34  18  19  ar  
 35  18  20  ar  
 36  19  21  ar  
 37  19  39  1   
 38  20  22  ar  
 39  20  40  1   
 40  21  23  ar  
 41  21  41  1   
 42  22  23  ar  
 43  22  42  1   
 44  23  24  1   
@<TRIPOS>SUBSTRUCTURE
  1 ****  14 GROUP 4 **** **** 0

# MOE 2024.06 (io_trps.svl 2023.06)
