@<TRIPOS>MOLECULE
NONAME
40 41 1 0 0 
SMALL
USER_CHARGES


@<TRIPOS>ATOM
  1 BR      -0.8660     0.6340     0.9110 Br    1 <1>  -0.1110 
  2 C        0.4050     1.9390     0.2740 C.ar  1 <1>   0.1110 
  3 C       -0.0400     3.0280    -0.4620 C.ar  1 <1>   0.0820 
  4 C        1.7410     1.7510     0.5800 C.ar  1 <1>  -0.1500 
  5 O       -1.3540     3.1750    -0.7550 O.3   1 <1>  -0.3630 
  6 C        0.9120     3.9400    -0.9000 C.ar  1 <1>   0.1770 
  7 C        2.6770     2.6770     0.1400 C.ar  1 <1>  -0.1440 
  8 C       -2.0880     4.0270     0.0890 C.3   1 <1>   0.1200 
  9 CL       0.4360     5.3380    -1.8410 Cl    1 <1>  -0.1770 
 10 C        2.2550     3.7720    -0.6040 C.ar  1 <1>  -0.1500 
 11 C        4.1500     2.4900     0.4610 C.3   1 <1>  -0.0960 
 12 C       -3.5390     4.0230    -0.3870 C.3   1 <1>  -0.1600 
 13 C       -4.4120     4.8940     0.5200 C.3   1 <1>   0.1100 
 14 N       -5.7620     5.0500    -0.0500 N.3   1 <1>  -0.8100 
 15 C       -6.4520     6.2180     0.5300 C.3   1 <1>   0.1100 
 16 C       -6.5780     3.8210     0.0620 C.3   1 <1>   0.1100 
 17 C       -7.8280     6.4370    -0.1320 C.3   1 <1>   0.3430 
 18 C       -7.9570     4.0070    -0.6030 C.3   1 <1>   0.3430 
 19 N       -8.6780     5.2040    -0.0550 N.4   1 <1>  -0.9060 
 20 H        2.0390     0.8910     1.1540 H     1 <1>   0.1500 
 21 H       -1.6640     5.0150     0.0310 H     1 <1>   0.0800 
 22 H       -2.0090     3.6530     1.0960 H     1 <1>   0.0800 
 23 H        2.9630     4.4990    -0.9600 H     1 <1>   0.1500 
 24 H        4.2700     1.9570     1.3870 H     1 <1>   0.0800 
 25 H        4.6380     3.4440     0.5550 H     1 <1>   0.0800 
 26 H        4.6260     1.9320    -0.3250 H     1 <1>   0.0800 
 27 H       -3.8900     3.0080    -0.3800 H     1 <1>   0.0800 
 28 H       -3.5730     4.4100    -1.3900 H     1 <1>   0.0800 
 29 H       -3.9480     5.8650     0.5940 H     1 <1>   0.0800 
 30 H       -4.4660     4.4720     1.5100 H     1 <1>   0.0800 
 31 H       -5.8520     7.0990     0.3690 H     1 <1>   0.0800 
 32 H       -6.5710     6.0890     1.5920 H     1 <1>   0.0800 
 33 H       -6.7020     3.5510     1.0970 H     1 <1>   0.0800 
 34 H       -6.0790     3.0070    -0.4340 H     1 <1>   0.0800 
 35 H       -7.6650     6.7010    -1.1650 H     1 <1>   0.0800 
 36 H       -8.3270     7.2630     0.3470 H     1 <1>   0.0800 
 37 H       -8.5480     3.1180    -0.4540 H     1 <1>   0.0800 
 38 H       -7.8040     4.1310    -1.6630 H     1 <1>   0.0800 
 39 H       -9.5550     5.3490    -0.5690 H     1 <1>   0.4500 
 40 H       -8.9160     5.0260     0.9270 H     1 <1>   0.4500 
@<TRIPOS>BOND
  1   1   2  1   
  2   2   3  ar  
  3   2   4  ar  
  4   3   5  1   
  5   3   6  ar  
  6   4   7  ar  
  7   4  20  1   
  8   5   8  1   
  9   6   9  1   
 10   6  10  ar  
 11   7  10  ar  
 12   7  11  1   
 13   8  12  1   
 14   8  21  1   
 15   8  22  1   
 16  10  23  1   
 17  11  24  1   
 18  11  25  1   
 19  11  26  1   
 20  12  13  1   
 21  12  27  1   
 22  12  28  1   
 23  13  14  1   
 24  13  29  1   
 25  13  30  1   
 26  14  15  1   
 27  14  16  1   
 28  15  17  1   
 29  15  31  1   
 30  15  32  1   
 31  16  18  1   
 32  16  33  1   
 33  16  34  1   
 34  17  19  1   
 35  17  35  1   
 36  17  36  1   
 37  18  19  1   
 38  18  37  1   
 39  18  38  1   
 40  19  39  1   
 41  19  40  1   
@<TRIPOS>SUBSTRUCTURE
  1 ****   8 GROUP 4 **** **** 0

# MOE 2024.06 (io_trps.svl 2023.06)
