@<TRIPOS>MOLECULE
NONAME
39 40 1 0 0 
SMALL
USER_CHARGES


@<TRIPOS>ATOM
  1 O       -9.4230     0.7510    -0.1860 O.3   1 <1>  -0.3630 
  2 C      -10.6610     1.2790    -0.0340 C.ar  1 <1>   0.0830 
  3 C       -8.2640     1.4610     0.1730 C.3   1 <1>   0.1200 
  4 C      -11.7280     0.4930    -0.4390 C.ar  1 <1>  -0.1500 
  5 C      -10.9090     2.5420     0.4950 C.ar  1 <1>  -0.1500 
  6 C       -7.0660     0.5560    -0.1330 C.3   1 <1>   0.3430 
  7 C      -13.0260     0.9560    -0.3190 C.ar  1 <1>  -0.1500 
  8 C      -12.2110     2.9980     0.6120 C.ar  1 <1>  -0.1500 
  9 N       -5.7500     1.1760     0.2350 N.4   1 <1>  -0.9590 
 10 C      -13.2880     2.2160     0.2080 C.ar  1 <1>   0.0730 
 11 C       -5.4140     2.3540    -0.6230 C.3   1 <1>   0.3430 
 12 C       -4.6700     0.1470     0.1780 C.3   1 <1>   0.3430 
 13 C      -14.6350     2.6960     0.3320 C.1   1 <1>   0.4840 
 14 C       -4.1190     2.9990    -0.1290 C.3   1 <1>  -0.1600 
 15 C       -3.3590     0.7450     0.6910 C.3   1 <1>  -0.1600 
 16 N      -15.7050     3.0800     0.4310 N.1   1 <1>  -0.5570 
 17 C       -2.9590     1.9950    -0.1050 C.3   1 <1>  -0.0800 
 18 C       -1.7020     2.6360     0.4920 C.3   1 <1>  -0.2400 
 19 H       -8.3200     1.6830     1.2240 H     1 <1>   0.0800 
 20 H       -8.2350     2.3630    -0.4130 H     1 <1>   0.0800 
 21 H      -11.5390    -0.4840    -0.8480 H     1 <1>   0.1500 
 22 H      -10.1130     3.1830     0.8220 H     1 <1>   0.1500 
 23 H       -7.0690     0.3160    -1.1840 H     1 <1>   0.0800 
 24 H       -7.1930    -0.3600     0.4210 H     1 <1>   0.0800 
 25 H      -13.8440     0.3310    -0.6380 H     1 <1>   0.1500 
 26 H      -12.3960     3.9770     1.0230 H     1 <1>   0.1500 
 27 H       -5.7920     1.5020     1.2100 H     1 <1>   0.4500 
 28 H       -6.2070     3.0820    -0.5890 H     1 <1>   0.0800 
 29 H       -5.2880     2.0360    -1.6460 H     1 <1>   0.0800 
 30 H       -4.5380    -0.1890    -0.8380 H     1 <1>   0.0800 
 31 H       -4.9350    -0.7040     0.7850 H     1 <1>   0.0800 
 32 H       -4.2790     3.4100     0.8530 H     1 <1>   0.0800 
 33 H       -3.8680     3.8180    -0.7820 H     1 <1>   0.0800 
 34 H       -2.5830     0.0040     0.6040 H     1 <1>   0.0800 
 35 H       -3.4610     0.9820     1.7360 H     1 <1>   0.0800 
 36 H       -2.7350     1.7020    -1.1190 H     1 <1>   0.0800 
 37 H       -1.8700     2.9480     1.5090 H     1 <1>   0.0800 
 38 H       -1.4090     3.4970    -0.0840 H     1 <1>   0.0800 
 39 H       -0.8830     1.9370     0.4830 H     1 <1>   0.0800 
@<TRIPOS>BOND
  1   1   2  1   
  2   1   3  1   
  3   2   4  ar  
  4   2   5  ar  
  5   3   6  1   
  6   3  19  1   
  7   3  20  1   
  8   4   7  ar  
  9   4  21  1   
 10   5   8  ar  
 11   5  22  1   
 12   6   9  1   
 13   6  23  1   
 14   6  24  1   
 15   7  10  ar  
 16   7  25  1   
 17   8  10  ar  
 18   8  26  1   
 19   9  11  1   
 20   9  12  1   
 21   9  27  1   
 22  10  13  1   
 23  11  14  1   
 24  11  28  1   
 25  11  29  1   
 26  12  15  1   
 27  12  30  1   
 28  12  31  1   
 29  13  16  3   
 30  14  17  1   
 31  14  32  1   
 32  14  33  1   
 33  15  17  1   
 34  15  34  1   
 35  15  35  1   
 36  17  18  1   
 37  17  36  1   
 38  18  37  1   
 39  18  38  1   
 40  18  39  1   
@<TRIPOS>SUBSTRUCTURE
  1 ****   3 GROUP 4 **** **** 0

# MOE 2024.06 (io_trps.svl 2023.06)
