@<TRIPOS>MOLECULE
NONAME
43 44 1 0 0 
SMALL
USER_CHARGES


@<TRIPOS>ATOM
  1 F        2.1990    -1.7260    -1.6370 F     1 <1>  -0.3400 
  2 C        1.0070    -1.6950    -1.0400 C.3   1 <1>   1.1640 
  3 F        0.1780    -1.0950    -1.8780 F     1 <1>  -0.3400 
  4 F        1.1600    -0.8890     0.0010 F     1 <1>  -0.3400 
  5 C        0.6000    -3.1160    -0.6070 C.ar  1 <1>  -0.1440 
  6 C        1.3560    -3.8570     0.3150 C.ar  1 <1>  -0.1440 
  7 C       -0.5440    -3.6960    -1.1490 C.ar  1 <1>  -0.1500 
  8 C        0.9510    -5.1370     0.6680 C.ar  1 <1>  -0.1500 
  9 C        2.6230    -3.3240     0.9640 C.3   1 <1>   0.4870 
 10 C       -0.9340    -4.9730    -0.7920 C.ar  1 <1>  -0.1500 
 11 C       -0.1870    -5.6930     0.1170 C.ar  1 <1>  -0.1500 
 12 N        3.7320    -3.5180    -0.0060 N.4   1 <1>  -0.9060 
 13 C        5.0480    -2.9750     0.4020 C.3   1 <1>   0.4230 
 14 C        5.0160    -1.4410     0.4130 C.3   1 <1>  -0.1600 
 15 C        6.1050    -3.4740    -0.5840 C.3   1 <1>  -0.1600 
 16 C        6.4010    -0.8560     0.6970 C.3   1 <1>   0.3430 
 17 C        7.4790    -2.8690    -0.2870 C.3   1 <1>   0.3430 
 18 N        7.3900    -1.3780    -0.2890 N.4   1 <1>  -0.9590 
 19 C        8.7240    -0.7520    -0.0430 C.3   1 <1>   0.3430 
 20 C        9.6030    -0.9150    -1.2770 C.3   1 <1>  -0.2400 
 21 H       -1.1560    -3.1630    -1.8610 H     1 <1>   0.1500 
 22 H        1.5060    -5.7250     1.3810 H     1 <1>   0.1500 
 23 H        2.8210    -3.8680     1.8740 H     1 <1>   0.0800 
 24 H        2.5050    -2.2830     1.2130 H     1 <1>   0.0800 
 25 H       -1.8230    -5.4060    -1.2200 H     1 <1>   0.1500 
 26 H       -0.4980    -6.6870     0.3960 H     1 <1>   0.1500 
 27 H        3.4380    -3.1020    -0.9020 H     1 <1>   0.4500 
 28 H        3.7910    -4.5290    -0.1870 H     1 <1>   0.4500 
 29 H        5.2960    -3.3340     1.3900 H     1 <1>   0.0800 
 30 H        4.3490    -1.0880     1.1790 H     1 <1>   0.0800 
 31 H        4.6710    -1.0600    -0.5330 H     1 <1>   0.0800 
 32 H        5.8320    -3.2250    -1.5960 H     1 <1>   0.0800 
 33 H        6.1900    -4.5440    -0.5140 H     1 <1>   0.0800 
 34 H        6.7120    -1.1190     1.6970 H     1 <1>   0.0800 
 35 H        6.3560     0.2210     0.6360 H     1 <1>   0.0800 
 36 H        8.1830    -3.1980    -1.0360 H     1 <1>   0.0800 
 37 H        7.8310    -3.2110     0.6730 H     1 <1>   0.0800 
 38 H        7.1110    -1.0640    -1.2320 H     1 <1>   0.4500 
 39 H        9.2010    -1.2000     0.8150 H     1 <1>   0.0800 
 40 H        8.6020     0.3020     0.1540 H     1 <1>   0.0800 
 41 H        9.8450    -1.9450    -1.4630 H     1 <1>   0.0800 
 42 H       10.5300    -0.3920    -1.1150 H     1 <1>   0.0800 
 43 H        9.1360    -0.4860    -2.1450 H     1 <1>   0.0800 
@<TRIPOS>BOND
  1   1   2  1   
  2   2   3  1   
  3   2   4  1   
  4   2   5  1   
  5   5   6  ar  
  6   5   7  ar  
  7   6   8  ar  
  8   6   9  1   
  9   7  10  ar  
 10   7  21  1   
 11   8  11  ar  
 12   8  22  1   
 13   9  12  1   
 14   9  23  1   
 15   9  24  1   
 16  10  11  ar  
 17  10  25  1   
 18  11  26  1   
 19  12  13  1   
 20  12  27  1   
 21  12  28  1   
 22  13  14  1   
 23  13  15  1   
 24  13  29  1   
 25  14  16  1   
 26  14  30  1   
 27  14  31  1   
 28  15  17  1   
 29  15  32  1   
 30  15  33  1   
 31  16  18  1   
 32  16  34  1   
 33  16  35  1   
 34  17  18  1   
 35  17  36  1   
 36  17  37  1   
 37  18  19  1   
 38  18  38  1   
 39  19  20  1   
 40  19  39  1   
 41  19  40  1   
 42  20  41  1   
 43  20  42  1   
 44  20  43  1   
@<TRIPOS>SUBSTRUCTURE
  1 ****  12 GROUP 4 **** **** 0

# MOE 2024.06 (io_trps.svl 2023.06)
