@<TRIPOS>MOLECULE
NONAME
37 38 1 0 0 
SMALL
USER_CHARGES


@<TRIPOS>ATOM
  1 S        0.1360    -0.5870     0.4150 S.o2  1 <1>   1.3780 
  2 O        0.1060    -1.6040     1.4470 O.2   1 <1>  -0.6500 
  3 O       -0.1670    -0.9300    -0.9590 O.2   1 <1>  -0.6500 
  4 O        1.5790     0.1970     0.4690 O.3   1 <1>  -0.2660 
  5 C       -0.9880     0.7100     0.9060 C.3   1 <1>  -0.1350 
  6 C        2.7730    -0.3710     0.1580 C.ar  1 <1>   0.0830 
  7 C        3.8880     0.4570     0.2200 C.ar  1 <1>  -0.1500 
  8 C        2.9140    -1.7120    -0.2070 C.ar  1 <1>  -0.1500 
  9 C        5.1330    -0.0620    -0.0890 C.ar  1 <1>  -0.1430 
 10 C        4.1660    -2.2220    -0.5140 C.ar  1 <1>  -0.1500 
 11 C        5.2590    -1.3790    -0.4510 C.ar  1 <1>   0.0830 
 12 C        6.4950     0.5810    -0.0970 C.3   1 <1>   0.1440 
 13 O        6.5230    -1.7360    -0.7330 O.3   1 <1>  -0.3630 
 14 C        7.3450    -0.5770    -0.7100 C.3   1 <1>   0.4800 
 15 C        6.8810     0.9620     1.3450 C.3   1 <1>  -0.2400 
 16 C        6.5050     1.8270    -0.9960 C.3   1 <1>  -0.2400 
 17 O        8.4940    -0.8710     0.0310 O.3   1 <1>  -0.5600 
 18 C        9.3210    -1.8290    -0.5390 C.3   1 <1>   0.1200 
 19 C       10.5650    -1.9370     0.3340 C.3   1 <1>  -0.2400 
 20 H       -1.9930     0.3360     0.9160 H     1 <1>   0.0800 
 21 H       -0.9310     1.5280     0.2160 H     1 <1>   0.0800 
 22 H       -0.7410     1.0610     1.8880 H     1 <1>   0.0800 
 23 H        3.7810     1.4860     0.5070 H     1 <1>   0.1500 
 24 H        2.0700    -2.3760    -0.2600 H     1 <1>   0.1500 
 25 H        4.2980    -3.2510    -0.7970 H     1 <1>   0.1500 
 26 H        7.6270    -0.3480    -1.7220 H     1 <1>   0.0800 
 27 H        6.8520     0.0900     1.9750 H     1 <1>   0.0800 
 28 H        6.2000     1.6920     1.7400 H     1 <1>   0.0800 
 29 H        7.8780     1.3660     1.3710 H     1 <1>   0.0800 
 30 H        6.1620     1.5770    -1.9840 H     1 <1>   0.0800 
 31 H        7.5010     2.2260    -1.0650 H     1 <1>   0.0800 
 32 H        5.8580     2.5850    -0.5930 H     1 <1>   0.0800 
 33 H        9.5830    -1.5200    -1.5370 H     1 <1>   0.0800 
 34 H        8.7980    -2.7710    -0.5680 H     1 <1>   0.0800 
 35 H       11.0750    -0.9910     0.3700 H     1 <1>   0.0800 
 36 H       11.2330    -2.6750    -0.0720 H     1 <1>   0.0800 
 37 H       10.2880    -2.2340     1.3300 H     1 <1>   0.0800 
@<TRIPOS>BOND
  1   1   2  2   
  2   1   3  2   
  3   1   4  1   
  4   1   5  1   
  5   4   6  1   
  6   5  20  1   
  7   5  21  1   
  8   5  22  1   
  9   6   7  ar  
 10   6   8  ar  
 11   7   9  ar  
 12   7  23  1   
 13   8  10  ar  
 14   8  24  1   
 15   9  11  ar  
 16   9  12  1   
 17  10  11  ar  
 18  10  25  1   
 19  11  13  1   
 20  12  14  1   
 21  12  15  1   
 22  12  16  1   
 23  13  14  1   
 24  14  17  1   
 25  14  26  1   
 26  15  27  1   
 27  15  28  1   
 28  15  29  1   
 29  16  30  1   
 30  16  31  1   
 31  16  32  1   
 32  17  18  1   
 33  18  19  1   
 34  18  33  1   
 35  18  34  1   
 36  19  35  1   
 37  19  36  1   
 38  19  37  1   
@<TRIPOS>SUBSTRUCTURE
  1 ****   9 GROUP 4 **** **** 0

# MOE 2024.06 (io_trps.svl 2023.06)
