@<TRIPOS>MOLECULE
NONAME
47 48 1 0 0 
SMALL
USER_CHARGES


@<TRIPOS>ATOM
  1 O       -0.6280     0.0500    -1.3990 O.2   1 <1>  -0.5700 
  2 C       -1.6320     0.3020    -0.7620 C.2   1 <1>   0.7150 
  3 N       -2.6300    -0.6230    -0.8730 N.am  1 <1>  -0.7300 
  4 C       -1.7010     1.5130     0.0350 C.2   1 <1>   0.0550 
  5 C       -3.8520    -0.7780    -0.0600 C.3   1 <1>   0.1400 
  6 O       -2.8220     1.9400     0.6200 O.3   1 <1>  -0.2800 
  7 C       -0.7110     2.4060     0.3200 C.2   1 <1>  -0.1500 
  8 C       -5.0270    -0.1310    -0.7990 C.3   1 <1>  -0.1600 
  9 C       -2.5700     3.0600     1.2590 C.2   1 <1>  -0.0100 
 10 C       -1.2740     3.4050     1.1130 C.2   1 <1>  -0.1500 
 11 C       -6.3100    -0.0450     0.0510 C.3   1 <1>  -0.0800 
 12 C       -6.8820    -1.4330     0.3850 C.3   1 <1>  -0.1600 
 13 C       -7.3830     0.7490    -0.7110 C.3   1 <1>  -0.1600 
 14 C       -8.2130    -1.3880     1.1570 C.3   1 <1>   0.5030 
 15 C       -8.7250     0.8600     0.0330 C.3   1 <1>   0.5030 
 16 N       -9.1630    -0.4520     0.5360 N.4   1 <1>  -0.9060 
 17 C       -8.8870    -2.7570     1.0900 C.3   1 <1>  -0.2400 
 18 C       -8.0090    -1.0330     2.6320 C.3   1 <1>  -0.2400 
 19 C       -8.6670     1.8750     1.1770 C.3   1 <1>  -0.2400 
 20 C       -9.8120     1.3070    -0.9420 C.3   1 <1>  -0.2400 
 21 H       -2.4100    -1.3860    -1.5140 H     1 <1>   0.3700 
 22 H       -3.7100    -0.3180     0.9030 H     1 <1>   0.0800 
 23 H       -4.0340    -1.8270     0.0960 H     1 <1>   0.0800 
 24 H        0.3140     2.3590    -0.0030 H     1 <1>   0.1500 
 25 H       -5.2180    -0.6790    -1.7060 H     1 <1>   0.0800 
 26 H       -4.7350     0.8690    -1.0750 H     1 <1>   0.0800 
 27 H       -3.3630     3.5520     1.7940 H     1 <1>   0.1500 
 28 H       -0.7550     4.2610     1.5090 H     1 <1>   0.1500 
 29 H       -6.0640     0.4760     0.9610 H     1 <1>   0.0800 
 30 H       -6.1690    -1.9920     0.9660 H     1 <1>   0.0800 
 31 H       -7.0240    -1.9760    -0.5340 H     1 <1>   0.0800 
 32 H       -7.5470     0.2790    -1.6660 H     1 <1>   0.0800 
 33 H       -7.0150     1.7400    -0.9160 H     1 <1>   0.0800 
 34 H       -9.9350    -0.3010     1.1880 H     1 <1>   0.4500 
 35 H       -9.5560    -0.9420    -0.2680 H     1 <1>   0.4500 
 36 H       -9.0830    -3.0490     0.0730 H     1 <1>   0.0800 
 37 H       -9.8110    -2.7640     1.6420 H     1 <1>   0.0800 
 38 H       -8.2450    -3.5040     1.5230 H     1 <1>   0.0800 
 39 H       -7.4040    -0.1590     2.7620 H     1 <1>   0.0800 
 40 H       -7.4900    -1.8350     3.1280 H     1 <1>   0.0800 
 41 H       -8.9490    -0.8940     3.1360 H     1 <1>   0.0800 
 42 H       -7.8280     1.7170     1.8230 H     1 <1>   0.0800 
 43 H       -9.5720     1.8630     1.7580 H     1 <1>   0.0800 
 44 H       -8.5530     2.8660     0.7730 H     1 <1>   0.0800 
 45 H       -9.9190     0.6140    -1.7570 H     1 <1>   0.0800 
 46 H       -9.5550     2.2640    -1.3630 H     1 <1>   0.0800 
 47 H      -10.7610     1.4150    -0.4450 H     1 <1>   0.0800 
@<TRIPOS>BOND
  1   1   2  2   
  2   2   3  am  
  3   2   4  1   
  4   3   5  1   
  5   3  21  1   
  6   4   6  1   
  7   4   7  2   
  8   5   8  1   
  9   5  22  1   
 10   5  23  1   
 11   6   9  1   
 12   7  10  1   
 13   7  24  1   
 14   8  11  1   
 15   8  25  1   
 16   8  26  1   
 17   9  10  2   
 18   9  27  1   
 19  10  28  1   
 20  11  12  1   
 21  11  13  1   
 22  11  29  1   
 23  12  14  1   
 24  12  30  1   
 25  12  31  1   
 26  13  15  1   
 27  13  32  1   
 28  13  33  1   
 29  14  16  1   
 30  14  17  1   
 31  14  18  1   
 32  15  16  1   
 33  15  19  1   
 34  15  20  1   
 35  16  34  1   
 36  16  35  1   
 37  17  36  1   
 38  17  37  1   
 39  17  38  1   
 40  18  39  1   
 41  18  40  1   
 42  18  41  1   
 43  19  42  1   
 44  19  43  1   
 45  19  44  1   
 46  20  45  1   
 47  20  46  1   
 48  20  47  1   
@<TRIPOS>SUBSTRUCTURE
  1 ****  11 GROUP 4 **** **** 0

# MOE 2024.06 (io_trps.svl 2023.06)
