@<TRIPOS>MOLECULE
NONAME
31 31 1 0 0 
SMALL
USER_CHARGES


@<TRIPOS>ATOM
  1 CL       0.0520    -0.7180    -2.2810 Cl    1 <1>  -0.1770 
  2 C        0.7210    -1.7410    -1.0350 C.ar  1 <1>   0.1770 
  3 C       -0.1080    -2.6240    -0.3670 C.ar  1 <1>  -0.1440 
  4 C        2.0700    -1.6410    -0.7340 C.ar  1 <1>  -0.1500 
  5 C        0.4620    -3.4010     0.6250 C.ar  1 <1>   0.1900 
  6 C       -1.5740    -2.7420    -0.7030 C.3   1 <1>   0.4860 
  7 C        2.6140    -2.4390     0.2620 C.ar  1 <1>  -0.1500 
  8 F       -0.3010    -4.2290     1.2850 F     1 <1>  -0.1900 
  9 C        1.8050    -3.3280     0.9520 C.ar  1 <1>  -0.1500 
 10 N       -2.3190    -1.8190     0.1740 N.4   1 <1>  -0.9060 
 11 C       -3.7790    -1.7860    -0.0430 C.3   1 <1>   0.4230 
 12 C       -4.2980    -0.3830     0.3490 C.3   1 <1>   0.1200 
 13 C       -4.4410    -2.9190     0.7550 C.3   1 <1>  -0.1600 
 14 O       -3.3330     0.5810     0.0380 O.3   1 <1>  -0.6800 
 15 C       -5.9530    -3.0170     0.5010 C.3   1 <1>  -0.2400 
 16 H        2.6890    -0.9450    -1.2750 H     1 <1>   0.1500 
 17 H       -1.9020    -3.7570    -0.5410 H     1 <1>   0.0800 
 18 H       -1.7380    -2.4880    -1.7380 H     1 <1>   0.0800 
 19 H        3.6640    -2.3670     0.4990 H     1 <1>   0.1500 
 20 H        2.2090    -3.9540     1.7290 H     1 <1>   0.1500 
 21 H       -2.0200    -0.8440    -0.0140 H     1 <1>   0.4500 
 22 H       -2.1000    -1.9990     1.1580 H     1 <1>   0.4500 
 23 H       -3.9850    -1.9280    -1.0920 H     1 <1>   0.0800 
 24 H       -4.4960    -0.3290     1.4070 H     1 <1>   0.0800 
 25 H       -5.2040    -0.1550    -0.1870 H     1 <1>   0.0800 
 26 H       -4.2780    -2.7710     1.8090 H     1 <1>   0.0800 
 27 H       -4.0000    -3.8600     0.4760 H     1 <1>   0.0800 
 28 H       -3.6800     1.4900     0.1880 H     1 <1>   0.4000 
 29 H       -6.4680    -2.1350     0.8390 H     1 <1>   0.0800 
 30 H       -6.3580    -3.8590     1.0370 H     1 <1>   0.0800 
 31 H       -6.1590    -3.1610    -0.5470 H     1 <1>   0.0800 
@<TRIPOS>BOND
  1   1   2  1   
  2   2   3  ar  
  3   2   4  ar  
  4   3   5  ar  
  5   3   6  1   
  6   4   7  ar  
  7   4  16  1   
  8   5   8  1   
  9   5   9  ar  
 10   6  10  1   
 11   6  17  1   
 12   6  18  1   
 13   7   9  ar  
 14   7  19  1   
 15   9  20  1   
 16  10  11  1   
 17  10  21  1   
 18  10  22  1   
 19  11  12  1   
 20  11  13  1   
 21  11  23  1   
 22  12  14  1   
 23  12  24  1   
 24  12  25  1   
 25  13  15  1   
 26  13  26  1   
 27  13  27  1   
 28  14  28  1   
 29  15  29  1   
 30  15  30  1   
 31  15  31  1   
@<TRIPOS>SUBSTRUCTURE
  1 ****   6 GROUP 4 **** **** 0

# MOE 2024.06 (io_trps.svl 2023.06)
