@<TRIPOS>MOLECULE
NONAME
46 47 1 0 0 
SMALL
USER_CHARGES


@<TRIPOS>ATOM
  1 CL      -0.4060    -1.1230     0.4290 Cl    1 <1>  -0.1770 
  2 C       -1.6280     0.1120     0.2140 C.ar  1 <1>   0.1770 
  3 C       -2.9760    -0.2170     0.1270 C.ar  1 <1>  -0.1440 
  4 C       -1.1860     1.4180     0.1280 C.ar  1 <1>  -0.1500 
  5 C       -3.9030     0.8130    -0.0700 C.ar  1 <1>   0.1170 
  6 C       -3.4380    -1.6710     0.2460 C.3   1 <1>  -0.0970 
  7 C       -2.1040     2.4340    -0.0560 C.ar  1 <1>  -0.1500 
  8 N       -5.2680     0.5150    -0.2100 N.am  1 <1>  -0.5470 
  9 C       -3.4480     2.1270    -0.1560 C.ar  1 <1>  -0.1500 
 10 C       -6.3680     1.2350     0.1450 C.2   1 <1>   0.6900 
 11 O       -6.2950     2.2780     0.7630 O.2   1 <1>  -0.5700 
 12 N       -7.5850     0.7520    -0.2120 N.am  1 <1>  -0.7300 
 13 C       -8.8440     1.4090     0.1650 C.3   1 <1>   0.2200 
 14 C       -9.9570     0.3730     0.2850 C.3   1 <1>  -0.1600 
 15 C       -9.1980     2.4660    -0.8780 C.3   1 <1>  -0.1600 
 16 C      -11.2790     1.0620     0.6190 C.3   1 <1>   0.3430 
 17 C      -10.5240     3.1300    -0.5250 C.3   1 <1>   0.3430 
 18 N      -11.5990     2.0960    -0.4180 N.4   1 <1>  -0.9590 
 19 C      -12.9340     2.7330    -0.2570 C.3   1 <1>   0.4230 
 20 C      -13.1270     3.3190     1.1430 C.3   1 <1>  -0.2400 
 21 C      -14.0180     1.7080    -0.5760 C.3   1 <1>  -0.2400 
 22 H       -0.1350     1.6340     0.2040 H     1 <1>   0.1500 
 23 H       -2.7140    -2.2780     0.7580 H     1 <1>   0.0800 
 24 H       -3.5960    -2.0860    -0.7330 H     1 <1>   0.0800 
 25 H       -4.3500    -1.7370     0.8110 H     1 <1>   0.0800 
 26 H       -1.7760     3.4570    -0.1220 H     1 <1>   0.1500 
 27 H       -5.4620    -0.4390    -0.4890 H     1 <1>   0.3700 
 28 H       -4.1520     2.9250    -0.3070 H     1 <1>   0.1500 
 29 H       -7.6340     0.0090    -0.9050 H     1 <1>   0.3700 
 30 H       -8.7100     1.8910     1.1230 H     1 <1>   0.0800 
 31 H       -9.7160    -0.3160     1.0760 H     1 <1>   0.0800 
 32 H      -10.0620    -0.1820    -0.6300 H     1 <1>   0.0800 
 33 H       -9.2570     2.0300    -1.8590 H     1 <1>   0.0800 
 34 H       -8.4290     3.2190    -0.8910 H     1 <1>   0.0800 
 35 H      -11.2010     1.5300     1.5880 H     1 <1>   0.0800 
 36 H      -12.0640     0.3240     0.6640 H     1 <1>   0.0800 
 37 H      -10.7770     3.8510    -1.2860 H     1 <1>   0.0800 
 38 H      -10.4220     3.6510     0.4130 H     1 <1>   0.0800 
 39 H      -11.6290     1.6090    -1.3220 H     1 <1>   0.4500 
 40 H      -13.0200     3.5360    -0.9730 H     1 <1>   0.0800 
 41 H      -13.1520     2.5540     1.8980 H     1 <1>   0.0800 
 42 H      -14.0690     3.8370     1.1800 H     1 <1>   0.0800 
 43 H      -12.3600     4.0330     1.3790 H     1 <1>   0.0800 
 44 H      -14.0440     0.9140     0.1480 H     1 <1>   0.0800 
 45 H      -13.8760     1.2960    -1.5590 H     1 <1>   0.0800 
 46 H      -14.9790     2.1920    -0.5620 H     1 <1>   0.0800 
@<TRIPOS>BOND
  1   1   2  1   
  2   2   3  ar  
  3   2   4  ar  
  4   3   5  ar  
  5   3   6  1   
  6   4   7  ar  
  7   4  22  1   
  8   5   8  1   
  9   5   9  ar  
 10   6  23  1   
 11   6  24  1   
 12   6  25  1   
 13   7   9  ar  
 14   7  26  1   
 15   8  10  am  
 16   8  27  1   
 17   9  28  1   
 18  10  11  2   
 19  10  12  am  
 20  12  13  1   
 21  12  29  1   
 22  13  14  1   
 23  13  15  1   
 24  13  30  1   
 25  14  16  1   
 26  14  31  1   
 27  14  32  1   
 28  15  17  1   
 29  15  33  1   
 30  15  34  1   
 31  16  18  1   
 32  16  35  1   
 33  16  36  1   
 34  17  18  1   
 35  17  37  1   
 36  17  38  1   
 37  18  19  1   
 38  18  39  1   
 39  19  20  1   
 40  19  21  1   
 41  19  40  1   
 42  20  41  1   
 43  20  42  1   
 44  20  43  1   
 45  21  44  1   
 46  21  45  1   
 47  21  46  1   
@<TRIPOS>SUBSTRUCTURE
  1 ****  10 GROUP 4 **** **** 0

# MOE 2024.06 (io_trps.svl 2023.06)
