@<TRIPOS>MOLECULE
NONAME
53 56 1 0 0 
SMALL
USER_CHARGES


@<TRIPOS>ATOM
  1 N       -0.1010     0.4070    -0.6590 N.4   1 <1>  -0.9590 
  2 C       -1.2690    -0.4440    -1.0880 C.3   1 <1>   0.3430 
  3 C       -0.3590     1.8830    -0.5930 C.3   1 <1>   0.3430 
  4 C        1.0900     0.1660    -1.5360 C.3   1 <1>   0.4860 
  5 C       -2.2170    -0.8520     0.0780 C.3   1 <1>   0.3430 
  6 C       -1.7080     2.2640     0.0190 C.3   1 <1>  -0.1600 
  7 C        2.2930     0.7410    -0.8220 C.ar  1 <1>  -0.1440 
  8 N       -2.9580     0.2640     0.7820 N.4   1 <1>  -0.9590 
  9 C       -2.1380     1.4330     1.2260 C.3   1 <1>   0.3430 
 10 C        2.8160     1.9600    -1.2080 C.ar  1 <1>  -0.1500 
 11 C        2.8670     0.0420     0.2480 C.ar  1 <1>  -0.1500 
 12 C       -3.7020    -0.2940     1.9630 C.3   1 <1>   0.2630 
 13 C        3.8890     2.5030    -0.5080 C.ar  1 <1>   0.0000 
 14 C        3.9320     0.5710     0.9420 C.ar  1 <1>  -0.1500 
 15 C        4.4380     1.8150     0.5650 C.ar  1 <1>  -0.1520 
 16 C        4.6210     3.7150    -0.6510 C.ar  1 <1>   0.0000 
 17 N        5.4780     2.5640     1.0860 N.pl3 1 <1>   0.0480 
 18 C        5.5910     3.7240     0.3440 C.ar  1 <1>  -0.1520 
 19 C        4.5280     4.7840    -1.5420 C.ar  1 <1>  -0.1500 
 20 C        6.3440     2.1810     2.2220 C.3   1 <1>   0.0960 
 21 C        6.4780     4.7960     0.4600 C.ar  1 <1>  -0.1500 
 22 C        5.4030     5.8430    -1.4240 C.ar  1 <1>  -0.1500 
 23 C        7.5630     1.3970     1.7260 C.3   1 <1>  -0.2400 
 24 C        6.3770     5.8490    -0.4240 C.ar  1 <1>  -0.1500 
 25 H        0.2380     0.1150     0.2690 H     1 <1>   0.4500 
 26 H       -0.8910    -1.3560    -1.5220 H     1 <1>   0.0800 
 27 H       -1.8330     0.0610    -1.8550 H     1 <1>   0.0800 
 28 H       -0.3040     2.3060    -1.5850 H     1 <1>   0.0800 
 29 H        0.4270     2.3440    -0.0120 H     1 <1>   0.0800 
 30 H        0.9630     0.6410    -2.4960 H     1 <1>   0.0800 
 31 H        1.2450    -0.8900    -1.6920 H     1 <1>   0.0800 
 32 H       -1.6360    -1.3990     0.8020 H     1 <1>   0.0800 
 33 H       -2.9450    -1.5430    -0.3170 H     1 <1>   0.0800 
 34 H       -2.4740     2.2680    -0.7370 H     1 <1>   0.0800 
 35 H       -1.6130     3.2860     0.3460 H     1 <1>   0.0800 
 36 H       -3.6840     0.6320     0.1440 H     1 <1>   0.4500 
 37 H       -2.7440     2.0580     1.8650 H     1 <1>   0.0800 
 38 H       -1.2820     1.1120     1.7990 H     1 <1>   0.0800 
 39 H        2.4250     2.5200    -2.0390 H     1 <1>   0.1500 
 40 H        2.4920    -0.9240     0.5410 H     1 <1>   0.1500 
 41 H       -3.0150    -0.6860     2.6950 H     1 <1>   0.0800 
 42 H       -4.3630    -1.0880     1.6530 H     1 <1>   0.0800 
 43 H       -4.2970     0.4750     2.4310 H     1 <1>   0.0800 
 44 H        4.3810     0.0360     1.7610 H     1 <1>   0.1500 
 45 H        3.7810     4.7730    -2.3120 H     1 <1>   0.1500 
 46 H        5.7740     1.5840     2.9100 H     1 <1>   0.0800 
 47 H        6.6600     3.0720     2.7330 H     1 <1>   0.0800 
 48 H        7.2300     4.8000     1.2280 H     1 <1>   0.1500 
 49 H        5.3420     6.6750    -2.1050 H     1 <1>   0.1500 
 50 H        7.2510     0.4970     1.2260 H     1 <1>   0.0800 
 51 H        8.1880     1.1280     2.5580 H     1 <1>   0.0800 
 52 H        8.1400     1.9970     1.0450 H     1 <1>   0.0800 
 53 H        7.0510     6.6840    -0.3500 H     1 <1>   0.1500 
@<TRIPOS>BOND
  1   1   2  1   
  2   1   3  1   
  3   1   4  1   
  4   1  25  1   
  5   2   5  1   
  6   2  26  1   
  7   2  27  1   
  8   3   6  1   
  9   3  28  1   
 10   3  29  1   
 11   4   7  1   
 12   4  30  1   
 13   4  31  1   
 14   5   8  1   
 15   5  32  1   
 16   5  33  1   
 17   6   9  1   
 18   6  34  1   
 19   6  35  1   
 20   7  10  ar  
 21   7  11  ar  
 22   8   9  1   
 23   8  12  1   
 24   8  36  1   
 25   9  37  1   
 26   9  38  1   
 27  10  13  ar  
 28  10  39  1   
 29  11  14  ar  
 30  11  40  1   
 31  12  41  1   
 32  12  42  1   
 33  12  43  1   
 34  13  15  ar  
 35  13  16  1   
 36  14  15  ar  
 37  14  44  1   
 38  15  17  1   
 39  16  18  ar  
 40  16  19  ar  
 41  17  18  1   
 42  17  20  1   
 43  18  21  ar  
 44  19  22  ar  
 45  19  45  1   
 46  20  23  1   
 47  20  46  1   
 48  20  47  1   
 49  21  24  ar  
 50  21  48  1   
 51  22  24  ar  
 52  22  49  1   
 53  23  50  1   
 54  23  51  1   
 55  23  52  1   
 56  24  53  1   
@<TRIPOS>SUBSTRUCTURE
  1 ****  10 GROUP 4 **** **** 0

# MOE 2024.06 (io_trps.svl 2023.06)
