@<TRIPOS>MOLECULE
NONAME
50 51 1 0 0 
SMALL
USER_CHARGES


@<TRIPOS>ATOM
  1 S        0.0140     0.0950     0.1940 S.o2  1 <1>   1.3330 
  2 O       -0.2700     0.4610     1.5640 O.2   1 <1>  -0.6500 
  3 O       -0.3710    -1.2090    -0.2970 O.2   1 <1>  -0.6500 
  4 N        1.6840     0.2560    -0.0450 N.am  1 <1>  -0.8490 
  5 C       -0.6680     1.3690    -0.8790 C.3   1 <1>  -0.0550 
  6 C        2.4350    -0.1620     1.1500 C.3   1 <1>   0.1960 
  7 C        2.1640    -0.4500    -1.2350 C.3   1 <1>   0.1960 
  8 C       -2.2040     1.4620    -0.8590 C.3   1 <1>  -0.2400 
  9 C        3.9480    -0.2830     0.8910 C.3   1 <1>  -0.1600 
 10 C        3.5860     0.0160    -1.5840 C.3   1 <1>  -0.1600 
 11 C        4.3890     0.5010    -0.3560 C.3   1 <1>  -0.0190 
 12 C        5.8950     0.4110    -0.5890 C.2   1 <1>   0.5690 
 13 O        6.4090    -0.6740    -0.7200 O.2   1 <1>  -0.5700 
 14 N        6.6170     1.5610    -0.6430 N.am  1 <1>  -0.7300 
 15 C        8.0820     1.6380    -0.8710 C.3   1 <1>   0.1400 
 16 C        8.7760     2.2100     0.3680 C.3   1 <1>  -0.0220 
 17 C       10.2820     2.4120     0.2030 C.2   1 <1>  -0.2760 
 18 C       10.9960     2.0940    -0.8850 C.2   1 <1>  -0.2880 
 19 C       10.9250     3.0350     1.4400 C.3   1 <1>  -0.0220 
 20 C       12.4910     2.3320    -1.0340 C.3   1 <1>  -0.0220 
 21 C       12.4550     2.9160     1.4220 C.3   1 <1>  -0.1600 
 22 C       13.0220     3.2830     0.0460 C.3   1 <1>  -0.1600 
 23 H       -0.3510     1.1830    -1.8860 H     1 <1>   0.0800 
 24 H       -0.2640     2.3180    -0.5820 H     1 <1>   0.0800 
 25 H        2.0610    -1.1090     1.5060 H     1 <1>   0.0800 
 26 H        2.2690     0.5670     1.9260 H     1 <1>   0.0800 
 27 H        1.5150    -0.2650    -2.0740 H     1 <1>   0.0800 
 28 H        2.1610    -1.5120    -1.0440 H     1 <1>   0.0800 
 29 H       -2.6360     0.5290    -1.1770 H     1 <1>   0.0800 
 30 H       -2.5400     2.2430    -1.5190 H     1 <1>   0.0800 
 31 H       -2.5490     1.6780     0.1380 H     1 <1>   0.0800 
 32 H        4.1940    -1.3230     0.7580 H     1 <1>   0.0800 
 33 H        4.4860     0.0600     1.7570 H     1 <1>   0.0800 
 34 H        3.5350     0.8120    -2.3050 H     1 <1>   0.0800 
 35 H        4.0950    -0.8070    -2.0550 H     1 <1>   0.0800 
 36 H        4.1370     1.5320    -0.1860 H     1 <1>   0.0800 
 37 H        6.1430     2.4570    -0.5320 H     1 <1>   0.3700 
 38 H        8.2730     2.2700    -1.7210 H     1 <1>   0.0800 
 39 H        8.4750     0.6570    -1.0810 H     1 <1>   0.0800 
 40 H        8.6050     1.5380     1.1910 H     1 <1>   0.0800 
 41 H        8.3300     3.1590     0.6050 H     1 <1>   0.0800 
 42 H       10.5800     1.6340    -1.7640 H     1 <1>   0.1500 
 43 H       10.5570     2.5520     2.3290 H     1 <1>   0.0800 
 44 H       10.6470     4.0740     1.4870 H     1 <1>   0.0800 
 45 H       12.6950     2.7530    -2.0030 H     1 <1>   0.0800 
 46 H       12.9980     1.3850    -0.9670 H     1 <1>   0.0800 
 47 H       12.7300     1.9010     1.6540 H     1 <1>   0.0800 
 48 H       12.8760     3.5560     2.1770 H     1 <1>   0.0800 
 49 H       12.7280     4.2900    -0.1960 H     1 <1>   0.0800 
 50 H       14.0970     3.2440     0.0650 H     1 <1>   0.0800 
@<TRIPOS>BOND
  1   1   2  2   
  2   1   3  2   
  3   1   4  am  
  4   1   5  1   
  5   4   6  1   
  6   4   7  1   
  7   5   8  1   
  8   5  23  1   
  9   5  24  1   
 10   6   9  1   
 11   6  25  1   
 12   6  26  1   
 13   7  10  1   
 14   7  27  1   
 15   7  28  1   
 16   8  29  1   
 17   8  30  1   
 18   8  31  1   
 19   9  11  1   
 20   9  32  1   
 21   9  33  1   
 22  10  11  1   
 23  10  34  1   
 24  10  35  1   
 25  11  12  1   
 26  11  36  1   
 27  12  13  2   
 28  12  14  am  
 29  14  15  1   
 30  14  37  1   
 31  15  16  1   
 32  15  38  1   
 33  15  39  1   
 34  16  17  1   
 35  16  40  1   
 36  16  41  1   
 37  17  18  2   
 38  17  19  1   
 39  18  20  1   
 40  18  42  1   
 41  19  21  1   
 42  19  43  1   
 43  19  44  1   
 44  20  22  1   
 45  20  45  1   
 46  20  46  1   
 47  21  22  1   
 48  21  47  1   
 49  21  48  1   
 50  22  49  1   
 51  22  50  1   
@<TRIPOS>SUBSTRUCTURE
  1 ****  12 GROUP 4 **** **** 0

# MOE 2024.06 (io_trps.svl 2023.06)
