@<TRIPOS>MOLECULE
NONAME
27 28 1 0 0 
SMALL
USER_CHARGES


@<TRIPOS>ATOM
  1 S        0.1330     0.1820    -0.4250 S.3   1 <1>  -0.2860 
  2 C       -1.4110    -0.6630    -0.0710 C.2   1 <1>   0.2420 
  3 C        1.2860    -0.5290     0.8290 C.3   1 <1>   0.2140 
  4 N       -1.5640    -1.5380     0.8430 N.2   1 <1>  -0.3380 
  5 N       -2.5300    -0.4480    -0.7330 N.pl3 1 <1>   0.3140 
  6 C        2.6460     0.1260     0.6480 C.ar  1 <1>  -0.1440 
  7 N       -2.8460    -1.8890     0.7480 N.2   1 <1>   0.0000 
  8 N       -3.4380    -1.2390    -0.1970 N.2   1 <1>  -0.4180 
  9 C       -2.7960     0.4710    -1.8500 C.3   1 <1>   0.0160 
 10 C        3.5460    -0.3750    -0.2800 C.ar  1 <1>  -0.1500 
 11 C        2.9960     1.2290     1.4080 C.ar  1 <1>  -0.1500 
 12 C        4.7980     0.2080    -0.4560 C.ar  1 <1>  -0.1440 
 13 C        4.2340     1.8220     1.2440 C.ar  1 <1>  -0.1500 
 14 C        5.1290     1.3160     0.3190 C.ar  1 <1>  -0.1500 
 15 C        5.7820    -0.3570    -1.4920 C.3   1 <1>   1.1640 
 16 F        7.0500    -0.0710    -1.2180 F     1 <1>  -0.3400 
 17 F        5.7160    -1.6810    -1.5890 F     1 <1>  -0.3400 
 18 F        5.5480     0.1170    -2.7090 F     1 <1>  -0.3400 
 19 H        1.3280    -1.5910     0.6620 H     1 <1>   0.0800 
 20 H        0.8700    -0.3270     1.7990 H     1 <1>   0.0800 
 21 H       -2.1080     0.2660    -2.6490 H     1 <1>   0.0800 
 22 H       -2.6700     1.4830    -1.5130 H     1 <1>   0.0800 
 23 H       -3.8030     0.3290    -2.1960 H     1 <1>   0.0800 
 24 H        3.2640    -1.2290    -0.8740 H     1 <1>   0.1500 
 25 H        2.3060     1.6330     2.1290 H     1 <1>   0.1500 
 26 H        4.5010     2.6800     1.8370 H     1 <1>   0.1500 
 27 H        6.0870     1.7970     0.2070 H     1 <1>   0.1500 
@<TRIPOS>BOND
  1   1   2  1   
  2   1   3  1   
  3   2   4  2   
  4   2   5  1   
  5   3   6  1   
  6   3  19  1   
  7   3  20  1   
  8   4   7  1   
  9   5   8  1   
 10   5   9  1   
 11   6  10  ar  
 12   6  11  ar  
 13   7   8  2   
 14   9  21  1   
 15   9  22  1   
 16   9  23  1   
 17  10  12  ar  
 18  10  24  1   
 19  11  13  ar  
 20  11  25  1   
 21  12  14  ar  
 22  12  15  1   
 23  13  14  ar  
 24  13  26  1   
 25  14  27  1   
 26  15  16  1   
 27  15  17  1   
 28  15  18  1   
@<TRIPOS>SUBSTRUCTURE
  1 ****   6 GROUP 4 **** **** 0

# MOE 2024.06 (io_trps.svl 2023.06)
