@<TRIPOS>MOLECULE
NONAME
36 37 1 0 0 
SMALL
USER_CHARGES


@<TRIPOS>ATOM
  1 BR       0.4570    -2.1310    -2.5760 Br    1 <1>  -0.0580 
  2 C       -0.4450    -3.0330    -1.1410 C.2   1 <1>   0.0980 
  3 S       -2.1210    -2.6060    -0.8990 S.3   1 <1>  -0.0800 
  4 C       -0.0080    -3.9560    -0.2700 C.2   1 <1>  -0.1500 
  5 C       -2.2340    -3.7410     0.4530 C.2   1 <1>  -0.0220 
  6 C       -1.0410    -4.3540     0.6400 C.2   1 <1>  -0.1500 
  7 S       -3.8230    -3.8860     1.3060 S.o2  1 <1>   1.5000 
  8 O       -4.2030    -2.6030     1.8540 O.2   1 <1>  -0.6500 
  9 O       -3.8000    -5.0440     2.1740 O.2   1 <1>  -0.6500 
 10 N       -4.9160    -4.2470     0.0600 N.am  1 <1>  -0.8490 
 11 C       -4.7390    -5.6020    -0.5080 C.3   1 <1>   0.1960 
 12 C       -6.2940    -3.8960     0.4340 C.3   1 <1>   0.1960 
 13 C       -5.8030    -6.5900    -0.0060 C.3   1 <1>  -0.0190 
 14 C       -7.3120    -4.5750    -0.4880 C.3   1 <1>  -0.1600 
 15 C       -5.5210    -7.9980    -0.5060 C.2   1 <1>   0.6590 
 16 C       -7.2170    -6.1100    -0.4080 C.3   1 <1>  -0.1600 
 17 O       -4.7210    -8.2240    -1.3780 O.2   1 <1>  -0.5700 
 18 O       -6.2170    -8.9640     0.0780 O.3   1 <1>  -0.4300 
 19 C       -6.0510   -10.3140    -0.2870 C.3   1 <1>   0.1200 
 20 C       -6.9960   -11.1530     0.5660 C.3   1 <1>  -0.2400 
 21 H        0.9840    -4.3680    -0.2290 H     1 <1>   0.1500 
 22 H       -0.8460    -5.0890     1.4030 H     1 <1>   0.1500 
 23 H       -3.7540    -5.9810    -0.2890 H     1 <1>   0.0800 
 24 H       -4.8170    -5.5320    -1.5810 H     1 <1>   0.0800 
 25 H       -6.4100    -2.8250     0.3850 H     1 <1>   0.0800 
 26 H       -6.4860    -4.2030     1.4510 H     1 <1>   0.0800 
 27 H       -5.7330    -6.6250     1.0660 H     1 <1>   0.0800 
 28 H       -7.1250    -4.2460    -1.4960 H     1 <1>   0.0800 
 29 H       -8.3060    -4.2590    -0.2250 H     1 <1>   0.0800 
 30 H       -7.9230    -6.4830     0.3150 H     1 <1>   0.0800 
 31 H       -7.4880    -6.5190    -1.3670 H     1 <1>   0.0800 
 32 H       -5.0240   -10.5900    -0.1140 H     1 <1>   0.0800 
 33 H       -6.2810   -10.4150    -1.3350 H     1 <1>   0.0800 
 34 H       -6.7630   -11.0310     1.6080 H     1 <1>   0.0800 
 35 H       -6.8890   -12.1920     0.3100 H     1 <1>   0.0800 
 36 H       -8.0160   -10.8610     0.3880 H     1 <1>   0.0800 
@<TRIPOS>BOND
  1   1   2  1   
  2   2   3  1   
  3   2   4  2   
  4   3   5  1   
  5   4   6  1   
  6   4  21  1   
  7   5   6  2   
  8   5   7  1   
  9   6  22  1   
 10   7   8  2   
 11   7   9  2   
 12   7  10  am  
 13  10  11  1   
 14  10  12  1   
 15  11  13  1   
 16  11  23  1   
 17  11  24  1   
 18  12  14  1   
 19  12  25  1   
 20  12  26  1   
 21  13  15  1   
 22  13  16  1   
 23  13  27  1   
 24  14  16  1   
 25  14  28  1   
 26  14  29  1   
 27  15  17  2   
 28  15  18  1   
 29  16  30  1   
 30  16  31  1   
 31  18  19  1   
 32  19  20  1   
 33  19  32  1   
 34  19  33  1   
 35  20  34  1   
 36  20  35  1   
 37  20  36  1   
@<TRIPOS>SUBSTRUCTURE
  1 ****  11 GROUP 4 **** **** 0

# MOE 2024.06 (io_trps.svl 2023.06)
