@<TRIPOS>MOLECULE
NONAME
51 52 1 0 0 
SMALL
USER_CHARGES


@<TRIPOS>ATOM
  1 O        8.2340    -0.1780    -0.0580 O.3   1 <1>  -0.3630 
  2 C        9.5880    -0.1480     0.0730 C.ar  1 <1>   0.0830 
  3 C        7.4110     0.8260     0.4950 C.3   1 <1>   0.1200 
  4 C       10.3100    -1.2010    -0.4810 C.ar  1 <1>  -0.1440 
  5 C       10.2620     0.8810     0.7290 C.ar  1 <1>  -0.1500 
  6 C        5.9530     0.4880     0.1650 C.3   1 <1>   0.2000 
  7 C       11.6910    -1.2110    -0.3740 C.ar  1 <1>  -0.1500 
  8 C        9.6040    -2.3410    -1.2030 C.3   1 <1>  -0.0960 
  9 C       11.6420     0.8630     0.8350 C.ar  1 <1>  -0.1430 
 10 O        5.8470     0.2300    -1.2050 O.3   1 <1>  -0.6800 
 11 C        4.9760     1.6210     0.5540 C.3   1 <1>   0.3430 
 12 C       12.3530    -0.1870     0.2790 C.ar  1 <1>  -0.1500 
 13 C       12.3780     1.9830     1.5480 C.3   1 <1>  -0.0970 
 14 N        3.7830     1.6220    -0.3550 N.4   1 <1>  -0.9590 
 15 C        3.5700     2.9610    -0.9670 C.3   1 <1>   0.4230 
 16 C        2.5410     1.0340     0.2130 C.3   1 <1>   0.4230 
 17 C        2.3570     3.7010    -0.3680 C.3   1 <1>  -0.1600 
 18 C        3.4140     2.7630    -2.4690 C.3   1 <1>  -0.2400 
 19 C        2.0250     1.8980     1.3770 C.3   1 <1>  -0.1600 
 20 C        2.7550    -0.4200     0.6220 C.3   1 <1>  -0.2400 
 21 C        2.1800     3.4110     1.1290 C.3   1 <1>  -0.1600 
 22 H        7.6920     1.7710     0.0620 H     1 <1>   0.0800 
 23 H        7.5680     0.8460     1.5600 H     1 <1>   0.0800 
 24 H        9.7340     1.7050     1.1640 H     1 <1>   0.1500 
 25 H        5.6830    -0.4150     0.6850 H     1 <1>   0.0800 
 26 H       12.2630    -2.0180    -0.7980 H     1 <1>   0.1500 
 27 H        9.0850    -1.9610    -2.0640 H     1 <1>   0.0800 
 28 H        8.8940    -2.8060    -0.5430 H     1 <1>   0.0800 
 29 H       10.3060    -3.0870    -1.5280 H     1 <1>   0.0800 
 30 H        6.6370    -0.2960    -1.4770 H     1 <1>   0.4000 
 31 H        5.4970     2.5590     0.4620 H     1 <1>   0.0800 
 32 H        4.6760     1.5150     1.5830 H     1 <1>   0.0800 
 33 H       13.4260    -0.2130     0.3500 H     1 <1>   0.1500 
 34 H       11.7600     2.4150     2.3150 H     1 <1>   0.0800 
 35 H       12.6440     2.7500     0.8430 H     1 <1>   0.0800 
 36 H       13.2750     1.6100     2.0080 H     1 <1>   0.0800 
 37 H        4.1000     1.0060    -1.1270 H     1 <1>   0.4500 
 38 H        4.4480     3.5640    -0.8000 H     1 <1>   0.0800 
 39 H        1.7900     1.0490    -0.5620 H     1 <1>   0.0800 
 40 H        1.4580     3.4160    -0.8890 H     1 <1>   0.0800 
 41 H        2.4830     4.7580    -0.5220 H     1 <1>   0.0800 
 42 H        2.5580     2.1520    -2.6940 H     1 <1>   0.0800 
 43 H        4.2970     2.3080    -2.8810 H     1 <1>   0.0800 
 44 H        3.2810     3.7170    -2.9480 H     1 <1>   0.0800 
 45 H        2.5190     1.6340     2.2960 H     1 <1>   0.0800 
 46 H        0.9810     1.6700     1.5120 H     1 <1>   0.0800 
 47 H        3.4100    -0.5050     1.4690 H     1 <1>   0.0800 
 48 H        3.1480    -0.9890    -0.2010 H     1 <1>   0.0800 
 49 H        1.8090    -0.8520     0.8980 H     1 <1>   0.0800 
 50 H        1.3190     3.9360     1.5100 H     1 <1>   0.0800 
 51 H        3.0420     3.7770     1.6610 H     1 <1>   0.0800 
@<TRIPOS>BOND
  1   1   2  1   
  2   1   3  1   
  3   2   4  ar  
  4   2   5  ar  
  5   3   6  1   
  6   3  22  1   
  7   3  23  1   
  8   4   7  ar  
  9   4   8  1   
 10   5   9  ar  
 11   5  24  1   
 12   6  10  1   
 13   6  11  1   
 14   6  25  1   
 15   7  12  ar  
 16   7  26  1   
 17   8  27  1   
 18   8  28  1   
 19   8  29  1   
 20   9  12  ar  
 21   9  13  1   
 22  10  30  1   
 23  11  14  1   
 24  11  31  1   
 25  11  32  1   
 26  12  33  1   
 27  13  34  1   
 28  13  35  1   
 29  13  36  1   
 30  14  15  1   
 31  14  16  1   
 32  14  37  1   
 33  15  17  1   
 34  15  18  1   
 35  15  38  1   
 36  16  19  1   
 37  16  20  1   
 38  16  39  1   
 39  17  21  1   
 40  17  40  1   
 41  17  41  1   
 42  18  42  1   
 43  18  43  1   
 44  18  44  1   
 45  19  21  1   
 46  19  45  1   
 47  19  46  1   
 48  20  47  1   
 49  20  48  1   
 50  20  49  1   
 51  21  50  1   
 52  21  51  1   
@<TRIPOS>SUBSTRUCTURE
  1 ****   3 GROUP 4 **** **** 0

# MOE 2024.06 (io_trps.svl 2023.06)
