@<TRIPOS>MOLECULE
NONAME
48 49 1 0 0 
SMALL
USER_CHARGES


@<TRIPOS>ATOM
  1 O       -1.6100     1.1600     1.5990 O.3   1 <1>  -0.5600 
  2 C       -1.3850     2.0300     0.5220 C.3   1 <1>   0.1200 
  3 C       -2.0440    -0.1180     1.2230 C.3   1 <1>   0.1200 
  4 C       -2.6470     2.1710    -0.3620 C.3   1 <1>   0.3430 
  5 C       -3.3720    -0.0460     0.4340 C.3   1 <1>   0.3430 
  6 N       -3.7970     1.3780     0.1920 N.4   1 <1>  -0.9590 
  7 C       -5.0320     1.5220    -0.6240 C.3   1 <1>   0.3430 
  8 C       -6.2490     1.0070     0.1480 C.3   1 <1>  -0.1600 
  9 C       -7.5380     1.2750    -0.6430 C.3   1 <1>  -0.1600 
 10 C       -8.7760     0.7830     0.1090 C.3   1 <1>   0.1200 
 11 O       -9.9000     1.0820    -0.6780 O.3   1 <1>  -0.3630 
 12 C      -11.0940     0.7480    -0.1360 C.ar  1 <1>   0.0830 
 13 C      -11.6210    -0.5300    -0.3330 C.ar  1 <1>  -0.1430 
 14 C      -11.7770     1.7000     0.6160 C.ar  1 <1>  -0.1430 
 15 C      -12.8250    -0.8660     0.2800 C.ar  1 <1>  -0.1430 
 16 C      -10.8930    -1.5460    -1.2120 C.3   1 <1>  -0.0970 
 17 C      -12.9760     1.3510     1.2090 C.ar  1 <1>  -0.1500 
 18 C      -11.2380     3.1120     0.7950 C.3   1 <1>  -0.0970 
 19 C      -13.4910     0.0780     1.0470 C.ar  1 <1>  -0.1500 
 20 C      -13.4480    -2.2480     0.1340 C.3   1 <1>  -0.0970 
 21 H       -0.5550     1.6590    -0.0540 H     1 <1>   0.0800 
 22 H       -1.1090     2.9880     0.9280 H     1 <1>   0.0800 
 23 H       -2.1770    -0.6980     2.1210 H     1 <1>   0.0800 
 24 H       -1.2730    -0.5850     0.6340 H     1 <1>   0.0800 
 25 H       -2.4130     1.8330    -1.3580 H     1 <1>   0.0800 
 26 H       -2.9130     3.2130    -0.4280 H     1 <1>   0.0800 
 27 H       -4.1340    -0.5680     0.9900 H     1 <1>   0.0800 
 28 H       -3.2480    -0.5600    -0.5050 H     1 <1>   0.0800 
 29 H       -3.9580     1.7720     1.1310 H     1 <1>   0.4500 
 30 H       -4.9310     0.9820    -1.5520 H     1 <1>   0.0800 
 31 H       -5.1890     2.5630    -0.8570 H     1 <1>   0.0800 
 32 H       -6.3140     1.5090     1.0980 H     1 <1>   0.0800 
 33 H       -6.1630    -0.0520     0.3160 H     1 <1>   0.0800 
 34 H       -7.4950     0.7730    -1.5950 H     1 <1>   0.0800 
 35 H       -7.6460     2.3320    -0.8170 H     1 <1>   0.0800 
 36 H       -8.8840     1.2820     1.0560 H     1 <1>   0.0800 
 37 H       -8.7450    -0.2820     0.2630 H     1 <1>   0.0800 
 38 H      -10.1840    -1.0670    -1.8620 H     1 <1>   0.0800 
 39 H      -11.5910    -2.0690    -1.8390 H     1 <1>   0.0800 
 40 H      -10.3750    -2.2560    -0.5960 H     1 <1>   0.0800 
 41 H      -13.5190     2.0660     1.8010 H     1 <1>   0.1500 
 42 H      -10.4430     3.1130     1.5170 H     1 <1>   0.0800 
 43 H      -12.0120     3.7770     1.1320 H     1 <1>   0.0800 
 44 H      -10.8620     3.4840    -0.1420 H     1 <1>   0.0800 
 45 H      -14.4230    -0.1700     1.5210 H     1 <1>   0.1500 
 46 H      -12.7210    -3.0090     0.3550 H     1 <1>   0.0800 
 47 H      -13.8070    -2.3830    -0.8700 H     1 <1>   0.0800 
 48 H      -14.2750    -2.3720     0.8090 H     1 <1>   0.0800 
@<TRIPOS>BOND
  1   1   2  1   
  2   1   3  1   
  3   2   4  1   
  4   2  21  1   
  5   2  22  1   
  6   3   5  1   
  7   3  23  1   
  8   3  24  1   
  9   4   6  1   
 10   4  25  1   
 11   4  26  1   
 12   5   6  1   
 13   5  27  1   
 14   5  28  1   
 15   6   7  1   
 16   6  29  1   
 17   7   8  1   
 18   7  30  1   
 19   7  31  1   
 20   8   9  1   
 21   8  32  1   
 22   8  33  1   
 23   9  10  1   
 24   9  34  1   
 25   9  35  1   
 26  10  11  1   
 27  10  36  1   
 28  10  37  1   
 29  11  12  1   
 30  12  13  ar  
 31  12  14  ar  
 32  13  15  ar  
 33  13  16  1   
 34  14  17  ar  
 35  14  18  1   
 36  15  19  ar  
 37  15  20  1   
 38  16  38  1   
 39  16  39  1   
 40  16  40  1   
 41  17  19  ar  
 42  17  41  1   
 43  18  42  1   
 44  18  43  1   
 45  18  44  1   
 46  19  45  1   
 47  20  46  1   
 48  20  47  1   
 49  20  48  1   
@<TRIPOS>SUBSTRUCTURE
  1 ****  10 GROUP 4 **** **** 0

# MOE 2024.06 (io_trps.svl 2023.06)
