@<TRIPOS>MOLECULE
NONAME
40 42 1 0 0 
SMALL
USER_CHARGES


@<TRIPOS>ATOM
  1 S        0.6630    -0.2460    -0.9170 S.3   1 <1>  -0.0800 
  2 C       -0.6310    -1.3730    -0.5130 C.2   1 <1>   0.1040 
  3 C        0.2640     0.8020     0.4330 C.2   1 <1>  -0.1100 
  4 N       -0.8590    -2.5110    -1.2980 N.am  1 <1>  -0.4940 
  5 C       -1.3030    -0.9240     0.5810 C.2   1 <1>   0.0190 
  6 C       -0.7840     0.3050     1.1110 C.2   1 <1>  -0.1500 
  7 C       -0.1350    -3.2210    -2.2140 C.2   1 <1>   0.5690 
  8 C       -2.4270    -1.5730     1.1800 C.1   1 <1>   0.5380 
  9 O       -0.6690    -4.1600    -2.7510 O.2   1 <1>  -0.5700 
 10 C        1.3240    -2.9160    -2.5840 C.3   1 <1>   0.1710 
 11 N       -3.3280    -2.1000     1.6390 N.1   1 <1>  -0.5570 
 12 N        2.3050    -3.1360    -1.4860 N.3   1 <1>  -0.8100 
 13 C        3.6350    -2.6150    -1.8660 C.3   1 <1>   0.1100 
 14 C        2.3970    -4.5700    -1.1330 C.3   1 <1>   0.1100 
 15 C        4.6540    -2.7980    -0.7300 C.3   1 <1>   0.1400 
 16 C        3.4010    -4.8180     0.0070 C.3   1 <1>   0.1400 
 17 N        4.7360    -4.2330    -0.3220 N.am  1 <1>  -0.6600 
 18 C        5.8570    -4.9990    -0.5750 C.2   1 <1>   0.7150 
 19 O        6.6900    -4.5640    -1.3530 O.2   1 <1>  -0.5700 
 20 C        6.0550    -6.2810     0.0710 C.2   1 <1>   0.0550 
 21 O        6.6400    -7.2920    -0.5680 O.3   1 <1>  -0.2800 
 22 C        5.7360    -6.7020     1.3280 C.2   1 <1>  -0.1500 
 23 C        6.6980    -8.3290     0.2350 C.2   1 <1>  -0.0100 
 24 C        6.1510    -8.0300     1.4320 C.2   1 <1>  -0.1500 
 25 H        0.8650     1.6850     0.5700 H     1 <1>   0.1500 
 26 H       -1.7600    -2.9710    -1.1520 H     1 <1>   0.3700 
 27 H       -1.2250     0.7600     1.9820 H     1 <1>   0.1500 
 28 H        1.3780    -1.8980    -2.9220 H     1 <1>   0.0800 
 29 H        1.5920    -3.5370    -3.4210 H     1 <1>   0.0800 
 30 H        3.5570    -1.5660    -2.0920 H     1 <1>   0.0800 
 31 H        3.9960    -3.1240    -2.7440 H     1 <1>   0.0800 
 32 H        2.6990    -5.1400    -1.9950 H     1 <1>   0.0800 
 33 H        1.4300    -4.9280    -0.8210 H     1 <1>   0.0800 
 34 H        4.3480    -2.2080     0.1150 H     1 <1>   0.0800 
 35 H        5.6160    -2.4380    -1.0510 H     1 <1>   0.0800 
 36 H        3.4780    -5.8780     0.1710 H     1 <1>   0.0800 
 37 H        3.0300    -4.3650     0.9100 H     1 <1>   0.0800 
 38 H        5.2630    -6.1330     2.1090 H     1 <1>   0.1500 
 39 H        7.1450    -9.2410    -0.1220 H     1 <1>   0.1500 
 40 H        6.0480    -8.6590     2.2990 H     1 <1>   0.1500 
@<TRIPOS>BOND
  1   1   2  1   
  2   1   3  1   
  3   2   4  1   
  4   2   5  2   
  5   3   6  2   
  6   3  25  1   
  7   4   7  am  
  8   4  26  1   
  9   5   6  1   
 10   5   8  1   
 11   6  27  1   
 12   7   9  2   
 13   7  10  1   
 14   8  11  3   
 15  10  12  1   
 16  10  28  1   
 17  10  29  1   
 18  12  13  1   
 19  12  14  1   
 20  13  15  1   
 21  13  30  1   
 22  13  31  1   
 23  14  16  1   
 24  14  32  1   
 25  14  33  1   
 26  15  17  1   
 27  15  34  1   
 28  15  35  1   
 29  16  17  1   
 30  16  36  1   
 31  16  37  1   
 32  17  18  am  
 33  18  19  2   
 34  18  20  1   
 35  20  21  1   
 36  20  22  2   
 37  21  23  1   
 38  22  24  1   
 39  22  38  1   
 40  23  24  2   
 41  23  39  1   
 42  24  40  1   
@<TRIPOS>SUBSTRUCTURE
  1 ****  12 GROUP 4 **** **** 0

# MOE 2024.06 (io_trps.svl 2023.06)
