@<TRIPOS>MOLECULE
NONAME
24 25 1 0 0 
SMALL
USER_CHARGES


@<TRIPOS>ATOM
  1 O       -0.8350     0.3250    -0.1320 O.2   1 <1>  -0.5700 
  2 C       -1.2390     1.4590    -0.2700 C.2   1 <1>   0.7800 
  3 O       -2.3870     1.7200    -0.8750 O.3   1 <1>  -0.4300 
  4 N       -0.6180     2.5850     0.1540 N.am  1 <1>  -0.6600 
  5 C       -2.6410     3.1120    -0.8930 C.3   1 <1>   0.3440 
  6 C       -1.4370     3.7500    -0.1800 C.3   1 <1>   0.1400 
  7 C        0.6460     2.6780     0.9220 C.3   1 <1>   0.0600 
  8 C       -3.9590     3.4150    -0.1870 C.ar  1 <1>  -0.1440 
  9 C       -4.2990     2.7810     1.0000 C.ar  1 <1>  -0.1500 
 10 C       -4.8320     4.3500    -0.7260 C.ar  1 <1>  -0.1500 
 11 C       -5.4900     3.0770     1.6390 C.ar  1 <1>  -0.1500 
 12 C       -6.0240     4.6480    -0.0870 C.ar  1 <1>  -0.1500 
 13 C       -6.3530     4.0120     1.0960 C.ar  1 <1>  -0.1500 
 14 H       -2.6790     3.4220    -1.9220 H     1 <1>   0.0800 
 15 H       -0.9080     4.4180    -0.8370 H     1 <1>   0.0800 
 16 H       -1.7420     4.2720     0.7110 H     1 <1>   0.0800 
 17 H        1.0560     1.6940     1.0710 H     1 <1>   0.0800 
 18 H        0.4570     3.1260     1.8820 H     1 <1>   0.0800 
 19 H        1.3590     3.2750     0.3810 H     1 <1>   0.0800 
 20 H       -3.6390     2.0470     1.4320 H     1 <1>   0.1500 
 21 H       -4.5940     4.8530    -1.6470 H     1 <1>   0.1500 
 22 H       -5.7460     2.5780     2.5580 H     1 <1>   0.1500 
 23 H       -6.6970     5.3730    -0.5120 H     1 <1>   0.1500 
 24 H       -7.2800     4.2430     1.5930 H     1 <1>   0.1500 
@<TRIPOS>BOND
  1   1   2  2   
  2   2   3  1   
  3   2   4  am  
  4   3   5  1   
  5   4   6  1   
  6   4   7  1   
  7   5   6  1   
  8   5   8  1   
  9   5  14  1   
 10   6  15  1   
 11   6  16  1   
 12   7  17  1   
 13   7  18  1   
 14   7  19  1   
 15   8   9  ar  
 16   8  10  ar  
 17   9  11  ar  
 18   9  20  1   
 19  10  12  ar  
 20  10  21  1   
 21  11  13  ar  
 22  11  22  1   
 23  12  13  ar  
 24  12  23  1   
 25  13  24  1   
@<TRIPOS>SUBSTRUCTURE
  1 ****   8 GROUP 4 **** **** 0

# MOE 2024.06 (io_trps.svl 2023.06)
