@<TRIPOS>MOLECULE
NONAME
32 34 1 0 0 
SMALL
USER_CHARGES


@<TRIPOS>ATOM
  1 O       -0.2260    -0.3120    -1.4650 O.2   1 <1>  -0.5700 
  2 C       -0.7050    -1.0740    -0.6620 C.2   1 <1>   0.5690 
  3 N        0.0330    -1.8940     0.1470 N.am  1 <1>  -0.5470 
  4 C       -2.2270    -1.1370    -0.5410 C.3   1 <1>  -0.0190 
  5 C        1.4230    -2.0740     0.2870 C.ar  1 <1>   0.1170 
  6 C       -2.7740    -0.7920     0.8570 C.3   1 <1>  -0.1600 
  7 C       -2.8280    -2.5040    -0.8900 C.3   1 <1>  -0.1600 
  8 C        2.3640    -1.2140    -0.2430 C.ar  1 <1>  -0.1500 
  9 C        1.8610    -3.1940     1.0200 C.ar  1 <1>  -0.1500 
 10 C       -3.9060    -1.7860     1.1450 C.3   1 <1>  -0.1600 
 11 C       -4.1700    -2.5190    -0.1680 C.3   1 <1>  -0.1600 
 12 C        3.7290    -1.4620    -0.0540 C.ar  1 <1>   0.0000 
 13 C        3.1980    -3.4470     1.2150 C.ar  1 <1>  -0.1500 
 14 C        4.1320    -2.5640     0.6660 C.ar  1 <1>  -0.1520 
 15 C        4.9300    -0.8360    -0.4300 C.2   1 <1>   0.1390 
 16 N        5.4970    -2.5250     0.6720 N.pl3 1 <1>   0.3000 
 17 N        5.9800    -1.4580    -0.0040 N.2   1 <1>  -0.7070 
 18 H       -0.5310    -2.4960     0.7420 H     1 <1>   0.3700 
 19 H       -2.6380    -0.4210    -1.2330 H     1 <1>   0.0800 
 20 H       -3.1500     0.2170     0.8570 H     1 <1>   0.0800 
 21 H       -2.0160    -0.8680     1.6170 H     1 <1>   0.0800 
 22 H       -2.2130    -3.3000    -0.5080 H     1 <1>   0.0800 
 23 H       -2.9410    -2.6290    -1.9530 H     1 <1>   0.0800 
 24 H        2.0800    -0.3430    -0.8040 H     1 <1>   0.1500 
 25 H        1.1290    -3.8630     1.4320 H     1 <1>   0.1500 
 26 H       -4.7920    -1.2900     1.5050 H     1 <1>   0.0800 
 27 H       -3.5800    -2.4940     1.8890 H     1 <1>   0.0800 
 28 H       -4.5360    -3.5190    -0.0090 H     1 <1>   0.0800 
 29 H       -4.8930    -1.9670    -0.7460 H     1 <1>   0.0800 
 30 H        3.5280    -4.3050     1.7750 H     1 <1>   0.1500 
 31 H        4.9630     0.0680    -1.0140 H     1 <1>   0.1500 
 32 H        6.1080    -3.2120     1.1280 H     1 <1>   0.2700 
@<TRIPOS>BOND
  1   1   2  2   
  2   2   3  am  
  3   2   4  1   
  4   3   5  1   
  5   3  18  1   
  6   4   6  1   
  7   4   7  1   
  8   4  19  1   
  9   5   8  ar  
 10   5   9  ar  
 11   6  10  1   
 12   6  20  1   
 13   6  21  1   
 14   7  11  1   
 15   7  22  1   
 16   7  23  1   
 17   8  12  ar  
 18   8  24  1   
 19   9  13  ar  
 20   9  25  1   
 21  10  11  1   
 22  10  26  1   
 23  10  27  1   
 24  11  28  1   
 25  11  29  1   
 26  12  14  ar  
 27  12  15  1   
 28  13  14  ar  
 29  13  30  1   
 30  14  16  1   
 31  15  17  2   
 32  15  31  1   
 33  16  17  1   
 34  16  32  1   
@<TRIPOS>SUBSTRUCTURE
  1 ****   5 GROUP 4 **** **** 0

# MOE 2024.06 (io_trps.svl 2023.06)
