@<TRIPOS>MOLECULE
NONAME
41 42 1 0 0 
SMALL
USER_CHARGES


@<TRIPOS>ATOM
  1 O        0.1730     0.6700    -1.7100 O.2   1 <1>  -0.5700 
  2 C       -0.2930     1.4370    -0.9010 C.2   1 <1>   0.5690 
  3 N        0.4970     2.0740     0.0300 N.am  1 <1>  -0.6600 
  4 C       -1.7860     1.6820    -0.9640 C.3   1 <1>  -0.0990 
  5 C        1.9480     1.7540     0.1150 C.3   1 <1>   0.1400 
  6 C        0.0370     3.1380     0.9640 C.3   1 <1>   0.1400 
  7 C       -2.5330     0.8920     0.1190 C.3   1 <1>   0.2430 
  8 C        2.1640     0.6540     1.1510 C.3   1 <1>  -0.2400 
  9 C        0.2560     4.5080     0.3250 C.3   1 <1>  -0.2400 
 10 C       -2.5350    -0.6080    -0.1880 C.ar  1 <1>  -0.1440 
 11 C       -3.9490     1.4320     0.3080 C.2   1 <1>  -0.0400 
 12 C       -3.5070    -1.1800    -0.9990 C.ar  1 <1>  -0.1500 
 13 C       -1.5450    -1.4210     0.3450 C.ar  1 <1>  -0.1500 
 14 O       -4.5820     1.1420     1.4290 O.3   1 <1>  -0.2800 
 15 C       -4.7340     2.1970    -0.4850 C.2   1 <1>  -0.1500 
 16 C       -3.4910    -2.5380    -1.2670 C.ar  1 <1>  -0.1500 
 17 C       -1.5260    -2.7790     0.0770 C.ar  1 <1>  -0.1500 
 18 C       -5.7720     1.7040     1.3780 C.2   1 <1>  -0.0100 
 19 C       -5.9320     2.3750     0.2180 C.2   1 <1>  -0.1500 
 20 C       -2.5010    -3.3390    -0.7290 C.ar  1 <1>  -0.1500 
 21 H       -2.1470     1.3850    -1.9320 H     1 <1>   0.0800 
 22 H       -1.9720     2.7320    -0.8580 H     1 <1>   0.0800 
 23 H        2.5040     2.6340     0.3880 H     1 <1>   0.0800 
 24 H        2.3100     1.4220    -0.8440 H     1 <1>   0.0800 
 25 H        0.5910     3.0720     1.8860 H     1 <1>   0.0800 
 26 H       -1.0030     3.0160     1.2050 H     1 <1>   0.0800 
 27 H       -2.0290     1.0380     1.0570 H     1 <1>   0.0800 
 28 H        1.8150     0.9660     2.1180 H     1 <1>   0.0800 
 29 H        3.2120     0.4270     1.2220 H     1 <1>   0.0800 
 30 H        1.6450    -0.2380     0.8500 H     1 <1>   0.0800 
 31 H        1.3000     4.6720     0.1320 H     1 <1>   0.0800 
 32 H       -0.0910     5.2770     0.9920 H     1 <1>   0.0800 
 33 H       -0.2910     4.5840    -0.5970 H     1 <1>   0.0800 
 34 H       -4.2850    -0.5740    -1.4270 H     1 <1>   0.1500 
 35 H       -0.7760    -1.0010     0.9680 H     1 <1>   0.1500 
 36 H       -4.5260     2.6030    -1.4590 H     1 <1>   0.1500 
 37 H       -4.2500    -2.9690    -1.8950 H     1 <1>   0.1500 
 38 H       -0.7520    -3.3980     0.4940 H     1 <1>   0.1500 
 39 H       -6.4430     1.5750     2.2090 H     1 <1>   0.1500 
 40 H       -6.7830     2.9350    -0.1240 H     1 <1>   0.1500 
 41 H       -2.4870    -4.3940    -0.9380 H     1 <1>   0.1500 
@<TRIPOS>BOND
  1   1   2  2   
  2   2   3  am  
  3   2   4  1   
  4   3   5  1   
  5   3   6  1   
  6   4   7  1   
  7   4  21  1   
  8   4  22  1   
  9   5   8  1   
 10   5  23  1   
 11   5  24  1   
 12   6   9  1   
 13   6  25  1   
 14   6  26  1   
 15   7  10  1   
 16   7  11  1   
 17   7  27  1   
 18   8  28  1   
 19   8  29  1   
 20   8  30  1   
 21   9  31  1   
 22   9  32  1   
 23   9  33  1   
 24  10  12  ar  
 25  10  13  ar  
 26  11  14  1   
 27  11  15  2   
 28  12  16  ar  
 29  12  34  1   
 30  13  17  ar  
 31  13  35  1   
 32  14  18  1   
 33  15  19  1   
 34  15  36  1   
 35  16  20  ar  
 36  16  37  1   
 37  17  20  ar  
 38  17  38  1   
 39  18  19  2   
 40  18  39  1   
 41  19  40  1   
 42  20  41  1   
@<TRIPOS>SUBSTRUCTURE
  1 ****   7 GROUP 4 **** **** 0

# MOE 2024.06 (io_trps.svl 2023.06)
