@<TRIPOS>MOLECULE
NONAME
32 32 1 0 0 
SMALL
USER_CHARGES


@<TRIPOS>ATOM
  1 CL      -0.4050     0.4200    -0.1030 Cl    1 <1>  -0.1770 
  2 C        1.2330     1.0240    -0.0710 C.ar  1 <1>   0.1770 
  3 C        1.4520     2.3880    -0.0470 C.ar  1 <1>  -0.1500 
  4 C        2.2860     0.1270    -0.0700 C.ar  1 <1>  -0.1500 
  5 C        2.7530     2.8610    -0.0220 C.ar  1 <1>  -0.1500 
  6 C        3.5860     0.6030    -0.0450 C.ar  1 <1>  -0.1500 
  7 C        3.8240     1.9770    -0.0200 C.ar  1 <1>   0.0830 
  8 O        5.0630     2.5280     0.0050 O.3   1 <1>  -0.3630 
  9 C        6.2220     1.7340     0.0090 C.3   1 <1>   0.1200 
 10 C        7.4180     2.6870     0.0400 C.3   1 <1>  -0.1600 
 11 C        8.7340     1.9190     0.0460 C.3   1 <1>   0.3430 
 12 N        9.8550     2.8890     0.0760 N.4   1 <1>  -0.9060 
 13 C       11.1850     2.2080     0.0840 C.3   1 <1>   0.3430 
 14 C       12.3450     3.2120     0.1150 C.3   1 <1>   0.1200 
 15 O       13.5200     2.4850     0.1200 O.3   1 <1>  -0.6800 
 16 H        0.6170     3.0650    -0.0480 H     1 <1>   0.1500 
 17 H        2.0830    -0.9290    -0.0890 H     1 <1>   0.1500 
 18 H        2.9440     3.9200    -0.0030 H     1 <1>   0.1500 
 19 H        4.3890    -0.1090    -0.0440 H     1 <1>   0.1500 
 20 H        6.2210     1.1340    -0.8860 H     1 <1>   0.0800 
 21 H        6.1960     1.1070     0.8840 H     1 <1>   0.0800 
 22 H        7.3440     3.2920     0.9270 H     1 <1>   0.0800 
 23 H        7.3680     3.3190    -0.8310 H     1 <1>   0.0800 
 24 H        8.8000     1.3040    -0.8380 H     1 <1>   0.0800 
 25 H        8.7770     1.2780     0.9130 H     1 <1>   0.0800 
 26 H        9.7640     3.4830     0.9110 H     1 <1>   0.4500 
 27 H        9.7870     3.5080    -0.7430 H     1 <1>   0.4500 
 28 H       11.2860     1.5960    -0.7990 H     1 <1>   0.0800 
 29 H       11.2620     1.5700     0.9500 H     1 <1>   0.0800 
 30 H       12.3220     3.8110     1.0090 H     1 <1>   0.0800 
 31 H       12.3460     3.8380    -0.7620 H     1 <1>   0.0800 
 32 H       14.3130     3.0650     0.1390 H     1 <1>   0.4000 
@<TRIPOS>BOND
  1   1   2  1   
  2   2   3  ar  
  3   2   4  ar  
  4   3   5  ar  
  5   3  16  1   
  6   4   6  ar  
  7   4  17  1   
  8   5   7  ar  
  9   5  18  1   
 10   6   7  ar  
 11   6  19  1   
 12   7   8  1   
 13   8   9  1   
 14   9  10  1   
 15   9  20  1   
 16   9  21  1   
 17  10  11  1   
 18  10  22  1   
 19  10  23  1   
 20  11  12  1   
 21  11  24  1   
 22  11  25  1   
 23  12  13  1   
 24  12  26  1   
 25  12  27  1   
 26  13  14  1   
 27  13  28  1   
 28  13  29  1   
 29  14  15  1   
 30  14  30  1   
 31  14  31  1   
 32  15  32  1   
@<TRIPOS>SUBSTRUCTURE
  1 ****   9 GROUP 4 **** **** 0

# MOE 2024.06 (io_trps.svl 2023.06)
