@<TRIPOS>MOLECULE
NONAME
53 54 1 0 0 
SMALL
USER_CHARGES


@<TRIPOS>ATOM
  1 S        0.9100     0.5390    -0.5890 S.o2  1 <1>   1.3330 
  2 O        2.3440     0.6960    -0.6510 O.2   1 <1>  -0.6500 
  3 O        0.3050    -0.5290     0.1680 O.2   1 <1>  -0.6500 
  4 N        0.2550     2.0430    -0.0590 N.am  1 <1>  -0.6930 
  5 C        0.3110     0.4720    -2.2630 C.3   1 <1>  -0.1350 
  6 C       -1.1190     2.2400     0.0790 C.ar  1 <1>   0.1990 
  7 C        1.1910     3.0420     0.5290 C.3   1 <1>   0.2570 
  8 C       -1.8530     2.9640    -0.8710 C.ar  1 <1>   0.0830 
  9 C       -1.7760     1.7100     1.1790 C.ar  1 <1>  -0.1500 
 10 C        1.8430     2.6160     1.8560 C.2   1 <1>   0.5690 
 11 O       -1.1780     3.4670    -1.9500 O.3   1 <1>  -0.3630 
 12 C       -3.2210     3.1410    -0.6910 C.ar  1 <1>  -0.1500 
 13 C       -3.1380     1.8850     1.3560 C.ar  1 <1>  -0.1440 
 14 O        1.1620     2.1020     2.7100 O.2   1 <1>  -0.5700 
 15 N        3.1540     2.8320     2.1450 N.am  1 <1>  -0.7300 
 16 C       -1.8270     4.2790    -2.9040 C.3   1 <1>   0.0400 
 17 C       -3.8570     2.6040     0.4170 C.ar  1 <1>  -0.1500 
 18 C       -3.8270     1.2940     2.5720 C.3   1 <1>  -0.0970 
 19 C        4.2490     3.5390     1.4450 C.3   1 <1>   0.2200 
 20 C        3.8130     4.9550     1.0390 C.3   1 <1>  -0.1600 
 21 C        4.7360     2.6960     0.2570 C.3   1 <1>  -0.1600 
 22 C        4.9480     5.9920     1.0440 C.3   1 <1>  -0.1600 
 23 C        6.1200     3.0930    -0.2780 C.3   1 <1>  -0.1600 
 24 C        6.3130     5.5190     0.5170 C.3   1 <1>  -0.1600 
 25 C        6.2550     4.5680    -0.6890 C.3   1 <1>  -0.1600 
 26 H        0.6750    -0.4110    -2.7490 H     1 <1>   0.0800 
 27 H        0.6440     1.3330    -2.8080 H     1 <1>   0.0800 
 28 H       -0.7610     0.4540    -2.2690 H     1 <1>   0.0800 
 29 H        0.6540     3.9550     0.7080 H     1 <1>   0.0800 
 30 H        1.9480     3.2490    -0.1980 H     1 <1>   0.0800 
 31 H       -1.2010     1.1540     1.9000 H     1 <1>   0.1500 
 32 H       -3.8150     3.6890    -1.3960 H     1 <1>   0.1500 
 33 H        3.4360     2.4210     3.0370 H     1 <1>   0.3700 
 34 H       -2.6030     3.7070    -3.3820 H     1 <1>   0.0800 
 35 H       -1.0990     4.5850    -3.6340 H     1 <1>   0.0800 
 36 H       -2.2320     5.1440    -2.4090 H     1 <1>   0.0800 
 37 H       -4.9150     2.7490     0.5460 H     1 <1>   0.1500 
 38 H       -3.3180     0.4020     2.8930 H     1 <1>   0.0800 
 39 H       -4.8460     1.0390     2.3420 H     1 <1>   0.0800 
 40 H       -3.8170     2.0050     3.3770 H     1 <1>   0.0800 
 41 H        5.0560     3.6230     2.1540 H     1 <1>   0.0800 
 42 H        3.0540     5.3070     1.7170 H     1 <1>   0.0800 
 43 H        3.3840     4.9330     0.0540 H     1 <1>   0.0800 
 44 H        4.0330     2.7560    -0.5520 H     1 <1>   0.0800 
 45 H        4.7840     1.6650     0.5610 H     1 <1>   0.0800 
 46 H        5.0880     6.3480     2.0510 H     1 <1>   0.0800 
 47 H        4.6270     6.8360     0.4580 H     1 <1>   0.0800 
 48 H        6.3250     2.4820    -1.1400 H     1 <1>   0.0800 
 49 H        6.8680     2.8550     0.4580 H     1 <1>   0.0800 
 50 H        6.8630     5.0490     1.3140 H     1 <1>   0.0800 
 51 H        6.8740     6.3940     0.2350 H     1 <1>   0.0800 
 52 H        5.4660     4.8530    -1.3640 H     1 <1>   0.0800 
 53 H        7.1820     4.6670    -1.2280 H     1 <1>   0.0800 
@<TRIPOS>BOND
  1   1   2  2   
  2   1   3  2   
  3   1   4  am  
  4   1   5  1   
  5   4   6  1   
  6   4   7  1   
  7   5  26  1   
  8   5  27  1   
  9   5  28  1   
 10   6   8  ar  
 11   6   9  ar  
 12   7  10  1   
 13   7  29  1   
 14   7  30  1   
 15   8  11  1   
 16   8  12  ar  
 17   9  13  ar  
 18   9  31  1   
 19  10  14  2   
 20  10  15  am  
 21  11  16  1   
 22  12  17  ar  
 23  12  32  1   
 24  13  17  ar  
 25  13  18  1   
 26  15  19  1   
 27  15  33  1   
 28  16  34  1   
 29  16  35  1   
 30  16  36  1   
 31  17  37  1   
 32  18  38  1   
 33  18  39  1   
 34  18  40  1   
 35  19  20  1   
 36  19  21  1   
 37  19  41  1   
 38  20  22  1   
 39  20  42  1   
 40  20  43  1   
 41  21  23  1   
 42  21  44  1   
 43  21  45  1   
 44  22  24  1   
 45  22  46  1   
 46  22  47  1   
 47  23  25  1   
 48  23  48  1   
 49  23  49  1   
 50  24  25  1   
 51  24  50  1   
 52  24  51  1   
 53  25  52  1   
 54  25  53  1   
@<TRIPOS>SUBSTRUCTURE
  1 ****   7 GROUP 4 **** **** 0

# MOE 2024.06 (io_trps.svl 2023.06)
