@<TRIPOS>MOLECULE
NONAME
52 55 1 0 0 
SMALL
USER_CHARGES


@<TRIPOS>ATOM
  1 S        0.5100    -0.0440    -0.3610 S.3   1 <1>  -0.3320 
  2 C        1.2740     1.5720    -0.2640 C.ar  1 <1>   0.7220 
  3 C       -1.2600     0.2590     0.0570 C.3   1 <1>   0.0700 
  4 N        0.4400     2.5870     0.0660 N.ar  1 <1>  -0.3100 
  5 N        2.5530     1.6180    -0.5220 N.ar  1 <1>  -0.5670 
  6 C       -1.9910    -1.0810    -0.0510 C.3   1 <1>   0.3430 
  7 N        0.9050     3.7990     0.1590 N.ar  1 <1>  -0.2560 
  8 C        3.0160     2.8670    -0.4210 C.ar  1 <1>   0.1050 
  9 N       -3.4390    -0.9700     0.3160 N.4   1 <1>  -0.9590 
 10 C        2.2140     3.9440    -0.0870 C.ar  1 <1>   0.2560 
 11 N        4.3010     3.3040    -0.6160 N.pl3 1 <1>   0.0480 
 12 C       -4.0670    -2.3370     0.3930 C.3   1 <1>   0.3430 
 13 C       -4.2150    -0.1000    -0.6430 C.3   1 <1>   0.3430 
 14 C        3.0420     5.0970    -0.0740 C.ar  1 <1>   0.0000 
 15 C        4.3270     4.6720    -0.4040 C.ar  1 <1>  -0.1520 
 16 C        5.4550     2.4520    -0.9730 C.3   1 <1>   0.0960 
 17 C       -5.5830    -2.2530     0.6580 C.3   1 <1>   0.1200 
 18 C       -5.7240    -0.1170    -0.3310 C.3   1 <1>   0.1200 
 19 C        2.8020     6.4460     0.1890 C.ar  1 <1>  -0.1500 
 20 C        5.3800     5.5850    -0.4710 C.ar  1 <1>  -0.1500 
 21 C        6.2410     2.0600     0.2840 C.3   1 <1>  -0.1600 
 22 O       -6.1950    -1.4330    -0.2940 O.3   1 <1>  -0.5600 
 23 C        3.8430     7.3460     0.1210 C.ar  1 <1>  -0.1500 
 24 C        5.1310     6.9150    -0.2080 C.ar  1 <1>  -0.1500 
 25 C        7.4530     1.1890    -0.0700 C.3   1 <1>  -0.1600 
 26 C        8.2340     0.8010     1.1880 C.3   1 <1>  -0.2400 
 27 H       -1.6270     0.9810    -0.6510 H     1 <1>   0.0800 
 28 H       -1.2830     0.6520     1.0580 H     1 <1>   0.0800 
 29 H       -1.5060    -1.7840     0.6070 H     1 <1>   0.0800 
 30 H       -1.8980    -1.4520    -1.0590 H     1 <1>   0.0800 
 31 H       -3.5150    -0.5490     1.2530 H     1 <1>   0.4500 
 32 H       -3.6020    -2.9150     1.1740 H     1 <1>   0.0800 
 33 H       -3.9180    -2.8590    -0.5380 H     1 <1>   0.0800 
 34 H       -4.0760    -0.4550    -1.6510 H     1 <1>   0.0800 
 35 H       -3.8580     0.9150    -0.5980 H     1 <1>   0.0800 
 36 H        6.0850     2.9920    -1.6560 H     1 <1>   0.0800 
 37 H        5.0920     1.5690    -1.4700 H     1 <1>   0.0800 
 38 H       -5.7880    -1.8610     1.6400 H     1 <1>   0.0800 
 39 H       -6.0280    -3.2300     0.5810 H     1 <1>   0.0800 
 40 H       -6.2680     0.4020    -1.1020 H     1 <1>   0.0800 
 41 H       -5.9350     0.3550     0.6130 H     1 <1>   0.0800 
 42 H        1.8050     6.7640     0.4430 H     1 <1>   0.1500 
 43 H        6.3720     5.2550    -0.7230 H     1 <1>   0.1500 
 44 H        5.5920     1.5130     0.9480 H     1 <1>   0.0800 
 45 H        6.5760     2.9500     0.7890 H     1 <1>   0.0800 
 46 H        3.6720     8.3890     0.3220 H     1 <1>   0.1500 
 47 H        5.9290     7.6350    -0.2550 H     1 <1>   0.1500 
 48 H        8.1050     1.7260    -0.7380 H     1 <1>   0.0800 
 49 H        7.1230     0.2940    -0.5700 H     1 <1>   0.0800 
 50 H        8.5930     1.6780     1.6960 H     1 <1>   0.0800 
 51 H        9.0790     0.1900     0.9230 H     1 <1>   0.0800 
 52 H        7.6080     0.2420     1.8620 H     1 <1>   0.0800 
@<TRIPOS>BOND
  1   1   2  1   
  2   1   3  1   
  3   2   4  ar  
  4   2   5  ar  
  5   3   6  1   
  6   3  27  1   
  7   3  28  1   
  8   4   7  ar  
  9   5   8  ar  
 10   6   9  1   
 11   6  29  1   
 12   6  30  1   
 13   7  10  ar  
 14   8  10  ar  
 15   8  11  1   
 16   9  12  1   
 17   9  13  1   
 18   9  31  1   
 19  10  14  1   
 20  11  15  1   
 21  11  16  1   
 22  12  17  1   
 23  12  32  1   
 24  12  33  1   
 25  13  18  1   
 26  13  34  1   
 27  13  35  1   
 28  14  15  ar  
 29  14  19  ar  
 30  15  20  ar  
 31  16  21  1   
 32  16  36  1   
 33  16  37  1   
 34  17  22  1   
 35  17  38  1   
 36  17  39  1   
 37  18  22  1   
 38  18  40  1   
 39  18  41  1   
 40  19  23  ar  
 41  19  42  1   
 42  20  24  ar  
 43  20  43  1   
 44  21  25  1   
 45  21  44  1   
 46  21  45  1   
 47  23  24  ar  
 48  23  46  1   
 49  24  47  1   
 50  25  26  1   
 51  25  48  1   
 52  25  49  1   
 53  26  50  1   
 54  26  51  1   
 55  26  52  1   
@<TRIPOS>SUBSTRUCTURE
  1 ****   2 GROUP 4 **** **** 0

# MOE 2024.06 (io_trps.svl 2023.06)
