@<TRIPOS>MOLECULE
NONAME
51 52 1 0 0 
SMALL
USER_CHARGES


@<TRIPOS>ATOM
  1 O        0.4540    -0.4480    -0.4800 O.2   1 <1>  -0.5700 
  2 C        0.2690    -1.6360    -0.4490 C.2   1 <1>   0.6590 
  3 O       -0.8710    -2.1940    -0.8250 O.3   1 <1>  -0.4300 
  4 C        1.3540    -2.5920     0.0390 C.3   1 <1>  -0.0190 
  5 C       -1.9500    -1.4170    -1.2930 C.3   1 <1>   0.1200 
  6 C        1.6680    -2.3490     1.5280 C.3   1 <1>  -0.1600 
  7 C        2.6340    -2.4540    -0.8080 C.3   1 <1>  -0.1600 
  8 C       -3.0980    -2.3600    -1.6380 C.3   1 <1>  -0.2400 
  9 C        2.8310    -3.2100     2.0180 C.3   1 <1>   0.3430 
 10 C        3.7770    -3.3090    -0.2670 C.3   1 <1>   0.3430 
 11 N        4.0220    -2.9630     1.1630 N.4   1 <1>  -0.9590 
 12 C        5.2220    -3.6620     1.6850 C.3   1 <1>   0.4810 
 13 C        6.4300    -3.1680     0.9120 C.2   1 <1>  -0.2760 
 14 C        7.0550    -3.9140    -0.0070 C.2   1 <1>  -0.2880 
 15 C        6.8970    -1.7580     1.2730 C.3   1 <1>  -0.0220 
 16 C        8.2870    -3.4670    -0.7840 C.3   1 <1>  -0.0220 
 17 C        7.8420    -1.1900     0.2050 C.3   1 <1>  -0.1600 
 18 C        8.9310    -2.2040    -0.1850 C.3   1 <1>   0.0580 
 19 C        9.9720    -1.6210    -1.1470 C.2   1 <1>  -0.2760 
 20 C        9.8220    -0.5070    -1.8740 C.2   1 <1>  -0.3000 
 21 C       11.2610    -2.4290    -1.2190 C.3   1 <1>  -0.1020 
 22 H        0.9790    -3.5950    -0.0720 H     1 <1>   0.0800 
 23 H       -1.6260    -0.8690    -2.1620 H     1 <1>   0.0800 
 24 H       -2.2370    -0.7270    -0.5170 H     1 <1>   0.0800 
 25 H        0.7940    -2.5720     2.1160 H     1 <1>   0.0800 
 26 H        1.9040    -1.3110     1.6890 H     1 <1>   0.0800 
 27 H        2.9500    -1.4240    -0.8350 H     1 <1>   0.0800 
 28 H        2.4250    -2.7480    -1.8220 H     1 <1>   0.0800 
 29 H       -2.7960    -3.0480    -2.4080 H     1 <1>   0.0800 
 30 H       -3.9360    -1.7920    -1.9990 H     1 <1>   0.0800 
 31 H       -3.4060    -2.9070    -0.7650 H     1 <1>   0.0800 
 32 H        2.5560    -4.2510     1.9710 H     1 <1>   0.0800 
 33 H        3.0520    -2.9620     3.0440 H     1 <1>   0.0800 
 34 H        4.6660    -3.1270    -0.8510 H     1 <1>   0.0800 
 35 H        3.5240    -4.3540    -0.3530 H     1 <1>   0.0800 
 36 H        4.2390    -1.9600     1.1890 H     1 <1>   0.4500 
 37 H        5.1130    -4.7260     1.5510 H     1 <1>   0.0800 
 38 H        5.3560    -3.4600     2.7360 H     1 <1>   0.0800 
 39 H        6.7440    -4.9090    -0.2830 H     1 <1>   0.1500 
 40 H        7.4100    -1.7900     2.2190 H     1 <1>   0.0800 
 41 H        6.0650    -1.0840     1.3720 H     1 <1>   0.0800 
 42 H        8.0060    -3.2750    -1.8050 H     1 <1>   0.0800 
 43 H        9.0110    -4.2620    -0.7840 H     1 <1>   0.0800 
 44 H        8.3030    -0.2910     0.5770 H     1 <1>   0.0800 
 45 H        7.2690    -0.9360    -0.6700 H     1 <1>   0.0800 
 46 H        9.4380    -2.4820     0.7240 H     1 <1>   0.0800 
 47 H       10.5750    -0.1210    -2.5390 H     1 <1>   0.1500 
 48 H        8.9490     0.1200    -1.8820 H     1 <1>   0.1500 
 49 H       11.0730    -3.4150    -1.6030 H     1 <1>   0.0800 
 50 H       11.7040    -2.5130    -0.2430 H     1 <1>   0.0800 
 51 H       11.9730    -1.9510    -1.8680 H     1 <1>   0.0800 
@<TRIPOS>BOND
  1   1   2  2   
  2   2   3  1   
  3   2   4  1   
  4   3   5  1   
  5   4   6  1   
  6   4   7  1   
  7   4  22  1   
  8   5   8  1   
  9   5  23  1   
 10   5  24  1   
 11   6   9  1   
 12   6  25  1   
 13   6  26  1   
 14   7  10  1   
 15   7  27  1   
 16   7  28  1   
 17   8  29  1   
 18   8  30  1   
 19   8  31  1   
 20   9  11  1   
 21   9  32  1   
 22   9  33  1   
 23  10  11  1   
 24  10  34  1   
 25  10  35  1   
 26  11  12  1   
 27  11  36  1   
 28  12  13  1   
 29  12  37  1   
 30  12  38  1   
 31  13  14  2   
 32  13  15  1   
 33  14  16  1   
 34  14  39  1   
 35  15  17  1   
 36  15  40  1   
 37  15  41  1   
 38  16  18  1   
 39  16  42  1   
 40  16  43  1   
 41  17  18  1   
 42  17  44  1   
 43  17  45  1   
 44  18  19  1   
 45  18  46  1   
 46  19  20  2   
 47  19  21  1   
 48  20  47  1   
 49  20  48  1   
 50  21  49  1   
 51  21  50  1   
 52  21  51  1   
@<TRIPOS>SUBSTRUCTURE
  1 ****  10 GROUP 4 **** **** 0

# MOE 2024.06 (io_trps.svl 2023.06)
