@<TRIPOS>MOLECULE
NONAME
40 41 1 0 0 
SMALL
USER_CHARGES


@<TRIPOS>ATOM
  1 F        3.8530    -0.0150     3.4950 F     1 <1>  -0.1900 
  2 C        3.7430    -0.4980     2.2860 C.ar  1 <1>   0.1900 
  3 C        4.4340     0.1130     1.2600 C.ar  1 <1>  -0.1500 
  4 C        2.9380    -1.6040     2.0870 C.ar  1 <1>  -0.1500 
  5 C        4.3250    -0.4020    -0.0240 C.ar  1 <1>   0.1000 
  6 C        2.8230    -2.1120     0.8030 C.ar  1 <1>  -0.1500 
  7 N        5.0180     0.1890    -1.0690 N.pl3 1 <1>  -0.8690 
  8 C        3.5100    -1.5110    -0.2400 C.ar  1 <1>  -0.1500 
  9 C        6.0260    -0.6240    -1.7770 C.3   1 <1>   0.3530 
 10 C        7.3890    -0.0170    -1.4970 C.ar  1 <1>  -0.1430 
 11 C        8.0090     0.7940    -2.4360 C.ar  1 <1>  -0.1500 
 12 C        8.0240    -0.2640    -0.2880 C.ar  1 <1>  -0.1500 
 13 C        9.2500     1.3440    -2.1700 C.ar  1 <1>  -0.1500 
 14 C        9.2660     0.2860    -0.0200 C.ar  1 <1>  -0.1500 
 15 C        9.8880     1.0960    -0.9660 C.ar  1 <1>   0.0830 
 16 O       11.1010     1.6730    -0.7870 O.3   1 <1>  -0.3620 
 17 C       11.8390     1.4770     0.3970 C.3   1 <1>   0.1200 
 18 C       13.1510     2.2530     0.2780 C.3   1 <1>  -0.1600 
 19 C       14.0120     2.0850     1.5370 C.3   1 <1>  -0.1600 
 20 C       15.3250     2.8630     1.4120 C.3   1 <1>  -0.2400 
 21 H        5.0480     0.9700     1.4580 H     1 <1>   0.1500 
 22 H        2.4160    -2.0500     2.9140 H     1 <1>   0.1500 
 23 H        2.1990    -2.9690     0.6150 H     1 <1>   0.1500 
 24 H        5.4570     1.0810    -0.8150 H     1 <1>   0.4000 
 25 H        3.4130    -1.8970    -1.2380 H     1 <1>   0.1500 
 26 H        5.8160    -0.6130    -2.8320 H     1 <1>   0.0800 
 27 H        6.0010    -1.6440    -1.4320 H     1 <1>   0.0800 
 28 H        7.5290     1.0020    -3.3770 H     1 <1>   0.1500 
 29 H        7.5460    -0.8850     0.4500 H     1 <1>   0.1500 
 30 H        9.7340     1.9720    -2.8960 H     1 <1>   0.1500 
 31 H        9.7280     0.0740     0.9250 H     1 <1>   0.1500 
 32 H       12.0290     0.4230     0.5070 H     1 <1>   0.0800 
 33 H       11.2550     1.8410     1.2250 H     1 <1>   0.0800 
 34 H       12.9280     3.2950     0.1320 H     1 <1>   0.0800 
 35 H       13.6940     1.8920    -0.5780 H     1 <1>   0.0800 
 36 H       14.2340     1.0420     1.6880 H     1 <1>   0.0800 
 37 H       13.4710     2.4410     2.3970 H     1 <1>   0.0800 
 38 H       15.8940     2.5100     0.5700 H     1 <1>   0.0800 
 39 H       15.9160     2.7350     2.3020 H     1 <1>   0.0800 
 40 H       15.1290     3.9130     1.2810 H     1 <1>   0.0800 
@<TRIPOS>BOND
  1   1   2  1   
  2   2   3  ar  
  3   2   4  ar  
  4   3   5  ar  
  5   3  21  1   
  6   4   6  ar  
  7   4  22  1   
  8   5   7  1   
  9   5   8  ar  
 10   6   8  ar  
 11   6  23  1   
 12   7   9  1   
 13   7  24  1   
 14   8  25  1   
 15   9  10  1   
 16   9  26  1   
 17   9  27  1   
 18  10  11  ar  
 19  10  12  ar  
 20  11  13  ar  
 21  11  28  1   
 22  12  14  ar  
 23  12  29  1   
 24  13  15  ar  
 25  13  30  1   
 26  14  15  ar  
 27  14  31  1   
 28  15  16  1   
 29  16  17  1   
 30  17  18  1   
 31  17  32  1   
 32  17  33  1   
 33  18  19  1   
 34  18  34  1   
 35  18  35  1   
 36  19  20  1   
 37  19  36  1   
 38  19  37  1   
 39  20  38  1   
 40  20  39  1   
 41  20  40  1   
@<TRIPOS>SUBSTRUCTURE
  1 ****  12 GROUP 4 **** **** 0

# MOE 2024.06 (io_trps.svl 2023.06)
