@<TRIPOS>MOLECULE
NONAME
49 50 1 0 0 
SMALL
USER_CHARGES


@<TRIPOS>ATOM
  1 O        7.5130    -0.0690    -0.2140 O.3   1 <1>  -0.3630 
  2 C        8.6110     0.7330    -0.1610 C.ar  1 <1>   0.0830 
  3 C        7.5970    -1.4680    -0.3620 C.3   1 <1>   0.1200 
  4 C        8.4650     2.0680     0.2490 C.ar  1 <1>  -0.1440 
  5 C        9.8660     0.2310    -0.5090 C.ar  1 <1>  -0.1500 
  6 C        6.1860    -2.0390    -0.2110 C.3   1 <1>   0.1100 
  7 C        9.6230     2.8440     0.2980 C.ar  1 <1>  -0.1500 
  8 C        7.0850     2.6780     0.6370 C.3   1 <1>   0.1440 
  9 C       10.9930     1.0260    -0.4510 C.ar  1 <1>  -0.1440 
 10 N        6.1720    -3.5140    -0.3370 N.3   1 <1>  -0.8100 
 11 C       10.8630     2.3370    -0.0420 C.ar  1 <1>  -0.1500 
 12 C        7.1690     4.1630     1.0440 C.3   1 <1>  -0.2400 
 13 C        6.1110     2.6210    -0.5530 C.3   1 <1>  -0.2400 
 14 C        6.4850     1.9410     1.8470 C.3   1 <1>  -0.2400 
 15 C       12.3570     0.4750    -0.8280 C.3   1 <1>  -0.0970 
 16 C        4.8210    -3.9920    -0.6930 C.3   1 <1>   0.1100 
 17 C        6.6810    -4.1840     0.8800 C.3   1 <1>   0.1100 
 18 C        4.7980    -5.5220    -0.8840 C.3   1 <1>   0.3430 
 19 C        6.6840    -5.7180     0.7150 C.3   1 <1>   0.3430 
 20 N        5.3300    -6.2350     0.3250 N.4   1 <1>  -0.9060 
 21 H        8.2540    -1.8410     0.4020 H     1 <1>   0.0800 
 22 H        7.9840    -1.6820    -1.3420 H     1 <1>   0.0800 
 23 H        9.9860    -0.7820    -0.8340 H     1 <1>   0.1500 
 24 H        5.5830    -1.6060    -0.9930 H     1 <1>   0.0800 
 25 H        5.7750    -1.7420     0.7390 H     1 <1>   0.0800 
 26 H        9.6040     3.8720     0.6030 H     1 <1>   0.1500 
 27 H       11.7290     2.9720     0.0130 H     1 <1>   0.1500 
 28 H        7.8040     4.2860     1.9030 H     1 <1>   0.0800 
 29 H        6.1960     4.5450     1.2990 H     1 <1>   0.0800 
 30 H        7.5510     4.7570     0.2330 H     1 <1>   0.0800 
 31 H        6.5530     3.0970    -1.4100 H     1 <1>   0.0800 
 32 H        5.1900     3.1240    -0.3180 H     1 <1>   0.0800 
 33 H        5.8680     1.6110    -0.8210 H     1 <1>   0.0800 
 34 H        7.1880     1.9430     2.6600 H     1 <1>   0.0800 
 35 H        6.2470     0.9230     1.6120 H     1 <1>   0.0800 
 36 H        5.5800     2.4190     2.1750 H     1 <1>   0.0800 
 37 H       12.2580    -0.3820    -1.4700 H     1 <1>   0.0800 
 38 H       12.8900     0.1860     0.0590 H     1 <1>   0.0800 
 39 H       12.9280     1.2230    -1.3490 H     1 <1>   0.0800 
 40 H        4.5140    -3.5290    -1.6170 H     1 <1>   0.0800 
 41 H        4.1140    -3.7060     0.0680 H     1 <1>   0.0800 
 42 H        6.0810    -3.9100     1.7310 H     1 <1>   0.0800 
 43 H        7.6900    -3.8630     1.0730 H     1 <1>   0.0800 
 44 H        5.4030    -5.7630    -1.7420 H     1 <1>   0.0800 
 45 H        3.7890    -5.8420    -1.0880 H     1 <1>   0.0800 
 46 H        7.0030    -6.1760     1.6370 H     1 <1>   0.0800 
 47 H        7.4010    -5.9720    -0.0480 H     1 <1>   0.0800 
 48 H        5.3770    -7.2450     0.1450 H     1 <1>   0.4500 
 49 H        4.6810    -6.0890     1.1070 H     1 <1>   0.4500 
@<TRIPOS>BOND
  1   1   2  1   
  2   1   3  1   
  3   2   4  ar  
  4   2   5  ar  
  5   3   6  1   
  6   3  21  1   
  7   3  22  1   
  8   4   7  ar  
  9   4   8  1   
 10   5   9  ar  
 11   5  23  1   
 12   6  10  1   
 13   6  24  1   
 14   6  25  1   
 15   7  11  ar  
 16   7  26  1   
 17   8  12  1   
 18   8  13  1   
 19   8  14  1   
 20   9  11  ar  
 21   9  15  1   
 22  10  16  1   
 23  10  17  1   
 24  11  27  1   
 25  12  28  1   
 26  12  29  1   
 27  12  30  1   
 28  13  31  1   
 29  13  32  1   
 30  13  33  1   
 31  14  34  1   
 32  14  35  1   
 33  14  36  1   
 34  15  37  1   
 35  15  38  1   
 36  15  39  1   
 37  16  18  1   
 38  16  40  1   
 39  16  41  1   
 40  17  19  1   
 41  17  42  1   
 42  17  43  1   
 43  18  20  1   
 44  18  44  1   
 45  18  45  1   
 46  19  20  1   
 47  19  46  1   
 48  19  47  1   
 49  20  48  1   
 50  20  49  1   
@<TRIPOS>SUBSTRUCTURE
  1 ****   1 GROUP 4 **** **** 0

# MOE 2024.06 (io_trps.svl 2023.06)
