@<TRIPOS>MOLECULE
NONAME
50 52 1 0 0 
SMALL
USER_CHARGES


@<TRIPOS>ATOM
  1 O        0.5050     1.2320    -2.3500 O.2   1 <1>  -0.5700 
  2 C        0.4030     2.1730    -1.5850 C.2   1 <1>   0.5440 
  3 N       -0.8590     2.6280    -1.2660 N.am  1 <1>  -0.6600 
  4 C        1.6040     2.7740    -1.0530 C.ar  1 <1>   0.0860 
  5 C       -2.0750     1.9310    -1.8040 C.3   1 <1>   0.1400 
  6 C       -1.1230     3.7570    -0.3130 C.3   1 <1>   0.1400 
  7 C        2.0020     2.6710     0.2920 C.ar  1 <1>   0.0830 
  8 C        2.4210     3.5140    -1.9100 C.ar  1 <1>  -0.1500 
  9 C       -3.3620     2.7660    -1.6850 C.3   1 <1>   0.2090 
 10 C       -2.3740     3.5080     0.5450 C.3   1 <1>   0.2090 
 11 O        1.3180     1.9650     1.2220 O.3   1 <1>  -0.3630 
 12 C        3.1380     3.3230     0.7400 C.ar  1 <1>  -0.1500 
 13 C        3.5620     4.1510    -1.4630 C.ar  1 <1>  -0.1500 
 14 N       -3.5930     3.2600    -0.2890 N.pl3 1 <1>  -0.8380 
 15 C        0.9040     0.6420     0.9540 C.3   1 <1>   0.1200 
 16 C        3.9260     4.0630    -0.1220 C.ar  1 <1>   0.0830 
 17 C       -4.8590     3.4950     0.1990 C.ar  1 <1>   0.7200 
 18 C        0.8430    -0.1090     2.2800 C.3   1 <1>  -0.2400 
 19 O        5.0200     4.6590     0.4020 O.3   1 <1>  -0.3630 
 20 N       -5.8600     3.4860    -0.6810 N.ar  1 <1>  -0.6200 
 21 N       -4.9700     3.7140     1.5090 N.ar  1 <1>  -0.6200 
 22 C        5.9210     5.3950    -0.3920 C.3   1 <1>   0.1200 
 23 C       -7.0580     3.7120    -0.2010 C.ar  1 <1>   0.1600 
 24 C       -6.1800     3.9360     1.9600 C.ar  1 <1>   0.1600 
 25 C        7.0410     5.9020     0.5110 C.3   1 <1>  -0.2400 
 26 C       -7.2770     3.9470     1.1340 C.ar  1 <1>  -0.1500 
 27 H       -2.2100     1.0100    -1.2650 H     1 <1>   0.0800 
 28 H       -1.9150     1.6840    -2.8390 H     1 <1>   0.0800 
 29 H       -1.2650     4.6630    -0.8750 H     1 <1>   0.0800 
 30 H       -0.2870     3.9060     0.3440 H     1 <1>   0.0800 
 31 H        2.1420     3.5840    -2.9480 H     1 <1>   0.1500 
 32 H       -4.1910     2.1570    -2.0020 H     1 <1>   0.0800 
 33 H       -3.3000     3.6100    -2.3490 H     1 <1>   0.0800 
 34 H       -2.5340     4.3660     1.1750 H     1 <1>   0.0800 
 35 H       -2.2040     2.6570     1.1820 H     1 <1>   0.0800 
 36 H        3.4180     3.2490     1.7740 H     1 <1>   0.1500 
 37 H        4.1540     4.7090    -2.1650 H     1 <1>   0.1500 
 38 H        1.6120     0.1810     0.2850 H     1 <1>   0.0800 
 39 H       -0.0690     0.6710     0.4960 H     1 <1>   0.0800 
 40 H        1.8140    -0.1250     2.7400 H     1 <1>   0.0800 
 41 H        0.5260    -1.1220     2.1080 H     1 <1>   0.0800 
 42 H        0.1380     0.3640     2.9400 H     1 <1>   0.0800 
 43 H        5.3890     6.2180    -0.8380 H     1 <1>   0.0800 
 44 H        6.3120     4.7440    -1.1550 H     1 <1>   0.0800 
 45 H       -7.8860     3.7110    -0.8890 H     1 <1>   0.1500 
 46 H       -6.3000     4.1140     3.0150 H     1 <1>   0.1500 
 47 H        6.6370     6.5370     1.2790 H     1 <1>   0.0800 
 48 H        7.7480     6.4690    -0.0670 H     1 <1>   0.0800 
 49 H        7.5540     5.0730     0.9640 H     1 <1>   0.0800 
 50 H       -8.2630     4.1300     1.5160 H     1 <1>   0.1500 
@<TRIPOS>BOND
  1   1   2  2   
  2   2   3  am  
  3   2   4  1   
  4   3   5  1   
  5   3   6  1   
  6   4   7  ar  
  7   4   8  ar  
  8   5   9  1   
  9   5  27  1   
 10   5  28  1   
 11   6  10  1   
 12   6  29  1   
 13   6  30  1   
 14   7  11  1   
 15   7  12  ar  
 16   8  13  ar  
 17   8  31  1   
 18   9  14  1   
 19   9  32  1   
 20   9  33  1   
 21  10  14  1   
 22  10  34  1   
 23  10  35  1   
 24  11  15  1   
 25  12  16  ar  
 26  12  36  1   
 27  13  16  ar  
 28  13  37  1   
 29  14  17  1   
 30  15  18  1   
 31  15  38  1   
 32  15  39  1   
 33  16  19  1   
 34  17  20  ar  
 35  17  21  ar  
 36  18  40  1   
 37  18  41  1   
 38  18  42  1   
 39  19  22  1   
 40  20  23  ar  
 41  21  24  ar  
 42  22  25  1   
 43  22  43  1   
 44  22  44  1   
 45  23  26  ar  
 46  23  45  1   
 47  24  26  ar  
 48  24  46  1   
 49  25  47  1   
 50  25  48  1   
 51  25  49  1   
 52  26  50  1   
@<TRIPOS>SUBSTRUCTURE
  1 ****   6 GROUP 4 **** **** 0

# MOE 2024.06 (io_trps.svl 2023.06)
