@<TRIPOS>MOLECULE
NONAME
36 37 1 0 0 
SMALL
USER_CHARGES


@<TRIPOS>ATOM
  1 BR      -0.0300     2.0050     2.1600 Br    1 <1>  -0.1110 
  2 C       -1.5530     1.1100     1.3960 C.ar  1 <1>   0.1110 
  3 C       -1.4610    -0.2400     1.1160 C.ar  1 <1>  -0.1500 
  4 C       -2.7000     1.8400     1.1470 C.ar  1 <1>  -0.1500 
  5 C       -2.5610    -0.8760     0.5670 C.ar  1 <1>  -0.1500 
  6 C       -3.7960     1.1960     0.5980 C.ar  1 <1>  -0.1500 
  7 C       -3.7280    -0.1680     0.3070 C.ar  1 <1>   0.0830 
  8 O       -4.7570    -0.8740    -0.2270 O.3   1 <1>  -0.3630 
  9 C       -5.9770    -0.2490    -0.5610 C.3   1 <1>   0.1200 
 10 C       -6.9230    -1.3240    -1.1020 C.3   1 <1>   0.2000 
 11 O       -8.2060    -0.7860    -1.2580 O.3   1 <1>  -0.6800 
 12 C       -6.9940    -2.5300    -0.1400 C.3   1 <1>   0.3430 
 13 N       -8.2500    -3.3130    -0.3510 N.4   1 <1>  -0.9590 
 14 C       -8.6690    -4.1290     0.8080 C.3   1 <1>   0.3430 
 15 C       -8.2270    -4.2110    -1.5260 C.3   1 <1>   0.3430 
 16 C       -9.6610    -5.1270     0.2250 C.3   1 <1>  -0.1600 
 17 C       -9.3840    -5.1710    -1.2820 C.3   1 <1>  -0.1600 
 18 H       -0.5510    -0.7750     1.3220 H     1 <1>   0.1500 
 19 H       -2.7300     2.8900     1.3800 H     1 <1>   0.1500 
 20 H       -2.5150    -1.9260     0.3380 H     1 <1>   0.1500 
 21 H       -4.6810     1.7720     0.4090 H     1 <1>   0.1500 
 22 H       -5.7790     0.5020    -1.3070 H     1 <1>   0.0800 
 23 H       -6.3810     0.1960     0.3320 H     1 <1>   0.0800 
 24 H       -6.5830    -1.6470    -2.0710 H     1 <1>   0.0800 
 25 H       -8.1980    -0.0230    -1.8760 H     1 <1>   0.4000 
 26 H       -6.9790    -2.1480     0.8680 H     1 <1>   0.0800 
 27 H       -6.1240    -3.1530    -0.2640 H     1 <1>   0.0800 
 28 H       -8.9740    -2.5930    -0.5340 H     1 <1>   0.4500 
 29 H       -9.1160    -3.5250     1.5810 H     1 <1>   0.0800 
 30 H       -7.8190    -4.6580     1.2090 H     1 <1>   0.0800 
 31 H       -7.3000    -4.7620    -1.5480 H     1 <1>   0.0800 
 32 H       -8.3470    -3.6650    -2.4480 H     1 <1>   0.0800 
 33 H      -10.6670    -4.7920     0.4110 H     1 <1>   0.0800 
 34 H       -9.5330    -6.0920     0.6830 H     1 <1>   0.0800 
 35 H       -9.1270    -6.1620    -1.6140 H     1 <1>   0.0800 
 36 H      -10.2490    -4.8410    -1.8320 H     1 <1>   0.0800 
@<TRIPOS>BOND
  1   1   2  1   
  2   2   3  ar  
  3   2   4  ar  
  4   3   5  ar  
  5   3  18  1   
  6   4   6  ar  
  7   4  19  1   
  8   5   7  ar  
  9   5  20  1   
 10   6   7  ar  
 11   6  21  1   
 12   7   8  1   
 13   8   9  1   
 14   9  10  1   
 15   9  22  1   
 16   9  23  1   
 17  10  11  1   
 18  10  12  1   
 19  10  24  1   
 20  11  25  1   
 21  12  13  1   
 22  12  26  1   
 23  12  27  1   
 24  13  14  1   
 25  13  15  1   
 26  13  28  1   
 27  14  16  1   
 28  14  29  1   
 29  14  30  1   
 30  15  17  1   
 31  15  31  1   
 32  15  32  1   
 33  16  17  1   
 34  16  33  1   
 35  16  34  1   
 36  17  35  1   
 37  17  36  1   
@<TRIPOS>SUBSTRUCTURE
  1 ****   8 GROUP 4 **** **** 0

# MOE 2024.06 (io_trps.svl 2023.06)
