@<TRIPOS>MOLECULE
NONAME
47 49 1 0 0 
SMALL
USER_CHARGES


@<TRIPOS>ATOM
  1 F       -1.2740    -0.5550    -1.7140 F     1 <1>  -0.1900 
  2 C       -2.0800     0.2870    -1.1240 C.ar  1 <1>   0.1900 
  3 C       -3.4400     0.1350    -1.2980 C.ar  1 <1>  -0.1500 
  4 C       -1.5360     1.2940    -0.3510 C.ar  1 <1>  -0.1500 
  5 C       -4.3100     1.0220    -0.6750 C.ar  1 <1>   0.1170 
  6 C       -2.3980     2.1830     0.2680 C.ar  1 <1>  -0.1500 
  7 N       -5.6900     0.8640    -0.8720 N.am  1 <1>  -0.5470 
  8 C       -3.7670     2.0460     0.1030 C.ar  1 <1>  -0.1500 
  9 C       -6.7450     1.2460    -0.0990 C.2   1 <1>   0.6900 
 10 O       -6.6050     1.7300     1.0060 O.2   1 <1>  -0.5700 
 11 N       -7.9940     1.0710    -0.5980 N.am  1 <1>  -0.7300 
 12 C       -9.2080     1.3910     0.1650 C.3   1 <1>   0.2200 
 13 C      -10.3600     0.4990    -0.2870 C.3   1 <1>  -0.1600 
 14 C       -9.5550     2.8660    -0.0290 C.3   1 <1>  -0.1600 
 15 C      -11.6380     0.8690     0.4630 C.3   1 <1>   0.3430 
 16 C      -10.8340     3.2100     0.7260 C.3   1 <1>   0.3430 
 17 N      -11.9420     2.3210     0.2720 N.4   1 <1>  -0.9590 
 18 C      -13.2320     2.6940     0.9180 C.3   1 <1>   0.4860 
 19 C      -14.3490     1.9370     0.2280 C.ar  1 <1>  -0.1430 
 20 C      -14.9600     0.8630     0.8610 C.ar  1 <1>  -0.1500 
 21 C      -14.7650     2.3080    -1.0430 C.ar  1 <1>  -0.1500 
 22 C      -15.9650     0.1590     0.2220 C.ar  1 <1>  -0.1500 
 23 C      -15.7700     1.6020    -1.6800 C.ar  1 <1>  -0.1500 
 24 C      -16.3690     0.5270    -1.0490 C.ar  1 <1>  -0.1500 
 25 H       -3.8080    -0.6680    -1.9070 H     1 <1>   0.1500 
 26 H       -0.4700     1.3780    -0.2400 H     1 <1>   0.1500 
 27 H       -2.0070     2.9790     0.8770 H     1 <1>   0.1500 
 28 H       -5.9420     0.2670    -1.6520 H     1 <1>   0.3700 
 29 H       -4.4190     2.7490     0.5890 H     1 <1>   0.1500 
 30 H       -8.1060     0.8480    -1.5840 H     1 <1>   0.3700 
 31 H       -9.0160     1.2100     1.2130 H     1 <1>   0.0800 
 32 H      -10.1190    -0.5280    -0.0760 H     1 <1>   0.0800 
 33 H      -10.5260     0.5970    -1.3450 H     1 <1>   0.0800 
 34 H       -9.6750     3.0940    -1.0730 H     1 <1>   0.0800 
 35 H       -8.7530     3.4710     0.3580 H     1 <1>   0.0800 
 36 H      -11.5110     0.6570     1.5130 H     1 <1>   0.0800 
 37 H      -12.4540     0.2670     0.0940 H     1 <1>   0.0800 
 38 H      -11.0870     4.2430     0.5480 H     1 <1>   0.0800 
 39 H      -10.6690     3.0800     1.7840 H     1 <1>   0.0800 
 40 H      -12.0840     2.4620    -0.7360 H     1 <1>   0.4500 
 41 H      -13.4080     3.7530     0.8160 H     1 <1>   0.0800 
 42 H      -13.2120     2.4490     1.9680 H     1 <1>   0.0800 
 43 H      -14.6680     0.5610     1.8520 H     1 <1>   0.1500 
 44 H      -14.3230     3.1470    -1.5530 H     1 <1>   0.1500 
 45 H      -16.4400    -0.6750     0.7120 H     1 <1>   0.1500 
 46 H      -16.0940     1.8890    -2.6670 H     1 <1>   0.1500 
 47 H      -17.1530    -0.0210    -1.5450 H     1 <1>   0.1500 
@<TRIPOS>BOND
  1   1   2  1   
  2   2   3  ar  
  3   2   4  ar  
  4   3   5  ar  
  5   3  25  1   
  6   4   6  ar  
  7   4  26  1   
  8   5   7  1   
  9   5   8  ar  
 10   6   8  ar  
 11   6  27  1   
 12   7   9  am  
 13   7  28  1   
 14   8  29  1   
 15   9  10  2   
 16   9  11  am  
 17  11  12  1   
 18  11  30  1   
 19  12  13  1   
 20  12  14  1   
 21  12  31  1   
 22  13  15  1   
 23  13  32  1   
 24  13  33  1   
 25  14  16  1   
 26  14  34  1   
 27  14  35  1   
 28  15  17  1   
 29  15  36  1   
 30  15  37  1   
 31  16  17  1   
 32  16  38  1   
 33  16  39  1   
 34  17  18  1   
 35  17  40  1   
 36  18  19  1   
 37  18  41  1   
 38  18  42  1   
 39  19  20  ar  
 40  19  21  ar  
 41  20  22  ar  
 42  20  43  1   
 43  21  23  ar  
 44  21  44  1   
 45  22  24  ar  
 46  22  45  1   
 47  23  24  ar  
 48  23  46  1   
 49  24  47  1   
@<TRIPOS>SUBSTRUCTURE
  1 ****  12 GROUP 4 **** **** 0

# MOE 2024.06 (io_trps.svl 2023.06)
