@<TRIPOS>MOLECULE
NONAME
31 33 1 0 0 
SMALL
USER_CHARGES


@<TRIPOS>ATOM
  1 S       -0.1290    -0.6140    -0.0780 S.3   1 <1>  -0.0800 
  2 C        1.3100     0.4040    -0.0570 C.ar  1 <1>   0.2970 
  3 C       -1.1740     0.8010    -0.0600 C.2   1 <1>  -0.1400 
  4 N        2.5270    -0.0950    -0.0550 N.ar  1 <1>  -0.5670 
  5 C        0.9710     1.7410    -0.0360 C.ar  1 <1>   0.0000 
  6 C       -0.4660     1.9410    -0.0580 C.2   1 <1>  -0.1810 
  7 C       -2.6770     0.6240    -0.0510 C.3   1 <1>   0.0200 
  8 C        3.4700     0.8220    -0.0220 C.ar  1 <1>   0.4770 
  9 C        2.0830     2.5720     0.0110 C.ar  1 <1>   0.4120 
 10 C       -1.1700     3.2920    -0.0720 C.3   1 <1>   0.0210 
 11 C       -3.3350     1.9660     0.3130 C.3   1 <1>  -0.1600 
 12 N        3.3260     2.1420     0.0140 N.ar  1 <1>  -0.6200 
 13 C        4.8950     0.3220    -0.0220 C.3   1 <1>  -0.0960 
 14 S        1.8980     4.3490     0.0860 S.3   1 <1>  -0.3320 
 15 C       -2.6670     3.1470    -0.4190 C.3   1 <1>  -0.1600 
 16 C        3.6400     4.9720     0.1400 C.3   1 <1>   0.2700 
 17 C        3.6330     6.4600     0.2020 C.1   1 <1>   0.3570 
 18 N        3.6590     7.5970     0.2500 N.1   1 <1>  -0.5570 
 19 H       -2.9580    -0.1280     0.6660 H     1 <1>   0.0800 
 20 H       -2.9960     0.3050    -1.0270 H     1 <1>   0.0800 
 21 H       -0.7170     3.9360    -0.8040 H     1 <1>   0.0800 
 22 H       -1.0640     3.7490     0.8960 H     1 <1>   0.0800 
 23 H       -3.2440     2.1220     1.3750 H     1 <1>   0.0800 
 24 H       -4.3830     1.9280     0.0730 H     1 <1>   0.0800 
 25 H        4.9190    -0.7520    -0.0620 H     1 <1>   0.0800 
 26 H        5.3900     0.6480     0.8730 H     1 <1>   0.0800 
 27 H        5.4140     0.7130    -0.8770 H     1 <1>   0.0800 
 28 H       -2.7620     2.9910    -1.4800 H     1 <1>   0.0800 
 29 H       -3.1770     4.0630    -0.1770 H     1 <1>   0.0800 
 30 H        4.1340     4.6290    -0.7490 H     1 <1>   0.0800 
 31 H        4.1050     4.5550     1.0140 H     1 <1>   0.0800 
@<TRIPOS>BOND
  1   1   2  1   
  2   1   3  1   
  3   2   4  ar  
  4   2   5  ar  
  5   3   6  2   
  6   3   7  1   
  7   4   8  ar  
  8   5   6  1   
  9   5   9  ar  
 10   6  10  1   
 11   7  11  1   
 12   7  19  1   
 13   7  20  1   
 14   8  12  ar  
 15   8  13  1   
 16   9  12  ar  
 17   9  14  1   
 18  10  15  1   
 19  10  21  1   
 20  10  22  1   
 21  11  15  1   
 22  11  23  1   
 23  11  24  1   
 24  13  25  1   
 25  13  26  1   
 26  13  27  1   
 27  14  16  1   
 28  15  28  1   
 29  15  29  1   
 30  16  17  1   
 31  16  30  1   
 32  16  31  1   
 33  17  18  3   
@<TRIPOS>SUBSTRUCTURE
  1 ****   5 GROUP 4 **** **** 0

# MOE 2024.06 (io_trps.svl 2023.06)
