@<TRIPOS>MOLECULE
NONAME
52 53 1 0 0 
SMALL
USER_CHARGES


@<TRIPOS>ATOM
  1 O        0.9710     0.3190    -0.9450 O.2   1 <1>  -0.5700 
  2 C        0.6610     1.3540    -0.4150 C.2   1 <1>   0.6590 
  3 O       -0.5270     1.5500     0.1320 O.3   1 <1>  -0.4300 
  4 C        1.6250     2.5260    -0.3420 C.3   1 <1>  -0.0190 
  5 C       -1.5150     0.5440     0.1370 C.3   1 <1>   0.1200 
  6 C        2.8160     2.2680    -1.2860 C.3   1 <1>   0.3430 
  7 C        2.0900     2.8090     1.1000 C.3   1 <1>  -0.1600 
  8 C       -2.7460     1.0940     0.8490 C.3   1 <1>  -0.2400 
  9 N        4.0920     2.8990    -0.8060 N.4   1 <1>  -0.9590 
 10 C        3.0620     4.0060     1.1450 C.3   1 <1>  -0.1600 
 11 C        3.8720     4.2150    -0.1420 C.3   1 <1>   0.3430 
 12 C        5.1100     2.9660    -1.8890 C.3   1 <1>   0.4860 
 13 C        6.4420     3.3320    -1.2660 C.ar  1 <1>  -0.1430 
 14 C        7.1450     2.4010    -0.5180 C.ar  1 <1>  -0.1500 
 15 C        6.9650     4.6040    -1.4260 C.ar  1 <1>  -0.1500 
 16 C        8.3540     2.7270     0.0730 C.ar  1 <1>   0.0830 
 17 C        8.1730     4.9560    -0.8460 C.ar  1 <1>   0.0830 
 18 O        8.9250     1.7280     0.8000 O.3   1 <1>  -0.3630 
 19 C        8.8980     4.0060    -0.1140 C.ar  1 <1>   0.0830 
 20 O        8.5620     6.2420    -1.0580 O.3   1 <1>  -0.3630 
 21 C        9.6320     2.0180     1.9880 C.3   1 <1>   0.0400 
 22 O       10.1310     4.3080     0.3700 O.3   1 <1>  -0.3630 
 23 C        9.1750     6.9780    -0.0200 C.3   1 <1>   0.0400 
 24 C       11.1910     4.0660    -0.5280 C.3   1 <1>   0.0400 
 25 H        1.0920     3.3860    -0.7050 H     1 <1>   0.0800 
 26 H       -1.1250    -0.3180     0.6520 H     1 <1>   0.0800 
 27 H       -1.7440     0.2820    -0.8830 H     1 <1>   0.0800 
 28 H        2.5610     2.6400    -2.2650 H     1 <1>   0.0800 
 29 H        2.9770     1.2050    -1.3770 H     1 <1>   0.0800 
 30 H        2.5830     1.9320     1.4880 H     1 <1>   0.0800 
 31 H        1.2420     3.0070     1.7350 H     1 <1>   0.0800 
 32 H       -2.5040     1.3580     1.8630 H     1 <1>   0.0800 
 33 H       -3.5180     0.3460     0.8670 H     1 <1>   0.0800 
 34 H       -3.1220     1.9580     0.3300 H     1 <1>   0.0800 
 35 H        4.4920     2.2890    -0.0810 H     1 <1>   0.4500 
 36 H        3.7390     3.8810     1.9740 H     1 <1>   0.0800 
 37 H        2.5090     4.9100     1.3350 H     1 <1>   0.0800 
 38 H        3.3310     4.8680    -0.8090 H     1 <1>   0.0800 
 39 H        4.8130     4.6850     0.1010 H     1 <1>   0.0800 
 40 H        4.8300     3.7020    -2.6250 H     1 <1>   0.0800 
 41 H        5.1990     2.0080    -2.3760 H     1 <1>   0.0800 
 42 H        6.7740     1.4010    -0.3770 H     1 <1>   0.1500 
 43 H        6.4500     5.3520    -2.0030 H     1 <1>   0.1500 
 44 H        9.6410     1.1330     2.5980 H     1 <1>   0.0800 
 45 H       10.6400     2.2920     1.7370 H     1 <1>   0.0800 
 46 H        9.1400     2.8200     2.5090 H     1 <1>   0.0800 
 47 H        9.0220     8.0240    -0.2140 H     1 <1>   0.0800 
 48 H       10.2280     6.7640    -0.0130 H     1 <1>   0.0800 
 49 H        8.7290     6.7080     0.9210 H     1 <1>   0.0800 
 50 H       12.1120     4.3360    -0.0450 H     1 <1>   0.0800 
 51 H       11.2000     3.0200    -0.7830 H     1 <1>   0.0800 
 52 H       11.0450     4.6660    -1.4100 H     1 <1>   0.0800 
@<TRIPOS>BOND
  1   1   2  2   
  2   2   3  1   
  3   2   4  1   
  4   3   5  1   
  5   4   6  1   
  6   4   7  1   
  7   4  25  1   
  8   5   8  1   
  9   5  26  1   
 10   5  27  1   
 11   6   9  1   
 12   6  28  1   
 13   6  29  1   
 14   7  10  1   
 15   7  30  1   
 16   7  31  1   
 17   8  32  1   
 18   8  33  1   
 19   8  34  1   
 20   9  11  1   
 21   9  12  1   
 22   9  35  1   
 23  10  11  1   
 24  10  36  1   
 25  10  37  1   
 26  11  38  1   
 27  11  39  1   
 28  12  13  1   
 29  12  40  1   
 30  12  41  1   
 31  13  14  ar  
 32  13  15  ar  
 33  14  16  ar  
 34  14  42  1   
 35  15  17  ar  
 36  15  43  1   
 37  16  18  1   
 38  16  19  ar  
 39  17  19  ar  
 40  17  20  1   
 41  18  21  1   
 42  19  22  1   
 43  20  23  1   
 44  21  44  1   
 45  21  45  1   
 46  21  46  1   
 47  22  24  1   
 48  23  47  1   
 49  23  48  1   
 50  23  49  1   
 51  24  50  1   
 52  24  51  1   
 53  24  52  1   
@<TRIPOS>SUBSTRUCTURE
  1 ****   9 GROUP 4 **** **** 0

# MOE 2024.06 (io_trps.svl 2023.06)
