@<TRIPOS>MOLECULE
NONAME
37 38 1 0 0 
SMALL
USER_CHARGES


@<TRIPOS>ATOM
  1 CL      -2.4370     1.5550     2.3590 Cl    1 <1>  -0.1770 
  2 C       -1.3290     2.5200     1.4090 C.ar  1 <1>   0.1770 
  3 C       -1.4700     2.5750     0.0270 C.ar  1 <1>  -0.1440 
  4 C       -0.3400     3.2230     2.0690 C.ar  1 <1>  -0.1500 
  5 C       -0.5870     3.3610    -0.7050 C.ar  1 <1>  -0.1500 
  6 C       -2.5580     1.7850    -0.6800 C.3   1 <1>   0.4870 
  7 C        0.5220     3.9990     1.3210 C.ar  1 <1>   0.1770 
  8 C        0.4080     4.0750    -0.0560 C.ar  1 <1>  -0.1500 
  9 N       -3.9020     2.2610    -0.2140 N.4   1 <1>  -0.9590 
 10 CL       1.7750     4.9030     2.1260 Cl    1 <1>  -0.1770 
 11 C       -4.9860     1.3210    -0.6830 C.3   1 <1>   0.3430 
 12 C       -4.1410     3.6700    -0.6370 C.3   1 <1>   0.3430 
 13 C       -6.3710     1.4770     0.0150 C.3   1 <1>   0.3430 
 14 C       -4.9480     4.4430     0.4090 C.3   1 <1>  -0.1600 
 15 N       -6.9030     2.8870     0.1640 N.4   1 <1>  -0.9590 
 16 C       -6.0960     3.7130     1.1100 C.3   1 <1>   0.3430 
 17 C       -8.3180     2.8230     0.6680 C.3   1 <1>   0.2630 
 18 H       -0.2350     3.1720     3.1380 H     1 <1>   0.1500 
 19 H       -0.6500     3.4260    -1.7800 H     1 <1>   0.1500 
 20 H       -2.4320     0.7400    -0.4450 H     1 <1>   0.0800 
 21 H       -2.4660     1.9050    -1.7480 H     1 <1>   0.0800 
 22 H        1.1020     4.6870    -0.6090 H     1 <1>   0.1500 
 23 H       -3.8180     2.2280     0.8150 H     1 <1>   0.4500 
 24 H       -4.6610     0.3040    -0.5290 H     1 <1>   0.0800 
 25 H       -5.1240     1.4440    -1.7450 H     1 <1>   0.0800 
 26 H       -4.6600     3.6810    -1.5830 H     1 <1>   0.0800 
 27 H       -3.2020     4.1830    -0.7810 H     1 <1>   0.0800 
 28 H       -6.3050     1.0260     0.9920 H     1 <1>   0.0800 
 29 H       -7.0840     0.8920    -0.5440 H     1 <1>   0.0800 
 30 H       -5.3400     5.3280    -0.0610 H     1 <1>   0.0800 
 31 H       -4.2680     4.7930     1.1670 H     1 <1>   0.0800 
 32 H       -6.9500     3.3630    -0.7510 H     1 <1>   0.4500 
 33 H       -6.7260     4.4540     1.5790 H     1 <1>   0.0800 
 34 H       -5.7060     3.0840     1.8960 H     1 <1>   0.0800 
 35 H       -8.3570     2.3490     1.6360 H     1 <1>   0.0800 
 36 H       -8.9380     2.2610    -0.0130 H     1 <1>   0.0800 
 37 H       -8.7320     3.8160     0.7580 H     1 <1>   0.0800 
@<TRIPOS>BOND
  1   1   2  1   
  2   2   3  ar  
  3   2   4  ar  
  4   3   5  ar  
  5   3   6  1   
  6   4   7  ar  
  7   4  18  1   
  8   5   8  ar  
  9   5  19  1   
 10   6   9  1   
 11   6  20  1   
 12   6  21  1   
 13   7   8  ar  
 14   7  10  1   
 15   8  22  1   
 16   9  11  1   
 17   9  12  1   
 18   9  23  1   
 19  11  13  1   
 20  11  24  1   
 21  11  25  1   
 22  12  14  1   
 23  12  26  1   
 24  12  27  1   
 25  13  15  1   
 26  13  28  1   
 27  13  29  1   
 28  14  16  1   
 29  14  30  1   
 30  14  31  1   
 31  15  16  1   
 32  15  17  1   
 33  15  32  1   
 34  16  33  1   
 35  16  34  1   
 36  17  35  1   
 37  17  36  1   
 38  17  37  1   
@<TRIPOS>SUBSTRUCTURE
  1 ****   9 GROUP 4 **** **** 0

# MOE 2024.06 (io_trps.svl 2023.06)
