@<TRIPOS>MOLECULE
NONAME
53 55 1 0 0 
SMALL
USER_CHARGES


@<TRIPOS>ATOM
  1 S        0.6760     0.6430     0.4450 S.3   1 <1>  -0.0800 
  2 C        0.3350    -1.0180     0.0430 C.2   1 <1>   0.1040 
  3 C       -0.8830     1.1910    -0.1530 C.2   1 <1>  -0.1400 
  4 N        1.3350    -1.9260     0.3370 N.am  1 <1>  -0.4940 
  5 C       -0.8970    -1.1260    -0.5340 C.2   1 <1>  -0.0860 
  6 C       -1.5880     0.1450    -0.6470 C.2   1 <1>  -0.1810 
  7 C       -1.0630     2.6910     0.0100 C.3   1 <1>  -0.0600 
  8 C        1.2580    -3.2530     0.6640 C.2   1 <1>   0.5690 
  9 C       -1.4380    -2.3610    -1.0350 C.2   1 <1>   0.7160 
 10 C       -2.9690     0.1160    -1.3180 C.3   1 <1>   0.0210 
 11 O        0.2420    -3.7760     1.0500 O.2   1 <1>  -0.5700 
 12 C        2.5160    -4.1000     0.5730 C.3   1 <1>   0.0440 
 13 O       -0.9940    -2.8370    -2.0690 O.2   1 <1>  -0.5700 
 14 N       -2.4780    -3.0050    -0.3990 N.am  1 <1>  -0.6600 
 15 C       -3.6670     1.4560    -1.5450 C.3   1 <1>  -0.2400 
 16 C        3.7290    -3.3150     0.0680 C.ar  1 <1>  -0.1430 
 17 C       -2.8150    -2.7620     1.0340 C.3   1 <1>   0.1400 
 18 C       -3.0780    -4.2580    -0.9330 C.3   1 <1>   0.1400 
 19 C        3.9080    -3.0250    -1.2820 C.ar  1 <1>  -0.1430 
 20 C        4.6580    -2.8640     0.9950 C.ar  1 <1>  -0.1500 
 21 C       -4.3280    -2.9080     1.2650 C.3   1 <1>   0.1200 
 22 C       -4.5780    -4.3200    -0.6000 C.3   1 <1>   0.1200 
 23 C        5.0140    -2.2880    -1.6780 C.ar  1 <1>  -0.1500 
 24 C        2.9220    -3.4880    -2.3500 C.3   1 <1>  -0.0970 
 25 C        5.7580    -2.1300     0.5900 C.ar  1 <1>  -0.1500 
 26 O       -4.7960    -4.1330     0.7710 O.3   1 <1>  -0.5600 
 27 C        5.9360    -1.8410    -0.7490 C.ar  1 <1>  -0.1500 
 28 H        2.2930    -1.5800     0.2310 H     1 <1>   0.3700 
 29 H       -0.3540     3.2070    -0.6130 H     1 <1>   0.0800 
 30 H       -0.8780     2.9640     1.0330 H     1 <1>   0.0800 
 31 H       -2.0440     3.0270    -0.2450 H     1 <1>   0.0800 
 32 H       -3.6250    -0.5010    -0.7320 H     1 <1>   0.0800 
 33 H       -2.8590    -0.3560    -2.2800 H     1 <1>   0.0800 
 34 H        2.3180    -4.9330    -0.0740 H     1 <1>   0.0800 
 35 H        2.7160    -4.5020     1.5480 H     1 <1>   0.0800 
 36 H       -3.9170     1.9110    -0.6030 H     1 <1>   0.0800 
 37 H       -4.5790     1.3000    -2.0920 H     1 <1>   0.0800 
 38 H       -3.0380     2.1120    -2.1190 H     1 <1>   0.0800 
 39 H       -2.5000    -1.7810     1.3410 H     1 <1>   0.0800 
 40 H       -2.2940    -3.4810     1.6430 H     1 <1>   0.0800 
 41 H       -2.5770    -5.1030    -0.4930 H     1 <1>   0.0800 
 42 H       -2.9470    -4.3100    -2.0000 H     1 <1>   0.0800 
 43 H        4.5340    -3.0790     2.0420 H     1 <1>   0.1500 
 44 H       -4.8640    -2.1140     0.7770 H     1 <1>   0.0800 
 45 H       -4.5450    -2.8760     2.3180 H     1 <1>   0.0800 
 46 H       -4.9760    -5.2820    -0.8670 H     1 <1>   0.0800 
 47 H       -5.1150    -3.5610    -1.1420 H     1 <1>   0.0800 
 48 H        5.1670    -2.0550    -2.7170 H     1 <1>   0.1500 
 49 H        1.9360    -3.1060    -2.1530 H     1 <1>   0.0800 
 50 H        2.8800    -4.5620    -2.3760 H     1 <1>   0.0800 
 51 H        3.2170    -3.1440    -3.3240 H     1 <1>   0.0800 
 52 H        6.4750    -1.7860     1.3150 H     1 <1>   0.1500 
 53 H        6.7910    -1.2710    -1.0690 H     1 <1>   0.1500 
@<TRIPOS>BOND
  1   1   2  1   
  2   1   3  1   
  3   2   4  1   
  4   2   5  2   
  5   3   6  2   
  6   3   7  1   
  7   4   8  am  
  8   4  28  1   
  9   5   6  1   
 10   5   9  1   
 11   6  10  1   
 12   7  29  1   
 13   7  30  1   
 14   7  31  1   
 15   8  11  2   
 16   8  12  1   
 17   9  13  2   
 18   9  14  am  
 19  10  15  1   
 20  10  32  1   
 21  10  33  1   
 22  12  16  1   
 23  12  34  1   
 24  12  35  1   
 25  14  17  1   
 26  14  18  1   
 27  15  36  1   
 28  15  37  1   
 29  15  38  1   
 30  16  19  ar  
 31  16  20  ar  
 32  17  21  1   
 33  17  39  1   
 34  17  40  1   
 35  18  22  1   
 36  18  41  1   
 37  18  42  1   
 38  19  23  ar  
 39  19  24  1   
 40  20  25  ar  
 41  20  43  1   
 42  21  26  1   
 43  21  44  1   
 44  21  45  1   
 45  22  26  1   
 46  22  46  1   
 47  22  47  1   
 48  23  27  ar  
 49  23  48  1   
 50  24  49  1   
 51  24  50  1   
 52  24  51  1   
 53  25  27  ar  
 54  25  52  1   
 55  27  53  1   
@<TRIPOS>SUBSTRUCTURE
  1 ****   2 GROUP 4 **** **** 0

# MOE 2024.06 (io_trps.svl 2023.06)
