@<TRIPOS>MOLECULE
NONAME
54 56 1 0 0 
SMALL
USER_CHARGES


@<TRIPOS>ATOM
  1 S       -0.3140    -0.5380    -1.7640 S.3   1 <1>  -0.0800 
  2 C        0.8530    -0.0350    -0.5460 C.2   1 <1>   0.1040 
  3 C       -1.2420     0.9270    -1.5430 C.2   1 <1>  -0.1400 
  4 N        1.9350    -0.8500    -0.2520 N.am  1 <1>  -0.4940 
  5 C        0.5240     1.1910    -0.0230 C.2   1 <1>  -0.0860 
  6 C       -0.6960     1.7080    -0.6060 C.2   1 <1>  -0.1810 
  7 C       -2.4980     1.1910    -2.3450 C.3   1 <1>   0.3000 
  8 C        2.3680    -2.0660    -0.7160 C.2   1 <1>   0.5690 
  9 C        1.3180     1.8600     0.9740 C.2   1 <1>   0.8060 
 10 C       -1.4070     3.0150    -0.2810 C.3   1 <1>   0.0210 
 11 O       -2.9210     2.5160    -2.1260 O.3   1 <1>  -0.5600 
 12 O        1.7860    -2.7370    -1.5330 O.2   1 <1>  -0.5700 
 13 C        3.6910    -2.5870    -0.1480 C.3   1 <1>   0.2700 
 14 O        2.1980     1.3040     1.6050 O.2   1 <1>  -0.5700 
 15 O        1.0940     3.1570     1.2170 O.3   1 <1>  -0.4300 
 16 C       -2.8660     3.0270    -0.8180 C.3   1 <1>   0.2800 
 17 N        4.2960    -1.6820     0.8980 N.pl3 1 <1>  -0.8690 
 18 C        1.8630     3.8770     2.1540 C.3   1 <1>   0.1200 
 19 C       -3.8190     2.2180     0.0760 C.3   1 <1>  -0.2400 
 20 C       -3.3800     4.4640    -0.9200 C.3   1 <1>  -0.2400 
 21 C        5.2820    -0.7650     0.5460 C.ar  1 <1>   0.1000 
 22 C        1.3420     5.3110     2.1860 C.3   1 <1>  -0.2400 
 23 C        5.2730    -0.0840    -0.6680 C.ar  1 <1>  -0.1500 
 24 C        6.3130    -0.5040     1.4390 C.ar  1 <1>  -0.1500 
 25 C        6.2730     0.8190    -0.9810 C.ar  1 <1>  -0.1500 
 26 C        7.3140     0.3980     1.1280 C.ar  1 <1>  -0.1500 
 27 C        7.3010     1.0660    -0.0860 C.ar  1 <1>  -0.1440 
 28 C        8.3990     2.0550    -0.4310 C.3   1 <1>  -0.0970 
 29 H        2.5850    -0.4790     0.4630 H     1 <1>   0.3700 
 30 H       -3.2870     0.5210    -2.0540 H     1 <1>   0.0800 
 31 H       -2.3050     1.0790    -3.3970 H     1 <1>   0.0800 
 32 H       -0.8510     3.8240    -0.7190 H     1 <1>   0.0800 
 33 H       -1.4320     3.1710     0.7810 H     1 <1>   0.0800 
 34 H        4.3840    -2.7140    -0.9610 H     1 <1>   0.0800 
 35 H        3.5120    -3.5540     0.2840 H     1 <1>   0.0800 
 36 H        4.4900    -2.1780     1.7750 H     1 <1>   0.4000 
 37 H        2.8950     3.8470     1.8450 H     1 <1>   0.0800 
 38 H        1.7600     3.4070     3.1180 H     1 <1>   0.0800 
 39 H       -3.9090     2.6890     1.0380 H     1 <1>   0.0800 
 40 H       -4.7960     2.1700    -0.3690 H     1 <1>   0.0800 
 41 H       -3.4520     1.2210     0.2370 H     1 <1>   0.0800 
 42 H       -2.7610     5.0330    -1.5890 H     1 <1>   0.0800 
 43 H       -3.3660     4.9370     0.0450 H     1 <1>   0.0800 
 44 H       -4.3890     4.4710    -1.2900 H     1 <1>   0.0800 
 45 H        1.4410     5.7630     1.2160 H     1 <1>   0.0800 
 46 H        1.9140     5.8870     2.8910 H     1 <1>   0.0800 
 47 H        0.3110     5.3250     2.4890 H     1 <1>   0.0800 
 48 H        4.4820    -0.2480    -1.3750 H     1 <1>   0.1500 
 49 H        6.3320    -1.0100     2.3860 H     1 <1>   0.1500 
 50 H        6.2470     1.3310    -1.9270 H     1 <1>   0.1500 
 51 H        8.1040     0.5800     1.8350 H     1 <1>   0.1500 
 52 H        8.0190     2.8290    -1.0730 H     1 <1>   0.0800 
 53 H        9.2000     1.5460    -0.9370 H     1 <1>   0.0800 
 54 H        8.7860     2.5140     0.4610 H     1 <1>   0.0800 
@<TRIPOS>BOND
  1   1   2  1   
  2   1   3  1   
  3   2   4  1   
  4   2   5  2   
  5   3   6  2   
  6   3   7  1   
  7   4   8  am  
  8   4  29  1   
  9   5   6  1   
 10   5   9  1   
 11   6  10  1   
 12   7  11  1   
 13   7  30  1   
 14   7  31  1   
 15   8  12  2   
 16   8  13  1   
 17   9  14  2   
 18   9  15  1   
 19  10  16  1   
 20  10  32  1   
 21  10  33  1   
 22  11  16  1   
 23  13  17  1   
 24  13  34  1   
 25  13  35  1   
 26  15  18  1   
 27  16  19  1   
 28  16  20  1   
 29  17  21  1   
 30  17  36  1   
 31  18  22  1   
 32  18  37  1   
 33  18  38  1   
 34  19  39  1   
 35  19  40  1   
 36  19  41  1   
 37  20  42  1   
 38  20  43  1   
 39  20  44  1   
 40  21  23  ar  
 41  21  24  ar  
 42  22  45  1   
 43  22  46  1   
 44  22  47  1   
 45  23  25  ar  
 46  23  48  1   
 47  24  26  ar  
 48  24  49  1   
 49  25  27  ar  
 50  25  50  1   
 51  26  27  ar  
 52  26  51  1   
 53  27  28  1   
 54  28  52  1   
 55  28  53  1   
 56  28  54  1   
@<TRIPOS>SUBSTRUCTURE
  1 ****   5 GROUP 4 **** **** 0

# MOE 2024.06 (io_trps.svl 2023.06)
