@<TRIPOS>MOLECULE
NONAME
39 41 1 0 0 
SMALL
USER_CHARGES


@<TRIPOS>ATOM
  1 O       -0.6500    -2.3630    -1.7700 O.2   1 <1>  -0.5700 
  2 C       -1.0310    -1.9330    -0.7090 C.2   1 <1>   0.6590 
  3 O       -0.2180    -1.8780     0.3420 O.3   1 <1>  -0.4300 
  4 C       -2.4660    -1.4160    -0.4890 C.3   1 <1>   0.0610 
  5 C        1.1260    -2.3030     0.2710 C.3   1 <1>   0.0400 
  6 C       -2.4400     0.0970    -0.1620 C.3   1 <1>  -0.1600 
  7 C       -3.1390    -2.1620     0.6920 C.3   1 <1>  -0.1600 
  8 C       -3.3470    -1.6240    -1.7500 C.3   1 <1>  -0.1600 
  9 C       -3.8650     0.6250     0.0860 C.3   1 <1>   0.3000 
 10 C       -4.5700    -1.6440     0.9330 C.3   1 <1>  -0.0800 
 11 C       -4.7750    -1.0990    -1.5190 C.3   1 <1>  -0.0800 
 12 N       -3.8450     2.0730     0.3530 N.am  1 <1>  -0.7300 
 13 C       -4.5110    -0.1390     1.2560 C.3   1 <1>  -0.1600 
 14 C       -4.7090     0.4010    -1.1810 C.3   1 <1>  -0.1600 
 15 C       -5.4080    -1.8580    -0.3400 C.3   1 <1>  -0.1600 
 16 C       -3.2280     2.7320     1.3660 C.2   1 <1>   0.5690 
 17 O       -2.5800     2.1880     2.2240 O.2   1 <1>  -0.5700 
 18 C       -3.3710     4.2300     1.4080 C.3   1 <1>  -0.1790 
 19 H        1.5800    -2.1610     1.2350 H     1 <1>   0.0800 
 20 H        1.6370    -1.7150    -0.4720 H     1 <1>   0.0800 
 21 H        1.1470    -3.3440    -0.0010 H     1 <1>   0.0800 
 22 H       -1.9880     0.6350    -0.9760 H     1 <1>   0.0800 
 23 H       -1.8400     0.2550     0.7160 H     1 <1>   0.0800 
 24 H       -2.5590    -2.0260     1.5890 H     1 <1>   0.0800 
 25 H       -3.1670    -3.2180     0.4840 H     1 <1>   0.0800 
 26 H       -3.3820    -2.6710    -1.9970 H     1 <1>   0.0800 
 27 H       -2.9060    -1.1120    -2.5890 H     1 <1>   0.0800 
 28 H       -5.0160    -2.1750     1.7570 H     1 <1>   0.0800 
 29 H       -5.3650    -1.2490    -2.4080 H     1 <1>   0.0800 
 30 H       -4.3740     2.6170    -0.3240 H     1 <1>   0.3700 
 31 H       -5.5040     0.2340     1.4340 H     1 <1>   0.0800 
 32 H       -3.9350     0.0040     2.1530 H     1 <1>   0.0800 
 33 H       -4.2740     0.9310    -2.0100 H     1 <1>   0.0800 
 34 H       -5.7070     0.7720    -1.0260 H     1 <1>   0.0800 
 35 H       -6.4130    -1.5100    -0.1770 H     1 <1>   0.0800 
 36 H       -5.4610    -2.9090    -0.5680 H     1 <1>   0.0800 
 37 H       -4.4080     4.4930     1.5010 H     1 <1>   0.0800 
 38 H       -2.9670     4.6580     0.5110 H     1 <1>   0.0800 
 39 H       -2.8350     4.6210     2.2530 H     1 <1>   0.0800 
@<TRIPOS>BOND
  1   1   2  2   
  2   2   3  1   
  3   2   4  1   
  4   3   5  1   
  5   4   6  1   
  6   4   7  1   
  7   4   8  1   
  8   5  19  1   
  9   5  20  1   
 10   5  21  1   
 11   6   9  1   
 12   6  22  1   
 13   6  23  1   
 14   7  10  1   
 15   7  24  1   
 16   7  25  1   
 17   8  11  1   
 18   8  26  1   
 19   8  27  1   
 20   9  12  1   
 21   9  13  1   
 22   9  14  1   
 23  10  13  1   
 24  10  15  1   
 25  10  28  1   
 26  11  14  1   
 27  11  15  1   
 28  11  29  1   
 29  12  16  am  
 30  12  30  1   
 31  13  31  1   
 32  13  32  1   
 33  14  33  1   
 34  14  34  1   
 35  15  35  1   
 36  15  36  1   
 37  16  17  2   
 38  16  18  1   
 39  18  37  1   
 40  18  38  1   
 41  18  39  1   
@<TRIPOS>SUBSTRUCTURE
  1 ****   6 GROUP 4 **** **** 0

# MOE 2024.06 (io_trps.svl 2023.06)
