@<TRIPOS>MOLECULE
NONAME
45 46 1 0 0 
SMALL
USER_CHARGES


@<TRIPOS>ATOM
  1 I        1.4540    -0.2630    -1.9900 I     1 <1>  -0.0810 
  2 C        0.5540    -2.0010    -1.1310 C.ar  1 <1>   0.0810 
  3 C        1.1790    -2.6890    -0.1010 C.ar  1 <1>   0.0830 
  4 C       -0.6670    -2.3980    -1.6440 C.ar  1 <1>  -0.1500 
  5 O        2.3670    -2.3010     0.4070 O.3   1 <1>  -0.5330 
  6 C        0.5610    -3.8200     0.4250 C.ar  1 <1>   0.0830 
  7 C       -1.2930    -3.5150    -1.1070 C.ar  1 <1>  -0.1430 
  8 O        1.2110    -4.4740     1.4290 O.3   1 <1>  -0.3630 
  9 C       -0.6730    -4.2260    -0.0820 C.ar  1 <1>  -0.1500 
 10 C       -2.6490    -3.9470    -1.6320 C.3   1 <1>   0.4860 
 11 C        0.8220    -5.7650     1.8480 C.3   1 <1>   0.0400 
 12 N       -3.6930    -3.5140    -0.6630 N.4   1 <1>  -0.9590 
 13 C       -5.0140    -4.1420    -0.9890 C.3   1 <1>   0.3430 
 14 C       -3.7840    -2.0230    -0.5820 C.3   1 <1>   0.3430 
 15 C       -6.0840    -3.7720     0.0450 C.3   1 <1>  -0.0190 
 16 C       -4.8110    -1.6250     0.4800 C.3   1 <1>  -0.1600 
 17 C       -7.4040    -4.3850    -0.3900 C.2   1 <1>   0.6590 
 18 C       -6.1900    -2.2430     0.2060 C.3   1 <1>  -0.1600 
 19 O       -7.5330    -4.8720    -1.4820 O.2   1 <1>  -0.5700 
 20 O       -8.3800    -4.3510     0.5020 O.3   1 <1>  -0.4300 
 21 C       -9.6560    -4.8820     0.2210 C.3   1 <1>   0.1200 
 22 C      -10.5350    -4.6730     1.4500 C.3   1 <1>  -0.2400 
 23 H       -1.1070    -1.8330    -2.4480 H     1 <1>   0.1500 
 24 H        2.6450    -2.9150     1.1160 H     1 <1>   0.4500 
 25 H       -1.1530    -5.0970     0.3220 H     1 <1>   0.1500 
 26 H       -2.6620    -5.0200    -1.7370 H     1 <1>   0.0800 
 27 H       -2.8300    -3.5080    -2.6000 H     1 <1>   0.0800 
 28 H        1.5420    -6.1130     2.5680 H     1 <1>   0.0800 
 29 H        0.8150    -6.4230     0.9970 H     1 <1>   0.0800 
 30 H       -0.1490    -5.7100     2.3060 H     1 <1>   0.0800 
 31 H       -3.3890    -3.8400     0.2630 H     1 <1>   0.4500 
 32 H       -4.9170    -5.2160    -1.0250 H     1 <1>   0.0800 
 33 H       -5.3430    -3.8090    -1.9610 H     1 <1>   0.0800 
 34 H       -4.0820    -1.6220    -1.5380 H     1 <1>   0.0800 
 35 H       -2.8240    -1.6040    -0.3230 H     1 <1>   0.0800 
 36 H       -5.8230    -4.2160     0.9880 H     1 <1>   0.0800 
 37 H       -4.9010    -0.5520     0.4920 H     1 <1>   0.0800 
 38 H       -4.4560    -1.9240     1.4510 H     1 <1>   0.0800 
 39 H       -6.8610    -2.0080     1.0160 H     1 <1>   0.0800 
 40 H       -6.6020    -1.8140    -0.6920 H     1 <1>   0.0800 
 41 H       -9.5500    -5.9300    -0.0040 H     1 <1>   0.0800 
 42 H      -10.0610    -4.3680    -0.6340 H     1 <1>   0.0800 
 43 H      -10.1170    -5.1840     2.2990 H     1 <1>   0.0800 
 44 H      -11.5170    -5.0690     1.2640 H     1 <1>   0.0800 
 45 H      -10.6270    -3.6240     1.6690 H     1 <1>   0.0800 
@<TRIPOS>BOND
  1   1   2  1   
  2   2   3  ar  
  3   2   4  ar  
  4   3   5  1   
  5   3   6  ar  
  6   4   7  ar  
  7   4  23  1   
  8   5  24  1   
  9   6   8  1   
 10   6   9  ar  
 11   7   9  ar  
 12   7  10  1   
 13   8  11  1   
 14   9  25  1   
 15  10  12  1   
 16  10  26  1   
 17  10  27  1   
 18  11  28  1   
 19  11  29  1   
 20  11  30  1   
 21  12  13  1   
 22  12  14  1   
 23  12  31  1   
 24  13  15  1   
 25  13  32  1   
 26  13  33  1   
 27  14  16  1   
 28  14  34  1   
 29  14  35  1   
 30  15  17  1   
 31  15  18  1   
 32  15  36  1   
 33  16  18  1   
 34  16  37  1   
 35  16  38  1   
 36  17  19  2   
 37  17  20  1   
 38  18  39  1   
 39  18  40  1   
 40  20  21  1   
 41  21  22  1   
 42  21  41  1   
 43  21  42  1   
 44  22  43  1   
 45  22  44  1   
 46  22  45  1   
@<TRIPOS>SUBSTRUCTURE
  1 ****  12 GROUP 4 **** **** 0

# MOE 2024.06 (io_trps.svl 2023.06)
