@<TRIPOS>MOLECULE
NONAME
26 27 1 0 0 
SMALL
USER_CHARGES


@<TRIPOS>ATOM
  1 F        0.8670     0.7810     0.9170 F     1 <1>  -0.3400 
  2 C        1.4250     1.2100    -0.2140 C.3   1 <1>   1.2010 
  3 F        0.6750     2.2330    -0.6200 F     1 <1>  -0.3400 
  4 F        1.2280     0.2420    -1.1080 F     1 <1>  -0.3400 
  5 C        2.9470     1.5720    -0.0390 C.2   1 <1>   0.3350 
  6 N        3.4700     2.7470    -0.2680 N.2   1 <1>  -0.7070 
  7 N        3.8400     0.6370     0.3770 N.2   1 <1>  -0.5650 
  8 N        4.7850     2.5840     0.0130 N.pl3 1 <1>   0.5610 
  9 C        4.9390     1.2960     0.3940 C.2   1 <1>   0.2700 
 10 C        5.9000     3.4570    -0.0670 C.2   1 <1>   0.5650 
 11 N        6.1800     0.7990     0.7520 N.pl3 1 <1>  -0.5840 
 12 O        5.7820     4.5700    -0.5550 O.2   1 <1>  -0.5700 
 13 C        7.1620     2.9460     0.3890 C.2   1 <1>   0.0290 
 14 C        7.2650     1.6250     0.7580 C.2   1 <1>  -0.0500 
 15 C        8.2840     3.8240     0.4450 C.2   1 <1>   0.7060 
 16 O        8.2550     4.9440     0.9120 O.2   1 <1>  -0.5700 
 17 O        9.4500     3.3400     0.0050 O.3   1 <1>  -0.4300 
 18 C       10.6240     4.1220     0.0280 C.3   1 <1>   0.1200 
 19 C       11.7640     3.2820    -0.5410 C.3   1 <1>  -0.2400 
 20 H        6.2150    -0.1940     1.0220 H     1 <1>   0.4000 
 21 H        8.2120     1.2070     1.0730 H     1 <1>   0.1500 
 22 H       10.8270     4.4090     1.0460 H     1 <1>   0.0800 
 23 H       10.4590     5.0040    -0.5690 H     1 <1>   0.0800 
 24 H       11.9120     2.4020     0.0580 H     1 <1>   0.0800 
 25 H       12.6730     3.8560    -0.5360 H     1 <1>   0.0800 
 26 H       11.5450     2.9970    -1.5540 H     1 <1>   0.0800 
@<TRIPOS>BOND
  1   1   2  1   
  2   2   3  1   
  3   2   4  1   
  4   2   5  1   
  5   5   6  2   
  6   5   7  1   
  7   6   8  1   
  8   7   9  2   
  9   8   9  1   
 10   8  10  1   
 11   9  11  1   
 12  10  12  2   
 13  10  13  1   
 14  11  14  1   
 15  11  20  1   
 16  13  14  2   
 17  13  15  1   
 18  14  21  1   
 19  15  16  2   
 20  15  17  1   
 21  17  18  1   
 22  18  19  1   
 23  18  22  1   
 24  18  23  1   
 25  19  24  1   
 26  19  25  1   
 27  19  26  1   
@<TRIPOS>SUBSTRUCTURE
  1 ****   8 GROUP 4 **** **** 0

# MOE 2024.06 (io_trps.svl 2023.06)
