@<TRIPOS>MOLECULE
NONAME
46 48 1 0 0 
SMALL
USER_CHARGES


@<TRIPOS>ATOM
  1 O       -1.0210     4.8710     0.5930 O.2   1 <1>  -0.5700 
  2 C       -0.1890     4.0870     0.1740 C.2   1 <1>   0.5440 
  3 N       -0.6540     3.0750    -0.6330 N.am  1 <1>  -0.6600 
  4 C        1.2050     4.1800     0.5780 C.ar  1 <1>   0.0860 
  5 C       -1.7350     3.3320    -1.6400 C.3   1 <1>   0.1400 
  6 C       -0.4780     1.6560    -0.2350 C.3   1 <1>   0.1400 
  7 C        2.2310     3.6490    -0.2030 C.ar  1 <1>  -0.1500 
  8 C        1.5690     4.8110     1.7700 C.ar  1 <1>  -0.1500 
  9 C       -3.1440     3.4610    -1.0180 C.3   1 <1>   0.3430 
 10 C       -1.4520     1.3030     0.8970 C.3   1 <1>  -0.1600 
 11 C        3.5540     3.7210     0.1940 C.ar  1 <1>   0.0820 
 12 C        2.8900     4.8980     2.1710 C.ar  1 <1>  -0.1500 
 13 N       -3.1880     3.0220     0.4120 N.4   1 <1>  -0.9590 
 14 C       -2.9320     1.5660     0.5930 C.3   1 <1>   0.3430 
 15 O        4.4930     3.1760    -0.6190 O.3   1 <1>  -0.1650 
 16 C        3.8880     4.3550     1.3840 C.ar  1 <1>  -0.1500 
 17 C       -4.4280     3.4840     1.0970 C.3   1 <1>   0.2630 
 18 C        5.5990     2.5620    -0.1280 C.ar  1 <1>   0.0820 
 19 C        5.5540     1.7590     1.0070 C.ar  1 <1>  -0.1500 
 20 C        6.7980     2.7370    -0.8010 C.ar  1 <1>  -0.1500 
 21 C        6.7080     1.1510     1.4690 C.ar  1 <1>  -0.1500 
 22 C        7.9500     2.1270    -0.3380 C.ar  1 <1>  -0.1500 
 23 C        7.9050     1.3350     0.7980 C.ar  1 <1>  -0.1500 
 24 H       -1.7390     2.5430    -2.3720 H     1 <1>   0.0800 
 25 H       -1.5100     4.2440    -2.1660 H     1 <1>   0.0800 
 26 H        0.5330     1.4950     0.1010 H     1 <1>   0.0800 
 27 H       -0.6430     1.0160    -1.0860 H     1 <1>   0.0800 
 28 H        2.0020     3.1740    -1.1400 H     1 <1>   0.1500 
 29 H        0.8020     5.2440     2.3900 H     1 <1>   0.1500 
 30 H       -3.8550     2.9050    -1.6060 H     1 <1>   0.0800 
 31 H       -3.4240     4.5010    -1.0690 H     1 <1>   0.0800 
 32 H       -1.1700     1.8290     1.7930 H     1 <1>   0.0800 
 33 H       -1.3390     0.2550     1.1090 H     1 <1>   0.0800 
 34 H        3.1440     5.3940     3.0930 H     1 <1>   0.1500 
 35 H       -2.3760     3.5350     0.8240 H     1 <1>   0.4500 
 36 H       -3.5160     1.2020     1.4230 H     1 <1>   0.0800 
 37 H       -3.2330     1.0230    -0.2880 H     1 <1>   0.0800 
 38 H        4.9170     4.4310     1.6900 H     1 <1>   0.1500 
 39 H       -5.2950     3.0120     0.6640 H     1 <1>   0.0800 
 40 H       -4.5280     4.5530     1.0000 H     1 <1>   0.0800 
 41 H       -4.3860     3.2400     2.1460 H     1 <1>   0.0800 
 42 H        4.6250     1.6060     1.5250 H     1 <1>   0.1500 
 43 H        6.8240     3.3520    -1.6830 H     1 <1>   0.1500 
 44 H        6.6750     0.5310     2.3490 H     1 <1>   0.1500 
 45 H        8.8810     2.2670    -0.8600 H     1 <1>   0.1500 
 46 H        8.8020     0.8620     1.1580 H     1 <1>   0.1500 
@<TRIPOS>BOND
  1   1   2  2   
  2   2   3  am  
  3   2   4  1   
  4   3   5  1   
  5   3   6  1   
  6   4   7  ar  
  7   4   8  ar  
  8   5   9  1   
  9   5  24  1   
 10   5  25  1   
 11   6  10  1   
 12   6  26  1   
 13   6  27  1   
 14   7  11  ar  
 15   7  28  1   
 16   8  12  ar  
 17   8  29  1   
 18   9  13  1   
 19   9  30  1   
 20   9  31  1   
 21  10  14  1   
 22  10  32  1   
 23  10  33  1   
 24  11  15  1   
 25  11  16  ar  
 26  12  16  ar  
 27  12  34  1   
 28  13  14  1   
 29  13  17  1   
 30  13  35  1   
 31  14  36  1   
 32  14  37  1   
 33  15  18  1   
 34  16  38  1   
 35  17  39  1   
 36  17  40  1   
 37  17  41  1   
 38  18  19  ar  
 39  18  20  ar  
 40  19  21  ar  
 41  19  42  1   
 42  20  22  ar  
 43  20  43  1   
 44  21  23  ar  
 45  21  44  1   
 46  22  23  ar  
 47  22  45  1   
 48  23  46  1   
@<TRIPOS>SUBSTRUCTURE
  1 ****   7 GROUP 4 **** **** 0

# MOE 2024.06 (io_trps.svl 2023.06)
