@<TRIPOS>MOLECULE
NONAME
43 45 1 0 0 
SMALL
USER_CHARGES


@<TRIPOS>ATOM
  1 O        0.9720    -0.6080     2.2940 O.3   1 <1>  -0.6800 
  2 C        2.1420    -1.2570     1.9330 C.3   1 <1>   0.1200 
  3 C        2.8560    -0.4060     0.8780 C.3   1 <1>   0.1100 
  4 N        4.1170    -1.0340     0.4200 N.3   1 <1>  -0.8100 
  5 C        3.8740    -2.1610    -0.5150 C.3   1 <1>   0.1100 
  6 C        4.9900    -0.0180    -0.2230 C.3   1 <1>   0.1100 
  7 C        5.1900    -2.8180    -1.0020 C.3   1 <1>   0.3430 
  8 C        6.3010    -0.6200    -0.7870 C.3   1 <1>   0.3430 
  9 N        6.3910    -2.0880    -0.4830 N.4   1 <1>  -0.9590 
 10 C        7.6890    -2.7080    -0.8560 C.3   1 <1>   0.4860 
 11 C        8.8150    -1.9410    -0.1890 C.ar  1 <1>  -0.1440 
 12 C        9.6800    -1.1770    -0.9290 C.ar  1 <1>  -0.1500 
 13 C        8.9700    -2.0040     1.2040 C.ar  1 <1>  -0.1500 
 14 C       10.7160    -0.4390    -0.3230 C.ar  1 <1>   0.0000 
 15 C        9.9670    -1.2970     1.8170 C.ar  1 <1>  -0.1500 
 16 C       10.8600    -0.4970     1.0790 C.ar  1 <1>   0.0000 
 17 C       11.6150     0.3550    -1.0640 C.ar  1 <1>  -0.1500 
 18 C       11.8930     0.2460     1.6860 C.ar  1 <1>  -0.1500 
 19 C       12.6090     1.0650    -0.4490 C.ar  1 <1>  -0.1500 
 20 C       12.7490     1.0110     0.9420 C.ar  1 <1>  -0.1500 
 21 H        0.5080    -1.0900     3.0070 H     1 <1>   0.4000 
 22 H        1.8760    -2.2240     1.5460 H     1 <1>   0.0800 
 23 H        2.7560    -1.3610     2.8110 H     1 <1>   0.0800 
 24 H        3.0770     0.5460     1.3300 H     1 <1>   0.0800 
 25 H        2.1990    -0.2400     0.0410 H     1 <1>   0.0800 
 26 H        3.3190    -1.8110    -1.3700 H     1 <1>   0.0800 
 27 H        3.2760    -2.9140    -0.0320 H     1 <1>   0.0800 
 28 H        5.2450     0.7370     0.5020 H     1 <1>   0.0800 
 29 H        4.4580     0.4710    -1.0210 H     1 <1>   0.0800 
 30 H        5.2000    -2.8280    -2.0800 H     1 <1>   0.0800 
 31 H        5.2110    -3.8410    -0.6640 H     1 <1>   0.0800 
 32 H        7.1360    -0.0980    -0.3480 H     1 <1>   0.0800 
 33 H        6.3370    -0.4590    -1.8510 H     1 <1>   0.0800 
 34 H        6.2900    -2.1140     0.5420 H     1 <1>   0.4500 
 35 H        7.8160    -2.6820    -1.9260 H     1 <1>   0.0800 
 36 H        7.7170    -3.7360    -0.5330 H     1 <1>   0.0800 
 37 H        9.5960    -1.1160    -2.0000 H     1 <1>   0.1500 
 38 H        8.3080    -2.6120     1.7970 H     1 <1>   0.1500 
 39 H       10.0920    -1.3430     2.8850 H     1 <1>   0.1500 
 40 H       11.5100     0.3960    -2.1330 H     1 <1>   0.1500 
 41 H       11.9980     0.2000     2.7550 H     1 <1>   0.1500 
 42 H       13.2930     1.6700    -1.0180 H     1 <1>   0.1500 
 43 H       13.5360     1.5750     1.4110 H     1 <1>   0.1500 
@<TRIPOS>BOND
  1   1   2  1   
  2   1  21  1   
  3   2   3  1   
  4   2  22  1   
  5   2  23  1   
  6   3   4  1   
  7   3  24  1   
  8   3  25  1   
  9   4   5  1   
 10   4   6  1   
 11   5   7  1   
 12   5  26  1   
 13   5  27  1   
 14   6   8  1   
 15   6  28  1   
 16   6  29  1   
 17   7   9  1   
 18   7  30  1   
 19   7  31  1   
 20   8   9  1   
 21   8  32  1   
 22   8  33  1   
 23   9  10  1   
 24   9  34  1   
 25  10  11  1   
 26  10  35  1   
 27  10  36  1   
 28  11  12  ar  
 29  11  13  ar  
 30  12  14  ar  
 31  12  37  1   
 32  13  15  ar  
 33  13  38  1   
 34  14  16  ar  
 35  14  17  ar  
 36  15  16  ar  
 37  15  39  1   
 38  16  18  ar  
 39  17  19  ar  
 40  17  40  1   
 41  18  20  ar  
 42  18  41  1   
 43  19  20  ar  
 44  19  42  1   
 45  20  43  1   
@<TRIPOS>SUBSTRUCTURE
  1 ****  11 GROUP 4 **** **** 0

# MOE 2024.06 (io_trps.svl 2023.06)
