@<TRIPOS>MOLECULE
NONAME
41 42 1 0 0 
SMALL
USER_CHARGES


@<TRIPOS>ATOM
  1 O        0.4310     0.1180    -0.0140 O.3   1 <1>  -0.3630 
  2 C        1.5280     0.8780    -0.2450 C.ar  1 <1>   0.0830 
  3 C       -0.5760     0.5250     0.8860 C.3   1 <1>   0.0400 
  4 C        2.4240     0.4060    -1.1890 C.ar  1 <1>  -0.1500 
  5 C        1.7900     2.0810     0.4040 C.ar  1 <1>  -0.1500 
  6 C        3.5730     1.1160    -1.4870 C.ar  1 <1>  -0.1500 
  7 C        2.9400     2.7920     0.1080 C.ar  1 <1>  -0.1500 
  8 C        3.8390     2.3120    -0.8350 C.ar  1 <1>  -0.1430 
  9 C        5.1060     3.0760    -1.1410 C.3   1 <1>   0.4860 
 10 N        6.1380     2.5460    -0.2270 N.4   1 <1>  -0.9060 
 11 C        7.4820     3.1190    -0.4080 C.3   1 <1>   0.4230 
 12 C        8.4940     2.2410     0.3470 C.3   1 <1>  -0.1600 
 13 C        7.5190     4.5700     0.0860 C.3   1 <1>  -0.1600 
 14 C        9.7470     3.0100     0.8180 C.3   1 <1>  -0.0800 
 15 C        8.9020     5.2030    -0.1600 C.3   1 <1>  -0.1600 
 16 C       10.0570     4.1850    -0.1200 C.3   1 <1>  -0.1600 
 17 C       10.9520     2.0700     0.9350 C.3   1 <1>  -0.2400 
 18 H       -1.3460    -0.2250     0.8860 H     1 <1>   0.0800 
 19 H       -0.9820     1.4640     0.5550 H     1 <1>   0.0800 
 20 H       -0.1510     0.6110     1.8710 H     1 <1>   0.0800 
 21 H        2.2070    -0.5220    -1.6890 H     1 <1>   0.1500 
 22 H        1.1090     2.4730     1.1360 H     1 <1>   0.1500 
 23 H        4.2430     0.7210    -2.2320 H     1 <1>   0.1500 
 24 H        3.1170     3.7220     0.6210 H     1 <1>   0.1500 
 25 H        4.9500     4.1290    -0.9740 H     1 <1>   0.0800 
 26 H        5.3910     2.9200    -2.1690 H     1 <1>   0.0800 
 27 H        6.1730     1.5290    -0.3610 H     1 <1>   0.4500 
 28 H        5.8230     2.6880     0.7370 H     1 <1>   0.4500 
 29 H        7.7450     3.1120    -1.4540 H     1 <1>   0.0800 
 30 H        8.7940     1.4480    -0.3170 H     1 <1>   0.0800 
 31 H        8.0440     1.7930     1.2160 H     1 <1>   0.0800 
 32 H        7.3190     4.5880     1.1440 H     1 <1>   0.0800 
 33 H        6.7810     5.1740    -0.4090 H     1 <1>   0.0800 
 34 H        9.5540     3.4170     1.7980 H     1 <1>   0.0800 
 35 H        9.0710     5.9600     0.5880 H     1 <1>   0.0800 
 36 H        8.9170     5.6970    -1.1170 H     1 <1>   0.0800 
 37 H       10.2410     3.8070    -1.1120 H     1 <1>   0.0800 
 38 H       10.9560     4.6860     0.2000 H     1 <1>   0.0800 
 39 H       11.2170     1.6600    -0.0230 H     1 <1>   0.0800 
 40 H       10.7330     1.2600     1.6090 H     1 <1>   0.0800 
 41 H       11.8030     2.6030     1.3220 H     1 <1>   0.0800 
@<TRIPOS>BOND
  1   1   2  1   
  2   1   3  1   
  3   2   4  ar  
  4   2   5  ar  
  5   3  18  1   
  6   3  19  1   
  7   3  20  1   
  8   4   6  ar  
  9   4  21  1   
 10   5   7  ar  
 11   5  22  1   
 12   6   8  ar  
 13   6  23  1   
 14   7   8  ar  
 15   7  24  1   
 16   8   9  1   
 17   9  10  1   
 18   9  25  1   
 19   9  26  1   
 20  10  11  1   
 21  10  27  1   
 22  10  28  1   
 23  11  12  1   
 24  11  13  1   
 25  11  29  1   
 26  12  14  1   
 27  12  30  1   
 28  12  31  1   
 29  13  15  1   
 30  13  32  1   
 31  13  33  1   
 32  14  16  1   
 33  14  17  1   
 34  14  34  1   
 35  15  16  1   
 36  15  35  1   
 37  15  36  1   
 38  16  37  1   
 39  16  38  1   
 40  17  39  1   
 41  17  40  1   
 42  17  41  1   
@<TRIPOS>SUBSTRUCTURE
  1 ****  10 GROUP 4 **** **** 0

# MOE 2024.06 (io_trps.svl 2023.06)
