@<TRIPOS>MOLECULE
NONAME
57 60 1 0 0 
SMALL
USER_CHARGES


@<TRIPOS>ATOM
  1 N       -6.5010    -3.3260    -0.4110 N.4   1 <1>  -0.9590 
  2 C       -5.1420    -3.3860    -1.0450 C.3   1 <1>   0.3430 
  3 C       -7.3880    -4.4320    -0.8680 C.3   1 <1>   0.3430 
  4 C       -7.1480    -1.9930    -0.6000 C.3   1 <1>   0.4860 
  5 C       -4.3950    -4.6910    -0.6820 C.3   1 <1>   0.0000 
  6 C       -6.7280    -5.7770    -0.5520 C.3   1 <1>  -0.1600 
  7 C       -6.2330    -0.9390    -0.0100 C.ar  1 <1>  -0.1440 
  8 C       -3.0590    -4.7140    -1.4830 C.3   1 <1>   0.3430 
  9 C       -5.2950    -5.8820    -1.1090 C.3   1 <1>  -0.1600 
 10 C       -4.0840    -4.7080     0.8370 C.3   1 <1>  -0.1600 
 11 C       -6.0640    -0.8430     1.3650 C.ar  1 <1>  -0.1500 
 12 C       -5.5450    -0.0690    -0.8450 C.ar  1 <1>  -0.1500 
 13 N       -1.9160    -5.4380    -0.8200 N.4   1 <1>  -0.9590 
 14 C       -3.2240    -5.9160     1.2610 C.3   1 <1>  -0.1600 
 15 C       -5.2010     0.0990     1.8960 C.ar  1 <1>  -0.1500 
 16 C       -4.6830     0.8730    -0.3110 C.ar  1 <1>  -0.1500 
 17 C       -2.3330    -6.4950     0.1520 C.3   1 <1>   0.3430 
 18 C       -0.9170    -4.5050    -0.2160 C.3   1 <1>   0.4860 
 19 C       -4.5080     0.9540     1.0580 C.ar  1 <1>  -0.1500 
 20 C        0.3460    -5.2860     0.0790 C.ar  1 <1>  -0.1440 
 21 C        1.1900    -5.6680    -0.9550 C.ar  1 <1>  -0.1500 
 22 C        0.6670    -5.6310     1.3850 C.ar  1 <1>  -0.1500 
 23 C        2.3330    -6.4010    -0.6860 C.ar  1 <1>  -0.1500 
 24 C        1.8100    -6.3630     1.6510 C.ar  1 <1>  -0.1500 
 25 C        2.6410    -6.7500     0.6160 C.ar  1 <1>  -0.1500 
 26 H       -6.3710    -3.4230     0.6030 H     1 <1>   0.4500 
 27 H       -4.5530    -2.5440    -0.7170 H     1 <1>   0.0800 
 28 H       -5.2500    -3.3180    -2.1160 H     1 <1>   0.0800 
 29 H       -7.5530    -4.3530    -1.9320 H     1 <1>   0.0800 
 30 H       -8.3450    -4.3740    -0.3730 H     1 <1>   0.0800 
 31 H       -8.1010    -1.9630    -0.0960 H     1 <1>   0.0800 
 32 H       -7.3090    -1.7970    -1.6480 H     1 <1>   0.0800 
 33 H       -7.3300    -6.5610    -0.9800 H     1 <1>   0.0800 
 34 H       -6.7320    -5.9340     0.5120 H     1 <1>   0.0800 
 35 H       -2.7500    -3.6990    -1.6740 H     1 <1>   0.0800 
 36 H       -3.2490    -5.1670    -2.4430 H     1 <1>   0.0800 
 37 H       -4.8800    -6.8250    -0.8020 H     1 <1>   0.0800 
 38 H       -5.3620    -5.9100    -2.1840 H     1 <1>   0.0800 
 39 H       -4.9810    -4.7020     1.4310 H     1 <1>   0.0800 
 40 H       -3.5460    -3.8090     1.0880 H     1 <1>   0.0800 
 41 H       -6.6010    -1.4860     2.0410 H     1 <1>   0.1500 
 42 H       -5.6720    -0.1030    -1.9140 H     1 <1>   0.1500 
 43 H       -1.3770    -5.9310    -1.5470 H     1 <1>   0.4500 
 44 H       -3.8660    -6.7090     1.6060 H     1 <1>   0.0800 
 45 H       -2.6110    -5.6400     2.1010 H     1 <1>   0.0800 
 46 H       -5.0710     0.1780     2.9630 H     1 <1>   0.1500 
 47 H       -4.1520     1.5530    -0.9570 H     1 <1>   0.1500 
 48 H       -1.4680    -6.9720     0.5890 H     1 <1>   0.0800 
 49 H       -2.8830    -7.2570    -0.3760 H     1 <1>   0.0800 
 50 H       -1.3030    -4.0700     0.6910 H     1 <1>   0.0800 
 51 H       -0.6820    -3.7100    -0.9050 H     1 <1>   0.0800 
 52 H       -3.8410     1.6920     1.4730 H     1 <1>   0.1500 
 53 H        0.9820    -5.4010    -1.9770 H     1 <1>   0.1500 
 54 H        0.0410    -5.3360     2.2100 H     1 <1>   0.1500 
 55 H        2.9900    -6.6980    -1.4870 H     1 <1>   0.1500 
 56 H        2.0600    -6.6310     2.6640 H     1 <1>   0.1500 
 57 H        3.5320    -7.3190     0.8240 H     1 <1>   0.1500 
@<TRIPOS>BOND
  1   1   2  1   
  2   1   3  1   
  3   1   4  1   
  4   1  26  1   
  5   2   5  1   
  6   2  27  1   
  7   2  28  1   
  8   3   6  1   
  9   3  29  1   
 10   3  30  1   
 11   4   7  1   
 12   4  31  1   
 13   4  32  1   
 14   5   8  1   
 15   5   9  1   
 16   5  10  1   
 17   6   9  1   
 18   6  33  1   
 19   6  34  1   
 20   7  11  ar  
 21   7  12  ar  
 22   8  13  1   
 23   8  35  1   
 24   8  36  1   
 25   9  37  1   
 26   9  38  1   
 27  10  14  1   
 28  10  39  1   
 29  10  40  1   
 30  11  15  ar  
 31  11  41  1   
 32  12  16  ar  
 33  12  42  1   
 34  13  17  1   
 35  13  18  1   
 36  13  43  1   
 37  14  17  1   
 38  14  44  1   
 39  14  45  1   
 40  15  19  ar  
 41  15  46  1   
 42  16  19  ar  
 43  16  47  1   
 44  17  48  1   
 45  17  49  1   
 46  18  20  1   
 47  18  50  1   
 48  18  51  1   
 49  19  52  1   
 50  20  21  ar  
 51  20  22  ar  
 52  21  23  ar  
 53  21  53  1   
 54  22  24  ar  
 55  22  54  1   
 56  23  25  ar  
 57  23  55  1   
 58  24  25  ar  
 59  24  56  1   
 60  25  57  1   
@<TRIPOS>SUBSTRUCTURE
  1 ****  10 GROUP 4 **** **** 0

# MOE 2024.06 (io_trps.svl 2023.06)
