@<TRIPOS>MOLECULE
NONAME
34 33 1 0 0 
SMALL
USER_CHARGES


@<TRIPOS>ATOM
  1 O       -0.4040     0.6210    -1.6010 O.2   1 <1>  -0.5700 
  2 C       -0.4860     1.4340    -0.7230 C.2   1 <1>   0.6590 
  3 O       -0.8070     2.6890    -1.0090 O.3   1 <1>  -0.4300 
  4 C       -0.2160     1.0170     0.7070 C.3   1 <1>  -0.1790 
  5 C       -0.9560     3.7610    -0.1040 C.3   1 <1>   0.3380 
  6 C       -2.3990     4.2680    -0.2140 C.2   1 <1>  -0.2760 
  7 C        0.1090     4.8170    -0.4400 C.3   1 <1>  -0.1600 
  8 C       -2.7760     5.4900    -0.6130 C.2   1 <1>  -0.3000 
  9 C       -3.4370     3.2270     0.1860 C.3   1 <1>  -0.1020 
 10 C        1.5510     4.2990    -0.2670 C.3   1 <1>  -0.1600 
 11 C        2.6320     5.3190    -0.6630 C.3   1 <1>   0.0580 
 12 C        3.9900     4.6280    -0.5990 C.2   1 <1>  -0.2880 
 13 C        2.5900     6.5820     0.2100 C.3   1 <1>  -0.2400 
 14 C        5.0130     4.8890     0.2230 C.2   1 <1>  -0.3000 
 15 H       -1.0930     1.1700     1.3070 H     1 <1>   0.0800 
 16 H        0.6090     1.5750     1.1050 H     1 <1>   0.0800 
 17 H        0.0350    -0.0280     0.7300 H     1 <1>   0.0800 
 18 H       -0.7930     3.4250     0.9030 H     1 <1>   0.0800 
 19 H       -0.0480     5.6560     0.2130 H     1 <1>   0.0800 
 20 H       -0.0400     5.1490    -1.4530 H     1 <1>   0.0800 
 21 H       -3.8020     5.8080    -0.6780 H     1 <1>   0.1500 
 22 H       -2.1100     6.2790    -0.9150 H     1 <1>   0.1500 
 23 H       -3.3900     2.3780    -0.4740 H     1 <1>   0.0800 
 24 H       -4.4300     3.6370     0.1270 H     1 <1>   0.0800 
 25 H       -3.2690     2.8960     1.1950 H     1 <1>   0.0800 
 26 H        1.6820     3.4270    -0.8830 H     1 <1>   0.0800 
 27 H        1.7100     4.0030     0.7550 H     1 <1>   0.0800 
 28 H        2.4690     5.6180    -1.6860 H     1 <1>   0.0800 
 29 H        4.0620     3.8420    -1.3340 H     1 <1>   0.1500 
 30 H        2.6660     6.3240     1.2520 H     1 <1>   0.0800 
 31 H        1.6790     7.1280     0.0520 H     1 <1>   0.0800 
 32 H        3.4080     7.2310    -0.0470 H     1 <1>   0.0800 
 33 H        5.9440     4.3500     0.2020 H     1 <1>   0.1500 
 34 H        5.0180     5.6520     0.9820 H     1 <1>   0.1500 
@<TRIPOS>BOND
  1   1   2  2   
  2   2   3  1   
  3   2   4  1   
  4   3   5  1   
  5   4  15  1   
  6   4  16  1   
  7   4  17  1   
  8   5   6  1   
  9   5   7  1   
 10   5  18  1   
 11   6   8  2   
 12   6   9  1   
 13   7  10  1   
 14   7  19  1   
 15   7  20  1   
 16   8  21  1   
 17   8  22  1   
 18   9  23  1   
 19   9  24  1   
 20   9  25  1   
 21  10  11  1   
 22  10  26  1   
 23  10  27  1   
 24  11  12  1   
 25  11  13  1   
 26  11  28  1   
 27  12  14  2   
 28  12  29  1   
 29  13  30  1   
 30  13  31  1   
 31  13  32  1   
 32  14  33  1   
 33  14  34  1   
@<TRIPOS>SUBSTRUCTURE
  1 ****   7 GROUP 4 **** **** 0

# MOE 2024.06 (io_trps.svl 2023.06)
