@<TRIPOS>MOLECULE
NONAME
31 32 1 0 0 
SMALL
USER_CHARGES


@<TRIPOS>ATOM
  1 BR       0.2790    -0.1320     1.4740 Br    1 <1>  -0.1110 
  2 C        1.8590    -0.8940     0.6910 C.ar  1 <1>   0.1110 
  3 C        3.0200    -0.9420     1.4380 C.ar  1 <1>  -0.1500 
  4 C        1.7980    -1.3790    -0.6020 C.ar  1 <1>  -0.1500 
  5 C        4.1530    -1.4910     0.8640 C.ar  1 <1>  -0.1500 
  6 C        2.9420    -1.9230    -1.1590 C.ar  1 <1>  -0.1500 
  7 C        4.1420    -1.9830    -0.4450 C.ar  1 <1>   0.0860 
  8 C        5.3360    -2.5480    -1.0450 C.2   1 <1>   0.5440 
  9 O        5.2690    -3.6370    -1.5880 O.2   1 <1>  -0.5700 
 10 N        6.5410    -1.8820    -1.0260 N.am  1 <1>  -0.6600 
 11 C        6.6740    -0.4040    -0.8980 C.3   1 <1>   0.1400 
 12 C        7.8360    -2.6020    -1.1640 C.3   1 <1>   0.1400 
 13 C        7.5660    -0.0540     0.2960 C.3   1 <1>  -0.1600 
 14 C        8.7340    -2.2790     0.0350 C.3   1 <1>  -0.1600 
 15 C        8.9330    -0.7610     0.2150 C.3   1 <1>  -0.1860 
 16 C        9.8050    -0.4470     1.4270 C.2   1 <1>   0.9060 
 17 O       10.9380     0.0020     1.2310 O.co2 1 <1>  -0.9000 
 18 O        9.3560    -0.6460     2.5620 O.co2 1 <1>  -0.9000 
 19 H        3.0360    -0.5620     2.4440 H     1 <1>   0.1500 
 20 H        0.8770    -1.3330    -1.1550 H     1 <1>   0.1500 
 21 H        5.0670    -1.5490     1.4320 H     1 <1>   0.1500 
 22 H        2.9200    -2.3150    -2.1610 H     1 <1>   0.1500 
 23 H        5.7120     0.0620    -0.7850 H     1 <1>   0.0800 
 24 H        7.1230    -0.0210    -1.7990 H     1 <1>   0.0800 
 25 H        8.3160    -2.2910    -2.0750 H     1 <1>   0.0800 
 26 H        7.6730    -3.6650    -1.2120 H     1 <1>   0.0800 
 27 H        7.0730    -0.3380     1.2090 H     1 <1>   0.0800 
 28 H        7.7210     1.0100     0.3320 H     1 <1>   0.0800 
 29 H        9.6930    -2.7480    -0.0960 H     1 <1>   0.0800 
 30 H        8.2930    -2.6890     0.9280 H     1 <1>   0.0800 
 31 H        9.4570    -0.3860    -0.6440 H     1 <1>   0.0800 
@<TRIPOS>BOND
  1   1   2  1   
  2   2   3  ar  
  3   2   4  ar  
  4   3   5  ar  
  5   3  19  1   
  6   4   6  ar  
  7   4  20  1   
  8   5   7  ar  
  9   5  21  1   
 10   6   7  ar  
 11   6  22  1   
 12   7   8  1   
 13   8   9  2   
 14   8  10  am  
 15  10  11  1   
 16  10  12  1   
 17  11  13  1   
 18  11  23  1   
 19  11  24  1   
 20  12  14  1   
 21  12  25  1   
 22  12  26  1   
 23  13  15  1   
 24  13  27  1   
 25  13  28  1   
 26  14  15  1   
 27  14  29  1   
 28  14  30  1   
 29  15  16  1   
 30  15  31  1   
 31  16  17  ar  
 32  16  18  ar  
@<TRIPOS>SUBSTRUCTURE
  1 ****  10 GROUP 4 **** **** 0

# MOE 2024.06 (io_trps.svl 2023.06)
