@<TRIPOS>MOLECULE
NONAME
43 44 1 0 0 
SMALL
USER_CHARGES


@<TRIPOS>ATOM
  1 F        1.3870    -0.3180    -2.3880 F     1 <1>  -0.1900 
  2 C        2.4460    -0.8070    -1.7970 C.ar  1 <1>   0.1900 
  3 C        3.5970    -0.9940    -2.5380 C.ar  1 <1>  -0.1500 
  4 C        2.3780    -1.1200    -0.4540 C.ar  1 <1>  -0.1500 
  5 C        4.7150    -1.5110    -1.9060 C.ar  1 <1>  -0.1500 
  6 C        3.5040    -1.6360     0.1640 C.ar  1 <1>  -0.1500 
  7 C        4.6870    -1.8350    -0.5500 C.ar  1 <1>   0.1170 
  8 N        5.8510    -2.3610     0.0320 N.am  1 <1>  -0.5470 
  9 C        6.2490    -2.4500     1.3380 C.2   1 <1>   0.5690 
 10 O        5.6230    -2.0070     2.2700 O.2   1 <1>  -0.5700 
 11 C        7.6020    -3.1070     1.6230 C.3   1 <1>   0.1710 
 12 N        8.7710    -2.3650     1.0570 N.3   1 <1>  -0.8100 
 13 C        8.8280    -0.9850     1.6190 C.3   1 <1>   0.1100 
 14 C       10.0370    -3.0820     1.3410 C.3   1 <1>   0.1100 
 15 C       10.1210    -0.2220     1.2420 C.3   1 <1>   0.3430 
 16 C       11.2770    -2.3470     0.7720 C.3   1 <1>   0.3430 
 17 N       10.9270    -0.9870     0.2350 N.4   1 <1>  -0.9590 
 18 C       12.0860    -0.2100    -0.2770 C.3   1 <1>   0.3430 
 19 C       12.6570    -0.8660    -1.5350 C.3   1 <1>  -0.1600 
 20 C       13.7750    -0.0100    -2.1400 C.3   1 <1>  -0.2400 
 21 H        3.6100    -0.7390    -3.5830 H     1 <1>   0.1500 
 22 H        1.4660    -0.9630     0.0920 H     1 <1>   0.1500 
 23 H        5.6140    -1.6610    -2.4740 H     1 <1>   0.1500 
 24 H        3.4530    -1.8870     1.2080 H     1 <1>   0.1500 
 25 H        6.5560    -2.6750    -0.6320 H     1 <1>   0.3700 
 26 H        7.5780    -4.1010     1.2130 H     1 <1>   0.0800 
 27 H        7.7110    -3.1970     2.6910 H     1 <1>   0.0800 
 28 H        8.7480    -1.0190     2.6930 H     1 <1>   0.0800 
 29 H        7.9840    -0.4200     1.2590 H     1 <1>   0.0800 
 30 H        9.9960    -4.0710     0.9150 H     1 <1>   0.0800 
 31 H       10.1590    -3.1970     2.4050 H     1 <1>   0.0800 
 32 H       10.7070    -0.0620     2.1320 H     1 <1>   0.0800 
 33 H        9.8530     0.7450     0.8480 H     1 <1>   0.0800 
 34 H       11.7010    -2.9490    -0.0150 H     1 <1>   0.0800 
 35 H       12.0200    -2.2590     1.5480 H     1 <1>   0.0800 
 36 H       10.2640    -1.1730    -0.5320 H     1 <1>   0.4500 
 37 H       12.8510    -0.1400     0.4800 H     1 <1>   0.0800 
 38 H       11.7670     0.7900    -0.5250 H     1 <1>   0.0800 
 39 H       11.8800    -0.9830    -2.2700 H     1 <1>   0.0800 
 40 H       13.0640    -1.8340    -1.3020 H     1 <1>   0.0800 
 41 H       13.4060     0.9630    -2.4180 H     1 <1>   0.0800 
 42 H       14.1650    -0.4840    -3.0240 H     1 <1>   0.0800 
 43 H       14.5860     0.1140    -1.4420 H     1 <1>   0.0800 
@<TRIPOS>BOND
  1   1   2  1   
  2   2   3  ar  
  3   2   4  ar  
  4   3   5  ar  
  5   3  21  1   
  6   4   6  ar  
  7   4  22  1   
  8   5   7  ar  
  9   5  23  1   
 10   6   7  ar  
 11   6  24  1   
 12   7   8  1   
 13   8   9  am  
 14   8  25  1   
 15   9  10  2   
 16   9  11  1   
 17  11  12  1   
 18  11  26  1   
 19  11  27  1   
 20  12  13  1   
 21  12  14  1   
 22  13  15  1   
 23  13  28  1   
 24  13  29  1   
 25  14  16  1   
 26  14  30  1   
 27  14  31  1   
 28  15  17  1   
 29  15  32  1   
 30  15  33  1   
 31  16  17  1   
 32  16  34  1   
 33  16  35  1   
 34  17  18  1   
 35  17  36  1   
 36  18  19  1   
 37  18  37  1   
 38  18  38  1   
 39  19  20  1   
 40  19  39  1   
 41  19  40  1   
 42  20  41  1   
 43  20  42  1   
 44  20  43  1   
@<TRIPOS>SUBSTRUCTURE
  1 ****   8 GROUP 4 **** **** 0

# MOE 2024.06 (io_trps.svl 2023.06)
