@<TRIPOS>MOLECULE
NONAME
33 33 1 0 0 
SMALL
USER_CHARGES


@<TRIPOS>ATOM
  1 S        0.1610    -0.0340     0.0620 S.o2  1 <1>   1.4470 
  2 O        0.3230    -0.8220    -1.1390 O.2   1 <1>  -0.6500 
  3 O        0.3840    -0.6340     1.3570 O.2   1 <1>  -0.6500 
  4 N        1.3060     1.1820    -0.0080 N.am  1 <1>  -0.9140 
  5 C       -1.4120     0.8670     0.0280 C.ar  1 <1>  -0.0090 
  6 C        2.6010     0.6630    -0.3560 C.3   1 <1>   0.3340 
  7 C       -2.3110     0.7940     1.0850 C.ar  1 <1>  -0.1500 
  8 C       -1.7550     1.6610    -1.0580 C.ar  1 <1>  -0.1500 
  9 C        3.5920     1.7690    -0.0800 C.2   1 <1>  -0.2880 
 10 C       -3.5080     1.4890     1.0580 C.ar  1 <1>  -0.1500 
 11 C       -2.9500     2.3580    -1.0910 C.ar  1 <1>  -0.1500 
 12 C        4.5780     1.7210     0.8220 C.2   1 <1>  -0.3000 
 13 C       -3.8400     2.2790    -0.0320 C.ar  1 <1>  -0.1430 
 14 C       -5.1550     3.0540    -0.0800 C.3   1 <1>   0.0630 
 15 C       -5.2260     4.0800     1.0560 C.3   1 <1>  -0.2400 
 16 C       -6.3540     2.1010    -0.0290 C.3   1 <1>  -0.2400 
 17 H        1.3970     1.4930     0.9560 H     1 <1>   0.4200 
 18 H        2.6250     0.3850    -1.3980 H     1 <1>   0.0800 
 19 H        2.8360    -0.2030     0.2430 H     1 <1>   0.0800 
 20 H       -2.0750     0.1850     1.9420 H     1 <1>   0.1500 
 21 H       -1.0750     1.7340    -1.8910 H     1 <1>   0.1500 
 22 H        3.4170     2.6300    -0.7040 H     1 <1>   0.1500 
 23 H       -4.1810     1.4090     1.8930 H     1 <1>   0.1500 
 24 H       -3.1820     2.9630    -1.9500 H     1 <1>   0.1500 
 25 H        5.2690     2.5280     0.9970 H     1 <1>   0.1500 
 26 H        4.7800     0.8780     1.4620 H     1 <1>   0.1500 
 27 H       -5.2050     3.5930    -1.0110 H     1 <1>   0.0800 
 28 H       -5.2320     3.5920     2.0140 H     1 <1>   0.0800 
 29 H       -6.1190     4.6720     0.9670 H     1 <1>   0.0800 
 30 H       -4.3750     4.7350     1.0100 H     1 <1>   0.0800 
 31 H       -6.3830     1.5710     0.9050 H     1 <1>   0.0800 
 32 H       -6.2840     1.3840    -0.8280 H     1 <1>   0.0800 
 33 H       -7.2710     2.6510    -0.1420 H     1 <1>   0.0800 
@<TRIPOS>BOND
  1   1   2  2   
  2   1   3  2   
  3   1   4  am  
  4   1   5  1   
  5   4   6  1   
  6   4  17  1   
  7   5   7  ar  
  8   5   8  ar  
  9   6   9  1   
 10   6  18  1   
 11   6  19  1   
 12   7  10  ar  
 13   7  20  1   
 14   8  11  ar  
 15   8  21  1   
 16   9  12  2   
 17   9  22  1   
 18  10  13  ar  
 19  10  23  1   
 20  11  13  ar  
 21  11  24  1   
 22  12  25  1   
 23  12  26  1   
 24  13  14  1   
 25  14  15  1   
 26  14  16  1   
 27  14  27  1   
 28  15  28  1   
 29  15  29  1   
 30  15  30  1   
 31  16  31  1   
 32  16  32  1   
 33  16  33  1   
@<TRIPOS>SUBSTRUCTURE
  1 ****   5 GROUP 4 **** **** 0

# MOE 2024.06 (io_trps.svl 2023.06)
