@<TRIPOS>MOLECULE
NONAME
53 55 1 0 0 
SMALL
USER_CHARGES


@<TRIPOS>ATOM
  1 O        0.6890    -0.1560    -0.5690 O.2   1 <1>  -0.5700 
  2 C        1.0280     0.9010    -0.0770 C.2   1 <1>   0.5440 
  3 N        0.0850     1.8540     0.2320 N.am  1 <1>  -0.5470 
  4 C        2.4370     1.1740     0.1500 C.ar  1 <1>   0.0860 
  5 C       -1.3190     1.7910     0.2270 C.ar  1 <1>   0.1170 
  6 C        3.4150     0.5540    -0.6280 C.ar  1 <1>  -0.1500 
  7 C        2.8820     2.0460     1.1470 C.ar  1 <1>  -0.1500 
  8 C       -2.0220     0.6050     0.4100 C.ar  1 <1>  -0.1500 
  9 C       -2.0420     2.9670     0.0570 C.ar  1 <1>  -0.1500 
 10 C        4.7620     0.7990    -0.4400 C.ar  1 <1>  -0.1500 
 11 C        4.2280     2.3010     1.3400 C.ar  1 <1>  -0.1500 
 12 C       -3.4050     0.5970     0.4180 C.ar  1 <1>  -0.1500 
 13 C       -3.4260     2.9640     0.0650 C.ar  1 <1>  -0.1500 
 14 C        5.1800     1.6830     0.5420 C.ar  1 <1>  -0.1430 
 15 C       -4.1190     1.7710     0.2460 C.ar  1 <1>   0.0830 
 16 C        6.6590     1.9630     0.7400 C.3   1 <1>   0.4860 
 17 O       -5.4760     1.6650     0.2710 O.3   1 <1>  -0.3630 
 18 N        6.9830     3.2740     0.1140 N.4   1 <1>  -0.9590 
 19 C       -6.3380     2.7460    -0.0050 C.3   1 <1>   0.2000 
 20 C        6.7580     3.2540    -1.3760 C.3   1 <1>   0.3430 
 21 C        8.3850     3.7140     0.4330 C.3   1 <1>   0.3430 
 22 C       -7.7080     2.3780     0.5580 C.3   1 <1>  -0.2400 
 23 C       -6.4060     2.9550    -1.5200 C.3   1 <1>  -0.2400 
 24 C        7.2010     4.5740    -2.0320 C.3   1 <1>   0.1200 
 25 C        8.7530     5.0120    -0.3110 C.3   1 <1>   0.1200 
 26 O        8.5230     4.8650    -1.6820 O.3   1 <1>  -0.5600 
 27 H        0.4580     2.7790     0.4260 H     1 <1>   0.3700 
 28 H        3.1010    -0.1390    -1.3930 H     1 <1>   0.1500 
 29 H        2.1640     2.5220     1.7930 H     1 <1>   0.1500 
 30 H       -1.4920    -0.3190     0.5490 H     1 <1>   0.1500 
 31 H       -1.5210     3.8950    -0.0870 H     1 <1>   0.1500 
 32 H        5.4730     0.2850    -1.0660 H     1 <1>   0.1500 
 33 H        4.5200     2.9770     2.1270 H     1 <1>   0.1500 
 34 H       -3.9400    -0.3250     0.5580 H     1 <1>   0.1500 
 35 H       -3.9410     3.8940    -0.0730 H     1 <1>   0.1500 
 36 H        7.2460     1.1790     0.2900 H     1 <1>   0.0800 
 37 H        6.8780     1.9900     1.7950 H     1 <1>   0.0800 
 38 H        6.3300     3.9630     0.5050 H     1 <1>   0.4500 
 39 H       -5.9750     3.6220     0.5020 H     1 <1>   0.0800 
 40 H        5.7150     3.0840    -1.5900 H     1 <1>   0.0800 
 41 H        7.3220     2.4500    -1.8200 H     1 <1>   0.0800 
 42 H        9.0850     2.9490     0.1370 H     1 <1>   0.0800 
 43 H        8.4940     3.8700     1.4940 H     1 <1>   0.0800 
 44 H       -8.0780     1.4830     0.0900 H     1 <1>   0.0800 
 45 H       -8.4070     3.1750     0.3790 H     1 <1>   0.0800 
 46 H       -7.6360     2.2200     1.6190 H     1 <1>   0.0800 
 47 H       -6.7570     2.0610    -2.0020 H     1 <1>   0.0800 
 48 H       -5.4380     3.2080    -1.9130 H     1 <1>   0.0800 
 49 H       -7.0830     3.7570    -1.7490 H     1 <1>   0.0800 
 50 H        6.5720     5.3930    -1.7290 H     1 <1>   0.0800 
 51 H        7.1580     4.4880    -3.1040 H     1 <1>   0.0800 
 52 H        9.7990     5.2320    -0.1790 H     1 <1>   0.0800 
 53 H        8.1800     5.8480     0.0500 H     1 <1>   0.0800 
@<TRIPOS>BOND
  1   1   2  2   
  2   2   3  am  
  3   2   4  1   
  4   3   5  1   
  5   3  27  1   
  6   4   6  ar  
  7   4   7  ar  
  8   5   8  ar  
  9   5   9  ar  
 10   6  10  ar  
 11   6  28  1   
 12   7  11  ar  
 13   7  29  1   
 14   8  12  ar  
 15   8  30  1   
 16   9  13  ar  
 17   9  31  1   
 18  10  14  ar  
 19  10  32  1   
 20  11  14  ar  
 21  11  33  1   
 22  12  15  ar  
 23  12  34  1   
 24  13  15  ar  
 25  13  35  1   
 26  14  16  1   
 27  15  17  1   
 28  16  18  1   
 29  16  36  1   
 30  16  37  1   
 31  17  19  1   
 32  18  20  1   
 33  18  21  1   
 34  18  38  1   
 35  19  22  1   
 36  19  23  1   
 37  19  39  1   
 38  20  24  1   
 39  20  40  1   
 40  20  41  1   
 41  21  25  1   
 42  21  42  1   
 43  21  43  1   
 44  22  44  1   
 45  22  45  1   
 46  22  46  1   
 47  23  47  1   
 48  23  48  1   
 49  23  49  1   
 50  24  26  1   
 51  24  50  1   
 52  24  51  1   
 53  25  26  1   
 54  25  52  1   
 55  25  53  1   
@<TRIPOS>SUBSTRUCTURE
  1 ****   3 GROUP 4 **** **** 0

# MOE 2024.06 (io_trps.svl 2023.06)
