@<TRIPOS>MOLECULE
NONAME
33 33 1 0 0 
SMALL
USER_CHARGES


@<TRIPOS>ATOM
  1 S        0.2210    -0.2270     1.2630 S.o2  1 <1>   1.4470 
  2 O        0.2020    -0.5780     2.6660 O.2   1 <1>  -0.6500 
  3 O        0.5000     1.1370     0.8730 O.2   1 <1>  -0.6500 
  4 N        1.4200    -1.1870     0.5490 N.am  1 <1>  -0.8490 
  5 C       -1.3040    -0.7800     0.4460 C.ar  1 <1>  -0.0090 
  6 C        2.7620    -0.6820     0.9490 C.3   1 <1>   0.2570 
  7 C        1.2790    -2.6080     0.8940 C.3   1 <1>   0.1960 
  8 C       -2.3840    -1.2610     1.1850 C.ar  1 <1>  -0.1500 
  9 C       -1.4200    -0.7360    -0.9420 C.ar  1 <1>  -0.1500 
 10 C        3.9390    -1.2840     0.1750 C.2   1 <1>   0.5690 
 11 C        1.4360    -3.4510    -0.3670 C.3   1 <1>  -0.2400 
 12 C       -3.5450    -1.6930     0.5640 C.ar  1 <1>  -0.1500 
 13 C       -2.5720    -1.1620    -1.5830 C.ar  1 <1>  -0.1500 
 14 O        4.7890    -1.8950     0.7800 O.2   1 <1>  -0.5700 
 15 N        3.9930    -1.1160    -1.1760 N.am  1 <1>  -0.7300 
 16 C       -3.6160    -1.6360    -0.8140 C.ar  1 <1>   0.1900 
 17 C        5.0620    -1.6260    -2.0690 C.3   1 <1>   0.0600 
 18 F       -4.7040    -2.0420    -1.4070 F     1 <1>  -0.1900 
 19 H        2.9170    -0.8520     2.0010 H     1 <1>   0.0800 
 20 H        2.8110     0.3810     0.7890 H     1 <1>   0.0800 
 21 H        0.3020    -2.8060     1.3050 H     1 <1>   0.0800 
 22 H        2.0040    -2.9050     1.6370 H     1 <1>   0.0800 
 23 H       -2.3150    -1.2990     2.2610 H     1 <1>   0.1500 
 24 H       -0.5950    -0.3610    -1.5260 H     1 <1>   0.1500 
 25 H        0.7310    -3.1390    -1.1150 H     1 <1>   0.0800 
 26 H        1.2490    -4.4830    -0.1320 H     1 <1>   0.0800 
 27 H        2.4330    -3.3770    -0.7590 H     1 <1>   0.0800 
 28 H       -4.3790    -2.0650     1.1320 H     1 <1>   0.1500 
 29 H       -2.6630    -1.1290    -2.6540 H     1 <1>   0.1500 
 30 H        3.1930    -0.6670    -1.6310 H     1 <1>   0.3700 
 31 H        4.6520    -2.3520    -2.7500 H     1 <1>   0.0800 
 32 H        5.8410    -2.0940    -1.4900 H     1 <1>   0.0800 
 33 H        5.4880    -0.8120    -2.6290 H     1 <1>   0.0800 
@<TRIPOS>BOND
  1   1   2  2   
  2   1   3  2   
  3   1   4  am  
  4   1   5  1   
  5   4   6  1   
  6   4   7  1   
  7   5   8  ar  
  8   5   9  ar  
  9   6  10  1   
 10   6  19  1   
 11   6  20  1   
 12   7  11  1   
 13   7  21  1   
 14   7  22  1   
 15   8  12  ar  
 16   8  23  1   
 17   9  13  ar  
 18   9  24  1   
 19  10  14  2   
 20  10  15  am  
 21  11  25  1   
 22  11  26  1   
 23  11  27  1   
 24  12  16  ar  
 25  12  28  1   
 26  13  16  ar  
 27  13  29  1   
 28  15  17  1   
 29  15  30  1   
 30  16  18  1   
 31  17  31  1   
 32  17  32  1   
 33  17  33  1   
@<TRIPOS>SUBSTRUCTURE
  1 ****   4 GROUP 4 **** **** 0

# MOE 2024.06 (io_trps.svl 2023.06)
