@<TRIPOS>MOLECULE
NONAME
43 43 1 0 0 
SMALL
USER_CHARGES


@<TRIPOS>ATOM
  1 CL      -0.1180     0.4650    -0.2750 Cl    1 <1>  -0.1770 
  2 C       -1.8450     0.2240    -0.1730 C.ar  1 <1>   0.1770 
  3 C       -2.6650     1.3040     0.0890 C.ar  1 <1>  -0.1500 
  4 C       -2.3630    -1.0430    -0.3580 C.ar  1 <1>  -0.1500 
  5 C       -4.0370     1.1210     0.1720 C.ar  1 <1>  -0.1440 
  6 C       -3.7320    -1.2320    -0.2770 C.ar  1 <1>  -0.1500 
  7 C       -4.5750    -0.1520    -0.0120 C.ar  1 <1>   0.0830 
  8 C       -4.9390     2.3130     0.4610 C.3   1 <1>  -0.0960 
  9 O       -5.9260    -0.2790     0.0780 O.3   1 <1>  -0.3630 
 10 C       -6.5700    -1.5170    -0.0920 C.3   1 <1>   0.1200 
 11 C       -8.0730    -1.2790     0.0750 C.3   1 <1>  -0.1600 
 12 C       -8.8810    -2.5750    -0.0910 C.3   1 <1>  -0.1600 
 13 C      -10.3740    -2.3000     0.0800 C.3   1 <1>   0.3430 
 14 N      -11.1240    -3.5690    -0.0900 N.4   1 <1>  -0.9060 
 15 C      -12.5800    -3.4310     0.0890 C.3   1 <1>   0.4230 
 16 C      -13.1570    -4.8390     0.2940 C.3   1 <1>  -0.1600 
 17 C      -13.1620    -2.7390    -1.1440 C.3   1 <1>  -0.2400 
 18 C      -14.6460    -4.8360     0.6710 C.3   1 <1>  -0.2400 
 19 H       -2.2240     2.2750     0.2270 H     1 <1>   0.1500 
 20 H       -1.7000    -1.8640    -0.5610 H     1 <1>   0.1500 
 21 H       -4.1160    -2.2230    -0.4230 H     1 <1>   0.1500 
 22 H       -4.3670     3.2160     0.5730 H     1 <1>   0.0800 
 23 H       -5.4890     2.1410     1.3690 H     1 <1>   0.0800 
 24 H       -5.6360     2.4460    -0.3460 H     1 <1>   0.0800 
 25 H       -6.1990    -2.1960     0.6570 H     1 <1>   0.0800 
 26 H       -6.3430    -1.8830    -1.0780 H     1 <1>   0.0800 
 27 H       -8.3860    -0.5570    -0.6600 H     1 <1>   0.0800 
 28 H       -8.2440    -0.8660     1.0560 H     1 <1>   0.0800 
 29 H       -8.5540    -3.2870     0.6480 H     1 <1>   0.0800 
 30 H       -8.6950    -2.9770    -1.0730 H     1 <1>   0.0800 
 31 H      -10.6920    -1.5780    -0.6550 H     1 <1>   0.0800 
 32 H      -10.5560    -1.8900     1.0610 H     1 <1>   0.0800 
 33 H      -10.7790    -4.2550     0.5900 H     1 <1>   0.4500 
 34 H      -10.9480    -3.9570    -1.0230 H     1 <1>   0.4500 
 35 H      -12.7840    -2.8400     0.9680 H     1 <1>   0.0800 
 36 H      -12.6270    -5.3240     1.0960 H     1 <1>   0.0800 
 37 H      -13.0290    -5.4270    -0.5990 H     1 <1>   0.0800 
 38 H      -13.0040    -3.3260    -2.0310 H     1 <1>   0.0800 
 39 H      -12.7380    -1.7610    -1.2820 H     1 <1>   0.0800 
 40 H      -14.2210    -2.6040    -1.0220 H     1 <1>   0.0800 
 41 H      -14.8230    -4.2280     1.5420 H     1 <1>   0.0800 
 42 H      -14.9670    -5.8390     0.8940 H     1 <1>   0.0800 
 43 H      -15.2560    -4.4710    -0.1370 H     1 <1>   0.0800 
@<TRIPOS>BOND
  1   1   2  1   
  2   2   3  ar  
  3   2   4  ar  
  4   3   5  ar  
  5   3  19  1   
  6   4   6  ar  
  7   4  20  1   
  8   5   7  ar  
  9   5   8  1   
 10   6   7  ar  
 11   6  21  1   
 12   7   9  1   
 13   8  22  1   
 14   8  23  1   
 15   8  24  1   
 16   9  10  1   
 17  10  11  1   
 18  10  25  1   
 19  10  26  1   
 20  11  12  1   
 21  11  27  1   
 22  11  28  1   
 23  12  13  1   
 24  12  29  1   
 25  12  30  1   
 26  13  14  1   
 27  13  31  1   
 28  13  32  1   
 29  14  15  1   
 30  14  33  1   
 31  14  34  1   
 32  15  16  1   
 33  15  17  1   
 34  15  35  1   
 35  16  18  1   
 36  16  36  1   
 37  16  37  1   
 38  17  38  1   
 39  17  39  1   
 40  17  40  1   
 41  18  41  1   
 42  18  42  1   
 43  18  43  1   
@<TRIPOS>SUBSTRUCTURE
  1 ****  10 GROUP 4 **** **** 0

# MOE 2024.06 (io_trps.svl 2023.06)
