@<TRIPOS>MOLECULE
NONAME
44 47 1 0 0 
SMALL
USER_CHARGES


@<TRIPOS>ATOM
  1 O       -0.0060     0.3850    -1.0310 O.2   1 <1>  -0.5700 
  2 C        0.5460     1.4250    -0.6830 C.2   1 <1>   0.7160 
  3 N        1.9260     1.4800    -0.5260 N.am  1 <1>  -0.2290 
  4 C       -0.1840     2.6060    -0.4190 C.2   1 <1>  -0.0860 
  5 C        2.5090     2.6880    -0.1090 C.2   1 <1>   0.4960 
  6 C        2.7410     0.3710    -0.7680 C.2   1 <1>  -0.0410 
  7 C        0.4900     3.7310    -0.0190 C.2   1 <1>  -0.0260 
  8 C       -1.5380     2.9540    -0.4670 C.2   1 <1>  -0.1500 
  9 N        1.8340     3.7830     0.1430 N.2   1 <1>  -0.5760 
 10 C        3.9250     2.7070     0.0460 C.2   1 <1>  -0.1360 
 11 C        4.0870     0.4190    -0.6120 C.2   1 <1>  -0.1500 
 12 N       -0.3980     4.7430     0.1760 N.pl3 1 <1>   0.0480 
 13 C       -1.6680     4.2650    -0.0900 C.2   1 <1>  -0.2370 
 14 C        4.7030     1.6200    -0.1930 C.2   1 <1>  -0.1500 
 15 C       -0.0490     6.1180     0.5870 C.3   1 <1>   0.0160 
 16 C       -2.8580     5.0690     0.0140 C.2   1 <1>   0.7150 
 17 O       -2.8470     6.2050    -0.4310 O.2   1 <1>  -0.5700 
 18 N       -4.0140     4.5980     0.6060 N.am  1 <1>  -0.6600 
 19 C       -4.0300     3.4650     1.5730 C.3   1 <1>   0.1400 
 20 C       -5.3110     5.2950     0.3970 C.3   1 <1>   0.1400 
 21 C       -5.1920     2.4820     1.3490 C.3   1 <1>  -0.1600 
 22 C       -6.0090     4.7100    -0.8350 C.3   1 <1>  -0.1600 
 23 C       -5.5970     2.2540    -0.1190 C.3   1 <1>  -0.1600 
 24 C       -6.5970     3.3040    -0.6300 C.3   1 <1>  -0.1600 
 25 H        2.2490    -0.5340    -1.0870 H     1 <1>   0.1500 
 26 H       -2.3230     2.2790    -0.7620 H     1 <1>   0.1500 
 27 H        4.3530     3.6390     0.3650 H     1 <1>   0.1500 
 28 H        4.7090    -0.4400    -0.8000 H     1 <1>   0.1500 
 29 H        5.7730     1.6430    -0.0730 H     1 <1>   0.1500 
 30 H        0.9820     6.1600     0.8850 H     1 <1>   0.0800 
 31 H       -0.6720     6.4150     1.4100 H     1 <1>   0.0800 
 32 H       -0.2090     6.7830    -0.2420 H     1 <1>   0.0800 
 33 H       -4.0970     3.8650     2.5710 H     1 <1>   0.0800 
 34 H       -3.1070     2.9180     1.5200 H     1 <1>   0.0800 
 35 H       -5.1390     6.3460     0.2410 H     1 <1>   0.0800 
 36 H       -5.9350     5.1950     1.2680 H     1 <1>   0.0800 
 37 H       -6.0460     2.8110     1.9130 H     1 <1>   0.0800 
 38 H       -4.8960     1.5390     1.7730 H     1 <1>   0.0800 
 39 H       -5.3130     4.7000    -1.6560 H     1 <1>   0.0800 
 40 H       -6.8110     5.3710    -1.1100 H     1 <1>   0.0800 
 41 H       -6.0730     1.2910    -0.1870 H     1 <1>   0.0800 
 42 H       -4.7270     2.2260    -0.7530 H     1 <1>   0.0800 
 43 H       -6.9870     2.9680    -1.5760 H     1 <1>   0.0800 
 44 H       -7.4290     3.3630     0.0500 H     1 <1>   0.0800 
@<TRIPOS>BOND
  1   1   2  2   
  2   2   3  am  
  3   2   4  1   
  4   3   5  1   
  5   3   6  1   
  6   4   7  2   
  7   4   8  1   
  8   5   9  2   
  9   5  10  1   
 10   6  11  2   
 11   6  25  1   
 12   7   9  1   
 13   7  12  1   
 14   8  13  2   
 15   8  26  1   
 16  10  14  2   
 17  10  27  1   
 18  11  14  1   
 19  11  28  1   
 20  12  13  1   
 21  12  15  1   
 22  13  16  1   
 23  14  29  1   
 24  15  30  1   
 25  15  31  1   
 26  15  32  1   
 27  16  17  2   
 28  16  18  am  
 29  18  19  1   
 30  18  20  1   
 31  19  21  1   
 32  19  33  1   
 33  19  34  1   
 34  20  22  1   
 35  20  35  1   
 36  20  36  1   
 37  21  23  1   
 38  21  37  1   
 39  21  38  1   
 40  22  24  1   
 41  22  39  1   
 42  22  40  1   
 43  23  24  1   
 44  23  41  1   
 45  23  42  1   
 46  24  43  1   
 47  24  44  1   
@<TRIPOS>SUBSTRUCTURE
  1 ****   8 GROUP 4 **** **** 0

# MOE 2024.06 (io_trps.svl 2023.06)
