@<TRIPOS>MOLECULE
NONAME
49 51 1 0 0 
SMALL
USER_CHARGES


@<TRIPOS>ATOM
  1 S        0.0760     0.1890     0.4230 S.o2  1 <1>   1.4470 
  2 O       -0.2870    -0.0050     1.8120 O.2   1 <1>  -0.6500 
  3 O       -0.0800    -0.9300    -0.4820 O.2   1 <1>  -0.6500 
  4 N       -0.8520     1.4880    -0.1740 N.am  1 <1>  -0.8490 
  5 C        1.8000     0.7440     0.2880 C.ar  1 <1>  -0.0090 
  6 C       -1.1650     2.5380     0.8310 C.3   1 <1>   0.2760 
  7 C       -2.0700     0.9620    -0.8160 C.3   1 <1>   0.1960 
  8 C        2.7260     0.4720     1.2890 C.ar  1 <1>  -0.1500 
  9 C        2.2480     1.4420    -0.8270 C.ar  1 <1>  -0.1500 
 10 C       -2.0070     3.6590     0.1830 C.3   1 <1>  -0.1600 
 11 C        0.1190     3.1520     1.4430 C.3   1 <1>  -0.1600 
 12 C       -2.8690     2.0620    -1.5100 C.3   1 <1>  -0.1600 
 13 C        4.0400     0.8940     1.1880 C.ar  1 <1>  -0.1500 
 14 C        3.5610     1.8660    -0.9330 C.ar  1 <1>  -0.1500 
 15 C       -3.2670     3.1440    -0.5130 C.3   1 <1>  -0.1600 
 16 C       -0.1110     4.3160     2.4220 C.3   1 <1>  -0.2400 
 17 C        4.4790     1.6030     0.0780 C.ar  1 <1>   0.1170 
 18 N        5.8200     2.0030     0.0100 N.am  1 <1>  -0.5470 
 19 C        6.4020     3.0630    -0.6500 C.2   1 <1>   0.5440 
 20 O        5.7090     3.9140    -1.1670 O.2   1 <1>  -0.5700 
 21 C        7.8430     3.1810    -0.6900 C.ar  1 <1>   0.0860 
 22 C        8.6610     2.0600    -0.8310 C.ar  1 <1>   0.1600 
 23 C        8.4780     4.4120    -0.5910 C.ar  1 <1>  -0.1500 
 24 N        9.9840     2.0600    -0.8480 N.ar  1 <1>  -0.6200 
 25 C        9.8550     4.4380    -0.6170 C.ar  1 <1>  -0.1500 
 26 C       10.5530     3.2500    -0.7420 C.ar  1 <1>   0.1600 
 27 H       -1.7460     2.0960     1.6250 H     1 <1>   0.0800 
 28 H       -2.6830     0.4700    -0.0780 H     1 <1>   0.0800 
 29 H       -1.8080     0.2380    -1.5690 H     1 <1>   0.0800 
 30 H        2.4080    -0.0750     2.1620 H     1 <1>   0.1500 
 31 H        1.5550     1.6600    -1.6230 H     1 <1>   0.1500 
 32 H       -1.3960     4.1860    -0.5290 H     1 <1>   0.0800 
 33 H       -2.3190     4.3630     0.9310 H     1 <1>   0.0800 
 34 H        0.7640     3.4930     0.6510 H     1 <1>   0.0800 
 35 H        0.6400     2.4040     2.0080 H     1 <1>   0.0800 
 36 H       -3.7510     1.6360    -1.9540 H     1 <1>   0.0800 
 37 H       -2.2720     2.4850    -2.2990 H     1 <1>   0.0800 
 38 H        4.7260     0.6710     1.9850 H     1 <1>   0.1500 
 39 H        3.8700     2.4050    -1.8110 H     1 <1>   0.1500 
 40 H       -3.7650     3.9510    -1.0220 H     1 <1>   0.0800 
 41 H       -3.9440     2.7350     0.2170 H     1 <1>   0.0800 
 42 H       -0.4530     5.1970     1.9090 H     1 <1>   0.0800 
 43 H        0.8150     4.5620     2.9120 H     1 <1>   0.0800 
 44 H       -0.8290     4.0400     3.1740 H     1 <1>   0.0800 
 45 H        6.4440     1.4880     0.6290 H     1 <1>   0.3700 
 46 H        8.1890     1.0990    -0.9420 H     1 <1>   0.1500 
 47 H        7.9000     5.3160    -0.4990 H     1 <1>   0.1500 
 48 H       10.3870     5.3700    -0.5410 H     1 <1>   0.1500 
 49 H       11.6300     3.2790    -0.7570 H     1 <1>   0.1500 
@<TRIPOS>BOND
  1   1   2  2   
  2   1   3  2   
  3   1   4  am  
  4   1   5  1   
  5   4   6  1   
  6   4   7  1   
  7   5   8  ar  
  8   5   9  ar  
  9   6  10  1   
 10   6  11  1   
 11   6  27  1   
 12   7  12  1   
 13   7  28  1   
 14   7  29  1   
 15   8  13  ar  
 16   8  30  1   
 17   9  14  ar  
 18   9  31  1   
 19  10  15  1   
 20  10  32  1   
 21  10  33  1   
 22  11  16  1   
 23  11  34  1   
 24  11  35  1   
 25  12  15  1   
 26  12  36  1   
 27  12  37  1   
 28  13  17  ar  
 29  13  38  1   
 30  14  17  ar  
 31  14  39  1   
 32  15  40  1   
 33  15  41  1   
 34  16  42  1   
 35  16  43  1   
 36  16  44  1   
 37  17  18  1   
 38  18  19  am  
 39  18  45  1   
 40  19  20  2   
 41  19  21  1   
 42  21  22  ar  
 43  21  23  ar  
 44  22  24  ar  
 45  22  46  1   
 46  23  25  ar  
 47  23  47  1   
 48  24  26  ar  
 49  25  26  ar  
 50  25  48  1   
 51  26  49  1   
@<TRIPOS>SUBSTRUCTURE
  1 ****  14 GROUP 4 **** **** 0

# MOE 2024.06 (io_trps.svl 2023.06)
