@<TRIPOS>MOLECULE
NONAME
43 46 1 0 0 
SMALL
USER_CHARGES


@<TRIPOS>ATOM
  1 S        0.1860    -0.2360     1.3150 S.o   1 <1>   0.3800 
  2 O        0.0440    -0.4190     2.8180 O.2   1 <1>  -0.5000 
  3 N        0.5000     1.4800     1.1140 N.am  1 <1>  -0.5730 
  4 C       -1.4530    -0.4550     0.5280 C.3   1 <1>   0.1940 
  5 C        1.3410     2.0860     0.1870 C.ar  1 <1>   0.1000 
  6 C       -2.5140     0.4890     1.1430 C.3   1 <1>  -0.1600 
  7 C       -1.3790    -0.1740    -0.9910 C.3   1 <1>  -0.1600 
  8 C       -1.9380    -1.9100     0.7230 C.3   1 <1>  -0.1600 
  9 C        1.5310     3.4630     0.2350 C.ar  1 <1>  -0.1500 
 10 C        1.9980     1.3590    -0.8010 C.ar  1 <1>  -0.1500 
 11 C       -3.8920     0.2810     0.4850 C.3   1 <1>  -0.0800 
 12 C       -2.7490    -0.3860    -1.6640 C.3   1 <1>  -0.0800 
 13 C       -3.3110    -2.1370     0.0620 C.3   1 <1>  -0.0800 
 14 C        2.3520     4.1060    -0.6760 C.ar  1 <1>  -0.1430 
 15 C        2.8180     1.9940    -1.7150 C.ar  1 <1>  -0.1500 
 16 C       -3.7770     0.5650    -1.0240 C.3   1 <1>  -0.1600 
 17 C       -4.3360    -1.1780     0.6940 C.3   1 <1>  -0.1600 
 18 C       -3.2000    -1.8410    -1.4450 C.3   1 <1>  -0.1600 
 19 C        2.9950     3.3650    -1.6540 C.ar  1 <1>  -0.1500 
 20 C        2.5550     5.6100    -0.6180 C.3   1 <1>  -0.0970 
 21 H        0.1810     2.0420     1.9050 H     1 <1>   0.4000 
 22 H       -2.2120     1.5120     1.0120 H     1 <1>   0.0800 
 23 H       -2.5860     0.3050     2.2010 H     1 <1>   0.0800 
 24 H       -1.0550     0.8390    -1.1560 H     1 <1>   0.0800 
 25 H       -0.6510    -0.8230    -1.4440 H     1 <1>   0.0800 
 26 H       -2.0050    -2.1250     1.7750 H     1 <1>   0.0800 
 27 H       -1.2190    -2.5900     0.3010 H     1 <1>   0.0800 
 28 H        1.0290     4.0320     0.9950 H     1 <1>   0.1500 
 29 H        1.8720     0.2950    -0.8590 H     1 <1>   0.1500 
 30 H       -4.6120     0.9480     0.9280 H     1 <1>   0.0800 
 31 H       -2.6720    -0.1820    -2.7190 H     1 <1>   0.0800 
 32 H       -3.6250    -3.1560     0.2120 H     1 <1>   0.0800 
 33 H        3.3210     1.4220    -2.4750 H     1 <1>   0.1500 
 34 H       -3.4760     1.5870    -1.1810 H     1 <1>   0.0800 
 35 H       -4.7360     0.4330    -1.4930 H     1 <1>   0.0800 
 36 H       -4.4280    -1.3840     1.7460 H     1 <1>   0.0800 
 37 H       -5.3030    -1.3320     0.2460 H     1 <1>   0.0800 
 38 H       -2.4940    -2.5150    -1.8990 H     1 <1>   0.0800 
 39 H       -4.1530    -2.0020    -1.9180 H     1 <1>   0.0800 
 40 H        3.6350     3.8520    -2.3680 H     1 <1>   0.1500 
 41 H        2.0320     6.0380     0.2180 H     1 <1>   0.0800 
 42 H        2.1880     6.0630    -1.5210 H     1 <1>   0.0800 
 43 H        3.6020     5.8330    -0.5160 H     1 <1>   0.0800 
@<TRIPOS>BOND
  1   1   2  2   
  2   1   3  am  
  3   1   4  1   
  4   3   5  1   
  5   3  21  1   
  6   4   6  1   
  7   4   7  1   
  8   4   8  1   
  9   5   9  ar  
 10   5  10  ar  
 11   6  11  1   
 12   6  22  1   
 13   6  23  1   
 14   7  12  1   
 15   7  24  1   
 16   7  25  1   
 17   8  13  1   
 18   8  26  1   
 19   8  27  1   
 20   9  14  ar  
 21   9  28  1   
 22  10  15  ar  
 23  10  29  1   
 24  11  16  1   
 25  11  17  1   
 26  11  30  1   
 27  12  16  1   
 28  12  18  1   
 29  12  31  1   
 30  13  17  1   
 31  13  18  1   
 32  13  32  1   
 33  14  19  ar  
 34  14  20  1   
 35  15  19  ar  
 36  15  33  1   
 37  16  34  1   
 38  16  35  1   
 39  17  36  1   
 40  17  37  1   
 41  18  38  1   
 42  18  39  1   
 43  19  40  1   
 44  20  41  1   
 45  20  42  1   
 46  20  43  1   
@<TRIPOS>SUBSTRUCTURE
  1 ****   7 GROUP 4 **** **** 0

# MOE 2024.06 (io_trps.svl 2023.06)
