@<TRIPOS>MOLECULE
NONAME
38 40 1 0 0 
SMALL
USER_CHARGES


@<TRIPOS>ATOM
  1 O       -6.4190     1.1960     1.1360 O.2   1 <1>  -0.5700 
  2 C       -5.7860     0.2800     0.6670 C.2   1 <1>   0.5690 
  3 N       -6.3310    -0.9300     0.3300 N.am  1 <1>  -0.5470 
  4 C       -4.2870     0.5300     0.4260 C.3   1 <1>   0.4040 
  5 C       -7.6510    -1.4140     0.4080 C.ar  1 <1>   0.1170 
  6 N       -3.9440     1.9960     0.2750 N.4   1 <1>  -0.9590 
  7 C       -7.9150    -2.6720    -0.1190 C.ar  1 <1>   0.0820 
  8 C       -8.7330    -0.7370     0.9760 C.ar  1 <1>  -0.1500 
  9 C       -4.5160     2.5700    -0.9790 C.3   1 <1>   0.3430 
 10 C       -2.4880     2.2700     0.4270 C.3   1 <1>   0.3430 
 11 O       -7.0480    -3.5120    -0.7100 O.3   1 <1>  -0.3630 
 12 C       -9.1600    -3.2250    -0.0910 C.ar  1 <1>   0.0820 
 13 C      -10.0050    -1.3020     1.0030 C.ar  1 <1>  -0.1500 
 14 C       -4.3030     4.0850    -0.9940 C.3   1 <1>  -0.1600 
 15 C       -2.2470     3.7810     0.4330 C.3   1 <1>  -0.1600 
 16 C       -7.7990    -4.6730    -1.0770 C.3   1 <1>   0.4000 
 17 O       -9.1410    -4.4350    -0.6610 O.3   1 <1>  -0.3620 
 18 C      -10.2340    -2.5620     0.4660 C.ar  1 <1>  -0.1500 
 19 C       -2.8240     4.4560    -0.8180 C.3   1 <1>  -0.1600 
 20 H       -5.7150    -1.6440    -0.0680 H     1 <1>   0.3700 
 21 H       -3.9780    -0.0060    -0.4550 H     1 <1>   0.0800 
 22 H       -3.7540     0.1260     1.2690 H     1 <1>   0.0800 
 23 H       -4.4500     2.4710     1.0420 H     1 <1>   0.4500 
 24 H       -8.6010     0.2380     1.4070 H     1 <1>   0.1500 
 25 H       -5.5740     2.3620    -1.0340 H     1 <1>   0.0800 
 26 H       -4.0350     2.1310    -1.8380 H     1 <1>   0.0800 
 27 H       -1.9440     1.8250    -0.3910 H     1 <1>   0.0800 
 28 H       -2.1240     1.8480     1.3500 H     1 <1>   0.0800 
 29 H      -10.8210    -0.7570     1.4470 H     1 <1>   0.1500 
 30 H       -4.8900     4.5320    -0.2100 H     1 <1>   0.0800 
 31 H       -4.6620     4.4810    -1.9280 H     1 <1>   0.0800 
 32 H       -1.1880     3.9690     0.4810 H     1 <1>   0.0800 
 33 H       -2.6890     4.2090     1.3160 H     1 <1>   0.0800 
 34 H       -7.4100    -5.5340    -0.5630 H     1 <1>   0.0800 
 35 H       -7.7700    -4.8010    -2.1450 H     1 <1>   0.0800 
 36 H      -11.2090    -3.0150     0.4770 H     1 <1>   0.1500 
 37 H       -2.7240     5.5260    -0.7360 H     1 <1>   0.0800 
 38 H       -2.2690     4.1420    -1.6870 H     1 <1>   0.0800 
@<TRIPOS>BOND
  1   1   2  2   
  2   2   3  am  
  3   2   4  1   
  4   3   5  1   
  5   3  20  1   
  6   4   6  1   
  7   4  21  1   
  8   4  22  1   
  9   5   7  ar  
 10   5   8  ar  
 11   6   9  1   
 12   6  10  1   
 13   6  23  1   
 14   7  11  1   
 15   7  12  ar  
 16   8  13  ar  
 17   8  24  1   
 18   9  14  1   
 19   9  25  1   
 20   9  26  1   
 21  10  15  1   
 22  10  27  1   
 23  10  28  1   
 24  11  16  1   
 25  12  17  1   
 26  12  18  ar  
 27  13  18  ar  
 28  13  29  1   
 29  14  19  1   
 30  14  30  1   
 31  14  31  1   
 32  15  19  1   
 33  15  32  1   
 34  15  33  1   
 35  16  17  1   
 36  16  34  1   
 37  16  35  1   
 38  18  36  1   
 39  19  37  1   
 40  19  38  1   
@<TRIPOS>SUBSTRUCTURE
  1 ****   3 GROUP 4 **** **** 0

# MOE 2024.06 (io_trps.svl 2023.06)
