@<TRIPOS>MOLECULE
NONAME
39 41 1 0 0 
SMALL
USER_CHARGES


@<TRIPOS>ATOM
  1 O       -0.8000     1.4620    -2.0900 O.2   1 <1>  -0.5700 
  2 C       -1.0390     1.7400    -0.9280 C.2   1 <1>   0.5440 
  3 N       -0.0240     2.2060    -0.1100 N.am  1 <1>  -0.6600 
  4 C       -2.4160     1.6620    -0.4770 C.ar  1 <1>   0.0860 
  5 C        1.4380     1.9400    -0.2570 C.3   1 <1>   0.2200 
  6 C       -0.2980     3.2590     0.9030 C.3   1 <1>   0.1400 
  7 C       -2.8050     0.9840     0.7060 C.ar  1 <1>   0.0820 
  8 C       -3.4160     2.2600    -1.2140 C.ar  1 <1>  -0.1500 
  9 C        2.1110     3.2150    -0.7800 C.3   1 <1>  -0.1600 
 10 C        1.7910     0.7140    -1.1020 C.3   1 <1>  -0.2400 
 11 C        0.3530     4.5700     0.4440 C.3   1 <1>  -0.1600 
 12 O       -1.8860     0.3500     1.4540 O.3   1 <1>  -0.5320 
 13 C       -4.1140     0.9460     1.1060 C.ar  1 <1>  -0.1500 
 14 C       -4.7690     2.2410    -0.8300 C.ar  1 <1>   0.0000 
 15 C        1.8550     4.4020     0.1650 C.3   1 <1>  -0.1600 
 16 C       -5.1270     1.5730     0.3590 C.ar  1 <1>   0.0000 
 17 C       -5.7810     2.8650    -1.5880 C.ar  1 <1>  -0.1500 
 18 C       -6.4830     1.5580     0.7470 C.ar  1 <1>  -0.1500 
 19 C       -7.0880     2.8350    -1.1890 C.ar  1 <1>  -0.1500 
 20 C       -7.4430     2.1740    -0.0070 C.ar  1 <1>  -0.1500 
 21 H        1.8220     1.7450     0.7300 H     1 <1>   0.0800 
 22 H        0.1090     2.9520     1.8510 H     1 <1>   0.0800 
 23 H       -1.3550     3.4100     1.0290 H     1 <1>   0.0800 
 24 H       -3.1540     2.7650    -2.1260 H     1 <1>   0.1500 
 25 H        1.7240     3.4340    -1.7600 H     1 <1>   0.0800 
 26 H        3.1700     3.0530    -0.8710 H     1 <1>   0.0800 
 27 H        1.6070     0.8980    -2.1450 H     1 <1>   0.0800 
 28 H        1.2140    -0.1340    -0.7800 H     1 <1>   0.0800 
 29 H        2.8330     0.4820    -0.9860 H     1 <1>   0.0800 
 30 H        0.2060     5.3240     1.1960 H     1 <1>   0.0800 
 31 H       -0.1430     4.9010    -0.4530 H     1 <1>   0.0800 
 32 H       -2.2560    -0.1560     2.1980 H     1 <1>   0.4500 
 33 H       -4.3990     0.4320     2.0040 H     1 <1>   0.1500 
 34 H        2.2490     5.3040    -0.2700 H     1 <1>   0.0800 
 35 H        2.3700     4.2300     1.0940 H     1 <1>   0.0800 
 36 H       -5.5020     3.3690    -2.4960 H     1 <1>   0.1500 
 37 H       -6.7530     1.0490     1.6540 H     1 <1>   0.1500 
 38 H       -7.8560     3.3130    -1.7720 H     1 <1>   0.1500 
 39 H       -8.4770     2.1600     0.2930 H     1 <1>   0.1500 
@<TRIPOS>BOND
  1   1   2  2   
  2   2   3  am  
  3   2   4  1   
  4   3   5  1   
  5   3   6  1   
  6   4   7  ar  
  7   4   8  ar  
  8   5   9  1   
  9   5  10  1   
 10   5  21  1   
 11   6  11  1   
 12   6  22  1   
 13   6  23  1   
 14   7  12  1   
 15   7  13  ar  
 16   8  14  ar  
 17   8  24  1   
 18   9  15  1   
 19   9  25  1   
 20   9  26  1   
 21  10  27  1   
 22  10  28  1   
 23  10  29  1   
 24  11  15  1   
 25  11  30  1   
 26  11  31  1   
 27  12  32  1   
 28  13  16  ar  
 29  13  33  1   
 30  14  16  ar  
 31  14  17  ar  
 32  15  34  1   
 33  15  35  1   
 34  16  18  ar  
 35  17  19  ar  
 36  17  36  1   
 37  18  20  ar  
 38  18  37  1   
 39  19  20  ar  
 40  19  38  1   
 41  20  39  1   
@<TRIPOS>SUBSTRUCTURE
  1 ****   4 GROUP 4 **** **** 0

# MOE 2024.06 (io_trps.svl 2023.06)
