@<TRIPOS>MOLECULE
NONAME
36 38 1 0 0 
SMALL
USER_CHARGES


@<TRIPOS>ATOM
  1 S       -4.9340     0.1440    -0.1010 S.3   1 <1>  -0.4600 
  2 C       -6.7480     0.2730    -0.0170 C.3   1 <1>   0.2300 
  3 C       -4.5280    -1.6050     0.1070 C.3   1 <1>   0.0700 
  4 C       -7.3910    -0.5510    -1.1480 C.3   1 <1>  -0.1600 
  5 C       -7.2510    -0.2170     1.3540 C.3   1 <1>  -0.1600 
  6 C       -7.0990     1.7590    -0.1950 C.3   1 <1>  -0.1600 
  7 C       -3.0020    -1.6930     0.0350 C.3   1 <1>   0.3430 
  8 C       -8.9230    -0.3830    -1.0870 C.3   1 <1>  -0.0800 
  9 C       -8.7820    -0.0490     1.4200 C.3   1 <1>  -0.0800 
 10 C       -8.6270     1.9400    -0.1340 C.3   1 <1>  -0.0800 
 11 N       -2.5250    -3.0960     0.1930 N.4   1 <1>  -0.8530 
 12 C       -9.4320    -0.8690     0.2860 C.3   1 <1>  -0.1600 
 13 C       -9.2780     1.1070    -1.2550 C.3   1 <1>  -0.1600 
 14 C       -9.1380     1.4390     1.2310 C.3   1 <1>  -0.1600 
 15 H       -5.0000    -2.1430    -0.6950 H     1 <1>   0.0800 
 16 H       -4.9050    -1.9110     1.0660 H     1 <1>   0.0800 
 17 H       -7.1520    -1.5910    -1.0430 H     1 <1>   0.0800 
 18 H       -7.0260    -0.2110    -2.1010 H     1 <1>   0.0800 
 19 H       -7.0100    -1.2520     1.5000 H     1 <1>   0.0800 
 20 H       -6.7890     0.3550     2.1390 H     1 <1>   0.0800 
 21 H       -6.7290     2.1110    -1.1420 H     1 <1>   0.0800 
 22 H       -6.6330     2.3410     0.5800 H     1 <1>   0.0800 
 23 H       -2.5830    -1.0730     0.8130 H     1 <1>   0.0800 
 24 H       -2.6770    -1.3000    -0.9150 H     1 <1>   0.0800 
 25 H       -9.3860    -0.9570    -1.8710 H     1 <1>   0.0800 
 26 H       -9.1480    -0.3910     2.3740 H     1 <1>   0.0800 
 27 H       -8.8770     2.9800    -0.2590 H     1 <1>   0.0800 
 28 H       -2.8050    -3.4850     1.1010 H     1 <1>   0.4500 
 29 H       -1.4990    -3.1320     0.1420 H     1 <1>   0.4500 
 30 H       -2.8950    -3.7010    -0.5500 H     1 <1>   0.4500 
 31 H       -9.2050    -1.9130     0.4130 H     1 <1>   0.0800 
 32 H      -10.5020    -0.7630     0.3320 H     1 <1>   0.0800 
 33 H       -8.9370     1.4580    -2.2140 H     1 <1>   0.0800 
 34 H      -10.3470     1.2320    -1.2260 H     1 <1>   0.0800 
 35 H       -8.7000     2.0230     2.0210 H     1 <1>   0.0800 
 36 H      -10.2060     1.5670     1.2880 H     1 <1>   0.0800 
@<TRIPOS>BOND
  1   1   2  1   
  2   1   3  1   
  3   2   4  1   
  4   2   5  1   
  5   2   6  1   
  6   3   7  1   
  7   3  15  1   
  8   3  16  1   
  9   4   8  1   
 10   4  17  1   
 11   4  18  1   
 12   5   9  1   
 13   5  19  1   
 14   5  20  1   
 15   6  10  1   
 16   6  21  1   
 17   6  22  1   
 18   7  11  1   
 19   7  23  1   
 20   7  24  1   
 21   8  12  1   
 22   8  13  1   
 23   8  25  1   
 24   9  12  1   
 25   9  14  1   
 26   9  26  1   
 27  10  13  1   
 28  10  14  1   
 29  10  27  1   
 30  11  28  1   
 31  11  29  1   
 32  11  30  1   
 33  12  31  1   
 34  12  32  1   
 35  13  33  1   
 36  13  34  1   
 37  14  35  1   
 38  14  36  1   
@<TRIPOS>SUBSTRUCTURE
  1 ****   2 GROUP 4 **** **** 0

# MOE 2024.06 (io_trps.svl 2023.06)
