@<TRIPOS>MOLECULE
NONAME
41 42 1 0 0 
SMALL
USER_CHARGES


@<TRIPOS>ATOM
  1 S       -1.0630    -0.5470    -0.2000 S.3   1 <1>  -0.2860 
  2 C        0.7130    -0.6110    -0.4610 C.2   1 <1>   0.2420 
  3 C       -1.6090     0.7310    -1.4370 C.3   1 <1>   0.1310 
  4 N        1.3390     0.1520    -1.2840 N.2   1 <1>  -0.3380 
  5 N        1.5050    -1.4590     0.1920 N.pl3 1 <1>   0.0480 
  6 C       -3.0980     1.0130    -1.3150 C.2   1 <1>   0.5690 
  7 N        2.6260    -0.1930    -1.1830 N.2   1 <1>  -0.3380 
  8 C        2.7100    -1.1430    -0.3080 C.2   1 <1>   0.0060 
  9 C        1.1220    -2.4670     1.2010 C.3   1 <1>   0.0160 
 10 O       -3.6970     1.3180    -2.3160 O.2   1 <1>  -0.5700 
 11 N       -3.6830     0.9090    -0.0890 N.am  1 <1>  -0.7300 
 12 C        4.0010    -1.8350     0.1200 C.3   1 <1>   0.0200 
 13 C       -5.0980     1.0270     0.3230 C.3   1 <1>   0.3640 
 14 C        5.2570    -1.2200    -0.5100 C.3   1 <1>  -0.2400 
 15 C       -5.7180    -0.3650     0.3820 C.ar  1 <1>  -0.1440 
 16 C       -5.9190     1.9810    -0.5440 C.3   1 <1>  -0.2400 
 17 C       -6.2510    -0.8420     1.5720 C.ar  1 <1>  -0.1500 
 18 C       -5.7600    -1.1740    -0.7450 C.ar  1 <1>  -0.1500 
 19 C       -6.8140    -2.1060     1.6340 C.ar  1 <1>  -0.1500 
 20 C       -6.3220    -2.4370    -0.6860 C.ar  1 <1>  -0.1500 
 21 C       -6.8490    -2.9040     0.5050 C.ar  1 <1>  -0.1500 
 22 H       -1.3760     0.3470    -2.4130 H     1 <1>   0.0800 
 23 H       -1.0420     1.6230    -1.2510 H     1 <1>   0.0800 
 24 H        0.9780    -1.9820     2.1490 H     1 <1>   0.0800 
 25 H        1.8930    -3.2110     1.2900 H     1 <1>   0.0800 
 26 H        0.2070    -2.9450     0.9010 H     1 <1>   0.0800 
 27 H       -3.1100     0.4780     0.6370 H     1 <1>   0.3700 
 28 H        3.9470    -2.8730    -0.1570 H     1 <1>   0.0800 
 29 H        4.0890    -1.7770     1.1900 H     1 <1>   0.0800 
 30 H       -5.0970     1.4370     1.3180 H     1 <1>   0.0800 
 31 H        5.2050    -1.2900    -1.5830 H     1 <1>   0.0800 
 32 H        6.1360    -1.7370    -0.1720 H     1 <1>   0.0800 
 33 H        5.3370    -0.1820    -0.2390 H     1 <1>   0.0800 
 34 H       -6.0710     1.5760    -1.5270 H     1 <1>   0.0800 
 35 H       -5.4250     2.9320    -0.6210 H     1 <1>   0.0800 
 36 H       -6.8850     2.1290    -0.0970 H     1 <1>   0.0800 
 37 H       -6.2340    -0.2340     2.4590 H     1 <1>   0.1500 
 38 H       -5.3510    -0.8180    -1.6770 H     1 <1>   0.1500 
 39 H       -7.2260    -2.4680     2.5590 H     1 <1>   0.1500 
 40 H       -6.3470    -3.0540    -1.5670 H     1 <1>   0.1500 
 41 H       -7.2870    -3.8860     0.5510 H     1 <1>   0.1500 
@<TRIPOS>BOND
  1   1   2  1   
  2   1   3  1   
  3   2   4  2   
  4   2   5  1   
  5   3   6  1   
  6   3  22  1   
  7   3  23  1   
  8   4   7  1   
  9   5   8  1   
 10   5   9  1   
 11   6  10  2   
 12   6  11  am  
 13   7   8  2   
 14   8  12  1   
 15   9  24  1   
 16   9  25  1   
 17   9  26  1   
 18  11  13  1   
 19  11  27  1   
 20  12  14  1   
 21  12  28  1   
 22  12  29  1   
 23  13  15  1   
 24  13  16  1   
 25  13  30  1   
 26  14  31  1   
 27  14  32  1   
 28  14  33  1   
 29  15  17  ar  
 30  15  18  ar  
 31  16  34  1   
 32  16  35  1   
 33  16  36  1   
 34  17  19  ar  
 35  17  37  1   
 36  18  20  ar  
 37  18  38  1   
 38  19  21  ar  
 39  19  39  1   
 40  20  21  ar  
 41  20  40  1   
 42  21  41  1   
@<TRIPOS>SUBSTRUCTURE
  1 ****   1 GROUP 4 **** **** 0

# MOE 2024.06 (io_trps.svl 2023.06)
