@<TRIPOS>MOLECULE
NONAME
58 62 1 0 0 
SMALL
USER_CHARGES


@<TRIPOS>ATOM
  1 O       -0.8140     1.4800    -1.8510 O.2   1 <1>  -0.5700 
  2 C       -1.2330     1.9010    -0.7960 C.2   1 <1>   0.5690 
  3 N       -2.5490     1.7660    -0.4350 N.am  1 <1>  -0.6600 
  4 C       -0.2110     2.5930     0.1280 C.3   1 <1>   0.4040 
  5 C       -3.5200     1.0690    -1.3500 C.3   1 <1>   0.1400 
  6 C       -3.1430     2.3010     0.8410 C.3   1 <1>   0.1400 
  7 N        1.2280     2.3160    -0.2490 N.4   1 <1>  -0.9590 
  8 C       -4.5940     0.2870    -0.5740 C.3   1 <1>   0.2090 
  9 C       -4.6760     2.4370     0.7760 C.3   1 <1>   0.2090 
 10 C        1.6430     0.9130    -0.0150 C.3   1 <1>   0.3430 
 11 C        2.2390     3.1790     0.4000 C.3   1 <1>   0.3430 
 12 N       -5.3350     1.1450     0.4070 N.pl3 1 <1>  -0.8380 
 13 C        3.1640     0.9640    -0.0580 C.3   1 <1>  -0.1600 
 14 C        3.5490     2.4220     0.2190 C.3   1 <1>  -0.1600 
 15 C       -6.7190     1.0790     0.4210 C.ar  1 <1>   0.4100 
 16 N       -7.3720     2.1610     0.0390 N.ar  1 <1>  -0.3100 
 17 C       -7.3840    -0.1140     0.7990 C.ar  1 <1>   0.0000 
 18 N       -8.6900     2.1560    -0.0580 N.ar  1 <1>  -0.3100 
 19 C       -8.7760    -0.1310     0.6470 C.ar  1 <1>   0.0000 
 20 C       -6.7490    -1.2630     1.3210 C.ar  1 <1>  -0.1500 
 21 C       -9.3840     1.0720     0.2190 C.ar  1 <1>   0.3100 
 22 C       -9.4750    -1.3270     0.9330 C.ar  1 <1>  -0.1500 
 23 C       -7.4500    -2.4010     1.6120 C.ar  1 <1>  -0.1500 
 24 C      -10.8170     1.1480     0.0790 C.ar  1 <1>   0.0000 
 25 C       -8.8300    -2.4370     1.4050 C.ar  1 <1>  -0.1500 
 26 C      -11.4120     1.2240    -1.1800 C.ar  1 <1>  -0.1500 
 27 C      -11.6540     1.1470     1.1940 C.ar  1 <1>  -0.1500 
 28 C      -12.7860     1.2810    -1.3210 C.ar  1 <1>  -0.1500 
 29 C      -13.0290     1.2040     1.0590 C.ar  1 <1>  -0.1500 
 30 C      -13.5980     1.2690    -0.2010 C.ar  1 <1>  -0.1500 
 31 H       -0.3880     2.2720     1.1390 H     1 <1>   0.0800 
 32 H       -0.3930     3.6510     0.0730 H     1 <1>   0.0800 
 33 H       -2.9970     0.3860    -1.9970 H     1 <1>   0.0800 
 34 H       -4.0060     1.8000    -1.9740 H     1 <1>   0.0800 
 35 H       -2.7300     3.2680     1.0620 H     1 <1>   0.0800 
 36 H       -2.9020     1.6330     1.6500 H     1 <1>   0.0800 
 37 H        1.2820     2.4450    -1.2740 H     1 <1>   0.4500 
 38 H       -4.1190    -0.5220    -0.0470 H     1 <1>   0.0800 
 39 H       -5.2910    -0.1410    -1.2750 H     1 <1>   0.0800 
 40 H       -4.9340     3.1910     0.0510 H     1 <1>   0.0800 
 41 H       -5.0520     2.7600     1.7320 H     1 <1>   0.0800 
 42 H        1.2420     0.2490    -0.7660 H     1 <1>   0.0800 
 43 H        1.3200     0.5900     0.9620 H     1 <1>   0.0800 
 44 H        2.0220     3.2730     1.4520 H     1 <1>   0.0800 
 45 H        2.2790     4.1580    -0.0510 H     1 <1>   0.0800 
 46 H        3.5080     0.6640    -1.0340 H     1 <1>   0.0800 
 47 H        3.5840     0.2920     0.6710 H     1 <1>   0.0800 
 48 H        4.1590     2.5130     1.1010 H     1 <1>   0.0800 
 49 H        4.0930     2.8300    -0.6150 H     1 <1>   0.0800 
 50 H       -5.6900    -1.2320     1.4960 H     1 <1>   0.1500 
 51 H      -10.5390    -1.3630     0.7790 H     1 <1>   0.1500 
 52 H       -6.9540    -3.2740     2.0030 H     1 <1>   0.1500 
 53 H       -9.3710    -3.3410     1.6240 H     1 <1>   0.1500 
 54 H      -10.7830     1.2400    -2.0540 H     1 <1>   0.1500 
 55 H      -11.2170     1.1030     2.1770 H     1 <1>   0.1500 
 56 H      -13.2240     1.3380    -2.3020 H     1 <1>   0.1500 
 57 H      -13.6570     1.2010     1.9330 H     1 <1>   0.1500 
 58 H      -14.6680     1.3140    -0.3090 H     1 <1>   0.1500 
@<TRIPOS>BOND
  1   1   2  2   
  2   2   3  am  
  3   2   4  1   
  4   3   5  1   
  5   3   6  1   
  6   4   7  1   
  7   4  31  1   
  8   4  32  1   
  9   5   8  1   
 10   5  33  1   
 11   5  34  1   
 12   6   9  1   
 13   6  35  1   
 14   6  36  1   
 15   7  10  1   
 16   7  11  1   
 17   7  37  1   
 18   8  12  1   
 19   8  38  1   
 20   8  39  1   
 21   9  12  1   
 22   9  40  1   
 23   9  41  1   
 24  10  13  1   
 25  10  42  1   
 26  10  43  1   
 27  11  14  1   
 28  11  44  1   
 29  11  45  1   
 30  12  15  1   
 31  13  14  1   
 32  13  46  1   
 33  13  47  1   
 34  14  48  1   
 35  14  49  1   
 36  15  16  ar  
 37  15  17  ar  
 38  16  18  ar  
 39  17  19  ar  
 40  17  20  ar  
 41  18  21  ar  
 42  19  21  ar  
 43  19  22  ar  
 44  20  23  ar  
 45  20  50  1   
 46  21  24  1   
 47  22  25  ar  
 48  22  51  1   
 49  23  25  ar  
 50  23  52  1   
 51  24  26  ar  
 52  24  27  ar  
 53  25  53  1   
 54  26  28  ar  
 55  26  54  1   
 56  27  29  ar  
 57  27  55  1   
 58  28  30  ar  
 59  28  56  1   
 60  29  30  ar  
 61  29  57  1   
 62  30  58  1   
@<TRIPOS>SUBSTRUCTURE
  1 ****  12 GROUP 4 **** **** 0

# MOE 2024.06 (io_trps.svl 2023.06)
