@<TRIPOS>MOLECULE
NONAME
38 40 1 0 0 
SMALL
USER_CHARGES


@<TRIPOS>ATOM
  1 F       -1.7720     1.1380     1.2400 F     1 <1>  -0.1900 
  2 C       -1.1700     2.1020     0.5960 C.ar  1 <1>   0.1900 
  3 C       -1.8260     2.7040    -0.4710 C.ar  1 <1>  -0.1440 
  4 C        0.0880     2.4860     1.0160 C.ar  1 <1>  -0.1500 
  5 C       -1.1860     3.7390    -1.1450 C.ar  1 <1>  -0.1500 
  6 C       -3.2050     2.2280    -0.8910 C.3   1 <1>   0.4870 
  7 C        0.6900     3.5170     0.3240 C.ar  1 <1>   0.1900 
  8 C        0.0790     4.1490    -0.7460 C.ar  1 <1>  -0.1500 
  9 N       -4.1780     2.5070     0.1970 N.4   1 <1>  -0.9590 
 10 F        1.8780     3.9120     0.6910 F     1 <1>  -0.1900 
 11 C       -5.5130     1.8490    -0.0740 C.3   1 <1>   0.3430 
 12 C       -4.3230     3.9930     0.4530 C.3   1 <1>   0.3430 
 13 C       -6.5760     2.1810     0.9950 C.3   1 <1>   0.2090 
 14 C       -5.3830     4.3050     1.5300 C.3   1 <1>   0.2090 
 15 N       -6.6750     3.6580     1.1600 N.pl3 1 <1>  -0.8380 
 16 C       -7.6110     4.3440     0.4190 C.ar  1 <1>   0.7200 
 17 N       -8.8430     3.8520     0.4200 N.ar  1 <1>  -0.6200 
 18 N       -7.1780     5.4060    -0.2580 N.ar  1 <1>  -0.6200 
 19 C       -9.7310     4.5190    -0.2770 C.ar  1 <1>   0.1600 
 20 C       -8.0890     6.0530    -0.9480 C.ar  1 <1>   0.1600 
 21 C       -9.4000     5.6460    -0.9890 C.ar  1 <1>  -0.1500 
 22 H        0.5820     2.0080     1.8430 H     1 <1>   0.1500 
 23 H       -1.6520     4.2320    -1.9830 H     1 <1>   0.1500 
 24 H       -3.1640     1.1680    -1.0840 H     1 <1>   0.0800 
 25 H       -3.5080     2.7280    -1.7960 H     1 <1>   0.0800 
 26 H        0.5930     4.9470    -1.2550 H     1 <1>   0.1500 
 27 H       -3.7870     2.0850     1.0520 H     1 <1>   0.4500 
 28 H       -5.3930     0.7800    -0.1270 H     1 <1>   0.0800 
 29 H       -5.8920     2.1870    -1.0250 H     1 <1>   0.0800 
 30 H       -4.6240     4.4900    -0.4550 H     1 <1>   0.0800 
 31 H       -3.3780     4.4100     0.7600 H     1 <1>   0.0800 
 32 H       -6.3110     1.7330     1.9370 H     1 <1>   0.0800 
 33 H       -7.5240     1.7650     0.6970 H     1 <1>   0.0800 
 34 H       -5.5090     5.3710     1.6220 H     1 <1>   0.0800 
 35 H       -5.0580     3.9370     2.4870 H     1 <1>   0.0800 
 36 H      -10.7460     4.1580    -0.2820 H     1 <1>   0.1500 
 37 H       -7.7850     6.9300    -1.4950 H     1 <1>   0.1500 
 38 H      -10.1370     6.1860    -1.5530 H     1 <1>   0.1500 
@<TRIPOS>BOND
  1   1   2  1   
  2   2   3  ar  
  3   2   4  ar  
  4   3   5  ar  
  5   3   6  1   
  6   4   7  ar  
  7   4  22  1   
  8   5   8  ar  
  9   5  23  1   
 10   6   9  1   
 11   6  24  1   
 12   6  25  1   
 13   7   8  ar  
 14   7  10  1   
 15   8  26  1   
 16   9  11  1   
 17   9  12  1   
 18   9  27  1   
 19  11  13  1   
 20  11  28  1   
 21  11  29  1   
 22  12  14  1   
 23  12  30  1   
 24  12  31  1   
 25  13  15  1   
 26  13  32  1   
 27  13  33  1   
 28  14  15  1   
 29  14  34  1   
 30  14  35  1   
 31  15  16  1   
 32  16  17  ar  
 33  16  18  ar  
 34  17  19  ar  
 35  18  20  ar  
 36  19  21  ar  
 37  19  36  1   
 38  20  21  ar  
 39  20  37  1   
 40  21  38  1   
@<TRIPOS>SUBSTRUCTURE
  1 ****  12 GROUP 4 **** **** 0

# MOE 2024.06 (io_trps.svl 2023.06)
