@<TRIPOS>MOLECULE
NONAME
49 51 1 0 0 
SMALL
USER_CHARGES


@<TRIPOS>ATOM
  1 O        0.0260    -0.7990     0.3630 O.2   1 <1>  -0.5700 
  2 C        1.2160    -0.9200     0.1280 C.2   1 <1>   0.7060 
  3 O        1.7030    -2.1600    -0.0090 O.3   1 <1>  -0.4300 
  4 C        2.1570     0.1350     0.0060 C.2   1 <1>  -0.1360 
  5 C        0.8730    -3.2930     0.1190 C.3   1 <1>   0.1200 
  6 C        2.0560     1.4970    -0.0310 C.2   1 <1>   0.0720 
  7 C        1.7320    -4.5350    -0.0920 C.3   1 <1>  -0.2400 
  8 N        3.2370     2.2180    -0.0080 N.pl3 1 <1>  -0.8690 
  9 C        0.8370     2.2950    -0.0650 C.ar  1 <1>   0.0280 
 10 C        3.3150     3.6570     0.3140 C.3   1 <1>   0.3690 
 11 C        0.8150     3.5530     0.5420 C.ar  1 <1>  -0.1430 
 12 C       -0.3200     1.8910    -0.7280 C.ar  1 <1>  -0.1500 
 13 C        2.1040     4.0520     1.1790 C.3   1 <1>  -0.0170 
 14 C        3.4310     4.4290    -0.9990 C.3   1 <1>  -0.1600 
 15 C        4.6580     3.9260     0.9890 C.3   1 <1>  -0.1600 
 16 C       -0.3270     4.3360     0.5470 C.ar  1 <1>  -0.1500 
 17 C       -1.4790     2.6520    -0.7160 C.ar  1 <1>   0.0830 
 18 C        4.9000     4.3090    -1.4230 C.3   1 <1>  -0.1600 
 19 C        5.6910     4.0100    -0.1430 C.3   1 <1>  -0.1600 
 20 C       -1.4900     3.8920    -0.0740 C.ar  1 <1>   0.0830 
 21 O       -2.6210     2.2160    -1.3190 O.3   1 <1>  -0.3630 
 22 O       -2.6420     4.6170    -0.0840 O.3   1 <1>  -0.3620 
 23 C       -2.8940     0.8320    -1.3600 C.3   1 <1>   0.0400 
 24 C       -2.7510     5.8600     0.5700 C.3   1 <1>   0.0400 
 25 H        3.1530    -0.2540    -0.0430 H     1 <1>   0.1500 
 26 H        0.4360    -3.2870     1.1040 H     1 <1>   0.0800 
 27 H        0.0930    -3.2310    -0.6220 H     1 <1>   0.0800 
 28 H        2.5110    -4.5770     0.6480 H     1 <1>   0.0800 
 29 H        2.1680    -4.5220    -1.0750 H     1 <1>   0.0800 
 30 H        1.1230    -5.4170     0.0010 H     1 <1>   0.0800 
 31 H        4.1470     1.7760    -0.1540 H     1 <1>   0.4000 
 32 H       -0.2990     0.9700    -1.2710 H     1 <1>   0.1500 
 33 H        2.2060     3.6050     2.1510 H     1 <1>   0.0800 
 34 H        2.0790     5.1190     1.3040 H     1 <1>   0.0800 
 35 H        2.7530     4.0520    -1.7450 H     1 <1>   0.0800 
 36 H        3.2040     5.4650    -0.8210 H     1 <1>   0.0800 
 37 H        4.6150     4.8800     1.4830 H     1 <1>   0.0800 
 38 H        4.9010     3.1730     1.7180 H     1 <1>   0.0800 
 39 H       -0.2970     5.2910     1.0330 H     1 <1>   0.1500 
 40 H        5.0080     3.4900    -2.1140 H     1 <1>   0.0800 
 41 H        5.2390     5.2130    -1.9000 H     1 <1>   0.0800 
 42 H        6.4180     4.7780     0.0580 H     1 <1>   0.0800 
 43 H        6.2030     3.0680    -0.2470 H     1 <1>   0.0800 
 44 H       -3.9320     0.7040    -1.6060 H     1 <1>   0.0800 
 45 H       -2.6880     0.4050    -0.3930 H     1 <1>   0.0800 
 46 H       -2.2800     0.3760    -2.1160 H     1 <1>   0.0800 
 47 H       -3.7550     6.2200     0.4340 H     1 <1>   0.0800 
 48 H       -2.0530     6.5480     0.1270 H     1 <1>   0.0800 
 49 H       -2.5500     5.7210     1.6170 H     1 <1>   0.0800 
@<TRIPOS>BOND
  1   1   2  2   
  2   2   3  1   
  3   2   4  1   
  4   3   5  1   
  5   4   6  2   
  6   4  25  1   
  7   5   7  1   
  8   5  26  1   
  9   5  27  1   
 10   6   8  1   
 11   6   9  1   
 12   7  28  1   
 13   7  29  1   
 14   7  30  1   
 15   8  10  1   
 16   8  31  1   
 17   9  11  ar  
 18   9  12  ar  
 19  10  13  1   
 20  10  14  1   
 21  10  15  1   
 22  11  13  1   
 23  11  16  ar  
 24  12  17  ar  
 25  12  32  1   
 26  13  33  1   
 27  13  34  1   
 28  14  18  1   
 29  14  35  1   
 30  14  36  1   
 31  15  19  1   
 32  15  37  1   
 33  15  38  1   
 34  16  20  ar  
 35  16  39  1   
 36  17  20  ar  
 37  17  21  1   
 38  18  19  1   
 39  18  40  1   
 40  18  41  1   
 41  19  42  1   
 42  19  43  1   
 43  20  22  1   
 44  21  23  1   
 45  22  24  1   
 46  23  44  1   
 47  23  45  1   
 48  23  46  1   
 49  24  47  1   
 50  24  48  1   
 51  24  49  1   
@<TRIPOS>SUBSTRUCTURE
  1 ****   9 GROUP 4 **** **** 0

# MOE 2024.06 (io_trps.svl 2023.06)
