@<TRIPOS>MOLECULE
NONAME
54 56 1 0 0 
SMALL
USER_CHARGES


@<TRIPOS>ATOM
  1 S        1.4600    -0.1150    -1.1310 S.o2  1 <1>   1.4470 
  2 O        2.8960    -0.2390    -1.2170 O.2   1 <1>  -0.6500 
  3 O        0.7000     0.5210    -2.1800 O.2   1 <1>  -0.6500 
  4 N        1.2270     0.7640     0.2770 N.am  1 <1>  -0.9140 
  5 C        0.7200    -1.7200    -0.7230 C.ar  1 <1>  -0.0090 
  6 C        1.1690     2.2220     0.0460 C.3   1 <1>   0.3370 
  7 C       -0.6060    -1.8080    -0.3150 C.ar  1 <1>  -0.1500 
  8 C        1.4540    -2.8980    -0.8080 C.ar  1 <1>  -0.1500 
  9 C        2.4920     2.8330    -0.4920 C.2   1 <1>   0.5690 
 10 C        0.6440     2.9410     1.3210 C.3   1 <1>  -0.0800 
 11 C       -1.1820    -3.0270     0.0010 C.ar  1 <1>  -0.1500 
 12 C        0.8860    -4.1220    -0.4940 C.ar  1 <1>  -0.1500 
 13 O        2.4010     3.5280    -1.4790 O.2   1 <1>  -0.5700 
 14 N        3.7240     2.6110     0.0930 N.am  1 <1>  -0.6600 
 15 C       -0.7130     2.3780     1.7860 C.3   1 <1>  -0.2400 
 16 C        0.4890     4.4550     1.0970 C.3   1 <1>  -0.2400 
 17 C       -0.4340    -4.1870    -0.0890 C.ar  1 <1>  -0.1500 
 18 C        4.9750     3.0220    -0.6230 C.3   1 <1>   0.1400 
 19 C        4.0100     1.9670     1.4170 C.3   1 <1>   0.1400 
 20 C        5.9340     1.8320    -0.7850 C.3   1 <1>   0.1400 
 21 C        4.9870     0.7880     1.2700 C.3   1 <1>   0.1400 
 22 N        6.2200     1.2110     0.5440 N.am  1 <1>  -0.6600 
 23 C        7.4350     1.3350     1.1880 C.2   1 <1>   0.7150 
 24 O        7.4380     1.3510     2.4070 O.2   1 <1>  -0.5700 
 25 C        8.6740     1.4370     0.4440 C.2   1 <1>   0.0550 
 26 O        9.6670     2.2170     0.8640 O.3   1 <1>  -0.2800 
 27 C        9.0670     0.8350    -0.7150 C.2   1 <1>  -0.1500 
 28 C       10.6660     2.1300     0.0160 C.2   1 <1>  -0.0100 
 29 C       10.3570     1.2860    -0.9910 C.2   1 <1>  -0.1500 
 30 H        2.0900     0.5960     0.7800 H     1 <1>   0.4200 
 31 H        0.4260     2.4060    -0.7120 H     1 <1>   0.0800 
 32 H       -1.1960    -0.9090    -0.2460 H     1 <1>   0.1500 
 33 H        2.4830    -2.8610    -1.1260 H     1 <1>   0.1500 
 34 H        1.3490     2.8090     2.1200 H     1 <1>   0.0800 
 35 H       -2.2110    -3.0730     0.3140 H     1 <1>   0.1500 
 36 H        1.4710    -5.0230    -0.5670 H     1 <1>   0.1500 
 37 H       -1.4480     2.4720     1.0060 H     1 <1>   0.0800 
 38 H       -1.0640     2.9100     2.6530 H     1 <1>   0.0800 
 39 H       -0.6280     1.3390     2.0510 H     1 <1>   0.0800 
 40 H       -0.1860     4.6510     0.2810 H     1 <1>   0.0800 
 41 H        1.4370     4.9110     0.8690 H     1 <1>   0.0800 
 42 H        0.1020     4.9300     1.9810 H     1 <1>   0.0800 
 43 H       -0.8790    -5.1370     0.1550 H     1 <1>   0.1500 
 44 H        5.4630     3.8020    -0.0640 H     1 <1>   0.0800 
 45 H        4.7490     3.4140    -1.6000 H     1 <1>   0.0800 
 46 H        3.1150     1.6190     1.8910 H     1 <1>   0.0800 
 47 H        4.4560     2.6990     2.0700 H     1 <1>   0.0800 
 48 H        6.8370     2.1800    -1.2510 H     1 <1>   0.0800 
 49 H        5.4820     1.0990    -1.4320 H     1 <1>   0.0800 
 50 H        4.5170    -0.0080     0.7210 H     1 <1>   0.0800 
 51 H        5.2360     0.4060     2.2450 H     1 <1>   0.0800 
 52 H        8.5090     0.1370    -1.3130 H     1 <1>   0.1500 
 53 H       11.5610     2.6980     0.2040 H     1 <1>   0.1500 
 54 H       10.9580     1.0020    -1.8370 H     1 <1>   0.1500 
@<TRIPOS>BOND
  1   1   2  2   
  2   1   3  2   
  3   1   4  am  
  4   1   5  1   
  5   4   6  1   
  6   4  30  1   
  7   5   7  ar  
  8   5   8  ar  
  9   6   9  1   
 10   6  10  1   
 11   6  31  1   
 12   7  11  ar  
 13   7  32  1   
 14   8  12  ar  
 15   8  33  1   
 16   9  13  2   
 17   9  14  am  
 18  10  15  1   
 19  10  16  1   
 20  10  34  1   
 21  11  17  ar  
 22  11  35  1   
 23  12  17  ar  
 24  12  36  1   
 25  14  18  1   
 26  14  19  1   
 27  15  37  1   
 28  15  38  1   
 29  15  39  1   
 30  16  40  1   
 31  16  41  1   
 32  16  42  1   
 33  17  43  1   
 34  18  20  1   
 35  18  44  1   
 36  18  45  1   
 37  19  21  1   
 38  19  46  1   
 39  19  47  1   
 40  20  22  1   
 41  20  48  1   
 42  20  49  1   
 43  21  22  1   
 44  21  50  1   
 45  21  51  1   
 46  22  23  am  
 47  23  24  2   
 48  23  25  1   
 49  25  26  1   
 50  25  27  2   
 51  26  28  1   
 52  27  29  1   
 53  27  52  1   
 54  28  29  2   
 55  28  53  1   
 56  29  54  1   
@<TRIPOS>SUBSTRUCTURE
  1 ****  14 GROUP 4 **** **** 0

# MOE 2024.06 (io_trps.svl 2023.06)
