@<TRIPOS>MOLECULE
NONAME
31 32 1 0 0 
SMALL
USER_CHARGES


@<TRIPOS>ATOM
  1 O       -0.2640     0.2460     1.0960 O.2   1 <1>  -0.5700 
  2 C       -0.1660     1.2170     0.3710 C.2   1 <1>   0.6900 
  3 N        1.0510     1.7060    -0.0060 N.am  1 <1>  -0.5470 
  4 N       -1.2740     1.8570    -0.0870 N.am  1 <1>  -0.5790 
  5 C        2.3240     1.2000     0.2910 C.ar  1 <1>   0.1170 
  6 C       -2.6620     1.4880     0.2240 C.3   1 <1>   0.0490 
  7 C        2.7640    -0.0690    -0.1100 C.ar  1 <1>  -0.1440 
  8 C        3.1860     2.0240     1.0030 C.ar  1 <1>  -0.1500 
  9 C       -3.6740     1.5740    -0.8700 C.3   1 <1>  -0.2000 
 10 C       -3.6870     2.5730     0.2480 C.3   1 <1>  -0.2000 
 11 C        4.0460    -0.4940     0.2360 C.ar  1 <1>  -0.1430 
 12 C        1.8410    -0.9820    -0.9210 C.3   1 <1>  -0.0970 
 13 C        4.4590     1.6070     1.3300 C.ar  1 <1>  -0.1500 
 14 C        4.8850     0.3490     0.9490 C.ar  1 <1>  -0.1500 
 15 C        4.5730    -1.8740    -0.1360 C.3   1 <1>  -0.0970 
 16 H        1.0400     2.6620    -0.3410 H     1 <1>   0.3700 
 17 H       -1.1700     2.5770    -0.7950 H     1 <1>   0.3700 
 18 H       -2.7420     0.6850     0.9410 H     1 <1>   0.1000 
 19 H        2.8550     2.9980     1.3120 H     1 <1>   0.1500 
 20 H       -4.4570     0.8380    -0.9030 H     1 <1>   0.1000 
 21 H       -3.3560     1.8860    -1.8490 H     1 <1>   0.1000 
 22 H       -3.3790     3.5850     0.0540 H     1 <1>   0.1000 
 23 H       -4.4800     2.5140     0.9730 H     1 <1>   0.1000 
 24 H        1.1610    -0.4100    -1.5240 H     1 <1>   0.0800 
 25 H        1.2690    -1.5980    -0.2510 H     1 <1>   0.0800 
 26 H        2.3940    -1.6130    -1.5890 H     1 <1>   0.0800 
 27 H        5.1170     2.2530     1.8840 H     1 <1>   0.1500 
 28 H        5.8770     0.0310     1.2150 H     1 <1>   0.1500 
 29 H        3.8600    -2.6300     0.1430 H     1 <1>   0.0800 
 30 H        5.4950    -2.0860     0.3730 H     1 <1>   0.0800 
 31 H        4.7490    -1.9260    -1.1950 H     1 <1>   0.0800 
@<TRIPOS>BOND
  1   1   2  2   
  2   2   3  am  
  3   2   4  am  
  4   3   5  1   
  5   3  16  1   
  6   4   6  1   
  7   4  17  1   
  8   5   7  ar  
  9   5   8  ar  
 10   6   9  1   
 11   6  10  1   
 12   6  18  1   
 13   7  11  ar  
 14   7  12  1   
 15   8  13  ar  
 16   8  19  1   
 17   9  10  1   
 18   9  20  1   
 19   9  21  1   
 20  10  22  1   
 21  10  23  1   
 22  11  14  ar  
 23  11  15  1   
 24  12  24  1   
 25  12  25  1   
 26  12  26  1   
 27  13  14  ar  
 28  13  27  1   
 29  14  28  1   
 30  15  29  1   
 31  15  30  1   
 32  15  31  1   
@<TRIPOS>SUBSTRUCTURE
  1 ****   3 GROUP 4 **** **** 0

# MOE 2024.06 (io_trps.svl 2023.06)
