@<TRIPOS>MOLECULE
NONAME
31 33 1 0 0 
SMALL
USER_CHARGES


@<TRIPOS>ATOM
  1 CL      -4.2880     3.7300    -2.5130 Cl    1 <1>  -0.1770 
  2 C       -3.3430     3.4990    -1.0620 C.ar  1 <1>   0.1770 
  3 C       -3.7450     2.5980    -0.0900 C.ar  1 <1>   0.1770 
  4 C       -2.1810     4.2310    -0.9040 C.ar  1 <1>  -0.1500 
  5 CL      -5.2080     1.6640    -0.2790 Cl    1 <1>  -0.1770 
  6 C       -2.9830     2.4280     1.0520 C.ar  1 <1>  -0.1500 
  7 C       -1.3960     4.0710     0.2380 C.ar  1 <1>   0.0280 
  8 C       -1.8190     3.1620     1.2100 C.ar  1 <1>  -0.1500 
  9 C       -0.1750     4.8310     0.4090 C.2   1 <1>   0.3130 
 10 N        1.1050     4.2640     0.1400 N.pl3 1 <1>  -0.6850 
 11 C       -0.1200     6.1060     0.8300 C.2   1 <1>  -0.0490 
 12 C        2.1280     5.0920     0.3840 C.cat 1 <1>   0.8400 
 13 C        1.1540     2.8570    -0.3530 C.3   1 <1>   0.3300 
 14 S        1.5470     6.6350     0.9240 S.3   1 <1>  -0.2320 
 15 N        3.4380     4.9770     0.3020 N.pl3 1 <1>  -0.7940 
 16 C        2.4610     2.4580    -1.0390 C.3   1 <1>  -0.1600 
 17 C        4.3490     3.8840    -0.0940 C.3   1 <1>   0.3290 
 18 C        3.6750     2.5160    -0.1050 C.3   1 <1>  -0.1600 
 19 H       -1.8930     4.9250    -1.6740 H     1 <1>   0.1500 
 20 H       -3.3060     1.7290     1.8050 H     1 <1>   0.1500 
 21 H       -1.2340     3.0300     2.1060 H     1 <1>   0.1500 
 22 H       -0.8860     6.8090     1.1070 H     1 <1>   0.1500 
 23 H        0.3630     2.7080    -1.0690 H     1 <1>   0.0800 
 24 H        0.9700     2.1930     0.4750 H     1 <1>   0.0800 
 25 H        3.9540     5.8260     0.5520 H     1 <1>   0.4500 
 26 H        2.6150     3.0570    -1.9210 H     1 <1>   0.0800 
 27 H        2.3440     1.4400    -1.3710 H     1 <1>   0.0800 
 28 H        5.1790     3.8540     0.5950 H     1 <1>   0.0800 
 29 H        4.7460     4.0980    -1.0730 H     1 <1>   0.0800 
 30 H        4.4050     1.8040    -0.4520 H     1 <1>   0.0800 
 31 H        3.4090     2.2260     0.8980 H     1 <1>   0.0800 
@<TRIPOS>BOND
  1   1   2  1   
  2   2   3  ar  
  3   2   4  ar  
  4   3   5  1   
  5   3   6  ar  
  6   4   7  ar  
  7   4  19  1   
  8   6   8  ar  
  9   6  20  1   
 10   7   8  ar  
 11   7   9  1   
 12   8  21  1   
 13   9  10  1   
 14   9  11  2   
 15  10  12  ar  
 16  10  13  1   
 17  11  14  1   
 18  11  22  1   
 19  12  14  1   
 20  12  15  ar  
 21  13  16  1   
 22  13  23  1   
 23  13  24  1   
 24  15  17  1   
 25  15  25  1   
 26  16  18  1   
 27  16  26  1   
 28  16  27  1   
 29  17  18  1   
 30  17  28  1   
 31  17  29  1   
 32  18  30  1   
 33  18  31  1   
@<TRIPOS>SUBSTRUCTURE
  1 ****   9 GROUP 4 **** **** 0

# MOE 2024.06 (io_trps.svl 2023.06)
