@<TRIPOS>MOLECULE
NONAME
35 35 1 0 0 
SMALL
USER_CHARGES


@<TRIPOS>ATOM
  1 O        1.8370    -4.2860     0.9380 O.2   1 <1>  -0.5700 
  2 C        2.9630    -4.3870     0.4930 C.2   1 <1>   0.8060 
  3 O        3.3850    -5.5800     0.0640 O.3   1 <1>  -0.4300 
  4 C        3.8910    -3.2880     0.4140 C.2   1 <1>  -0.0860 
  5 C        2.5490    -6.7140     0.0980 C.3   1 <1>   0.1200 
  6 C        3.6980    -1.9560     0.6300 C.2   1 <1>  -0.0400 
  7 C        5.2600    -3.3840     0.0830 C.2   1 <1>  -0.1500 
  8 C        3.3330    -7.8960    -0.4640 C.3   1 <1>  -0.2400 
  9 O        4.8150    -1.2880     0.4670 O.3   1 <1>  -0.2800 
 10 C        2.4440    -1.1830     1.0050 C.3   1 <1>   0.2900 
 11 C        5.7690    -2.1350     0.1340 C.2   1 <1>  -0.0400 
 12 N        2.1480    -0.2290    -0.0530 N.3   1 <1>  -0.9900 
 13 C        7.1800    -1.6000    -0.1230 C.3   1 <1>   0.1800 
 14 C        7.1390    -0.5890    -1.2760 C.3   1 <1>  -0.2400 
 15 C        8.1330    -2.7430    -0.4980 C.3   1 <1>  -0.2400 
 16 C        7.7030    -0.9120     1.1440 C.3   1 <1>  -0.2400 
 17 H        1.6750    -6.5120    -0.4980 H     1 <1>   0.0800 
 18 H        2.2580    -6.8940     1.1190 H     1 <1>   0.0800 
 19 H        5.7630    -4.3040    -0.1580 H     1 <1>   0.1500 
 20 H        3.6270    -7.6970    -1.4790 H     1 <1>   0.0800 
 21 H        2.7170    -8.7770    -0.4520 H     1 <1>   0.0800 
 22 H        4.2070    -8.0800     0.1350 H     1 <1>   0.0800 
 23 H        2.6260    -0.6580     1.9270 H     1 <1>   0.0800 
 24 H        1.6030    -1.8400     1.1420 H     1 <1>   0.0800 
 25 H        3.0520     0.1620    -0.3480 H     1 <1>   0.3600 
 26 H        1.5870     0.5370     0.3310 H     1 <1>   0.3600 
 27 H        6.7540    -1.0560    -2.1640 H     1 <1>   0.0800 
 28 H        8.1220    -0.2070    -1.4840 H     1 <1>   0.0800 
 29 H        6.4970     0.2360    -1.0250 H     1 <1>   0.0800 
 30 H        9.1240    -2.3660    -0.6780 H     1 <1>   0.0800 
 31 H        8.1840    -3.4640     0.2980 H     1 <1>   0.0800 
 32 H        7.7910    -3.2390    -1.3890 H     1 <1>   0.0800 
 33 H        7.0630    -0.0900     1.4120 H     1 <1>   0.0800 
 34 H        8.6980    -0.5350     0.9910 H     1 <1>   0.0800 
 35 H        7.7180    -1.6080     1.9640 H     1 <1>   0.0800 
@<TRIPOS>BOND
  1   1   2  2   
  2   2   3  1   
  3   2   4  1   
  4   3   5  1   
  5   4   6  2   
  6   4   7  1   
  7   5   8  1   
  8   5  17  1   
  9   5  18  1   
 10   6   9  1   
 11   6  10  1   
 12   7  11  2   
 13   7  19  1   
 14   8  20  1   
 15   8  21  1   
 16   8  22  1   
 17   9  11  1   
 18  10  12  1   
 19  10  23  1   
 20  10  24  1   
 21  11  13  1   
 22  12  25  1   
 23  12  26  1   
 24  13  14  1   
 25  13  15  1   
 26  13  16  1   
 27  14  27  1   
 28  14  28  1   
 29  14  29  1   
 30  15  30  1   
 31  15  31  1   
 32  15  32  1   
 33  16  33  1   
 34  16  34  1   
 35  16  35  1   
@<TRIPOS>SUBSTRUCTURE
  1 ****   4 GROUP 4 **** **** 0

# MOE 2024.06 (io_trps.svl 2023.06)
