@<TRIPOS>MOLECULE
NONAME
51 53 1 0 0 
SMALL
USER_CHARGES


@<TRIPOS>ATOM
  1 F        0.5500    -0.0150     0.3760 F     1 <1>  -0.1900 
  2 C        1.6860    -0.6070     0.1340 C.ar  1 <1>   0.1900 
  3 C        2.2760    -1.3560     1.1340 C.ar  1 <1>  -0.1500 
  4 C        2.2610    -0.4670    -1.1140 C.ar  1 <1>  -0.1500 
  5 C        3.4840    -1.9790     0.8700 C.ar  1 <1>  -0.1500 
  6 C        3.4690    -1.0970    -1.3610 C.ar  1 <1>  -0.1500 
  7 C        4.1070    -1.8560    -0.3760 C.ar  1 <1>   0.0860 
  8 C        5.3760    -2.5020    -0.6510 C.2   1 <1>   0.5440 
  9 O        5.4360    -3.3070    -1.5610 O.2   1 <1>  -0.5700 
 10 N        6.5140    -2.2270     0.0840 N.am  1 <1>  -0.6600 
 11 C        7.7740    -2.9980    -0.1150 C.3   1 <1>   0.1400 
 12 C        6.6450    -1.0560     0.9960 C.3   1 <1>   0.1400 
 13 C        8.8690    -2.0710    -0.6490 C.3   1 <1>  -0.1600 
 14 C        7.7350    -0.1170     0.4730 C.3   1 <1>  -0.1600 
 15 C        9.0760    -0.8520     0.2680 C.3   1 <1>  -0.0190 
 16 C       10.1750     0.0620    -0.2770 C.2   1 <1>   0.5690 
 17 O        9.8780     0.9700    -1.0160 O.2   1 <1>  -0.5700 
 18 N       11.4570    -0.2130     0.1070 N.am  1 <1>  -0.5470 
 19 C       12.7040     0.3790    -0.1740 C.ar  1 <1>   0.1170 
 20 C       13.8420    -0.1940     0.4060 C.ar  1 <1>   0.0830 
 21 C       12.8580     1.4930    -0.9910 C.ar  1 <1>  -0.1500 
 22 O       13.6520    -1.2900     1.2040 O.3   1 <1>  -0.3620 
 23 C       15.0980     0.3510     0.1620 C.ar  1 <1>  -0.1500 
 24 C       14.1090     2.0330    -1.2310 C.ar  1 <1>  -0.1500 
 25 C       14.7430    -1.9270     1.8340 C.3   1 <1>   0.0400 
 26 C       15.2370     1.4610    -0.6530 C.ar  1 <1>   0.0830 
 27 O       16.5010     1.9270    -0.8360 O.3   1 <1>  -0.3620 
 28 C       16.7480     3.0540    -1.6490 C.3   1 <1>   0.0400 
 29 H        1.7950    -1.4480     2.0920 H     1 <1>   0.1500 
 30 H        1.7710     0.1180    -1.8710 H     1 <1>   0.1500 
 31 H        3.9580    -2.5740     1.6310 H     1 <1>   0.1500 
 32 H        3.9340    -1.0100    -2.3280 H     1 <1>   0.1500 
 33 H        7.6220    -3.8100    -0.8060 H     1 <1>   0.0800 
 34 H        8.0750    -3.4220     0.8270 H     1 <1>   0.0800 
 35 H        6.9020    -1.4060     1.9810 H     1 <1>   0.0800 
 36 H        5.7210    -0.5110     1.0640 H     1 <1>   0.0800 
 37 H        8.5900    -1.7390    -1.6360 H     1 <1>   0.0800 
 38 H        9.7860    -2.6240    -0.7390 H     1 <1>   0.0800 
 39 H        7.8710     0.6950     1.1650 H     1 <1>   0.0800 
 40 H        7.4050     0.3050    -0.4610 H     1 <1>   0.0800 
 41 H        9.3980    -1.2080     1.2310 H     1 <1>   0.0800 
 42 H       11.5720    -1.0190     0.7220 H     1 <1>   0.3700 
 43 H       12.0020     1.9520    -1.4480 H     1 <1>   0.1500 
 44 H       15.9900    -0.0610     0.5890 H     1 <1>   0.1500 
 45 H       14.1800     2.8940    -1.8680 H     1 <1>   0.1500 
 46 H       14.3640    -2.7540     2.4070 H     1 <1>   0.0800 
 47 H       15.2300    -1.2240     2.4860 H     1 <1>   0.0800 
 48 H       15.4210    -2.2860     1.0800 H     1 <1>   0.0800 
 49 H       17.8070     3.2400    -1.6490 H     1 <1>   0.0800 
 50 H       16.2280     3.9010    -1.2380 H     1 <1>   0.0800 
 51 H       16.4140     2.8420    -2.6490 H     1 <1>   0.0800 
@<TRIPOS>BOND
  1   1   2  1   
  2   2   3  ar  
  3   2   4  ar  
  4   3   5  ar  
  5   3  29  1   
  6   4   6  ar  
  7   4  30  1   
  8   5   7  ar  
  9   5  31  1   
 10   6   7  ar  
 11   6  32  1   
 12   7   8  1   
 13   8   9  2   
 14   8  10  am  
 15  10  11  1   
 16  10  12  1   
 17  11  13  1   
 18  11  33  1   
 19  11  34  1   
 20  12  14  1   
 21  12  35  1   
 22  12  36  1   
 23  13  15  1   
 24  13  37  1   
 25  13  38  1   
 26  14  15  1   
 27  14  39  1   
 28  14  40  1   
 29  15  16  1   
 30  15  41  1   
 31  16  17  2   
 32  16  18  am  
 33  18  19  1   
 34  18  42  1   
 35  19  20  ar  
 36  19  21  ar  
 37  20  22  1   
 38  20  23  ar  
 39  21  24  ar  
 40  21  43  1   
 41  22  25  1   
 42  23  26  ar  
 43  23  44  1   
 44  24  26  ar  
 45  24  45  1   
 46  25  46  1   
 47  25  47  1   
 48  25  48  1   
 49  26  27  1   
 50  27  28  1   
 51  28  49  1   
 52  28  50  1   
 53  28  51  1   
@<TRIPOS>SUBSTRUCTURE
  1 ****  15 GROUP 4 **** **** 0

# MOE 2024.06 (io_trps.svl 2023.06)
