@<TRIPOS>MOLECULE
NONAME
31 32 1 0 0 
SMALL
USER_CHARGES


@<TRIPOS>ATOM
  1 S       -0.1540     0.0210     0.4730 S.3   1 <1>  -0.3320 
  2 C        1.4690     0.8360     0.4770 C.ar  1 <1>   0.1020 
  3 C       -1.4210     1.3130     0.8920 C.3   1 <1>   0.2110 
  4 C        2.5430     0.1440    -0.0880 C.ar  1 <1>   0.1000 
  5 C        1.6370     2.1030     1.0120 C.ar  1 <1>  -0.1500 
  6 C       -2.8060     0.6860     0.9360 C.2   1 <1>   0.5690 
  7 C       -1.5060     2.3160    -0.2700 C.3   1 <1>  -0.0990 
  8 N        2.4000    -1.1330    -0.6160 N.pl3 1 <1>  -0.9000 
  9 C        3.7850     0.7630    -0.1190 C.ar  1 <1>  -0.1500 
 10 C        2.8850     2.7030     0.9710 C.ar  1 <1>  -0.1500 
 11 O       -3.1870    -0.0610     1.8030 O.2   1 <1>  -0.5700 
 12 N       -3.5530     1.1300    -0.1090 N.am  1 <1>  -0.4200 
 13 C       -2.8720     2.0430    -0.8510 C.2   1 <1>   0.5690 
 14 C        3.9560     2.0330     0.4030 C.ar  1 <1>  -0.1500 
 15 C       -4.9340     0.6860    -0.3950 C.3   1 <1>   0.1400 
 16 O       -3.2810     2.5960    -1.8370 O.2   1 <1>  -0.5700 
 17 C       -5.9290     1.6000     0.3190 C.3   1 <1>  -0.2400 
 18 H       -1.1640     1.7550     1.8360 H     1 <1>   0.0800 
 19 H        0.8270     2.6360     1.4660 H     1 <1>   0.1500 
 20 H       -0.7460     2.1590    -1.0140 H     1 <1>   0.0800 
 21 H       -1.4700     3.3280     0.0880 H     1 <1>   0.0800 
 22 H        2.8880    -1.3160    -1.4960 H     1 <1>   0.4000 
 23 H        1.4270    -1.4600    -0.6430 H     1 <1>   0.4000 
 24 H        4.6200     0.2420    -0.5490 H     1 <1>   0.1500 
 25 H        3.0260     3.6880     1.3820 H     1 <1>   0.1500 
 26 H        4.9260     2.4990     0.3730 H     1 <1>   0.1500 
 27 H       -5.0590    -0.3290    -0.0570 H     1 <1>   0.0800 
 28 H       -5.1040     0.7150    -1.4580 H     1 <1>   0.0800 
 29 H       -5.7740     1.5630     1.3820 H     1 <1>   0.0800 
 30 H       -6.9320     1.2750     0.1100 H     1 <1>   0.0800 
 31 H       -5.8210     2.6130    -0.0280 H     1 <1>   0.0800 
@<TRIPOS>BOND
  1   1   2  1   
  2   1   3  1   
  3   2   4  ar  
  4   2   5  ar  
  5   3   6  1   
  6   3   7  1   
  7   3  18  1   
  8   4   8  1   
  9   4   9  ar  
 10   5  10  ar  
 11   5  19  1   
 12   6  11  2   
 13   6  12  am  
 14   7  13  1   
 15   7  20  1   
 16   7  21  1   
 17   8  22  1   
 18   8  23  1   
 19   9  14  ar  
 20   9  24  1   
 21  10  14  ar  
 22  10  25  1   
 23  12  13  am  
 24  12  15  1   
 25  13  16  2   
 26  14  26  1   
 27  15  17  1   
 28  15  27  1   
 29  15  28  1   
 30  17  29  1   
 31  17  30  1   
 32  17  31  1   
@<TRIPOS>SUBSTRUCTURE
  1 ****   3 GROUP 4 **** **** 0

# MOE 2024.06 (io_trps.svl 2023.06)
