@<TRIPOS>MOLECULE
NONAME
39 40 1 0 0 
SMALL
USER_CHARGES


@<TRIPOS>ATOM
  1 S       -0.1150     0.0400    -0.0500 S.o2  1 <1>   1.4970 
  2 O        0.0310    -0.8920     1.0620 O.2   1 <1>  -0.6500 
  3 O        0.1520    -0.3830    -1.4200 O.2   1 <1>  -0.6500 
  4 N       -1.4490     1.0240     0.0870 N.2   1 <1>  -0.6380 
  5 C        1.1750     1.2880     0.2880 C.ar  1 <1>  -0.0090 
  6 C       -2.5790     0.4480    -0.0680 C.2   1 <1>   0.3610 
  7 C        1.0690     2.1530     1.3720 C.ar  1 <1>  -0.1500 
  8 C        2.3130     1.4000    -0.5050 C.ar  1 <1>  -0.1500 
  9 O       -2.7250    -0.7600    -0.3210 O.3   1 <1>  -0.8610 
 10 N       -3.7360     1.1800     0.0320 N.pl3 1 <1>  -0.7880 
 11 C        2.0480     3.0910     1.6520 C.ar  1 <1>  -0.1500 
 12 C        3.2980     2.3350    -0.2340 C.ar  1 <1>  -0.1500 
 13 C       -4.6370     0.6450     1.0740 C.3   1 <1>   0.2090 
 14 C       -4.4080     1.2980    -1.2770 C.3   1 <1>   0.2090 
 15 C        3.1700     3.1890     0.8480 C.ar  1 <1>  -0.1430 
 16 C       -5.8430     1.5760     1.2480 C.3   1 <1>  -0.1600 
 17 C       -5.6100     2.2430    -1.1630 C.3   1 <1>  -0.1600 
 18 C        4.2460     4.2160     1.1520 C.3   1 <1>  -0.0970 
 19 C       -6.5930     1.7720    -0.0790 C.3   1 <1>  -0.0800 
 20 C       -7.7460     2.7680     0.0850 C.3   1 <1>  -0.2400 
 21 H        0.1970     2.0840     2.0010 H     1 <1>   0.1500 
 22 H        2.4250     0.7420    -1.3500 H     1 <1>   0.1500 
 23 H        1.9270     3.7430     2.4990 H     1 <1>   0.1500 
 24 H        4.1630     2.3910    -0.8710 H     1 <1>   0.1500 
 25 H       -4.0900     0.5640     1.9970 H     1 <1>   0.0800 
 26 H       -4.9600    -0.3420     0.7890 H     1 <1>   0.0800 
 27 H       -4.7220     0.3190    -1.5990 H     1 <1>   0.0800 
 28 H       -3.7020     1.6760    -1.9960 H     1 <1>   0.0800 
 29 H       -5.4850     2.5220     1.6150 H     1 <1>   0.0800 
 30 H       -6.5020     1.1580     1.9860 H     1 <1>   0.0800 
 31 H       -6.1060     2.2900    -2.1150 H     1 <1>   0.0800 
 32 H       -5.2410     3.2250    -0.9270 H     1 <1>   0.0800 
 33 H        3.8090     5.0950     1.5900 H     1 <1>   0.0800 
 34 H        4.7570     4.5040     0.2510 H     1 <1>   0.0800 
 35 H        4.9600     3.8010     1.8400 H     1 <1>   0.0800 
 36 H       -6.9980     0.8200    -0.3810 H     1 <1>   0.0800 
 37 H       -7.3700     3.7300     0.3870 H     1 <1>   0.0800 
 38 H       -8.4370     2.4180     0.8300 H     1 <1>   0.0800 
 39 H       -8.2750     2.8810    -0.8440 H     1 <1>   0.0800 
@<TRIPOS>BOND
  1   1   2  2   
  2   1   3  2   
  3   1   4  1   
  4   1   5  1   
  5   4   6  2   
  6   5   7  ar  
  7   5   8  ar  
  8   6   9  1   
  9   6  10  1   
 10   7  11  ar  
 11   7  21  1   
 12   8  12  ar  
 13   8  22  1   
 14  10  13  1   
 15  10  14  1   
 16  11  15  ar  
 17  11  23  1   
 18  12  15  ar  
 19  12  24  1   
 20  13  16  1   
 21  13  25  1   
 22  13  26  1   
 23  14  17  1   
 24  14  27  1   
 25  14  28  1   
 26  15  18  1   
 27  16  19  1   
 28  16  29  1   
 29  16  30  1   
 30  17  19  1   
 31  17  31  1   
 32  17  32  1   
 33  18  33  1   
 34  18  34  1   
 35  18  35  1   
 36  19  20  1   
 37  19  36  1   
 38  20  37  1   
 39  20  38  1   
 40  20  39  1   
@<TRIPOS>SUBSTRUCTURE
  1 ****   4 GROUP 4 **** **** 0

# MOE 2024.06 (io_trps.svl 2023.06)
