@<TRIPOS>MOLECULE
NONAME
54 56 1 0 0 
SMALL
USER_CHARGES


@<TRIPOS>ATOM
  1 O       -7.6040     5.4200    -0.4070 O.3   1 <1>  -0.3630 
  2 C       -8.8650     5.8840    -0.1970 C.ar  1 <1>   0.0820 
  3 C       -6.4700     6.1050     0.0800 C.3   1 <1>   0.1200 
  4 C       -9.9160     5.1640    -0.7590 C.ar  1 <1>  -0.1440 
  5 C       -9.1360     7.0320     0.5460 C.ar  1 <1>  -0.1500 
  6 C       -5.2210     5.3260    -0.3480 C.3   1 <1>   0.2000 
  7 C      -11.2180     5.5980    -0.5710 C.ar  1 <1>  -0.1500 
  8 C       -9.6560     3.9070    -1.5770 C.3   1 <1>  -0.0960 
  9 C      -10.4400     7.4610     0.7280 C.ar  1 <1>  -0.1430 
 10 O       -5.3800     3.9840     0.0070 O.3   1 <1>  -0.6800 
 11 C       -3.9260     5.8660     0.2980 C.3   1 <1>   0.3430 
 12 C      -11.4790     6.7380     0.1680 C.ar  1 <1>  -0.1500 
 13 C      -10.7360     8.7100     1.5390 C.3   1 <1>  -0.0970 
 14 N       -2.8830     4.7960     0.3430 N.4   1 <1>  -0.9590 
 15 C       -1.8770     4.9920     1.4490 C.3   1 <1>   0.3430 
 16 C       -2.2120     4.5720    -0.9910 C.3   1 <1>   0.3430 
 17 C       -0.8260     3.8620     1.5010 C.3   1 <1>   0.2090 
 18 C       -1.1660     3.4390    -0.9420 C.3   1 <1>   0.2090 
 19 N       -0.1930     3.6670     0.1650 N.pl3 1 <1>  -0.8380 
 20 C        0.9520     2.8790     0.1450 C.ar  1 <1>   0.1000 
 21 C        0.8940     1.5040     0.3520 C.ar  1 <1>  -0.1500 
 22 C        2.1870     3.4680    -0.0860 C.ar  1 <1>  -0.1500 
 23 C        2.0450     0.7390     0.3290 C.ar  1 <1>  -0.1500 
 24 C        3.3410     2.7070    -0.1100 C.ar  1 <1>  -0.1500 
 25 C        3.2710     1.3400     0.0980 C.ar  1 <1>  -0.1500 
 26 H       -6.5410     6.1570     1.1530 H     1 <1>   0.0800 
 27 H       -6.4670     7.0970    -0.3390 H     1 <1>   0.0800 
 28 H       -8.3500     7.6050     0.9940 H     1 <1>   0.1500 
 29 H       -5.1360     5.3710    -1.4210 H     1 <1>   0.0800 
 30 H      -12.0400     5.0520    -0.9980 H     1 <1>   0.1500 
 31 H       -9.1880     3.1610    -0.9610 H     1 <1>   0.0800 
 32 H       -9.0070     4.1360    -2.4030 H     1 <1>   0.0800 
 33 H      -10.5720     3.5010    -1.9670 H     1 <1>   0.0800 
 34 H       -6.3190     3.7320    -0.1700 H     1 <1>   0.4000 
 35 H       -4.1610     6.1730     1.3030 H     1 <1>   0.0800 
 36 H       -3.5690     6.7300    -0.2370 H     1 <1>   0.0800 
 37 H      -12.4970     7.0590     0.3040 H     1 <1>   0.1500 
 38 H       -9.9090     9.3950     1.4980 H     1 <1>   0.0800 
 39 H      -10.9170     8.4430     2.5650 H     1 <1>   0.0800 
 40 H      -11.6070     9.2090     1.1530 H     1 <1>   0.0800 
 41 H       -3.4330     3.9370     0.5390 H     1 <1>   0.4500 
 42 H       -2.3810     5.0440     2.3990 H     1 <1>   0.0800 
 43 H       -1.3540     5.9220     1.2990 H     1 <1>   0.0800 
 44 H       -1.7090     5.4740    -1.2980 H     1 <1>   0.0800 
 45 H       -2.9510     4.3310    -1.7360 H     1 <1>   0.0800 
 46 H       -1.2900     2.9450     1.8200 H     1 <1>   0.0800 
 47 H       -0.0630     4.1150     2.2180 H     1 <1>   0.0800 
 48 H       -0.6340     3.4010    -1.8780 H     1 <1>   0.0800 
 49 H       -1.6600     2.4920    -0.8040 H     1 <1>   0.0800 
 50 H       -0.0530     1.0320     0.5330 H     1 <1>   0.1500 
 51 H        2.2370     4.5290    -0.2460 H     1 <1>   0.1500 
 52 H        1.9910    -0.3240     0.4900 H     1 <1>   0.1500 
 53 H        4.2930     3.1750    -0.2890 H     1 <1>   0.1500 
 54 H        4.1690     0.7450     0.0790 H     1 <1>   0.1500 
@<TRIPOS>BOND
  1   1   2  1   
  2   1   3  1   
  3   2   4  ar  
  4   2   5  ar  
  5   3   6  1   
  6   3  26  1   
  7   3  27  1   
  8   4   7  ar  
  9   4   8  1   
 10   5   9  ar  
 11   5  28  1   
 12   6  10  1   
 13   6  11  1   
 14   6  29  1   
 15   7  12  ar  
 16   7  30  1   
 17   8  31  1   
 18   8  32  1   
 19   8  33  1   
 20   9  12  ar  
 21   9  13  1   
 22  10  34  1   
 23  11  14  1   
 24  11  35  1   
 25  11  36  1   
 26  12  37  1   
 27  13  38  1   
 28  13  39  1   
 29  13  40  1   
 30  14  15  1   
 31  14  16  1   
 32  14  41  1   
 33  15  17  1   
 34  15  42  1   
 35  15  43  1   
 36  16  18  1   
 37  16  44  1   
 38  16  45  1   
 39  17  19  1   
 40  17  46  1   
 41  17  47  1   
 42  18  19  1   
 43  18  48  1   
 44  18  49  1   
 45  19  20  1   
 46  20  21  ar  
 47  20  22  ar  
 48  21  23  ar  
 49  21  50  1   
 50  22  24  ar  
 51  22  51  1   
 52  23  25  ar  
 53  23  52  1   
 54  24  25  ar  
 55  24  53  1   
 56  25  54  1   
@<TRIPOS>SUBSTRUCTURE
  1 ****   6 GROUP 4 **** **** 0

# MOE 2024.06 (io_trps.svl 2023.06)
