@<TRIPOS>MOLECULE
NONAME
47 49 1 0 0 
SMALL
USER_CHARGES


@<TRIPOS>ATOM
  1 O        0.2640     0.9030    -0.4050 O.2   1 <1>  -0.5700 
  2 C        0.8950     1.9450    -0.3850 C.2   1 <1>   0.5440 
  3 N        0.2060     3.1300    -0.5410 N.am  1 <1>  -0.6600 
  4 C        2.3300     1.9050    -0.1840 C.ar  1 <1>   0.0860 
  5 C        0.6420     4.4240     0.0740 C.3   1 <1>   0.1400 
  6 C       -1.1970     3.1570    -1.0590 C.3   1 <1>   0.1400 
  7 C        2.9020     1.0430     0.7520 C.ar  1 <1>  -0.1500 
  8 C        3.2030     2.7110    -0.9170 C.ar  1 <1>  -0.1500 
  9 C       -0.3450     4.8610     1.1680 C.3   1 <1>   0.1400 
 10 C       -2.1800     3.5920     0.0400 C.3   1 <1>   0.1400 
 11 C        4.2670     1.0030     0.9600 C.ar  1 <1>  -0.1500 
 12 C        4.5680     2.6740    -0.7100 C.ar  1 <1>  -0.1500 
 13 N       -1.7480     4.8890     0.6490 N.am  1 <1>  -0.6600 
 14 C        5.1260     1.8230     0.2390 C.ar  1 <1>   0.1170 
 15 C       -2.4100     6.0800     0.4240 C.2   1 <1>   0.7150 
 16 N        6.5020     1.7450     0.4800 N.am  1 <1>  -0.5470 
 17 O       -1.7540     7.1080     0.4180 O.2   1 <1>  -0.5700 
 18 C       -3.8420     6.1190     0.2060 C.2   1 <1>   0.0550 
 19 C        7.5050     2.6450     0.2460 C.2   1 <1>   0.5690 
 20 O       -4.3850     6.9790    -0.6520 O.3   1 <1>  -0.2800 
 21 C       -4.8460     5.3790     0.7570 C.2   1 <1>  -0.1500 
 22 O        7.3260     3.7490    -0.2030 O.2   1 <1>  -0.5700 
 23 C        8.9210     2.2230     0.5950 C.3   1 <1>  -0.0990 
 24 C       -5.6870     6.8090    -0.6620 C.2   1 <1>  -0.0100 
 25 C       -6.0410     5.8270     0.1920 C.2   1 <1>  -0.1500 
 26 C        9.4450     1.0870    -0.2990 C.3   1 <1>  -0.2400 
 27 H        0.6860     5.1840    -0.6870 H     1 <1>   0.0800 
 28 H        1.6200     4.3310     0.5100 H     1 <1>   0.0800 
 29 H       -1.4820     2.1880    -1.4310 H     1 <1>   0.0800 
 30 H       -1.2530     3.8500    -1.8800 H     1 <1>   0.0800 
 31 H        2.2530     0.3950     1.3170 H     1 <1>   0.1500 
 32 H        2.7990     3.3720    -1.6650 H     1 <1>   0.1500 
 33 H       -0.0590     5.8300     1.5410 H     1 <1>   0.0800 
 34 H       -0.2890     4.1690     1.9900 H     1 <1>   0.0800 
 35 H       -2.2140     2.8330     0.8020 H     1 <1>   0.0800 
 36 H       -3.1600     3.6760    -0.3930 H     1 <1>   0.0800 
 37 H        4.6680     0.3270     1.6940 H     1 <1>   0.1500 
 38 H        5.2050     3.3100    -1.2980 H     1 <1>   0.1500 
 39 H        6.8100     0.8800     0.9190 H     1 <1>   0.3700 
 40 H       -4.7580     4.6000     1.4940 H     1 <1>   0.1500 
 41 H        8.9510     1.9210     1.6260 H     1 <1>   0.0800 
 42 H        9.5660     3.0780     0.4890 H     1 <1>   0.0800 
 43 H       -6.2890     7.4300    -1.3040 H     1 <1>   0.1500 
 44 H       -7.0240     5.4510     0.4130 H     1 <1>   0.1500 
 45 H        8.8430     0.2020    -0.1910 H     1 <1>   0.0800 
 46 H       10.4600     0.8470    -0.0330 H     1 <1>   0.0800 
 47 H        9.4260     1.3930    -1.3310 H     1 <1>   0.0800 
@<TRIPOS>BOND
  1   1   2  2   
  2   2   3  am  
  3   2   4  1   
  4   3   5  1   
  5   3   6  1   
  6   4   7  ar  
  7   4   8  ar  
  8   5   9  1   
  9   5  27  1   
 10   5  28  1   
 11   6  10  1   
 12   6  29  1   
 13   6  30  1   
 14   7  11  ar  
 15   7  31  1   
 16   8  12  ar  
 17   8  32  1   
 18   9  13  1   
 19   9  33  1   
 20   9  34  1   
 21  10  13  1   
 22  10  35  1   
 23  10  36  1   
 24  11  14  ar  
 25  11  37  1   
 26  12  14  ar  
 27  12  38  1   
 28  13  15  am  
 29  14  16  1   
 30  15  17  2   
 31  15  18  1   
 32  16  19  am  
 33  16  39  1   
 34  18  20  1   
 35  18  21  2   
 36  19  22  2   
 37  19  23  1   
 38  20  24  1   
 39  21  25  1   
 40  21  40  1   
 41  23  26  1   
 42  23  41  1   
 43  23  42  1   
 44  24  25  2   
 45  24  43  1   
 46  25  44  1   
 47  26  45  1   
 48  26  46  1   
 49  26  47  1   
@<TRIPOS>SUBSTRUCTURE
  1 ****   5 GROUP 4 **** **** 0

# MOE 2024.06 (io_trps.svl 2023.06)
