@<TRIPOS>MOLECULE
NONAME
30 30 1 0 0 
SMALL
USER_CHARGES


@<TRIPOS>ATOM
  1 CL       0.8730    -0.1940     0.8370 Cl    1 <1>  -0.1770 
  2 C        1.3550     1.4560     0.5000 C.ar  1 <1>   0.1770 
  3 C        0.3910     2.4290     0.2580 C.ar  1 <1>   0.0820 
  4 C        2.7040     1.7510     0.4830 C.ar  1 <1>  -0.1500 
  5 O       -0.9230     2.0660     0.2920 O.3   1 <1>  -0.3630 
  6 C        0.8180     3.7280    -0.0100 C.ar  1 <1>  -0.1500 
  7 C        3.1320     3.0480     0.2210 C.ar  1 <1>   0.1170 
  8 C       -1.9520     3.0060     0.0770 C.3   1 <1>   0.0400 
  9 C        2.1710     4.0240    -0.0270 C.ar  1 <1>  -0.1500 
 10 N        4.4860     3.4180     0.1820 N.am  1 <1>  -0.5470 
 11 C        5.6070     2.8140     0.6600 C.2   1 <1>   0.7800 
 12 O        5.6240     1.7600     1.2600 O.2   1 <1>  -0.5700 
 13 O        6.7400     3.4780     0.4410 O.3   1 <1>  -0.4300 
 14 C        8.0110     2.9410     0.8060 C.3   1 <1>   0.1200 
 15 C        8.6810     2.1500    -0.3370 C.3   1 <1>   0.6800 
 16 F        7.8700     1.1840    -0.7660 F     1 <1>  -0.3400 
 17 F        8.8060     2.9480    -1.3990 F     1 <1>  -0.3400 
 18 C       10.0590     1.5480     0.0210 C.3   1 <1>   0.6000 
 19 F        9.9780     0.7510     1.0850 F     1 <1>  -0.3400 
 20 F       10.9160     2.4990     0.3920 F     1 <1>  -0.3400 
 21 H        3.4060     0.9620     0.6710 H     1 <1>   0.1500 
 22 H        0.1170     4.5160    -0.2050 H     1 <1>   0.1500 
 23 H       -2.8930     2.4930     0.1610 H     1 <1>   0.0800 
 24 H       -1.8490     3.4180    -0.9110 H     1 <1>   0.0800 
 25 H       -1.8860     3.7740     0.8270 H     1 <1>   0.0800 
 26 H        2.4820     5.0320    -0.2330 H     1 <1>   0.1500 
 27 H        4.6930     4.3110    -0.2570 H     1 <1>   0.3700 
 28 H        7.9070     2.3190     1.6780 H     1 <1>   0.0800 
 29 H        8.6440     3.7670     1.0740 H     1 <1>   0.0800 
 30 H       10.4990     0.9920    -0.7860 H     1 <1>   0.0800 
@<TRIPOS>BOND
  1   1   2  1   
  2   2   3  ar  
  3   2   4  ar  
  4   3   5  1   
  5   3   6  ar  
  6   4   7  ar  
  7   4  21  1   
  8   5   8  1   
  9   6   9  ar  
 10   6  22  1   
 11   7   9  ar  
 12   7  10  1   
 13   8  23  1   
 14   8  24  1   
 15   8  25  1   
 16   9  26  1   
 17  10  11  am  
 18  10  27  1   
 19  11  12  2   
 20  11  13  1   
 21  13  14  1   
 22  14  15  1   
 23  14  28  1   
 24  14  29  1   
 25  15  16  1   
 26  15  17  1   
 27  15  18  1   
 28  18  19  1   
 29  18  20  1   
 30  18  30  1   
@<TRIPOS>SUBSTRUCTURE
  1 ****  11 GROUP 4 **** **** 0

# MOE 2024.06 (io_trps.svl 2023.06)
