@<TRIPOS>MOLECULE
NONAME
41 43 1 0 0 
SMALL
USER_CHARGES


@<TRIPOS>ATOM
  1 F        1.7090    -1.3160     1.7780 F     1 <1>  -0.1900 
  2 C        1.3150    -2.3970     1.1620 C.ar  1 <1>   0.1900 
  3 C        0.8260    -3.4500     1.9100 C.ar  1 <1>  -0.1500 
  4 C        1.4060    -2.4510    -0.2150 C.ar  1 <1>  -0.1500 
  5 C        0.4140    -4.5960     1.2510 C.ar  1 <1>  -0.1500 
  6 C        0.9910    -3.6030    -0.8630 C.ar  1 <1>  -0.1500 
  7 C        0.4910    -4.6800    -0.1380 C.ar  1 <1>  -0.1430 
  8 C        0.0610    -5.9500    -0.8760 C.3   1 <1>   0.5020 
  9 N       -1.2360    -6.4020    -0.3300 N.am  1 <1>  -0.7300 
 10 C        1.1440    -7.0160    -0.7460 C.2   1 <1>  -0.1240 
 11 C       -1.4080    -7.5560     0.3380 C.2   1 <1>   0.6900 
 12 C        0.8810    -8.1880    -0.1140 C.2   1 <1>  -0.0290 
 13 C        2.3670    -6.6040    -1.3570 C.2   1 <1>   0.6160 
 14 O       -2.4650    -7.8100     0.8690 O.2   1 <1>  -0.5700 
 15 N       -0.3680    -8.4230     0.4280 N.am  1 <1>  -0.5390 
 16 C        1.8670    -9.3330     0.0490 C.3   1 <1>  -0.1020 
 17 O        2.3660    -6.2810    -2.5320 O.2   1 <1>  -0.5700 
 18 N        3.5440    -6.5180    -0.6520 N.am  1 <1>  -0.6600 
 19 C        4.8490    -6.3670    -1.3620 C.3   1 <1>   0.1400 
 20 C        3.6070    -6.3650     0.8320 C.3   1 <1>   0.1400 
 21 C        6.0400    -6.3170    -0.3890 C.3   1 <1>   0.1200 
 22 C        4.7840    -7.1540     1.4480 C.3   1 <1>   0.1200 
 23 O        5.8950    -7.2970     0.5980 O.3   1 <1>  -0.5600 
 24 H        0.7680    -3.3690     2.9800 H     1 <1>   0.1500 
 25 H        1.7950    -1.6120    -0.7640 H     1 <1>   0.1500 
 26 H        0.0330    -5.4240     1.8250 H     1 <1>   0.1500 
 27 H        1.0680    -3.6590    -1.9370 H     1 <1>   0.1500 
 28 H       -0.0820    -5.7290    -1.9200 H     1 <1>   0.0800 
 29 H       -1.9870    -5.7170    -0.2890 H     1 <1>   0.3700 
 30 H       -0.5960    -9.2940     0.9070 H     1 <1>   0.3700 
 31 H        2.7970    -9.1290    -0.4500 H     1 <1>   0.0800 
 32 H        2.0690    -9.5010     1.0910 H     1 <1>   0.0800 
 33 H        1.4560   -10.2320    -0.3750 H     1 <1>   0.0800 
 34 H        4.9770    -7.2020    -2.0290 H     1 <1>   0.0800 
 35 H        4.8320    -5.4710    -1.9580 H     1 <1>   0.0800 
 36 H        3.7340    -5.3200     1.0580 H     1 <1>   0.0800 
 37 H        2.6890    -6.6770     1.2960 H     1 <1>   0.0800 
 38 H        6.1090    -5.3550     0.0870 H     1 <1>   0.0800 
 39 H        6.9580    -6.5080    -0.9150 H     1 <1>   0.0800 
 40 H        4.4580    -8.1450     1.7040 H     1 <1>   0.0800 
 41 H        5.1170    -6.6690     2.3490 H     1 <1>   0.0800 
@<TRIPOS>BOND
  1   1   2  1   
  2   2   3  ar  
  3   2   4  ar  
  4   3   5  ar  
  5   3  24  1   
  6   4   6  ar  
  7   4  25  1   
  8   5   7  ar  
  9   5  26  1   
 10   6   7  ar  
 11   6  27  1   
 12   7   8  1   
 13   8   9  1   
 14   8  10  1   
 15   8  28  1   
 16   9  11  am  
 17   9  29  1   
 18  10  12  2   
 19  10  13  1   
 20  11  14  2   
 21  11  15  am  
 22  12  15  1   
 23  12  16  1   
 24  13  17  2   
 25  13  18  am  
 26  15  30  1   
 27  16  31  1   
 28  16  32  1   
 29  16  33  1   
 30  18  19  1   
 31  18  20  1   
 32  19  21  1   
 33  19  34  1   
 34  19  35  1   
 35  20  22  1   
 36  20  36  1   
 37  20  37  1   
 38  21  23  1   
 39  21  38  1   
 40  21  39  1   
 41  22  23  1   
 42  22  40  1   
 43  22  41  1   
@<TRIPOS>SUBSTRUCTURE
  1 ****  10 GROUP 4 **** **** 0

# MOE 2024.06 (io_trps.svl 2023.06)
