@<TRIPOS>MOLECULE
NONAME
38 39 1 0 0 
SMALL
USER_CHARGES


@<TRIPOS>ATOM
  1 S        0.5940    -0.2960    -0.5850 S.3   1 <1>  -0.3710 
  2 C        0.3160     1.4650    -0.7720 C.2   1 <1>   0.6510 
  3 C       -1.0670    -1.0600    -0.2790 C.3   1 <1>   0.0440 
  4 N        1.3150     2.2500    -0.9270 N.2   1 <1>  -0.6290 
  5 N       -1.0050     1.8930    -0.7770 N.am  1 <1>  -0.4200 
  6 C       -0.9350    -2.4220     0.3970 C.2   1 <1>   0.9060 
  7 C       -1.8520    -0.0600     0.5610 C.3   1 <1>  -0.0990 
  8 C        2.6020     1.7590    -0.8880 C.ar  1 <1>   0.1790 
  9 C       -2.0640     1.2260    -0.1990 C.2   1 <1>   0.5690 
 10 C       -1.2800     3.2320    -1.3820 C.3   1 <1>   0.0600 
 11 O       -1.0790    -3.4370    -0.2930 O.co2 1 <1>  -0.9000 
 12 O       -0.7470    -2.4770     1.6200 O.co2 1 <1>  -0.9000 
 13 C        3.2060     1.4080     0.3120 C.ar  1 <1>  -0.1500 
 14 C        3.3320     1.6180    -2.0590 C.ar  1 <1>  -0.1500 
 15 O       -3.1940     1.6520    -0.2580 O.2   1 <1>  -0.5700 
 16 C        4.4950     0.9100     0.3370 C.ar  1 <1>  -0.1500 
 17 C        4.6210     1.1200    -2.0320 C.ar  1 <1>  -0.1500 
 18 C        5.2400     0.7470    -0.8350 C.ar  1 <1>   0.0860 
 19 C        6.5910     0.2180    -0.8250 C.2   1 <1>   0.6340 
 20 O        7.2410     0.0300    -1.8350 O.2   1 <1>  -0.5700 
 21 O        7.1470    -0.0700     0.3560 O.3   1 <1>  -0.4300 
 22 C        8.4560    -0.5860     0.4520 C.3   1 <1>   0.1200 
 23 C        8.7720    -0.8050     1.9280 C.3   1 <1>  -0.2400 
 24 H       -1.5270    -1.2020    -1.2390 H     1 <1>   0.0800 
 25 H       -2.8060    -0.4890     0.8110 H     1 <1>   0.0800 
 26 H       -1.3310     0.1390     1.4790 H     1 <1>   0.0800 
 27 H       -2.2700     3.2630    -1.8030 H     1 <1>   0.0800 
 28 H       -0.5770     3.4410    -2.1690 H     1 <1>   0.0800 
 29 H       -1.1960     3.9900    -0.6230 H     1 <1>   0.0800 
 30 H        2.6490     1.5180     1.2250 H     1 <1>   0.1500 
 31 H        2.8740     1.8960    -2.9900 H     1 <1>   0.1500 
 32 H        4.9280     0.6370     1.2840 H     1 <1>   0.1500 
 33 H        5.1630     1.0130    -2.9560 H     1 <1>   0.1500 
 34 H        8.4960    -1.5140    -0.0950 H     1 <1>   0.0800 
 35 H        9.1350     0.1230     0.0100 H     1 <1>   0.0800 
 36 H        8.0770    -1.5060     2.3550 H     1 <1>   0.0800 
 37 H        8.7160     0.1280     2.4600 H     1 <1>   0.0800 
 38 H        9.7660    -1.2000     2.0310 H     1 <1>   0.0800 
@<TRIPOS>BOND
  1   1   2  1   
  2   1   3  1   
  3   2   4  2   
  4   2   5  1   
  5   3   6  1   
  6   3   7  1   
  7   3  24  1   
  8   4   8  1   
  9   5   9  am  
 10   5  10  1   
 11   6  11  ar  
 12   6  12  ar  
 13   7   9  1   
 14   7  25  1   
 15   7  26  1   
 16   8  13  ar  
 17   8  14  ar  
 18   9  15  2   
 19  10  27  1   
 20  10  28  1   
 21  10  29  1   
 22  13  16  ar  
 23  13  30  1   
 24  14  17  ar  
 25  14  31  1   
 26  16  18  ar  
 27  16  32  1   
 28  17  18  ar  
 29  17  33  1   
 30  18  19  1   
 31  19  20  2   
 32  19  21  1   
 33  21  22  1   
 34  22  23  1   
 35  22  34  1   
 36  22  35  1   
 37  23  36  1   
 38  23  37  1   
 39  23  38  1   
@<TRIPOS>SUBSTRUCTURE
  1 ****   8 GROUP 4 **** **** 0

# MOE 2024.06 (io_trps.svl 2023.06)
