@<TRIPOS>MOLECULE
NONAME
50 51 1 0 0 
SMALL
USER_CHARGES


@<TRIPOS>ATOM
  1 O        0.2790     0.6060    -0.3690 O.3   1 <1>  -0.5600 
  2 C       -0.8780     1.3400    -0.6430 C.3   1 <1>   0.1200 
  3 C        1.4760     1.3150    -0.4550 C.3   1 <1>   0.1200 
  4 C       -1.3430     2.0820     0.6150 C.3   1 <1>   0.1200 
  5 C        2.6220     0.3260    -0.2300 C.3   1 <1>   0.1100 
  6 O       -2.4750     2.8290     0.3190 O.3   1 <1>  -0.6800 
  7 N        3.9450     0.9840    -0.3080 N.3   1 <1>  -0.8100 
  8 C        4.2530     1.7680     0.9170 C.3   1 <1>   0.1100 
  9 C        5.0100    -0.0220    -0.5440 C.3   1 <1>   0.1100 
 10 C        5.6680     2.3980     0.8820 C.3   1 <1>   0.3430 
 11 C        6.4170     0.6150    -0.6480 C.3   1 <1>   0.3430 
 12 N        6.3610     2.0960    -0.4170 N.4   1 <1>  -0.9590 
 13 C        7.6590     2.7820    -0.6560 C.3   1 <1>   0.4230 
 14 C        8.7490     2.3300     0.3380 C.3   1 <1>  -0.1600 
 15 C        7.4760     4.3030    -0.6500 C.3   1 <1>  -0.1600 
 16 C        9.8350     3.4000     0.5770 C.3   1 <1>  -0.0800 
 17 C        8.7710     5.0110    -1.0910 C.3   1 <1>  -0.1600 
 18 C       10.0500     4.2550    -0.6810 C.3   1 <1>  -0.1600 
 19 C       11.1480     2.7510     1.0300 C.3   1 <1>  -0.2400 
 20 H       -1.6360     0.6360    -0.9390 H     1 <1>   0.0800 
 21 H       -0.6870     2.0170    -1.4560 H     1 <1>   0.0800 
 22 H        1.4740     2.0810     0.2980 H     1 <1>   0.0800 
 23 H        1.5520     1.7480    -1.4370 H     1 <1>   0.0800 
 24 H       -0.5880     2.7550     0.9790 H     1 <1>   0.0800 
 25 H       -1.6070     1.3770     1.3850 H     1 <1>   0.0800 
 26 H        2.5510    -0.4240    -1.0000 H     1 <1>   0.0800 
 27 H        2.5010    -0.1580     0.7250 H     1 <1>   0.0800 
 28 H       -2.2700     3.5440    -0.3150 H     1 <1>   0.4000 
 29 H        4.1740     1.1360     1.7860 H     1 <1>   0.0800 
 30 H        3.5320     2.5590     1.0290 H     1 <1>   0.0800 
 31 H        4.8040    -0.5510    -1.4600 H     1 <1>   0.0800 
 32 H        5.0100    -0.7470     0.2530 H     1 <1>   0.0800 
 33 H        6.2440     2.0150     1.7070 H     1 <1>   0.0800 
 34 H        5.5750     3.4620     1.0140 H     1 <1>   0.0800 
 35 H        6.8180     0.4140    -1.6280 H     1 <1>   0.0800 
 36 H        7.0700     0.1520     0.0730 H     1 <1>   0.0800 
 37 H        5.6830     2.4170    -1.1240 H     1 <1>   0.4500 
 38 H        8.0020     2.5210    -1.6450 H     1 <1>   0.0800 
 39 H        9.2100     1.4480    -0.0680 H     1 <1>   0.0800 
 40 H        8.3300     2.0730     1.2930 H     1 <1>   0.0800 
 41 H        7.2340     4.6350     0.3430 H     1 <1>   0.0800 
 42 H        6.6790     4.5910    -1.3130 H     1 <1>   0.0800 
 43 H        9.5060     4.0570     1.3670 H     1 <1>   0.0800 
 44 H        8.7870     5.9980    -0.6580 H     1 <1>   0.0800 
 45 H        8.7760     5.1350    -2.1610 H     1 <1>   0.0800 
 46 H       10.3650     3.6170    -1.4900 H     1 <1>   0.0800 
 47 H       10.8410     4.9670    -0.5130 H     1 <1>   0.0800 
 48 H       11.5450     2.1090     0.2630 H     1 <1>   0.0800 
 49 H       10.9920     2.1690     1.9210 H     1 <1>   0.0800 
 50 H       11.8800     3.5090     1.2490 H     1 <1>   0.0800 
@<TRIPOS>BOND
  1   1   2  1   
  2   1   3  1   
  3   2   4  1   
  4   2  20  1   
  5   2  21  1   
  6   3   5  1   
  7   3  22  1   
  8   3  23  1   
  9   4   6  1   
 10   4  24  1   
 11   4  25  1   
 12   5   7  1   
 13   5  26  1   
 14   5  27  1   
 15   6  28  1   
 16   7   8  1   
 17   7   9  1   
 18   8  10  1   
 19   8  29  1   
 20   8  30  1   
 21   9  11  1   
 22   9  31  1   
 23   9  32  1   
 24  10  12  1   
 25  10  33  1   
 26  10  34  1   
 27  11  12  1   
 28  11  35  1   
 29  11  36  1   
 30  12  13  1   
 31  12  37  1   
 32  13  14  1   
 33  13  15  1   
 34  13  38  1   
 35  14  16  1   
 36  14  39  1   
 37  14  40  1   
 38  15  17  1   
 39  15  41  1   
 40  15  42  1   
 41  16  18  1   
 42  16  19  1   
 43  16  43  1   
 44  17  18  1   
 45  17  44  1   
 46  17  45  1   
 47  18  46  1   
 48  18  47  1   
 49  19  48  1   
 50  19  49  1   
 51  19  50  1   
@<TRIPOS>SUBSTRUCTURE
  1 ****  10 GROUP 4 **** **** 0

# MOE 2024.06 (io_trps.svl 2023.06)
