@<TRIPOS>MOLECULE
NONAME
44 46 1 0 0 
SMALL
USER_CHARGES


@<TRIPOS>ATOM
  1 F        1.0270    -1.0770     0.8920 F     1 <1>  -0.3400 
  2 C       -0.0010    -1.9130     1.0380 C.3   1 <1>   1.0200 
  3 F       -0.6220    -1.5120     2.1470 F     1 <1>  -0.3400 
  4 F        0.5400    -3.0900     1.3340 F     1 <1>  -0.3400 
  5 C       -0.9580    -1.9160    -0.2260 C.3   1 <1>   0.5800 
  6 O       -0.3790    -2.4440    -1.3840 O.3   1 <1>  -0.6800 
  7 N       -2.2380    -2.6610    -0.0180 N.am  1 <1>  -0.2980 
  8 C       -1.4550    -0.5020    -0.5740 C.3   1 <1>  -0.0990 
  9 N       -3.3250    -1.8210    -0.1480 N.2   1 <1>  -0.5120 
 10 C       -2.2870    -4.0440     0.1120 C.2   1 <1>   0.5440 
 11 C       -2.9490    -0.6580    -0.4540 C.2   1 <1>   0.3280 
 12 O       -1.2820    -4.6800    -0.1510 O.2   1 <1>  -0.5700 
 13 C       -3.4990    -4.7380     0.5180 C.ar  1 <1>   0.0860 
 14 C       -3.8420     0.5580    -0.7070 C.3   1 <1>  -0.0190 
 15 C       -3.8190    -5.9790    -0.0320 C.ar  1 <1>  -0.1500 
 16 C       -4.3800    -4.2190     1.4720 C.ar  1 <1>  -0.1500 
 17 C       -3.7460     1.5690     0.4520 C.3   1 <1>  -0.1600 
 18 C       -5.3130     0.1570    -0.9410 C.3   1 <1>  -0.1600 
 19 C       -4.9630    -6.6570     0.3420 C.ar  1 <1>   0.0830 
 20 C       -5.5260    -4.8960     1.8510 C.ar  1 <1>  -0.1500 
 21 C       -4.6390     2.7950     0.2110 C.3   1 <1>  -0.1600 
 22 C       -6.2030     1.3820    -1.1890 C.3   1 <1>  -0.1600 
 23 O       -5.2320    -7.8440    -0.2180 O.3   1 <1>  -0.5330 
 24 C       -5.8250    -6.1220     1.2850 C.ar  1 <1>  -0.1500 
 25 C       -6.0960     2.3840    -0.0330 C.3   1 <1>  -0.1600 
 26 H       -0.4020    -3.4270    -1.2800 H     1 <1>   0.4000 
 27 H       -1.1780    -0.2110    -1.5710 H     1 <1>   0.0800 
 28 H       -1.1030     0.2320     0.1260 H     1 <1>   0.0800 
 29 H       -3.4910     1.0350    -1.6050 H     1 <1>   0.0800 
 30 H       -3.1650    -6.4210    -0.7630 H     1 <1>   0.1500 
 31 H       -4.1620    -3.2670     1.9240 H     1 <1>   0.1500 
 32 H       -2.7300     1.9020     0.5730 H     1 <1>   0.0800 
 33 H       -4.0470     1.0880     1.3680 H     1 <1>   0.0800 
 34 H       -5.6820    -0.3750    -0.0800 H     1 <1>   0.0800 
 35 H       -5.3760    -0.5080    -1.7850 H     1 <1>   0.0800 
 36 H       -6.1860    -4.4670     2.5850 H     1 <1>   0.1500 
 37 H       -4.2760     3.3400    -0.6430 H     1 <1>   0.0800 
 38 H       -4.5900     3.4500     1.0640 H     1 <1>   0.0800 
 39 H       -7.2270     1.0670    -1.2980 H     1 <1>   0.0800 
 40 H       -5.9060     1.8610    -2.1070 H     1 <1>   0.0800 
 41 H       -6.0570    -8.2450     0.1080 H     1 <1>   0.4500 
 42 H       -6.7150    -6.6470     1.5770 H     1 <1>   0.1500 
 43 H       -6.6850     3.2570    -0.2570 H     1 <1>   0.0800 
 44 H       -6.4950     1.9380     0.8620 H     1 <1>   0.0800 
@<TRIPOS>BOND
  1   1   2  1   
  2   2   3  1   
  3   2   4  1   
  4   2   5  1   
  5   5   6  1   
  6   5   7  1   
  7   5   8  1   
  8   6  26  1   
  9   7   9  1   
 10   7  10  am  
 11   8  11  1   
 12   8  27  1   
 13   8  28  1   
 14   9  11  2   
 15  10  12  2   
 16  10  13  1   
 17  11  14  1   
 18  13  15  ar  
 19  13  16  ar  
 20  14  17  1   
 21  14  18  1   
 22  14  29  1   
 23  15  19  ar  
 24  15  30  1   
 25  16  20  ar  
 26  16  31  1   
 27  17  21  1   
 28  17  32  1   
 29  17  33  1   
 30  18  22  1   
 31  18  34  1   
 32  18  35  1   
 33  19  23  1   
 34  19  24  ar  
 35  20  24  ar  
 36  20  36  1   
 37  21  25  1   
 38  21  37  1   
 39  21  38  1   
 40  22  25  1   
 41  22  39  1   
 42  22  40  1   
 43  23  41  1   
 44  24  42  1   
 45  25  43  1   
 46  25  44  1   
@<TRIPOS>SUBSTRUCTURE
  1 ****   9 GROUP 4 **** **** 0

# MOE 2024.06 (io_trps.svl 2023.06)
