@<TRIPOS>MOLECULE
NONAME
38 39 1 0 0 
SMALL
USER_CHARGES


@<TRIPOS>ATOM
  1 BR      -0.0890    -0.3200     0.5880 Br    1 <1>  -0.1110 
  2 C       -1.6090     0.7730     0.1430 C.ar  1 <1>   0.1110 
  3 C       -2.8730     0.3020     0.4370 C.ar  1 <1>  -0.1500 
  4 C       -1.3930     1.9970    -0.4590 C.ar  1 <1>  -0.1500 
  5 C       -3.9820     1.0780     0.1200 C.ar  1 <1>   0.1170 
  6 C       -2.4940     2.7740    -0.7730 C.ar  1 <1>  -0.1500 
  7 N       -5.2580     0.5830     0.4410 N.am  1 <1>  -0.5470 
  8 C       -3.7710     2.3180    -0.4840 C.ar  1 <1>  -0.1500 
  9 C       -6.4830     0.8850    -0.1020 C.2   1 <1>   0.5690 
 10 O       -6.6370     1.6580    -1.0180 O.2   1 <1>  -0.5700 
 11 C       -7.7550     0.2240     0.4600 C.3   1 <1>   0.4040 
 12 N       -9.0230     0.9750     0.1150 N.4   1 <1>  -0.9590 
 13 C       -9.0900     2.2700     0.8530 C.3   1 <1>   0.3430 
 14 C      -10.2320     0.1130     0.2340 C.3   1 <1>   0.3430 
 15 C      -10.2050     3.1800     0.3340 C.3   1 <1>  -0.1600 
 16 C      -11.2960     0.5720    -0.7620 C.3   1 <1>  -0.1600 
 17 C      -11.6110     2.6990     0.7220 C.3   1 <1>  -0.1600 
 18 C      -12.2260     1.6860    -0.2540 C.3   1 <1>  -0.1600 
 19 H       -2.9780    -0.6600     0.9030 H     1 <1>   0.1500 
 20 H       -0.3940     2.3300    -0.6750 H     1 <1>   0.1500 
 21 H       -2.3570     3.7340    -1.2430 H     1 <1>   0.1500 
 22 H       -5.2270    -0.1510     1.1490 H     1 <1>   0.3700 
 23 H       -4.6040     2.9490    -0.7360 H     1 <1>   0.1500 
 24 H       -7.6650     0.1370     1.5280 H     1 <1>   0.0800 
 25 H       -7.8080    -0.7680     0.0450 H     1 <1>   0.0800 
 26 H       -8.9100     1.2370    -0.8790 H     1 <1>   0.4500 
 27 H       -8.1540     2.7920     0.7330 H     1 <1>   0.0800 
 28 H       -9.2380     2.0890     1.9060 H     1 <1>   0.0800 
 29 H      -10.6210     0.1290     1.2400 H     1 <1>   0.0800 
 30 H       -9.9670    -0.9040    -0.0080 H     1 <1>   0.0800 
 31 H      -10.1200     3.3260    -0.7290 H     1 <1>   0.0800 
 32 H      -10.0570     4.1430     0.7910 H     1 <1>   0.0800 
 33 H      -11.9140    -0.2760    -1.0030 H     1 <1>   0.0800 
 34 H      -10.8260     0.8770    -1.6800 H     1 <1>   0.0800 
 35 H      -12.2670     3.5530     0.7570 H     1 <1>   0.0800 
 36 H      -11.5940     2.2860     1.7160 H     1 <1>   0.0800 
 37 H      -13.0760     1.2370     0.2330 H     1 <1>   0.0800 
 38 H      -12.6110     2.2170    -1.1100 H     1 <1>   0.0800 
@<TRIPOS>BOND
  1   1   2  1   
  2   2   3  ar  
  3   2   4  ar  
  4   3   5  ar  
  5   3  19  1   
  6   4   6  ar  
  7   4  20  1   
  8   5   7  1   
  9   5   8  ar  
 10   6   8  ar  
 11   6  21  1   
 12   7   9  am  
 13   7  22  1   
 14   8  23  1   
 15   9  10  2   
 16   9  11  1   
 17  11  12  1   
 18  11  24  1   
 19  11  25  1   
 20  12  13  1   
 21  12  14  1   
 22  12  26  1   
 23  13  15  1   
 24  13  27  1   
 25  13  28  1   
 26  14  16  1   
 27  14  29  1   
 28  14  30  1   
 29  15  17  1   
 30  15  31  1   
 31  15  32  1   
 32  16  18  1   
 33  16  33  1   
 34  16  34  1   
 35  17  18  1   
 36  17  35  1   
 37  17  36  1   
 38  18  37  1   
 39  18  38  1   
@<TRIPOS>SUBSTRUCTURE
  1 ****   9 GROUP 4 **** **** 0

# MOE 2024.06 (io_trps.svl 2023.06)
