@<TRIPOS>MOLECULE
NONAME
45 45 1 0 0 
SMALL
USER_CHARGES


@<TRIPOS>ATOM
  1 S       -0.0890    -0.2770    -0.2340 S.o2  1 <1>   1.4470 
  2 O       -0.3590    -0.9640    -1.4800 O.2   1 <1>  -0.6500 
  3 O       -0.1410    -1.0520     0.9880 O.2   1 <1>  -0.6500 
  4 N       -1.2100     1.0030    -0.1240 N.am  1 <1>  -0.8490 
  5 C        1.5400     0.5000    -0.4240 C.ar  1 <1>  -0.0090 
  6 C       -2.5790     0.6020    -0.4730 C.3   1 <1>   0.2760 
  7 C       -1.0820     2.0390     0.9200 C.3   1 <1>   0.2760 
  8 C        1.8550     1.2190    -1.5720 C.ar  1 <1>  -0.1500 
  9 C        2.5140     0.4090     0.5630 C.ar  1 <1>  -0.1500 
 10 C       -3.3130     1.7610    -1.1510 C.3   1 <1>  -0.2400 
 11 C       -3.3580     0.0700     0.7330 C.3   1 <1>  -0.2400 
 12 C       -0.1750     3.1640     0.4280 C.3   1 <1>  -0.2400 
 13 C       -0.6340     1.5310     2.2920 C.3   1 <1>  -0.2400 
 14 C        3.0860     1.8310    -1.7230 C.ar  1 <1>  -0.1500 
 15 C        3.7460     1.0210     0.4170 C.ar  1 <1>  -0.1500 
 16 C        4.0510     1.7480    -0.7280 C.ar  1 <1>   0.1170 
 17 N        5.2870     2.3790    -0.9270 N.am  1 <1>  -0.5470 
 18 C        6.2250     2.8100    -0.0300 C.2   1 <1>   0.5690 
 19 O        6.0970     2.7360     1.1660 O.2   1 <1>  -0.5700 
 20 C        7.4920     3.4350    -0.5870 C.3   1 <1>  -0.0990 
 21 C        8.3720     2.4290    -1.3490 C.3   1 <1>  -0.2400 
 22 H       -2.5430    -0.1890    -1.2030 H     1 <1>   0.0800 
 23 H       -2.0450     2.4910     1.0710 H     1 <1>   0.0800 
 24 H        1.1180     1.2970    -2.3550 H     1 <1>   0.1500 
 25 H        2.3080    -0.1510     1.4600 H     1 <1>   0.1500 
 26 H       -3.5270     2.5600    -0.4670 H     1 <1>   0.0800 
 27 H       -4.2470     1.4080    -1.5480 H     1 <1>   0.0800 
 28 H       -2.7230     2.1360    -1.9670 H     1 <1>   0.0800 
 29 H       -3.5390     0.8390     1.4610 H     1 <1>   0.0800 
 30 H       -2.8240    -0.7420     1.1930 H     1 <1>   0.0800 
 31 H       -4.3100    -0.3060     0.4050 H     1 <1>   0.0800 
 32 H        0.8600     2.8830     0.4580 H     1 <1>   0.0800 
 33 H       -0.2940     4.0220     1.0640 H     1 <1>   0.0800 
 34 H       -0.4440     3.4480    -0.5730 H     1 <1>   0.0800 
 35 H        0.3890     1.2090     2.2800 H     1 <1>   0.0800 
 36 H       -1.2610     0.7230     2.6210 H     1 <1>   0.0800 
 37 H       -0.7160     2.3270     3.0100 H     1 <1>   0.0800 
 38 H        3.2930     2.3820    -2.6230 H     1 <1>   0.1500 
 39 H        4.4740     0.9240     1.2020 H     1 <1>   0.1500 
 40 H        5.5190     2.5650    -1.9000 H     1 <1>   0.3700 
 41 H        8.0570     3.8440     0.2320 H     1 <1>   0.0800 
 42 H        7.2240     4.2500    -1.2340 H     1 <1>   0.0800 
 43 H        8.6480     1.6170    -0.6990 H     1 <1>   0.0800 
 44 H        9.2710     2.9120    -1.6910 H     1 <1>   0.0800 
 45 H        7.8520     2.0290    -2.2000 H     1 <1>   0.0800 
@<TRIPOS>BOND
  1   1   2  2   
  2   1   3  2   
  3   1   4  am  
  4   1   5  1   
  5   4   6  1   
  6   4   7  1   
  7   5   8  ar  
  8   5   9  ar  
  9   6  10  1   
 10   6  11  1   
 11   6  22  1   
 12   7  12  1   
 13   7  13  1   
 14   7  23  1   
 15   8  14  ar  
 16   8  24  1   
 17   9  15  ar  
 18   9  25  1   
 19  10  26  1   
 20  10  27  1   
 21  10  28  1   
 22  11  29  1   
 23  11  30  1   
 24  11  31  1   
 25  12  32  1   
 26  12  33  1   
 27  12  34  1   
 28  13  35  1   
 29  13  36  1   
 30  13  37  1   
 31  14  16  ar  
 32  14  38  1   
 33  15  16  ar  
 34  15  39  1   
 35  16  17  1   
 36  17  18  am  
 37  17  40  1   
 38  18  19  2   
 39  18  20  1   
 40  20  21  1   
 41  20  41  1   
 42  20  42  1   
 43  21  43  1   
 44  21  44  1   
 45  21  45  1   
@<TRIPOS>SUBSTRUCTURE
  1 ****   5 GROUP 4 **** **** 0

# MOE 2024.06 (io_trps.svl 2023.06)
