@<TRIPOS>MOLECULE
NONAME
50 51 1 0 0 
SMALL
USER_CHARGES


@<TRIPOS>ATOM
  1 O        0.6900    -1.1320     0.9700 O.2   1 <1>  -0.5700 
  2 C        0.3430    -2.2930     1.0830 C.2   1 <1>   0.5440 
  3 N        1.3320    -3.2200     1.3270 N.am  1 <1>  -0.6600 
  4 C       -1.0390    -2.6870     0.8860 C.ar  1 <1>   0.0860 
  5 C        1.5510    -4.3080     0.3330 C.3   1 <1>   0.1400 
  6 C        2.5910    -2.7680     1.9890 C.3   1 <1>   0.1400 
  7 C       -1.8580    -2.0100    -0.0140 C.ar  1 <1>  -0.1500 
  8 C       -1.6030    -3.7600     1.5760 C.ar  1 <1>  -0.1500 
  9 C        2.5640    -3.8400    -0.7360 C.3   1 <1>   0.3430 
 10 C        3.5870    -2.2750     0.9230 C.3   1 <1>   0.3430 
 11 C       -3.1700    -2.3810    -0.2430 C.ar  1 <1>   0.0830 
 12 C       -2.9120    -4.1510     1.3630 C.ar  1 <1>  -0.1500 
 13 N        3.8460    -3.3250    -0.1320 N.4   1 <1>  -0.9590 
 14 O       -3.8250    -1.6170    -1.1610 O.3   1 <1>  -0.3620 
 15 C       -3.7160    -3.4770     0.4460 C.ar  1 <1>   0.0830 
 16 C        4.7590    -2.7970    -1.1680 C.3   1 <1>   0.4810 
 17 C       -5.2080    -1.3680    -1.0550 C.3   1 <1>   0.1200 
 18 O       -4.9960    -3.8680     0.2000 O.3   1 <1>  -0.3630 
 19 C        6.1750    -2.7670    -0.6210 C.2   1 <1>  -0.2880 
 20 C       -5.5240    -0.1100    -1.8580 C.3   1 <1>  -0.2400 
 21 C       -5.6070    -4.9540     0.8570 C.3   1 <1>   0.1200 
 22 C        6.6670    -3.2670     0.5220 C.2   1 <1>  -0.3000 
 23 C       -7.0330    -5.0780     0.3300 C.3   1 <1>  -0.2400 
 24 H        0.6220    -4.5650    -0.1460 H     1 <1>   0.0800 
 25 H        1.9180    -5.1870     0.8340 H     1 <1>   0.0800 
 26 H        3.0170    -3.5760     2.5570 H     1 <1>   0.0800 
 27 H        2.3730    -1.9640     2.6720 H     1 <1>   0.0800 
 28 H       -1.4640    -1.1660    -0.5500 H     1 <1>   0.1500 
 29 H       -1.0050    -4.2940     2.2940 H     1 <1>   0.1500 
 30 H        2.1000    -3.0560    -1.3120 H     1 <1>   0.0800 
 31 H        2.7760    -4.6590    -1.4040 H     1 <1>   0.0800 
 32 H        4.5110    -1.9930     1.4010 H     1 <1>   0.0800 
 33 H        3.1700    -1.3920     0.4650 H     1 <1>   0.0800 
 34 H       -3.2880    -4.9860     1.9230 H     1 <1>   0.1500 
 35 H        4.3450    -4.1050     0.3090 H     1 <1>   0.4500 
 36 H        4.4510    -1.8040    -1.4570 H     1 <1>   0.0800 
 37 H        4.7350    -3.4280    -2.0420 H     1 <1>   0.0800 
 38 H       -5.4570    -1.2330    -0.0170 H     1 <1>   0.0800 
 39 H       -5.7370    -2.2150    -1.4560 H     1 <1>   0.0800 
 40 H        6.8290    -2.2580    -1.3130 H     1 <1>   0.1500 
 41 H       -4.9810     0.7280    -1.4590 H     1 <1>   0.0800 
 42 H       -6.5760     0.1030    -1.8010 H     1 <1>   0.0800 
 43 H       -5.2580    -0.2550    -2.8900 H     1 <1>   0.0800 
 44 H       -5.6080    -4.7570     1.9150 H     1 <1>   0.0800 
 45 H       -5.0430    -5.8460     0.6400 H     1 <1>   0.0800 
 46 H        7.7080    -3.1810     0.7940 H     1 <1>   0.1500 
 47 H        6.1240    -3.7990     1.2830 H     1 <1>   0.1500 
 48 H       -7.5830    -4.1770     0.5380 H     1 <1>   0.0800 
 49 H       -7.5290    -5.9010     0.8110 H     1 <1>   0.0800 
 50 H       -7.0210    -5.2560    -0.7300 H     1 <1>   0.0800 
@<TRIPOS>BOND
  1   1   2  2   
  2   2   3  am  
  3   2   4  1   
  4   3   5  1   
  5   3   6  1   
  6   4   7  ar  
  7   4   8  ar  
  8   5   9  1   
  9   5  24  1   
 10   5  25  1   
 11   6  10  1   
 12   6  26  1   
 13   6  27  1   
 14   7  11  ar  
 15   7  28  1   
 16   8  12  ar  
 17   8  29  1   
 18   9  13  1   
 19   9  30  1   
 20   9  31  1   
 21  10  13  1   
 22  10  32  1   
 23  10  33  1   
 24  11  14  1   
 25  11  15  ar  
 26  12  15  ar  
 27  12  34  1   
 28  13  16  1   
 29  13  35  1   
 30  14  17  1   
 31  15  18  1   
 32  16  19  1   
 33  16  36  1   
 34  16  37  1   
 35  17  20  1   
 36  17  38  1   
 37  17  39  1   
 38  18  21  1   
 39  19  22  2   
 40  19  40  1   
 41  20  41  1   
 42  20  42  1   
 43  20  43  1   
 44  21  23  1   
 45  21  44  1   
 46  21  45  1   
 47  22  46  1   
 48  22  47  1   
 49  23  48  1   
 50  23  49  1   
 51  23  50  1   
@<TRIPOS>SUBSTRUCTURE
  1 ****   4 GROUP 4 **** **** 0

# MOE 2024.06 (io_trps.svl 2023.06)
