@<TRIPOS>MOLECULE
NONAME
47 48 1 0 0 
SMALL
USER_CHARGES


@<TRIPOS>ATOM
  1 O        0.1690     0.4740     0.5310 O.3   1 <1>  -0.1650 
  2 C       -0.5210     1.5870     0.2330 C.ar  1 <1>   0.7020 
  3 C        1.5050     0.3770     0.3690 C.ar  1 <1>   0.3920 
  4 N       -1.8020     1.4110     0.0800 N.ar  1 <1>  -0.6200 
  5 N        0.1280     2.7160     0.1170 N.ar  1 <1>  -0.6200 
  6 N        2.1880    -0.0780     1.4170 N.ar  1 <1>  -0.3100 
  7 C        2.1000     0.7080    -0.8350 C.ar  1 <1>  -0.1500 
  8 C       -2.4620     2.5060    -0.2190 C.ar  1 <1>   0.7200 
  9 C       -0.6450     3.7250    -0.1790 C.ar  1 <1>   0.7200 
 10 N        3.4950    -0.2040     1.3350 N.ar  1 <1>  -0.3100 
 11 C        3.4660     0.5740    -0.9210 C.ar  1 <1>  -0.1500 
 12 N       -1.9290     3.6930    -0.3620 N.ar  1 <1>  -0.6200 
 13 N       -3.8240     2.3910    -0.3990 N.pl3 1 <1>  -0.8380 
 14 N       -0.0760     4.9400    -0.3160 N.pl3 1 <1>  -0.8690 
 15 C        4.1290     0.1130     0.2050 C.ar  1 <1>   0.3930 
 16 C       -4.6360     3.4670    -1.0360 C.3   1 <1>   0.1290 
 17 C       -4.5900     1.1880     0.0350 C.3   1 <1>   0.1290 
 18 C        1.2150     5.3190     0.2960 C.3   1 <1>   0.2090 
 19 O        5.4720    -0.0510     0.2440 O.3   1 <1>  -0.3620 
 20 C        1.4700     6.8250     0.1260 C.3   1 <1>  -0.0800 
 21 C        6.3050     0.2620    -0.8470 C.3   1 <1>   0.1200 
 22 C        2.8610     7.1870     0.6630 C.3   1 <1>  -0.2400 
 23 C        0.4080     7.6800     0.8380 C.3   1 <1>  -0.2400 
 24 C        7.7450    -0.0300    -0.4380 C.3   1 <1>  -0.2400 
 25 H        1.5170     1.0590    -1.6660 H     1 <1>   0.1500 
 26 H        3.9730     0.8240    -1.8310 H     1 <1>   0.1500 
 27 H       -0.7590     5.6920    -0.3930 H     1 <1>   0.4000 
 28 H       -4.0320     4.0560    -1.7040 H     1 <1>   0.0800 
 29 H       -5.0420     4.1100    -0.2740 H     1 <1>   0.0800 
 30 H       -5.4420     3.0350    -1.6030 H     1 <1>   0.0800 
 31 H       -4.0910     0.6900     0.8480 H     1 <1>   0.0800 
 32 H       -4.6820     0.5030    -0.7900 H     1 <1>   0.0800 
 33 H       -5.5710     1.4750     0.3690 H     1 <1>   0.0800 
 34 H        2.0020     4.7580    -0.1810 H     1 <1>   0.0800 
 35 H        1.2040     5.0610     1.3420 H     1 <1>   0.0800 
 36 H        1.4520     7.0510    -0.9280 H     1 <1>   0.0800 
 37 H        6.1830     1.3050    -1.0840 H     1 <1>   0.0800 
 38 H        6.0180    -0.3500    -1.6850 H     1 <1>   0.0800 
 39 H        2.9280     6.9770     1.7160 H     1 <1>   0.0800 
 40 H        3.0610     8.2330     0.5090 H     1 <1>   0.0800 
 41 H        3.6190     6.6210     0.1500 H     1 <1>   0.0800 
 42 H        0.3790     7.4480     1.8890 H     1 <1>   0.0800 
 43 H       -0.5680     7.5060     0.4230 H     1 <1>   0.0800 
 44 H        0.6340     8.7250     0.7250 H     1 <1>   0.0800 
 45 H        8.0180     0.5730     0.4090 H     1 <1>   0.0800 
 46 H        8.4100     0.1980    -1.2510 H     1 <1>   0.0800 
 47 H        7.8540    -1.0700    -0.1860 H     1 <1>   0.0800 
@<TRIPOS>BOND
  1   1   2  1   
  2   1   3  1   
  3   2   4  ar  
  4   2   5  ar  
  5   3   6  ar  
  6   3   7  ar  
  7   4   8  ar  
  8   5   9  ar  
  9   6  10  ar  
 10   7  11  ar  
 11   7  25  1   
 12   8  12  ar  
 13   8  13  1   
 14   9  12  ar  
 15   9  14  1   
 16  10  15  ar  
 17  11  15  ar  
 18  11  26  1   
 19  13  16  1   
 20  13  17  1   
 21  14  18  1   
 22  14  27  1   
 23  15  19  1   
 24  16  28  1   
 25  16  29  1   
 26  16  30  1   
 27  17  31  1   
 28  17  32  1   
 29  17  33  1   
 30  18  20  1   
 31  18  34  1   
 32  18  35  1   
 33  19  21  1   
 34  20  22  1   
 35  20  23  1   
 36  20  36  1   
 37  21  24  1   
 38  21  37  1   
 39  21  38  1   
 40  22  39  1   
 41  22  40  1   
 42  22  41  1   
 43  23  42  1   
 44  23  43  1   
 45  23  44  1   
 46  24  45  1   
 47  24  46  1   
 48  24  47  1   
@<TRIPOS>SUBSTRUCTURE
  1 ****   5 GROUP 4 **** **** 0

# MOE 2024.06 (io_trps.svl 2023.06)
