@<TRIPOS>MOLECULE
NONAME
31 32 1 0 0 
SMALL
USER_CHARGES


@<TRIPOS>ATOM
  1 O       -0.1930     0.8660    -0.4700 O.3   1 <1>  -0.6860 
  2 C       -1.0330     1.9450    -0.2750 C.3   1 <1>   0.1080 
  3 C       -2.3810     1.3990     0.2020 C.3   1 <1>   0.1560 
  4 N       -3.3650     2.4940     0.4030 N.pl3 1 <1>  -0.7200 
  5 C       -4.6920     2.4660     0.3040 C.cat 1 <1>   1.0680 
  6 N       -5.4090     3.5790     0.3610 N.pl3 1 <1>  -0.7060 
  7 N       -5.4970     1.4040     0.1400 N.pl3 1 <1>  -0.7690 
  8 C       -6.7410     3.2560     0.2060 C.ar  1 <1>   0.2990 
  9 C       -6.8030     1.8840     0.0610 C.ar  1 <1>   0.2990 
 10 C       -5.1750    -0.0470     0.1290 C.3   1 <1>   0.2630 
 11 C       -7.8860     4.0400     0.1780 C.ar  1 <1>  -0.1210 
 12 C       -8.0310     1.2560    -0.1230 C.ar  1 <1>  -0.1210 
 13 C       -9.1080     3.4190    -0.0020 C.ar  1 <1>  -0.1560 
 14 C       -9.1740     2.0320    -0.1520 C.ar  1 <1>  -0.1620 
 15 C      -10.3940     4.2270    -0.0410 C.3   1 <1>  -0.1090 
 16 H        0.6920     1.1530    -0.7760 H     1 <1>   0.3910 
 17 H       -1.1330     2.4610    -1.2140 H     1 <1>   0.0670 
 18 H       -0.5850     2.5850     0.4660 H     1 <1>   0.0670 
 19 H       -2.2390     0.8740     1.1320 H     1 <1>   0.0670 
 20 H       -2.7450     0.7130    -0.5430 H     1 <1>   0.0670 
 21 H       -2.9330     3.3880     0.6280 H     1 <1>   0.4410 
 22 H       -5.0600     4.5260     0.4700 H     1 <1>   0.4410 
 23 H       -4.3980    -0.2660     0.8410 H     1 <1>   0.0670 
 24 H       -4.8540    -0.3440    -0.8550 H     1 <1>   0.0670 
 25 H       -6.0410    -0.6260     0.4000 H     1 <1>   0.0670 
 26 H       -7.8150     5.1070     0.2940 H     1 <1>   0.1380 
 27 H       -8.0920     0.1900    -0.2420 H     1 <1>   0.1380 
 28 H      -10.1340     1.5630    -0.2930 H     1 <1>   0.1380 
 29 H      -10.1980     5.2760     0.0880 H     1 <1>   0.0670 
 30 H      -11.0550     3.9050     0.7440 H     1 <1>   0.0670 
 31 H      -10.8880     4.0860    -0.9860 H     1 <1>   0.0670 
@<TRIPOS>BOND
  1   1   2  1   
  2   1  16  1   
  3   2   3  1   
  4   2  17  1   
  5   2  18  1   
  6   3   4  1   
  7   3  19  1   
  8   3  20  1   
  9   4   5  ar  
 10   4  21  1   
 11   5   6  ar  
 12   5   7  ar  
 13   6   8  1   
 14   6  22  1   
 15   7   9  1   
 16   7  10  1   
 17   8   9  ar  
 18   8  11  ar  
 19   9  12  ar  
 20  10  23  1   
 21  10  24  1   
 22  10  25  1   
 23  11  13  ar  
 24  11  26  1   
 25  12  14  ar  
 26  12  27  1   
 27  13  14  ar  
 28  13  15  1   
 29  14  28  1   
 30  15  29  1   
 31  15  30  1   
 32  15  31  1   
@<TRIPOS>SUBSTRUCTURE
  1 ****   7 GROUP 4 **** **** 0

# MOE 2024.06 (io_trps.svl 2023.06)
