@<TRIPOS>MOLECULE
NONAME
46 47 1 0 0 
SMALL
USER_CHARGES


@<TRIPOS>ATOM
  1 S       -0.3740     0.6230    -1.2800 S.o2  1 <1>   1.4470 
  2 O       -0.9640     1.2340    -2.4470 O.2   1 <1>  -0.6500 
  3 O        0.3900    -0.5990    -1.3900 O.2   1 <1>  -0.6500 
  4 N       -1.6970     0.2990    -0.3080 N.am  1 <1>  -0.9140 
  5 C        0.5440     1.8520    -0.3140 C.ar  1 <1>  -0.0090 
  6 C       -2.4330    -0.9020    -0.7520 C.3   1 <1>   0.3370 
  7 C        1.1900     1.4930     0.8640 C.ar  1 <1>  -0.1500 
  8 C        0.6130     3.1830    -0.7130 C.ar  1 <1>  -0.1500 
  9 C       -3.8280    -0.5110    -1.2840 C.2   1 <1>   0.5690 
 10 C       -2.5320    -1.9090     0.4260 C.3   1 <1>  -0.0800 
 11 C        1.8810     2.4260     1.6180 C.ar  1 <1>  -0.1500 
 12 C        1.3010     4.1220     0.0350 C.ar  1 <1>  -0.1500 
 13 O       -4.2250    -0.9720    -2.3280 O.2   1 <1>  -0.5700 
 14 N       -4.5730     0.3720    -0.5610 N.am  1 <1>  -0.7300 
 15 C       -1.1520    -2.3120     0.9760 C.3   1 <1>  -0.2400 
 16 C       -3.2870    -3.1880     0.0220 C.3   1 <1>  -0.2400 
 17 C        1.9370     3.7440     1.2030 C.ar  1 <1>  -0.1500 
 18 C       -5.9010     0.8780    -0.9380 C.3   1 <1>   0.2200 
 19 C       -5.8700     2.4000    -0.9000 C.3   1 <1>  -0.1600 
 20 C       -6.8890     0.5210     0.1650 C.3   1 <1>  -0.1600 
 21 C       -6.0320     2.7830     0.5750 C.3   1 <1>  -0.1600 
 22 C       -6.6980     1.5800     1.2570 C.3   1 <1>  -0.1600 
 23 H       -2.3180     1.0710    -0.5490 H     1 <1>   0.4200 
 24 H       -1.9170    -1.3890    -1.5630 H     1 <1>   0.0800 
 25 H        1.1520     0.4680     1.1920 H     1 <1>   0.1500 
 26 H        0.1230     3.4900    -1.6230 H     1 <1>   0.1500 
 27 H       -3.0860    -1.4400     1.2220 H     1 <1>   0.0800 
 28 H        2.3750     2.1260     2.5260 H     1 <1>   0.1500 
 29 H        1.3440     5.1470    -0.2920 H     1 <1>   0.1500 
 30 H       -4.2670     0.6600     0.3690 H     1 <1>   0.3700 
 31 H       -0.5480    -2.7470     0.1980 H     1 <1>   0.0800 
 32 H       -0.6330    -1.4570     1.3690 H     1 <1>   0.0800 
 33 H       -1.2560    -3.0290     1.7710 H     1 <1>   0.0800 
 34 H       -2.7890    -3.6770    -0.7980 H     1 <1>   0.0800 
 35 H       -4.2960    -2.9660    -0.2770 H     1 <1>   0.0800 
 36 H       -3.3330    -3.8740     0.8500 H     1 <1>   0.0800 
 37 H        2.4740     4.4720     1.7870 H     1 <1>   0.1500 
 38 H       -6.2010     0.4960    -1.9010 H     1 <1>   0.0800 
 39 H       -6.7170     2.7700    -1.4510 H     1 <1>   0.0800 
 40 H       -4.9740     2.8020    -1.3430 H     1 <1>   0.0800 
 41 H       -6.7510    -0.4830     0.5260 H     1 <1>   0.0800 
 42 H       -7.8850     0.6070    -0.2330 H     1 <1>   0.0800 
 43 H       -6.6290     3.6740     0.6770 H     1 <1>   0.0800 
 44 H       -5.0660     2.9620     1.0170 H     1 <1>   0.0800 
 45 H       -6.0550     1.1990     2.0320 H     1 <1>   0.0800 
 46 H       -7.6430     1.8510     1.6950 H     1 <1>   0.0800 
@<TRIPOS>BOND
  1   1   2  2   
  2   1   3  2   
  3   1   4  am  
  4   1   5  1   
  5   4   6  1   
  6   4  23  1   
  7   5   7  ar  
  8   5   8  ar  
  9   6   9  1   
 10   6  10  1   
 11   6  24  1   
 12   7  11  ar  
 13   7  25  1   
 14   8  12  ar  
 15   8  26  1   
 16   9  13  2   
 17   9  14  am  
 18  10  15  1   
 19  10  16  1   
 20  10  27  1   
 21  11  17  ar  
 22  11  28  1   
 23  12  17  ar  
 24  12  29  1   
 25  14  18  1   
 26  14  30  1   
 27  15  31  1   
 28  15  32  1   
 29  15  33  1   
 30  16  34  1   
 31  16  35  1   
 32  16  36  1   
 33  17  37  1   
 34  18  19  1   
 35  18  20  1   
 36  18  38  1   
 37  19  21  1   
 38  19  39  1   
 39  19  40  1   
 40  20  22  1   
 41  20  41  1   
 42  20  42  1   
 43  21  22  1   
 44  21  43  1   
 45  21  44  1   
 46  22  45  1   
 47  22  46  1   
@<TRIPOS>SUBSTRUCTURE
  1 ****   4 GROUP 4 **** **** 0

# MOE 2024.06 (io_trps.svl 2023.06)
