@<TRIPOS>MOLECULE
NONAME
37 38 1 0 0 
SMALL
USER_CHARGES


@<TRIPOS>ATOM
  1 N       -2.2520     2.3850     0.3270 N.ar  1 <1>  -0.2100 
  2 C       -1.1060     3.1100     0.1480 C.ar  1 <1>   0.2180 
  3 C       -3.4150     3.0290     0.6030 C.ar  1 <1>   0.2110 
  4 C       -2.2950     0.8820     0.2320 C.3   1 <1>   0.4080 
  5 C       -1.1530     4.4950     0.2520 C.ar  1 <1>  -0.1500 
  6 C        0.2200     2.3980    -0.1660 C.3   1 <1>  -0.0160 
  7 C       -3.4810     4.4020     0.7100 C.ar  1 <1>  -0.1500 
  8 C       -3.2160     0.4340    -0.9090 C.3   1 <1>  -0.2400 
  9 C       -2.7230     0.2640     1.5680 C.3   1 <1>  -0.2400 
 10 C       -2.3370     5.1520     0.5330 C.ar  1 <1>  -0.1500 
 11 C        1.4650     3.2780    -0.3540 C.3   1 <1>  -0.0170 
 12 C        2.6620     2.3940    -0.6540 C.ar  1 <1>  -0.1430 
 13 C        2.9770     2.0630    -1.9630 C.ar  1 <1>  -0.1500 
 14 C        3.4450     1.9020     0.3800 C.ar  1 <1>  -0.1500 
 15 C        4.0590     1.2440    -2.2350 C.ar  1 <1>  -0.1500 
 16 C        4.5270     1.0830     0.1080 C.ar  1 <1>  -0.1500 
 17 C        4.8340     0.7530    -1.2000 C.ar  1 <1>  -0.1500 
 18 H       -4.3180     2.4590     0.7440 H     1 <1>   0.1500 
 19 H       -1.3200     0.4910     0.0110 H     1 <1>   0.0800 
 20 H       -0.2770     5.1050     0.1190 H     1 <1>   0.1500 
 21 H        0.0980     1.8280    -1.0700 H     1 <1>   0.0800 
 22 H        0.4380     1.7110     0.6340 H     1 <1>   0.0800 
 23 H       -4.4170     4.8890     0.9300 H     1 <1>   0.1500 
 24 H       -4.2450     0.6800    -0.7160 H     1 <1>   0.0800 
 25 H       -3.1530    -0.6340    -1.0240 H     1 <1>   0.0800 
 26 H       -2.9100     0.8840    -1.8370 H     1 <1>   0.0800 
 27 H       -3.7400     0.5060     1.8170 H     1 <1>   0.0800 
 28 H       -2.6480    -0.8080     1.5100 H     1 <1>   0.0800 
 29 H       -2.0740     0.5960     2.3600 H     1 <1>   0.0800 
 30 H       -2.3660     6.2290     0.6130 H     1 <1>   0.1500 
 31 H        1.6620     3.8480     0.5380 H     1 <1>   0.0800 
 32 H        1.3210     3.9650    -1.1700 H     1 <1>   0.0800 
 33 H        2.3870     2.4390    -2.7810 H     1 <1>   0.1500 
 34 H        3.2230     2.1520     1.4030 H     1 <1>   0.1500 
 35 H        4.3010     0.9900    -3.2530 H     1 <1>   0.1500 
 36 H        5.1330     0.7040     0.9130 H     1 <1>   0.1500 
 37 H        5.6760     0.1170    -1.4120 H     1 <1>   0.1500 
@<TRIPOS>BOND
  1   1   2  ar  
  2   1   3  ar  
  3   1   4  1   
  4   2   5  ar  
  5   2   6  1   
  6   3   7  ar  
  7   3  18  1   
  8   4   8  1   
  9   4   9  1   
 10   4  19  1   
 11   5  10  ar  
 12   5  20  1   
 13   6  11  1   
 14   6  21  1   
 15   6  22  1   
 16   7  10  ar  
 17   7  23  1   
 18   8  24  1   
 19   8  25  1   
 20   8  26  1   
 21   9  27  1   
 22   9  28  1   
 23   9  29  1   
 24  10  30  1   
 25  11  12  1   
 26  11  31  1   
 27  11  32  1   
 28  12  13  ar  
 29  12  14  ar  
 30  13  15  ar  
 31  13  33  1   
 32  14  16  ar  
 33  14  34  1   
 34  15  17  ar  
 35  15  35  1   
 36  16  17  ar  
 37  16  36  1   
 38  17  37  1   
@<TRIPOS>SUBSTRUCTURE
  1 ****   6 GROUP 4 **** **** 0

# MOE 2024.06 (io_trps.svl 2023.06)
