@<TRIPOS>MOLECULE
NONAME
29 29 1 0 0 
SMALL
USER_CHARGES


@<TRIPOS>ATOM
  1 S       -0.1540     0.5360    -0.0040 S.3   1 <1>  -0.4100 
  2 C       -1.5190    -0.6520    -0.0040 C.3   1 <1>   0.0700 
  3 C       -2.8290     0.1370    -0.0030 C.3   1 <1>  -0.1600 
  4 C       -4.0430    -0.8010    -0.0030 C.3   1 <1>  -0.1600 
  5 C       -5.3540    -0.0030    -0.0030 C.3   1 <1>  -0.1600 
  6 C       -6.5690    -0.9310    -0.0030 C.3   1 <1>   0.1200 
  7 O       -7.7300    -0.1340    -0.0020 O.3   1 <1>  -0.3620 
  8 C       -8.9670    -0.6920    -0.0020 C.ar  1 <1>   0.0820 
  9 C      -10.0440     0.1800    -0.0020 C.ar  1 <1>  -0.1500 
 10 C       -9.1990    -2.0650    -0.0020 C.ar  1 <1>  -0.1500 
 11 C      -11.3400    -0.3040    -0.0010 C.ar  1 <1>  -0.1500 
 12 C      -10.4960    -2.5480    -0.0020 C.ar  1 <1>  -0.1500 
 13 C      -11.5670    -1.6700    -0.0020 C.ar  1 <1>  -0.1500 
 14 H        0.9450    -0.2760    -0.0040 H     1 <1>   0.1800 
 15 H       -1.4170    -1.2580     0.8800 H     1 <1>   0.0800 
 16 H       -1.4180    -1.2580    -0.8870 H     1 <1>   0.0800 
 17 H       -2.8600     0.7670    -0.8750 H     1 <1>   0.0800 
 18 H       -2.8590     0.7670     0.8690 H     1 <1>   0.0800 
 19 H       -4.0080    -1.4310     0.8690 H     1 <1>   0.0800 
 20 H       -4.0080    -1.4310    -0.8760 H     1 <1>   0.0800 
 21 H       -5.3930     0.6240    -0.8770 H     1 <1>   0.0800 
 22 H       -5.3930     0.6230     0.8720 H     1 <1>   0.0800 
 23 H       -6.5790    -1.5450     0.8810 H     1 <1>   0.0800 
 24 H       -6.5790    -1.5440    -0.8870 H     1 <1>   0.0800 
 25 H       -9.8580     1.2390    -0.0010 H     1 <1>   0.1500 
 26 H       -8.3890    -2.7690    -0.0030 H     1 <1>   0.1500 
 27 H      -12.1700     0.3810    -0.0010 H     1 <1>   0.1500 
 28 H      -10.6750    -3.6090    -0.0030 H     1 <1>   0.1500 
 29 H      -12.5740    -2.0480    -0.0020 H     1 <1>   0.1500 
@<TRIPOS>BOND
  1   1   2  1   
  2   1  14  1   
  3   2   3  1   
  4   2  15  1   
  5   2  16  1   
  6   3   4  1   
  7   3  17  1   
  8   3  18  1   
  9   4   5  1   
 10   4  19  1   
 11   4  20  1   
 12   5   6  1   
 13   5  21  1   
 14   5  22  1   
 15   6   7  1   
 16   6  23  1   
 17   6  24  1   
 18   7   8  1   
 19   8   9  ar  
 20   8  10  ar  
 21   9  11  ar  
 22   9  25  1   
 23  10  12  ar  
 24  10  26  1   
 25  11  13  ar  
 26  11  27  1   
 27  12  13  ar  
 28  12  28  1   
 29  13  29  1   
@<TRIPOS>SUBSTRUCTURE
  1 ****   6 GROUP 4 **** **** 0

# MOE 2024.06 (io_trps.svl 2023.06)
