@<TRIPOS>MOLECULE
NONAME
42 43 1 0 0 
SMALL
USER_CHARGES


@<TRIPOS>ATOM
  1 O       -0.0670     0.3470    -0.3520 O.2   1 <1>  -0.5700 
  2 C       -1.1580     0.8290    -0.1140 C.2   1 <1>   0.7060 
  3 O       -2.2130     0.0300    -0.2490 O.3   1 <1>  -0.2330 
  4 C       -1.3710     2.1940     0.2940 C.2   1 <1>  -0.1240 
  5 C       -3.4850     0.4170    -0.0120 C.ar  1 <1>   0.0820 
  6 C       -2.6330     2.6510     0.5240 C.2   1 <1>  -0.1670 
  7 C       -0.1100     3.0530     0.4380 C.3   1 <1>  -0.0220 
  8 C       -3.7410     1.7360     0.3940 C.ar  1 <1>   0.0280 
  9 C       -4.5050    -0.5190    -0.1710 C.ar  1 <1>  -0.1440 
 10 C       -2.9580     4.0970     0.9050 C.3   1 <1>  -0.1020 
 11 C        0.2330     3.7450    -0.8850 C.3   1 <1>  -0.2400 
 12 C       -5.0730     2.0720     0.6540 C.ar  1 <1>  -0.1500 
 13 C       -5.8170    -0.1500     0.0990 C.ar  1 <1>   0.0830 
 14 C       -4.1850    -1.9450    -0.6260 C.3   1 <1>  -0.0970 
 15 C       -6.0900     1.1530     0.5110 C.ar  1 <1>  -0.1500 
 16 O       -6.7900    -1.0840    -0.0440 O.3   1 <1>  -0.3630 
 17 C       -8.1480    -0.8110     0.2150 C.3   1 <1>   0.1200 
 18 C       -8.9490    -2.0860    -0.0460 C.3   1 <1>  -0.1600 
 19 C      -10.4440    -1.8660     0.2170 C.3   1 <1>  -0.1600 
 20 C      -11.2430    -3.1460    -0.0460 C.3   1 <1>  -0.2400 
 21 H        0.7230     2.4420     0.7420 H     1 <1>   0.0800 
 22 H       -0.2310     3.7870     1.2130 H     1 <1>   0.0800 
 23 H       -3.3450     4.1330     1.9080 H     1 <1>   0.0800 
 24 H       -3.6960     4.4950     0.2310 H     1 <1>   0.0800 
 25 H       -2.1100     4.7510     0.8510 H     1 <1>   0.0800 
 26 H        0.4210     3.0090    -1.6480 H     1 <1>   0.0800 
 27 H        1.1150     4.3500    -0.7680 H     1 <1>   0.0800 
 28 H       -0.5790     4.3730    -1.2030 H     1 <1>   0.0800 
 29 H       -5.3310     3.0620     0.9770 H     1 <1>   0.1500 
 30 H       -3.3040    -1.9730    -1.2400 H     1 <1>   0.0800 
 31 H       -4.9920    -2.3540    -1.2060 H     1 <1>   0.0800 
 32 H       -4.0280    -2.5700     0.2340 H     1 <1>   0.0800 
 33 H       -7.0940     1.4660     0.7250 H     1 <1>   0.1500 
 34 H       -8.4660    -0.0210    -0.4420 H     1 <1>   0.0800 
 35 H       -8.2420    -0.5070     1.2430 H     1 <1>   0.0800 
 36 H       -8.5830    -2.8670     0.5980 H     1 <1>   0.0800 
 37 H       -8.8050    -2.3870    -1.0690 H     1 <1>   0.0800 
 38 H      -10.8130    -1.0820    -0.4230 H     1 <1>   0.0800 
 39 H      -10.5920    -1.5620     1.2390 H     1 <1>   0.0800 
 40 H      -11.1280    -3.4580    -1.0690 H     1 <1>   0.0800 
 41 H      -12.2880    -2.9730     0.1430 H     1 <1>   0.0800 
 42 H      -10.9060    -3.9390     0.5980 H     1 <1>   0.0800 
@<TRIPOS>BOND
  1   1   2  2   
  2   2   3  1   
  3   2   4  1   
  4   3   5  1   
  5   4   6  2   
  6   4   7  1   
  7   5   8  ar  
  8   5   9  ar  
  9   6   8  1   
 10   6  10  1   
 11   7  11  1   
 12   7  21  1   
 13   7  22  1   
 14   8  12  ar  
 15   9  13  ar  
 16   9  14  1   
 17  10  23  1   
 18  10  24  1   
 19  10  25  1   
 20  11  26  1   
 21  11  27  1   
 22  11  28  1   
 23  12  15  ar  
 24  12  29  1   
 25  13  15  ar  
 26  13  16  1   
 27  14  30  1   
 28  14  31  1   
 29  14  32  1   
 30  15  33  1   
 31  16  17  1   
 32  17  18  1   
 33  17  34  1   
 34  17  35  1   
 35  18  19  1   
 36  18  36  1   
 37  18  37  1   
 38  19  20  1   
 39  19  38  1   
 40  19  39  1   
 41  20  40  1   
 42  20  41  1   
 43  20  42  1   
@<TRIPOS>SUBSTRUCTURE
  1 ****   5 GROUP 4 **** **** 0

# MOE 2024.06 (io_trps.svl 2023.06)
