@<TRIPOS>MOLECULE
NONAME
64 68 1 0 0 
SMALL
USER_CHARGES


@<TRIPOS>ATOM
  1 O       -0.7760     1.7480     2.2470 O.2   1 <1>  -0.5700 
  2 C       -0.6900     2.4940     1.2890 C.2   1 <1>   0.6900 
  3 N        0.4270     2.4930     0.5040 N.am  1 <1>  -0.6600 
  4 N       -1.7120     3.3240     0.9690 N.am  1 <1>  -0.7300 
  5 C        1.5710     1.6010     0.7790 C.3   1 <1>   0.1400 
  6 C        0.7650     3.4950    -0.5280 C.3   1 <1>   0.1400 
  7 C       -3.0420     3.3260     1.6230 C.3   1 <1>   0.1400 
  8 C        2.5830     1.9180    -0.3160 C.3   1 <1>  -0.1600 
  9 C        2.2710     3.3550    -0.7250 C.3   1 <1>  -0.1600 
 10 C       -4.1430     2.7550     0.7030 C.3   1 <1>   0.0000 
 11 C       -5.4870     2.7760     1.4670 C.3   1 <1>  -0.1600 
 12 C       -4.3010     3.5990    -0.5840 C.3   1 <1>  -0.1600 
 13 C       -3.8370     1.2920     0.3050 C.3   1 <1>  -0.1600 
 14 C       -6.6420     2.2110     0.6090 C.3   1 <1>   0.0000 
 15 C       -5.4320     3.0350    -1.4630 C.3   1 <1>  -0.0800 
 16 C       -4.9640     0.7210    -0.5730 C.3   1 <1>  -0.0800 
 17 C       -6.7540     3.0670    -0.6750 C.3   1 <1>  -0.1600 
 18 C       -6.2870     0.7590     0.2110 C.3   1 <1>  -0.1600 
 19 C       -7.9440     2.2620     1.4350 C.3   1 <1>   0.1400 
 20 C       -5.1020     1.5800    -1.8430 C.3   1 <1>  -0.1600 
 21 N       -9.1090     1.7330     0.6870 N.am  1 <1>  -0.7300 
 22 C      -10.3800     2.1290     0.9090 C.2   1 <1>   0.6900 
 23 O      -11.2100     1.2590     1.0870 O.2   1 <1>  -0.5700 
 24 N      -10.7210     3.4520     0.9480 N.am  1 <1>  -0.6600 
 25 C      -10.0440     4.4820     0.1300 C.3   1 <1>   0.1400 
 26 C      -12.0970     3.8760     1.2840 C.3   1 <1>   0.1400 
 27 C      -11.1440     5.4620    -0.2600 C.3   1 <1>  -0.1600 
 28 C      -12.1790     5.3350     0.8530 C.3   1 <1>  -0.1600 
 29 H       -1.6550     3.7910     0.0710 H     1 <1>   0.3700 
 30 H        1.2620     0.5690     0.7570 H     1 <1>   0.0800 
 31 H        1.9710     1.8360     1.7510 H     1 <1>   0.0800 
 32 H        0.5020     4.4880    -0.2060 H     1 <1>   0.0800 
 33 H        0.2430     3.2500    -1.4380 H     1 <1>   0.0800 
 34 H       -3.2870     4.3360     1.8990 H     1 <1>   0.0800 
 35 H       -2.9970     2.7430     2.5280 H     1 <1>   0.0800 
 36 H        2.4150     1.2550    -1.1470 H     1 <1>   0.0800 
 37 H        3.5940     1.7980     0.0300 H     1 <1>   0.0800 
 38 H        2.7730     4.0390    -0.0620 H     1 <1>   0.0800 
 39 H        2.5650     3.5680    -1.7370 H     1 <1>   0.0800 
 40 H       -5.3930     2.1920     2.3670 H     1 <1>   0.0800 
 41 H       -5.7170     3.7860     1.7580 H     1 <1>   0.0800 
 42 H       -3.3860     3.5880    -1.1480 H     1 <1>   0.0800 
 43 H       -4.5180     4.6210    -0.3290 H     1 <1>   0.0800 
 44 H       -3.7210     0.6880     1.1890 H     1 <1>   0.0800 
 45 H       -2.9090     1.2400    -0.2380 H     1 <1>   0.0800 
 46 H       -5.5280     3.6290    -2.3560 H     1 <1>   0.0800 
 47 H       -4.7310    -0.2950    -0.8450 H     1 <1>   0.0800 
 48 H       -6.9950     4.0830    -0.4190 H     1 <1>   0.0800 
 49 H       -7.5450     2.6890    -1.2990 H     1 <1>   0.0800 
 50 H       -7.0660     0.3410    -0.4020 H     1 <1>   0.0800 
 51 H       -6.2000     0.1470     1.0920 H     1 <1>   0.0800 
 52 H       -8.1400     3.2750     1.7380 H     1 <1>   0.0800 
 53 H       -7.8220     1.6760     2.3290 H     1 <1>   0.0800 
 54 H       -4.1850     1.5480    -2.4040 H     1 <1>   0.0800 
 55 H       -5.8810     1.1810    -2.4690 H     1 <1>   0.0800 
 56 H       -9.0570     0.7290     0.5240 H     1 <1>   0.3700 
 57 H       -9.5820     4.0440    -0.7390 H     1 <1>   0.0800 
 58 H       -9.3000     4.9760     0.7300 H     1 <1>   0.0800 
 59 H      -12.2840     3.7580     2.3380 H     1 <1>   0.0800 
 60 H      -12.7980     3.2780     0.7260 H     1 <1>   0.0800 
 61 H      -11.5730     5.1490    -1.1960 H     1 <1>   0.0800 
 62 H      -10.7700     6.4650    -0.3630 H     1 <1>   0.0800 
 63 H      -11.9040     5.9610     1.6840 H     1 <1>   0.0800 
 64 H      -13.1700     5.5990     0.5260 H     1 <1>   0.0800 
@<TRIPOS>BOND
  1   1   2  2   
  2   2   3  am  
  3   2   4  am  
  4   3   5  1   
  5   3   6  1   
  6   4   7  1   
  7   4  29  1   
  8   5   8  1   
  9   5  30  1   
 10   5  31  1   
 11   6   9  1   
 12   6  32  1   
 13   6  33  1   
 14   7  10  1   
 15   7  34  1   
 16   7  35  1   
 17   8   9  1   
 18   8  36  1   
 19   8  37  1   
 20   9  38  1   
 21   9  39  1   
 22  10  11  1   
 23  10  12  1   
 24  10  13  1   
 25  11  14  1   
 26  11  40  1   
 27  11  41  1   
 28  12  15  1   
 29  12  42  1   
 30  12  43  1   
 31  13  16  1   
 32  13  44  1   
 33  13  45  1   
 34  14  17  1   
 35  14  18  1   
 36  14  19  1   
 37  15  17  1   
 38  15  20  1   
 39  15  46  1   
 40  16  18  1   
 41  16  20  1   
 42  16  47  1   
 43  17  48  1   
 44  17  49  1   
 45  18  50  1   
 46  18  51  1   
 47  19  21  1   
 48  19  52  1   
 49  19  53  1   
 50  20  54  1   
 51  20  55  1   
 52  21  22  am  
 53  21  56  1   
 54  22  23  2   
 55  22  24  am  
 56  24  25  1   
 57  24  26  1   
 58  25  27  1   
 59  25  57  1   
 60  25  58  1   
 61  26  28  1   
 62  26  59  1   
 63  26  60  1   
 64  27  28  1   
 65  27  61  1   
 66  27  62  1   
 67  28  63  1   
 68  28  64  1   
@<TRIPOS>SUBSTRUCTURE
  1 ****  11 GROUP 4 **** **** 0

# MOE 2024.06 (io_trps.svl 2023.06)
