@<TRIPOS>MOLECULE
NONAME
47 48 1 0 0 
SMALL
USER_CHARGES


@<TRIPOS>ATOM
  1 CL      -0.0920     1.4540    -2.3030 Cl    1 <1>  -0.1770 
  2 C        0.7160     2.3680    -1.0440 C.ar  1 <1>   0.1770 
  3 C       -0.0470     3.1660    -0.1920 C.ar  1 <1>   0.1170 
  4 C        2.0890     2.2680    -0.9350 C.ar  1 <1>  -0.1500 
  5 N       -1.4460     3.2110    -0.3730 N.am  1 <1>  -0.5470 
  6 C        0.6350     3.8740     0.7950 C.ar  1 <1>  -0.1500 
  7 C        2.7430     2.9820     0.0530 C.ar  1 <1>  -0.1500 
  8 C       -2.4320     3.9160     0.2550 C.2   1 <1>   0.5690 
  9 C        2.0120     3.7830     0.9150 C.ar  1 <1>  -0.1500 
 10 O       -2.2450     4.6900     1.1590 O.2   1 <1>  -0.5700 
 11 C       -3.8550     3.7130    -0.2160 C.3   1 <1>  -0.0990 
 12 C       -4.7480     4.8050     0.3800 C.3   1 <1>   0.3430 
 13 N       -6.1680     4.6800    -0.0690 N.4   1 <1>  -0.9590 
 14 C       -6.8990     5.9480     0.2160 C.3   1 <1>   0.3430 
 15 C       -6.8580     3.5110     0.5550 C.3   1 <1>   0.3430 
 16 C       -8.3010     5.8760    -0.3850 C.3   1 <1>  -0.1600 
 17 C       -8.2580     3.3710    -0.0360 C.3   1 <1>  -0.1600 
 18 C       -9.0890     4.6580     0.1310 C.3   1 <1>  -0.0190 
 19 C      -10.4310     4.5400    -0.5850 C.2   1 <1>   0.6590 
 20 O      -10.4870     4.3040    -1.7630 O.2   1 <1>  -0.5700 
 21 O      -11.5070     4.7160     0.1650 O.3   1 <1>  -0.4300 
 22 C      -12.8040     4.6340    -0.3810 C.3   1 <1>   0.1200 
 23 C      -13.8070     4.8850     0.7400 C.3   1 <1>  -0.2400 
 24 H        2.6390     1.6400    -1.6140 H     1 <1>   0.1500 
 25 H       -1.7500     2.5920    -1.1270 H     1 <1>   0.3700 
 26 H        0.1050     4.5050     1.4840 H     1 <1>   0.1500 
 27 H        3.8140     2.9160     0.1530 H     1 <1>   0.1500 
 28 H        2.5180     4.3400     1.6860 H     1 <1>   0.1500 
 29 H       -4.1740     2.7410     0.1090 H     1 <1>   0.0800 
 30 H       -3.8770     3.7650    -1.2880 H     1 <1>   0.0800 
 31 H       -4.3550     5.7630     0.0760 H     1 <1>   0.0800 
 32 H       -4.6960     4.7630     1.4570 H     1 <1>   0.0800 
 33 H       -6.1830     4.5490    -1.0910 H     1 <1>   0.4500 
 34 H       -6.3690     6.7850    -0.2120 H     1 <1>   0.0800 
 35 H       -6.9670     6.1000     1.2820 H     1 <1>   0.0800 
 36 H       -6.9260     3.6530     1.6220 H     1 <1>   0.0800 
 37 H       -6.3030     2.6050     0.3690 H     1 <1>   0.0800 
 38 H       -8.2240     5.8380    -1.4590 H     1 <1>   0.0800 
 39 H       -8.8360     6.7770    -0.1360 H     1 <1>   0.0800 
 40 H       -8.7660     2.5560     0.4510 H     1 <1>   0.0800 
 41 H       -8.1770     3.1170    -1.0790 H     1 <1>   0.0800 
 42 H       -9.2890     4.8000     1.1800 H     1 <1>   0.0800 
 43 H      -12.9360     3.6520    -0.8050 H     1 <1>   0.0800 
 44 H      -12.8970     5.3760    -1.1560 H     1 <1>   0.0800 
 45 H      -13.6980     4.1420     1.5100 H     1 <1>   0.0800 
 46 H      -14.8070     4.8280     0.3500 H     1 <1>   0.0800 
 47 H      -13.6600     5.8640     1.1590 H     1 <1>   0.0800 
@<TRIPOS>BOND
  1   1   2  1   
  2   2   3  ar  
  3   2   4  ar  
  4   3   5  1   
  5   3   6  ar  
  6   4   7  ar  
  7   4  24  1   
  8   5   8  am  
  9   5  25  1   
 10   6   9  ar  
 11   6  26  1   
 12   7   9  ar  
 13   7  27  1   
 14   8  10  2   
 15   8  11  1   
 16   9  28  1   
 17  11  12  1   
 18  11  29  1   
 19  11  30  1   
 20  12  13  1   
 21  12  31  1   
 22  12  32  1   
 23  13  14  1   
 24  13  15  1   
 25  13  33  1   
 26  14  16  1   
 27  14  34  1   
 28  14  35  1   
 29  15  17  1   
 30  15  36  1   
 31  15  37  1   
 32  16  18  1   
 33  16  38  1   
 34  16  39  1   
 35  17  18  1   
 36  17  40  1   
 37  17  41  1   
 38  18  19  1   
 39  18  42  1   
 40  19  20  2   
 41  19  21  1   
 42  21  22  1   
 43  22  23  1   
 44  22  43  1   
 45  22  44  1   
 46  23  45  1   
 47  23  46  1   
 48  23  47  1   
@<TRIPOS>SUBSTRUCTURE
  1 ****  12 GROUP 4 **** **** 0

# MOE 2024.06 (io_trps.svl 2023.06)
