@<TRIPOS>MOLECULE
NONAME
47 49 1 0 0 
SMALL
USER_CHARGES


@<TRIPOS>ATOM
  1 F       -1.1830    -0.3700    -1.7070 F     1 <1>  -0.1900 
  2 C       -2.2280    -1.0340    -1.2830 C.ar  1 <1>   0.1900 
  3 C       -2.2250    -1.5280     0.0080 C.ar  1 <1>  -0.1500 
  4 C       -3.2960    -1.2160    -2.1420 C.ar  1 <1>  -0.1500 
  5 C       -3.3350    -2.2290     0.4480 C.ar  1 <1>  -0.1500 
  6 C       -4.3980    -1.9190    -1.6860 C.ar  1 <1>  -0.1500 
  7 C       -4.4270    -2.4300    -0.3900 C.ar  1 <1>   0.1000 
  8 N       -5.5230    -3.1380     0.0860 N.pl3 1 <1>  -0.8380 
  9 C       -5.7770    -4.4660    -0.5460 C.3   1 <1>   0.2090 
 10 C       -6.7820    -2.3580     0.2720 C.3   1 <1>   0.2090 
 11 C       -6.8580    -5.2490     0.2250 C.3   1 <1>   0.1100 
 12 C       -7.8390    -3.1890     1.0230 C.3   1 <1>   0.1100 
 13 N       -8.1210    -4.4840     0.3490 N.3   1 <1>  -0.8100 
 14 C       -9.1370    -5.2670     1.1170 C.3   1 <1>   0.1710 
 15 C      -10.5600    -4.7200     0.9920 C.2   1 <1>   0.5690 
 16 O      -11.3640    -4.9710     1.8570 O.2   1 <1>  -0.5700 
 17 N      -10.8210    -3.9720    -0.1210 N.am  1 <1>  -0.5470 
 18 C      -11.9560    -3.2910    -0.5850 C.ar  1 <1>   0.1170 
 19 C      -13.1120    -3.1250     0.1700 C.ar  1 <1>  -0.1500 
 20 C      -11.9190    -2.7460    -1.8630 C.ar  1 <1>  -0.1500 
 21 C      -14.2020    -2.4330    -0.3300 C.ar  1 <1>   0.0830 
 22 C      -13.0020    -2.0540    -2.3750 C.ar  1 <1>  -0.1500 
 23 O      -15.2820    -2.3210     0.4840 O.3   1 <1>  -0.3630 
 24 C      -14.1460    -1.8950    -1.6130 C.ar  1 <1>  -0.1500 
 25 C      -16.4510    -1.6540     0.0660 C.3   1 <1>   0.0400 
 26 H       -1.3770    -1.3670     0.6470 H     1 <1>   0.1500 
 27 H       -3.2600    -0.8160    -3.1380 H     1 <1>   0.1500 
 28 H       -3.3710    -2.6280     1.4440 H     1 <1>   0.1500 
 29 H       -5.2410    -2.0750    -2.3320 H     1 <1>   0.1500 
 30 H       -4.8620    -5.0320    -0.5550 H     1 <1>   0.0800 
 31 H       -6.0980    -4.3270    -1.5630 H     1 <1>   0.0800 
 32 H       -7.1730    -2.0680    -0.6870 H     1 <1>   0.0800 
 33 H       -6.5640    -1.4650     0.8310 H     1 <1>   0.0800 
 34 H       -6.4750    -5.4870     1.2030 H     1 <1>   0.0800 
 35 H       -7.0490    -6.1720    -0.2940 H     1 <1>   0.0800 
 36 H       -8.7430    -2.6080     1.0940 H     1 <1>   0.0800 
 37 H       -7.4820    -3.3670     2.0230 H     1 <1>   0.0800 
 38 H       -8.8680    -5.3010     2.1590 H     1 <1>   0.0800 
 39 H       -9.1580    -6.2770     0.7500 H     1 <1>   0.0800 
 40 H       -9.9770    -3.8770    -0.6940 H     1 <1>   0.3700 
 41 H      -13.1790    -3.5300     1.1610 H     1 <1>   0.1500 
 42 H      -11.0370    -2.8640    -2.4660 H     1 <1>   0.1500 
 43 H      -12.9560    -1.6400    -3.3670 H     1 <1>   0.1500 
 44 H      -14.9740    -1.3550    -2.0300 H     1 <1>   0.1500 
 45 H      -17.1660    -1.7000     0.8680 H     1 <1>   0.0800 
 46 H      -16.8450    -2.1520    -0.8030 H     1 <1>   0.0800 
 47 H      -16.2100    -0.6290    -0.1510 H     1 <1>   0.0800 
@<TRIPOS>BOND
  1   1   2  1   
  2   2   3  ar  
  3   2   4  ar  
  4   3   5  ar  
  5   3  26  1   
  6   4   6  ar  
  7   4  27  1   
  8   5   7  ar  
  9   5  28  1   
 10   6   7  ar  
 11   6  29  1   
 12   7   8  1   
 13   8   9  1   
 14   8  10  1   
 15   9  11  1   
 16   9  30  1   
 17   9  31  1   
 18  10  12  1   
 19  10  32  1   
 20  10  33  1   
 21  11  13  1   
 22  11  34  1   
 23  11  35  1   
 24  12  13  1   
 25  12  36  1   
 26  12  37  1   
 27  13  14  1   
 28  14  15  1   
 29  14  38  1   
 30  14  39  1   
 31  15  16  2   
 32  15  17  am  
 33  17  18  1   
 34  17  40  1   
 35  18  19  ar  
 36  18  20  ar  
 37  19  21  ar  
 38  19  41  1   
 39  20  22  ar  
 40  20  42  1   
 41  21  23  1   
 42  21  24  ar  
 43  22  24  ar  
 44  22  43  1   
 45  23  25  1   
 46  24  44  1   
 47  25  45  1   
 48  25  46  1   
 49  25  47  1   
@<TRIPOS>SUBSTRUCTURE
  1 ****  12 GROUP 4 **** **** 0

# MOE 2024.06 (io_trps.svl 2023.06)
