@<TRIPOS>MOLECULE
NONAME
43 45 1 0 0 
SMALL
USER_CHARGES


@<TRIPOS>ATOM
  1 CL      -1.4490     0.1790     0.5970 Cl    1 <1>  -0.1770 
  2 C       -2.3550    -1.0800    -0.1980 C.ar  1 <1>   0.1770 
  3 C       -2.3890    -2.3410     0.3680 C.ar  1 <1>  -0.1500 
  4 C       -3.0230    -0.8000    -1.3740 C.ar  1 <1>  -0.1500 
  5 C       -3.1160    -3.3480    -0.2520 C.ar  1 <1>  -0.1440 
  6 C       -3.7400    -1.8060    -1.9980 C.ar  1 <1>  -0.1500 
  7 C       -3.7840    -3.0740    -1.4390 C.ar  1 <1>  -0.1500 
  8 C       -3.1900    -4.7390     0.3510 C.3   1 <1>   0.4870 
  9 N       -4.0770    -4.7100     1.5560 N.4   1 <1>  -0.9590 
 10 C       -4.1110    -6.0530     2.2490 C.3   1 <1>   0.3430 
 11 C       -5.4560    -4.1730     1.2150 C.3   1 <1>   0.3430 
 12 C       -5.1380    -7.0690     1.6720 C.3   1 <1>   0.1960 
 13 C       -6.6090    -5.0960     1.6730 C.3   1 <1>   0.1960 
 14 N       -6.4130    -6.4780     1.1940 N.am  1 <1>  -0.8490 
 15 S       -6.6590    -6.6340    -0.4830 S.o2  1 <1>   1.4470 
 16 O       -5.3730    -6.3250    -1.0750 O.2   1 <1>  -0.6500 
 17 O       -7.7780    -5.7810    -0.8050 O.2   1 <1>  -0.6500 
 18 C       -7.0840    -8.3840    -0.6930 C.ar  1 <1>  -0.0090 
 19 C       -6.3910    -9.1910    -1.5890 C.ar  1 <1>  -0.1500 
 20 C       -8.1120    -8.9610     0.0430 C.ar  1 <1>  -0.1500 
 21 C       -6.7060   -10.5310    -1.7380 C.ar  1 <1>  -0.1500 
 22 C       -8.4330   -10.3000    -0.1000 C.ar  1 <1>  -0.1500 
 23 C       -7.7280   -11.0860    -0.9900 C.ar  1 <1>  -0.1500 
 24 H       -1.8430    -2.5080     1.2790 H     1 <1>   0.1500 
 25 H       -2.9780     0.1900    -1.7940 H     1 <1>   0.1500 
 26 H       -4.2610    -1.6020    -2.9190 H     1 <1>   0.1500 
 27 H       -4.3450    -3.8450    -1.9460 H     1 <1>   0.1500 
 28 H       -2.1980    -5.0530     0.6310 H     1 <1>   0.0800 
 29 H       -3.5590    -5.4320    -0.3830 H     1 <1>   0.0800 
 30 H       -3.6440    -4.0280     2.1900 H     1 <1>   0.4500 
 31 H       -4.3780    -5.8930     3.2810 H     1 <1>   0.0800 
 32 H       -3.1300    -6.5000     2.2480 H     1 <1>   0.0800 
 33 H       -5.5450    -4.0470     0.1480 H     1 <1>   0.0800 
 34 H       -5.5870    -3.2000     1.6590 H     1 <1>   0.0800 
 35 H       -5.3700    -7.7810     2.4460 H     1 <1>   0.0800 
 36 H       -4.6640    -7.6340     0.8850 H     1 <1>   0.0800 
 37 H       -7.5490    -4.7040     1.3210 H     1 <1>   0.0800 
 38 H       -6.6620    -5.0950     2.7490 H     1 <1>   0.0800 
 39 H       -5.5960    -8.7710    -2.1830 H     1 <1>   0.1500 
 40 H       -8.6720    -8.3560     0.7370 H     1 <1>   0.1500 
 41 H       -6.1590   -11.1410    -2.4370 H     1 <1>   0.1500 
 42 H       -9.2340   -10.7290     0.4790 H     1 <1>   0.1500 
 43 H       -7.9760   -12.1280    -1.1050 H     1 <1>   0.1500 
@<TRIPOS>BOND
  1   1   2  1   
  2   2   3  ar  
  3   2   4  ar  
  4   3   5  ar  
  5   3  24  1   
  6   4   6  ar  
  7   4  25  1   
  8   5   7  ar  
  9   5   8  1   
 10   6   7  ar  
 11   6  26  1   
 12   7  27  1   
 13   8   9  1   
 14   8  28  1   
 15   8  29  1   
 16   9  10  1   
 17   9  11  1   
 18   9  30  1   
 19  10  12  1   
 20  10  31  1   
 21  10  32  1   
 22  11  13  1   
 23  11  33  1   
 24  11  34  1   
 25  12  14  1   
 26  12  35  1   
 27  12  36  1   
 28  13  14  1   
 29  13  37  1   
 30  13  38  1   
 31  14  15  am  
 32  15  16  2   
 33  15  17  2   
 34  15  18  1   
 35  18  19  ar  
 36  18  20  ar  
 37  19  21  ar  
 38  19  39  1   
 39  20  22  ar  
 40  20  40  1   
 41  21  23  ar  
 42  21  41  1   
 43  22  23  ar  
 44  22  42  1   
 45  23  43  1   
@<TRIPOS>SUBSTRUCTURE
  1 ****  16 GROUP 4 **** **** 0

# MOE 2024.06 (io_trps.svl 2023.06)
