@<TRIPOS>MOLECULE
NONAME
47 49 1 0 0 
SMALL
USER_CHARGES


@<TRIPOS>ATOM
  1 BR       3.8440     1.7240     4.6100 Br    1 <1>  -0.1110 
  2 C        3.4070     1.3500     2.7730 C.ar  1 <1>   0.1110 
  3 C        4.4280     1.0530     1.8940 C.ar  1 <1>  -0.1500 
  4 C        2.0800     1.3870     2.3870 C.ar  1 <1>  -0.1500 
  5 C        4.1160     0.7800     0.5680 C.ar  1 <1>   0.1990 
  6 C        1.7700     1.1140     1.0650 C.ar  1 <1>  -0.1500 
  7 N        5.1060     0.4700    -0.3530 N.am  1 <1>  -0.6930 
  8 C        2.7830     0.8150     0.1680 C.ar  1 <1>  -0.1500 
  9 S        5.6740    -1.1600    -0.4940 S.o2  1 <1>   1.4470 
 10 C        6.0470     1.5590    -0.7650 C.3   1 <1>   0.2570 
 11 O        6.7410    -1.1230    -1.4730 O.2   1 <1>  -0.6500 
 12 O        5.9510    -1.6220     0.8450 O.2   1 <1>  -0.6500 
 13 C        4.2310    -2.0080    -1.1910 C.ar  1 <1>  -0.0090 
 14 C        7.2970     1.6820     0.1110 C.2   1 <1>   0.5690 
 15 C        4.0450    -2.1050    -2.5650 C.ar  1 <1>  -0.1500 
 16 C        3.2550    -2.5530    -0.3630 C.ar  1 <1>  -0.1500 
 17 O        7.3660     2.5890     0.9070 O.2   1 <1>  -0.5700 
 18 N        8.2960     0.7730    -0.0260 N.am  1 <1>  -0.7300 
 19 C        2.9280    -2.7270    -3.0970 C.ar  1 <1>  -0.1500 
 20 C        2.1350    -3.1760    -0.8860 C.ar  1 <1>  -0.1500 
 21 C        9.4770     0.6550     0.8380 C.3   1 <1>   0.2200 
 22 C        1.9710    -3.2630    -2.2560 C.ar  1 <1>  -0.1500 
 23 C       10.6750     0.2890    -0.0290 C.3   1 <1>  -0.1600 
 24 C        9.3040    -0.5690     1.7280 C.3   1 <1>  -0.1600 
 25 C       10.5580    -1.2190    -0.2780 C.3   1 <1>  -0.1600 
 26 C        9.6930    -1.7730     0.8620 C.3   1 <1>  -0.1600 
 27 H        5.4480     1.0290     2.2340 H     1 <1>   0.1500 
 28 H        1.3130     1.6230     3.1040 H     1 <1>   0.1500 
 29 H        0.7450     1.1360     0.7370 H     1 <1>   0.1500 
 30 H        2.5400     0.6020    -0.8580 H     1 <1>   0.1500 
 31 H        5.5250     2.4990    -0.7310 H     1 <1>   0.0800 
 32 H        6.3540     1.3970    -1.7820 H     1 <1>   0.0800 
 33 H        4.7840    -1.6900    -3.2310 H     1 <1>   0.1500 
 34 H        3.3730    -2.4870     0.7060 H     1 <1>   0.1500 
 35 H        8.1600    -0.0340    -0.6500 H     1 <1>   0.3700 
 36 H        2.8050    -2.7940    -4.1650 H     1 <1>   0.1500 
 37 H        1.3930    -3.5920    -0.2260 H     1 <1>   0.1500 
 38 H        9.6310     1.5600     1.4030 H     1 <1>   0.0800 
 39 H        1.1020    -3.7490    -2.6660 H     1 <1>   0.1500 
 40 H       11.5730     0.4820     0.5330 H     1 <1>   0.0800 
 41 H       10.7090     0.8610    -0.9400 H     1 <1>   0.0800 
 42 H        8.3050    -0.6480     2.1210 H     1 <1>   0.0800 
 43 H        9.9910    -0.4920     2.5510 H     1 <1>   0.0800 
 44 H       11.5290    -1.6840    -0.2990 H     1 <1>   0.0800 
 45 H       10.0660    -1.3970    -1.2190 H     1 <1>   0.0800 
 46 H        8.8060    -2.2300     0.4560 H     1 <1>   0.0800 
 47 H       10.2250    -2.5060     1.4430 H     1 <1>   0.0800 
@<TRIPOS>BOND
  1   1   2  1   
  2   2   3  ar  
  3   2   4  ar  
  4   3   5  ar  
  5   3  27  1   
  6   4   6  ar  
  7   4  28  1   
  8   5   7  1   
  9   5   8  ar  
 10   6   8  ar  
 11   6  29  1   
 12   7   9  am  
 13   7  10  1   
 14   8  30  1   
 15   9  11  2   
 16   9  12  2   
 17   9  13  1   
 18  10  14  1   
 19  10  31  1   
 20  10  32  1   
 21  13  15  ar  
 22  13  16  ar  
 23  14  17  2   
 24  14  18  am  
 25  15  19  ar  
 26  15  33  1   
 27  16  20  ar  
 28  16  34  1   
 29  18  21  1   
 30  18  35  1   
 31  19  22  ar  
 32  19  36  1   
 33  20  22  ar  
 34  20  37  1   
 35  21  23  1   
 36  21  24  1   
 37  21  38  1   
 38  22  39  1   
 39  23  25  1   
 40  23  40  1   
 41  23  41  1   
 42  24  26  1   
 43  24  42  1   
 44  24  43  1   
 45  25  26  1   
 46  25  44  1   
 47  25  45  1   
 48  26  46  1   
 49  26  47  1   
@<TRIPOS>SUBSTRUCTURE
  1 ****   7 GROUP 4 **** **** 0

# MOE 2024.06 (io_trps.svl 2023.06)
