@<TRIPOS>MOLECULE
NONAME
41 43 1 0 0 
SMALL
USER_CHARGES


@<TRIPOS>ATOM
  1 F        0.4120     1.1530     1.9260 F     1 <1>  -0.1900 
  2 C        1.3940     1.8860     1.4750 C.ar  1 <1>   0.1900 
  3 C        1.3700     2.2910     0.1540 C.ar  1 <1>  -0.1500 
  4 C        2.4210     2.2290     2.3330 C.ar  1 <1>  -0.1500 
  5 C        2.4140     3.0690    -0.3200 C.ar  1 <1>  -0.1500 
  6 C        3.4560     3.0090     1.8470 C.ar  1 <1>  -0.1500 
  7 C        3.4580     3.4350     0.5220 C.ar  1 <1>  -0.1430 
  8 C        4.5960     4.2970    -0.0080 C.3   1 <1>   0.2840 
  9 N        5.8820     3.6690     0.3090 N.am  1 <1>  -0.7300 
 10 C        6.7640     3.1220    -0.5540 C.2   1 <1>   0.5690 
 11 O        6.6250     3.2420    -1.7510 O.2   1 <1>  -0.5700 
 12 C        7.9600     2.3680     0.0430 C.3   1 <1>  -0.0190 
 13 C        7.5300     1.2900     1.0920 C.3   1 <1>  -0.1860 
 14 C        8.8980     1.7230    -1.0140 C.3   1 <1>  -0.0800 
 15 C        7.5070     1.8490     2.5150 C.2   1 <1>   0.9060 
 16 C        8.3830     0.0060     0.9060 C.3   1 <1>  -0.0800 
 17 C        8.2470     0.4440    -1.5860 C.3   1 <1>  -0.1600 
 18 C       10.2010     1.3080    -0.2990 C.3   1 <1>  -0.1600 
 19 O        6.8080     2.8480     2.7370 O.co2 1 <1>  -0.9000 
 20 O        8.1480     1.3060     3.4200 O.co2 1 <1>  -0.9000 
 21 C        8.0260    -0.5990    -0.4670 C.3   1 <1>  -0.1600 
 22 C        9.8830     0.3710     0.8870 C.3   1 <1>  -0.1600 
 23 H        0.5570     2.0000    -0.4840 H     1 <1>   0.1500 
 24 H        2.4180     1.8920     3.3530 H     1 <1>   0.1500 
 25 H        2.4140     3.3870    -1.3480 H     1 <1>   0.1500 
 26 H        4.2690     3.2760     2.5060 H     1 <1>   0.1500 
 27 H        4.5600     5.2680     0.4520 H     1 <1>   0.0800 
 28 H        4.5100     4.4210    -1.0740 H     1 <1>   0.0800 
 29 H        6.0600     3.4940     1.3210 H     1 <1>   0.3700 
 30 H        8.5370     3.1150     0.5580 H     1 <1>   0.0800 
 31 H        6.5110     1.0140     0.8950 H     1 <1>   0.0800 
 32 H        9.1170     2.4230    -1.8030 H     1 <1>   0.0800 
 33 H        8.1760    -0.6990     1.6950 H     1 <1>   0.0800 
 34 H        8.8750     0.0270    -2.3520 H     1 <1>   0.0800 
 35 H        7.3030     0.6930    -2.0390 H     1 <1>   0.0800 
 36 H       10.7160     2.1810     0.0620 H     1 <1>   0.0800 
 37 H       10.8500     0.8070    -0.9950 H     1 <1>   0.0800 
 38 H        6.9990    -0.9190    -0.4670 H     1 <1>   0.0800 
 39 H        8.6400    -1.4630    -0.6470 H     1 <1>   0.0800 
 40 H       10.4740    -0.5250     0.8140 H     1 <1>   0.0800 
 41 H       10.1420     0.8550     1.8130 H     1 <1>   0.0800 
@<TRIPOS>BOND
  1   1   2  1   
  2   2   3  ar  
  3   2   4  ar  
  4   3   5  ar  
  5   3  23  1   
  6   4   6  ar  
  7   4  24  1   
  8   5   7  ar  
  9   5  25  1   
 10   6   7  ar  
 11   6  26  1   
 12   7   8  1   
 13   8   9  1   
 14   8  27  1   
 15   8  28  1   
 16   9  10  am  
 17   9  29  1   
 18  10  11  2   
 19  10  12  1   
 20  12  13  1   
 21  12  14  1   
 22  12  30  1   
 23  13  15  1   
 24  13  16  1   
 25  13  31  1   
 26  14  17  1   
 27  14  18  1   
 28  14  32  1   
 29  15  19  ar  
 30  15  20  ar  
 31  16  21  1   
 32  16  22  1   
 33  16  33  1   
 34  17  21  1   
 35  17  34  1   
 36  17  35  1   
 37  18  22  1   
 38  18  36  1   
 39  18  37  1   
 40  21  38  1   
 41  21  39  1   
 42  22  40  1   
 43  22  41  1   
@<TRIPOS>SUBSTRUCTURE
  1 ****   9 GROUP 4 **** **** 0

# MOE 2024.06 (io_trps.svl 2023.06)
