@<TRIPOS>MOLECULE
NONAME
39 39 1 0 0 
SMALL
USER_CHARGES


@<TRIPOS>ATOM
  1 O        1.3290    -2.1050    -1.1420 O.2   1 <1>  -0.5700 
  2 C        0.5210    -1.9020    -0.2550 C.2   1 <1>   0.5440 
  3 N        0.9330    -1.1300     0.7980 N.am  1 <1>  -0.7300 
  4 C       -0.8090    -2.4870    -0.2930 C.ar  1 <1>   0.0860 
  5 C        2.0880    -0.1810     0.8010 C.3   1 <1>   0.1400 
  6 C       -1.8550    -2.0030     0.4920 C.ar  1 <1>  -0.1500 
  7 C       -1.0980    -3.5680    -1.1250 C.ar  1 <1>  -0.1500 
  8 C        3.4270    -0.8780     1.1210 C.3   1 <1>   0.3430 
  9 C       -3.1200    -2.5610     0.4780 C.ar  1 <1>   0.0830 
 10 C       -2.3530    -4.1470    -1.1560 C.ar  1 <1>  -0.1500 
 11 N        3.7920    -1.8720     0.0670 N.4   1 <1>  -0.9590 
 12 O       -4.0060    -1.9460     1.3140 O.3   1 <1>  -0.3620 
 13 C       -3.3830    -3.6650    -0.3520 C.ar  1 <1>   0.0830 
 14 C        4.5550    -3.0310     0.6110 C.3   1 <1>   0.2630 
 15 C        4.4780    -1.2500    -1.1030 C.3   1 <1>   0.2630 
 16 C       -5.4030    -2.0510     1.1520 C.3   1 <1>   0.0400 
 17 O       -4.6120    -4.2520    -0.3560 O.3   1 <1>  -0.3630 
 18 C       -4.9080    -5.4050    -1.1130 C.3   1 <1>   0.0400 
 19 H        0.2710    -1.0100     1.5710 H     1 <1>   0.3700 
 20 H        1.9040     0.5790     1.5410 H     1 <1>   0.0800 
 21 H        2.1520     0.3080    -0.1560 H     1 <1>   0.0800 
 22 H       -1.7010    -1.1560     1.1340 H     1 <1>   0.1500 
 23 H       -0.3230    -3.9630    -1.7600 H     1 <1>   0.1500 
 24 H        3.3260    -1.3740     2.0720 H     1 <1>   0.0800 
 25 H        4.2080    -0.1410     1.2120 H     1 <1>   0.0800 
 26 H       -2.5040    -4.9790    -1.8180 H     1 <1>   0.1500 
 27 H        2.8750    -2.2210    -0.2990 H     1 <1>   0.4500 
 28 H        5.5050    -2.7060     1.0020 H     1 <1>   0.0800 
 29 H        4.7300    -3.7570    -0.1670 H     1 <1>   0.0800 
 30 H        3.9970    -3.5070     1.4010 H     1 <1>   0.0800 
 31 H        5.4200    -0.8200    -0.8050 H     1 <1>   0.0800 
 32 H        3.8580    -0.4770    -1.5280 H     1 <1>   0.0800 
 33 H        4.6590    -1.9920    -1.8630 H     1 <1>   0.0800 
 34 H       -5.8690    -1.2950     1.7570 H     1 <1>   0.0800 
 35 H       -5.7190    -3.0240     1.4810 H     1 <1>   0.0800 
 36 H       -5.6500    -1.8970     0.1160 H     1 <1>   0.0800 
 37 H       -5.9280    -5.6810    -0.9150 H     1 <1>   0.0800 
 38 H       -4.2500    -6.2000    -0.8120 H     1 <1>   0.0800 
 39 H       -4.7890    -5.1770    -2.1580 H     1 <1>   0.0800 
@<TRIPOS>BOND
  1   1   2  2   
  2   2   3  am  
  3   2   4  1   
  4   3   5  1   
  5   3  19  1   
  6   4   6  ar  
  7   4   7  ar  
  8   5   8  1   
  9   5  20  1   
 10   5  21  1   
 11   6   9  ar  
 12   6  22  1   
 13   7  10  ar  
 14   7  23  1   
 15   8  11  1   
 16   8  24  1   
 17   8  25  1   
 18   9  12  1   
 19   9  13  ar  
 20  10  13  ar  
 21  10  26  1   
 22  11  14  1   
 23  11  15  1   
 24  11  27  1   
 25  12  16  1   
 26  13  17  1   
 27  14  28  1   
 28  14  29  1   
 29  14  30  1   
 30  15  31  1   
 31  15  32  1   
 32  15  33  1   
 33  16  34  1   
 34  16  35  1   
 35  16  36  1   
 36  17  18  1   
 37  18  37  1   
 38  18  38  1   
 39  18  39  1   
@<TRIPOS>SUBSTRUCTURE
  1 ****   4 GROUP 4 **** **** 0

# MOE 2024.06 (io_trps.svl 2023.06)
