@<TRIPOS>MOLECULE
NONAME
47 50 1 0 0 
SMALL
USER_CHARGES


@<TRIPOS>ATOM
  1 O        0.0520     0.9310     1.8500 O.2   1 <1>  -0.5700 
  2 C       -0.3920     1.5770     0.9350 C.2   1 <1>   0.5690 
  3 N        0.3100     2.4540     0.1710 N.am  1 <1>  -0.4200 
  4 C       -1.8380     1.5050     0.4850 C.3   1 <1>  -0.0190 
  5 C       -0.4720     3.0300    -0.7800 C.2   1 <1>   0.5690 
  6 C        1.7560     2.7190     0.3280 C.3   1 <1>   0.1400 
  7 C       -1.8920     2.5070    -0.7010 C.3   1 <1>  -0.0190 
  8 C       -2.8220     1.7590     1.6430 C.3   1 <1>  -0.0220 
  9 O       -0.1070     3.8450    -1.5880 O.2   1 <1>  -0.5700 
 10 C        2.5590     1.7090    -0.4960 C.3   1 <1>  -0.1600 
 11 C       -2.9270     3.6440    -0.5920 C.3   1 <1>  -0.0220 
 12 C       -4.1370     2.3110     1.1270 C.2   1 <1>  -0.2880 
 13 C        4.0740     1.9660    -0.3870 C.3   1 <1>  -0.0990 
 14 C       -4.1840     3.1700     0.1080 C.2   1 <1>  -0.2880 
 15 C        4.9310     0.9570    -1.1440 C.2   1 <1>   0.5690 
 16 O        4.4040     0.2990    -2.0120 O.2   1 <1>  -0.5700 
 17 N        6.2610     0.7830    -0.8340 N.am  1 <1>  -0.4770 
 18 C        7.1460     1.4690     0.0140 C.ar  1 <1>   0.1170 
 19 C        6.9620    -0.4190    -1.3650 C.3   1 <1>   0.1400 
 20 C        8.2930     0.7340     0.2320 C.ar  1 <1>  -0.1430 
 21 C        7.0340     2.7250     0.6020 C.ar  1 <1>  -0.1500 
 22 C        8.2400    -0.5660    -0.5280 C.3   1 <1>  -0.0170 
 23 C        9.3150     1.1940     1.0400 C.ar  1 <1>  -0.1500 
 24 C        8.0490     3.2000     1.4160 C.ar  1 <1>  -0.1500 
 25 C        9.1860     2.4370     1.6390 C.ar  1 <1>  -0.1500 
 26 H       -2.0180     0.5170     0.1010 H     1 <1>   0.0800 
 27 H        2.0190     2.6400     1.3690 H     1 <1>   0.0800 
 28 H        1.9700     3.7210    -0.0040 H     1 <1>   0.0800 
 29 H       -2.0930     1.9550    -1.6020 H     1 <1>   0.0800 
 30 H       -2.4080     2.4660     2.3420 H     1 <1>   0.0800 
 31 H       -2.9890     0.8350     2.1690 H     1 <1>   0.0800 
 32 H        2.2650     1.7790    -1.5300 H     1 <1>   0.0800 
 33 H        2.3470     0.7130    -0.1470 H     1 <1>   0.0800 
 34 H       -3.1630     3.9970    -1.5810 H     1 <1>   0.0800 
 35 H       -2.5200     4.4720    -0.0370 H     1 <1>   0.0800 
 36 H       -5.0050     1.9680     1.6660 H     1 <1>   0.1500 
 37 H        4.3500     1.9300     0.6510 H     1 <1>   0.0800 
 38 H        4.2920     2.9430    -0.7760 H     1 <1>   0.0800 
 39 H       -5.0960     3.6020    -0.2720 H     1 <1>   0.1500 
 40 H        7.2010    -0.2550    -2.4010 H     1 <1>   0.0800 
 41 H        6.3370    -1.2910    -1.2740 H     1 <1>   0.0800 
 42 H        6.1790     3.3450     0.4280 H     1 <1>   0.1500 
 43 H        9.1020    -0.6950    -1.1570 H     1 <1>   0.0800 
 44 H        8.1540    -1.3950     0.1510 H     1 <1>   0.0800 
 45 H       10.1980     0.6010     1.2010 H     1 <1>   0.1500 
 46 H        7.9600     4.1690     1.8760 H     1 <1>   0.1500 
 47 H        9.9700     2.8110     2.2740 H     1 <1>   0.1500 
@<TRIPOS>BOND
  1   1   2  2   
  2   2   3  am  
  3   2   4  1   
  4   3   5  am  
  5   3   6  1   
  6   4   7  1   
  7   4   8  1   
  8   4  26  1   
  9   5   7  1   
 10   5   9  2   
 11   6  10  1   
 12   6  27  1   
 13   6  28  1   
 14   7  11  1   
 15   7  29  1   
 16   8  12  1   
 17   8  30  1   
 18   8  31  1   
 19  10  13  1   
 20  10  32  1   
 21  10  33  1   
 22  11  14  1   
 23  11  34  1   
 24  11  35  1   
 25  12  14  2   
 26  12  36  1   
 27  13  15  1   
 28  13  37  1   
 29  13  38  1   
 30  14  39  1   
 31  15  16  2   
 32  15  17  am  
 33  17  18  1   
 34  17  19  1   
 35  18  20  ar  
 36  18  21  ar  
 37  19  22  1   
 38  19  40  1   
 39  19  41  1   
 40  20  22  1   
 41  20  23  ar  
 42  21  24  ar  
 43  21  42  1   
 44  22  43  1   
 45  22  44  1   
 46  23  25  ar  
 47  23  45  1   
 48  24  25  ar  
 49  24  46  1   
 50  25  47  1   
@<TRIPOS>SUBSTRUCTURE
  1 ****  10 GROUP 4 **** **** 0

# MOE 2024.06 (io_trps.svl 2023.06)
