@<TRIPOS>MOLECULE
NONAME
29 29 1 0 0 
SMALL
USER_CHARGES


@<TRIPOS>ATOM
  1 O       -0.8520     0.1600     0.2720 O.3   1 <1>  -0.3630 
  2 C       -1.8790    -0.7300     0.1150 C.ar  1 <1>   0.0820 
  3 C        0.4370    -0.2870     0.6400 C.3   1 <1>   0.0400 
  4 C       -3.0690    -0.3100    -0.4960 C.ar  1 <1>   0.0820 
  5 C       -1.7700    -2.0520     0.5290 C.ar  1 <1>  -0.1500 
  6 O       -3.3190     0.9630    -0.9230 O.3   1 <1>  -0.3630 
  7 C       -4.0820    -1.2290    -0.7070 C.ar  1 <1>  -0.1500 
  8 C       -2.7860    -3.0040     0.3500 C.ar  1 <1>   0.0860 
  9 C       -3.0000     2.0350    -0.0640 C.3   1 <1>   0.0400 
 10 C       -3.9440    -2.5410    -0.2990 C.ar  1 <1>  -0.1500 
 11 C       -2.6020    -4.3510     0.8090 C.2   1 <1>   0.3030 
 12 N       -1.4120    -4.7910     1.1530 N.2   1 <1>  -0.8000 
 13 C       -3.8350    -5.2690     0.9050 C.3   1 <1>  -0.0990 
 14 O       -1.3430    -5.9550     1.5260 O.3   1 <1>  -0.6500 
 15 C       -4.0510    -6.0840    -0.3790 C.3   1 <1>  -0.2400 
 16 H        1.1090     0.5500     0.5920 H     1 <1>   0.0800 
 17 H        0.7510    -1.0520    -0.0500 H     1 <1>   0.0800 
 18 H        0.4010    -0.6720     1.6440 H     1 <1>   0.0800 
 19 H       -0.8800    -2.4050     1.0150 H     1 <1>   0.1500 
 20 H       -4.9810    -0.9040    -1.1960 H     1 <1>   0.1500 
 21 H       -3.6180     2.8730    -0.3300 H     1 <1>   0.0800 
 22 H       -1.9650     2.2910    -0.1970 H     1 <1>   0.0800 
 23 H       -3.1910     1.7420     0.9540 H     1 <1>   0.0800 
 24 H       -4.7500    -3.2200    -0.4960 H     1 <1>   0.1500 
 25 H       -3.7070    -5.9480     1.7290 H     1 <1>   0.0800 
 26 H       -4.7090    -4.6930     1.1370 H     1 <1>   0.0800 
 27 H       -3.1760    -6.6890    -0.5490 H     1 <1>   0.0800 
 28 H       -4.1870    -5.4370    -1.2250 H     1 <1>   0.0800 
 29 H       -4.9040    -6.7280    -0.2740 H     1 <1>   0.0800 
@<TRIPOS>BOND
  1   1   2  1   
  2   1   3  1   
  3   2   4  ar  
  4   2   5  ar  
  5   3  16  1   
  6   3  17  1   
  7   3  18  1   
  8   4   6  1   
  9   4   7  ar  
 10   5   8  ar  
 11   5  19  1   
 12   6   9  1   
 13   7  10  ar  
 14   7  20  1   
 15   8  10  ar  
 16   8  11  1   
 17   9  21  1   
 18   9  22  1   
 19   9  23  1   
 20  10  24  1   
 21  11  12  2   
 22  11  13  1   
 23  12  14  1   
 24  13  15  1   
 25  13  25  1   
 26  13  26  1   
 27  15  27  1   
 28  15  28  1   
 29  15  29  1   
@<TRIPOS>SUBSTRUCTURE
  1 ****   5 GROUP 4 **** **** 0

# MOE 2024.06 (io_trps.svl 2023.06)
