@<TRIPOS>MOLECULE
NONAME
41 42 1 0 0 
SMALL
USER_CHARGES


@<TRIPOS>ATOM
  1 CL       0.1220     0.2800     0.9930 Cl    1 <1>  -0.1770 
  2 C        1.6910     1.0020     0.7070 C.ar  1 <1>   0.1770 
  3 C        1.7920     2.3190     0.2740 C.ar  1 <1>  -0.1440 
  4 C        2.8070     0.2170     0.9280 C.ar  1 <1>  -0.1500 
  5 C        3.0680     2.8330     0.0660 C.ar  1 <1>  -0.1500 
  6 C        0.5130     3.1300     0.0500 C.3   1 <1>  -0.0160 
  7 C        4.0690     0.7430     0.7160 C.ar  1 <1>  -0.1500 
  8 C        4.2000     2.0600     0.2820 C.ar  1 <1>   0.0820 
  9 C        0.7180     4.5730    -0.4270 C.3   1 <1>  -0.2400 
 10 O        5.3960     2.6590     0.0480 O.3   1 <1>  -0.3620 
 11 C        6.6100     1.9760     0.2340 C.3   1 <1>   0.1200 
 12 C        7.7330     2.9530    -0.1200 C.3   1 <1>   0.3430 
 13 N        9.0810     2.3330     0.0420 N.4   1 <1>  -0.9060 
 14 C       10.1890     3.2510    -0.2930 C.3   1 <1>   0.4860 
 15 C       11.4600     2.4670    -0.0730 C.ar  1 <1>  -0.1430 
 16 C       12.0100     1.7250    -1.1090 C.ar  1 <1>  -0.1500 
 17 C       12.0780     2.4730     1.1700 C.ar  1 <1>  -0.1500 
 18 C       13.1620     0.9880    -0.8990 C.ar  1 <1>  -0.1500 
 19 C       13.2300     1.7350     1.3750 C.ar  1 <1>  -0.1500 
 20 C       13.7710     0.9910     0.3420 C.ar  1 <1>  -0.1500 
 21 H        2.6800    -0.7970     1.2630 H     1 <1>   0.1500 
 22 H        3.2100     3.8430    -0.2680 H     1 <1>   0.1500 
 23 H       -0.0420     3.1550     0.9730 H     1 <1>   0.0800 
 24 H       -0.0940     2.6170    -0.6760 H     1 <1>   0.0800 
 25 H        4.9190     0.1130     0.8950 H     1 <1>   0.1500 
 26 H        1.2850     5.1320     0.2970 H     1 <1>   0.0800 
 27 H       -0.2360     5.0530    -0.5530 H     1 <1>   0.0800 
 28 H        1.2320     4.5880    -1.3720 H     1 <1>   0.0800 
 29 H        6.6150     1.1230    -0.4220 H     1 <1>   0.0800 
 30 H        6.6670     1.6740     1.2660 H     1 <1>   0.0800 
 31 H        7.6510     3.8160     0.5210 H     1 <1>   0.0800 
 32 H        7.6000     3.2720    -1.1420 H     1 <1>   0.0800 
 33 H        9.1880     1.5010    -0.5520 H     1 <1>   0.4500 
 34 H        9.2350     2.0120     1.0060 H     1 <1>   0.4500 
 35 H       10.1740     4.1190     0.3480 H     1 <1>   0.0800 
 36 H       10.1240     3.5710    -1.3200 H     1 <1>   0.0800 
 37 H       11.5610     1.7100    -2.0880 H     1 <1>   0.1500 
 38 H       11.6830     3.0480     1.9900 H     1 <1>   0.1500 
 39 H       13.5920     0.4120    -1.7020 H     1 <1>   0.1500 
 40 H       13.7130     1.7380     2.3390 H     1 <1>   0.1500 
 41 H       14.6690     0.4180     0.5040 H     1 <1>   0.1500 
@<TRIPOS>BOND
  1   1   2  1   
  2   2   3  ar  
  3   2   4  ar  
  4   3   5  ar  
  5   3   6  1   
  6   4   7  ar  
  7   4  21  1   
  8   5   8  ar  
  9   5  22  1   
 10   6   9  1   
 11   6  23  1   
 12   6  24  1   
 13   7   8  ar  
 14   7  25  1   
 15   8  10  1   
 16   9  26  1   
 17   9  27  1   
 18   9  28  1   
 19  10  11  1   
 20  11  12  1   
 21  11  29  1   
 22  11  30  1   
 23  12  13  1   
 24  12  31  1   
 25  12  32  1   
 26  13  14  1   
 27  13  33  1   
 28  13  34  1   
 29  14  15  1   
 30  14  35  1   
 31  14  36  1   
 32  15  16  ar  
 33  15  17  ar  
 34  16  18  ar  
 35  16  37  1   
 36  17  19  ar  
 37  17  38  1   
 38  18  20  ar  
 39  18  39  1   
 40  19  20  ar  
 41  19  40  1   
 42  20  41  1   
@<TRIPOS>SUBSTRUCTURE
  1 ****  11 GROUP 4 **** **** 0

# MOE 2024.06 (io_trps.svl 2023.06)
