@<TRIPOS>MOLECULE
NONAME
27 27 1 0 0 
SMALL
USER_CHARGES


@<TRIPOS>ATOM
  1 CL       0.0610    -0.0620     0.9160 Cl    1 <1>  -0.1770 
  2 C       -0.0270    -1.7260     0.3960 C.ar  1 <1>   0.1770 
  3 C       -1.2580    -2.3420     0.2090 C.ar  1 <1>  -0.0090 
  4 C        1.1730    -2.3850     0.1790 C.ar  1 <1>  -0.1500 
  5 S       -2.7840    -1.4220     0.5060 S.o2  1 <1>   1.4470 
  6 C       -1.2510    -3.6660    -0.2250 C.ar  1 <1>  -0.1500 
  7 C        1.1610    -3.7030    -0.2430 C.ar  1 <1>  -0.1500 
  8 O       -3.0200    -0.4920    -0.5740 O.2   1 <1>  -0.6500 
  9 O       -2.8750    -0.9950     1.8810 O.2   1 <1>  -0.6500 
 10 N       -3.9920    -2.5830     0.4210 N.am  1 <1>  -0.9140 
 11 C       -0.0560    -4.3270    -0.4420 C.ar  1 <1>   0.1770 
 12 C       -5.2590    -2.0540    -0.0470 C.3   1 <1>   0.1960 
 13 CL      -0.0870    -5.9850    -0.9790 Cl    1 <1>  -0.1770 
 14 C       -6.3140    -3.1520     0.0520 C.3   1 <1>  -0.1600 
 15 C       -7.6570    -2.6520    -0.4730 C.3   1 <1>   0.1200 
 16 O       -8.5870    -3.6580    -0.3100 O.3   1 <1>  -0.6800 
 17 H        2.1030    -1.8680     0.3400 H     1 <1>   0.1500 
 18 H       -2.1710    -4.1950    -0.4010 H     1 <1>   0.1500 
 19 H        2.0770    -4.2400    -0.4190 H     1 <1>   0.1500 
 20 H       -4.1250    -2.8320     1.4020 H     1 <1>   0.4200 
 21 H       -5.1610    -1.7350    -1.0730 H     1 <1>   0.0800 
 22 H       -5.5490    -1.2040     0.5510 H     1 <1>   0.0800 
 23 H       -6.4280    -3.4440     1.0810 H     1 <1>   0.0800 
 24 H       -5.9950    -3.9980    -0.5310 H     1 <1>   0.0800 
 25 H       -7.6060    -2.4010    -1.5200 H     1 <1>   0.0800 
 26 H       -7.9980    -1.7950     0.0850 H     1 <1>   0.0800 
 27 H       -8.3430    -4.4470    -0.8320 H     1 <1>   0.4000 
@<TRIPOS>BOND
  1   1   2  1   
  2   2   3  ar  
  3   2   4  ar  
  4   3   5  1   
  5   3   6  ar  
  6   4   7  ar  
  7   4  17  1   
  8   5   8  2   
  9   5   9  2   
 10   5  10  am  
 11   6  11  ar  
 12   6  18  1   
 13   7  11  ar  
 14   7  19  1   
 15  10  12  1   
 16  10  20  1   
 17  11  13  1   
 18  12  14  1   
 19  12  21  1   
 20  12  22  1   
 21  14  15  1   
 22  14  23  1   
 23  14  24  1   
 24  15  16  1   
 25  15  25  1   
 26  15  26  1   
 27  16  27  1   
@<TRIPOS>SUBSTRUCTURE
  1 ****   5 GROUP 4 **** **** 0

# MOE 2024.06 (io_trps.svl 2023.06)
