@<TRIPOS>MOLECULE
NONAME
38 40 1 0 0 
SMALL
USER_CHARGES


@<TRIPOS>ATOM
  1 CL      -1.7500     0.8760     1.3960 Cl    1 <1>  -0.1770 
  2 C       -1.0440     2.2170     0.5240 C.ar  1 <1>   0.1770 
  3 C       -1.7510     2.8130    -0.5090 C.ar  1 <1>  -0.1440 
  4 C        0.2100     2.6640     0.8960 C.ar  1 <1>  -0.1500 
  5 C       -1.1750     3.8830    -1.1810 C.ar  1 <1>  -0.1500 
  6 C       -3.1250     2.3030    -0.8950 C.3   1 <1>   0.4870 
  7 C        0.7730     3.7330     0.2220 C.ar  1 <1>  -0.1500 
  8 C        0.0810     4.3390    -0.8140 C.ar  1 <1>  -0.1500 
  9 N       -4.0860     2.6070     0.1980 N.4   1 <1>  -0.9590 
 10 C       -5.4260     1.9500    -0.0440 C.3   1 <1>   0.3430 
 11 C       -4.2200     4.0990     0.4300 C.3   1 <1>   0.3430 
 12 C       -6.4700     2.3040     1.0370 C.3   1 <1>   0.2090 
 13 C       -5.2600     4.4320     1.5170 C.3   1 <1>   0.2090 
 14 N       -6.5610     3.7850     1.1780 N.pl3 1 <1>  -0.8380 
 15 C       -7.5060     4.4620     0.4420 C.ar  1 <1>   0.7200 
 16 N       -8.7370     3.9660     0.4590 N.ar  1 <1>  -0.6200 
 17 N       -7.0860     5.5210    -0.2460 N.ar  1 <1>  -0.6200 
 18 C       -9.6350     4.6250    -0.2330 C.ar  1 <1>   0.1600 
 19 C       -8.0060     6.1610    -0.9300 C.ar  1 <1>   0.1600 
 20 C       -9.3160     5.7490    -0.9550 C.ar  1 <1>  -0.1500 
 21 H        0.7390     2.1830     1.7000 H     1 <1>   0.1500 
 22 H       -1.6860     4.3710    -1.9950 H     1 <1>   0.1500 
 23 H       -3.0730     1.2380    -1.0550 H     1 <1>   0.0800 
 24 H       -3.4470     2.7700    -1.8120 H     1 <1>   0.0800 
 25 H        1.7510     4.0920     0.5000 H     1 <1>   0.1500 
 26 H        0.5290     5.1680    -1.3370 H     1 <1>   0.1500 
 27 H       -3.6870     2.2000     1.0550 H     1 <1>   0.4500 
 28 H       -5.3090     0.8800    -0.0800 H     1 <1>   0.0800 
 29 H       -5.8180     2.2730    -0.9940 H     1 <1>   0.0800 
 30 H       -4.5320     4.5810    -0.4820 H     1 <1>   0.0800 
 31 H       -3.2680     4.5150     0.7150 H     1 <1>   0.0800 
 32 H       -6.1900     1.8710     1.9820 H     1 <1>   0.0800 
 33 H       -7.4230     1.8850     0.7620 H     1 <1>   0.0800 
 34 H       -5.3800     5.5000     1.5950 H     1 <1>   0.0800 
 35 H       -4.9220     4.0780     2.4750 H     1 <1>   0.0800 
 36 H      -10.6490     4.2610    -0.2250 H     1 <1>   0.1500 
 37 H       -7.7110     7.0360    -1.4860 H     1 <1>   0.1500 
 38 H      -10.0610     6.2830    -1.5150 H     1 <1>   0.1500 
@<TRIPOS>BOND
  1   1   2  1   
  2   2   3  ar  
  3   2   4  ar  
  4   3   5  ar  
  5   3   6  1   
  6   4   7  ar  
  7   4  21  1   
  8   5   8  ar  
  9   5  22  1   
 10   6   9  1   
 11   6  23  1   
 12   6  24  1   
 13   7   8  ar  
 14   7  25  1   
 15   8  26  1   
 16   9  10  1   
 17   9  11  1   
 18   9  27  1   
 19  10  12  1   
 20  10  28  1   
 21  10  29  1   
 22  11  13  1   
 23  11  30  1   
 24  11  31  1   
 25  12  14  1   
 26  12  32  1   
 27  12  33  1   
 28  13  14  1   
 29  13  34  1   
 30  13  35  1   
 31  14  15  1   
 32  15  16  ar  
 33  15  17  ar  
 34  16  18  ar  
 35  17  19  ar  
 36  18  20  ar  
 37  18  36  1   
 38  19  20  ar  
 39  19  37  1   
 40  20  38  1   
@<TRIPOS>SUBSTRUCTURE
  1 ****  11 GROUP 4 **** **** 0

# MOE 2024.06 (io_trps.svl 2023.06)
