@<TRIPOS>MOLECULE
NONAME
45 47 1 0 0 
SMALL
USER_CHARGES


@<TRIPOS>ATOM
  1 O        0.3780     2.6410    -2.4900 O.2   1 <1>  -0.5700 
  2 C        0.1460     2.9760    -1.3440 C.2   1 <1>   0.5440 
  3 N        1.1920     3.1230    -0.4790 N.am  1 <1>  -0.7300 
  4 C       -1.2170     3.1960    -0.8930 C.ar  1 <1>   0.0860 
  5 C        2.6150     2.9040    -0.8010 C.3   1 <1>   0.2200 
  6 C       -1.5210     4.0670     0.1520 C.ar  1 <1>  -0.1500 
  7 C       -2.2880     2.5360    -1.4900 C.ar  1 <1>  -0.1500 
  8 C        3.2080     1.6800    -0.0710 C.3   1 <1>  -0.0800 
  9 C        3.4800     4.0640    -0.2840 C.3   1 <1>  -0.1600 
 10 C       -2.8220     4.2540     0.5820 C.ar  1 <1>  -0.1500 
 11 C       -3.5900     2.7220    -1.0620 C.ar  1 <1>  -0.1500 
 12 C        4.6860     2.0400    -0.0680 C.3   1 <1>  -0.1600 
 13 C        2.9080     1.7300     1.4410 C.3   1 <1>  -0.1600 
 14 C        4.4890     3.3670     0.6460 C.3   1 <1>  -0.0800 
 15 C       -3.8860     3.5850    -0.0120 C.ar  1 <1>  -0.1430 
 16 C        3.7520     2.9240     1.9210 C.3   1 <1>  -0.1600 
 17 C       -5.3220     3.8260     0.5050 C.3   1 <1>   0.1440 
 18 C       -5.6810     5.3110     0.3480 C.3   1 <1>  -0.2400 
 19 C       -5.4070     3.4350     1.9880 C.3   1 <1>  -0.2400 
 20 C       -6.3820     3.0090    -0.2520 C.3   1 <1>  -0.2400 
 21 H        1.0070     3.2640     0.5120 H     1 <1>   0.3700 
 22 H        2.7480     2.7960    -1.8660 H     1 <1>   0.0800 
 23 H       -0.7310     4.6160     0.6320 H     1 <1>   0.1500 
 24 H       -2.0890     1.8640    -2.3070 H     1 <1>   0.1500 
 25 H        2.9750     0.7430    -0.5460 H     1 <1>   0.0800 
 26 H        2.9090     4.8180     0.2290 H     1 <1>   0.0800 
 27 H        3.9980     4.5170    -1.1110 H     1 <1>   0.0800 
 28 H       -2.9990     4.9380     1.3930 H     1 <1>   0.1500 
 29 H       -4.3600     2.1750    -1.5730 H     1 <1>   0.1500 
 30 H        5.0920     2.1540    -1.0600 H     1 <1>   0.0800 
 31 H        5.2860     1.3460     0.4980 H     1 <1>   0.0800 
 32 H        3.2560     0.8250     1.9090 H     1 <1>   0.0800 
 33 H        1.8620     1.8450     1.6640 H     1 <1>   0.0800 
 34 H        5.3860     3.9340     0.8280 H     1 <1>   0.0800 
 35 H        4.4570     2.6030     2.6690 H     1 <1>   0.0800 
 36 H        3.1430     3.7140     2.3270 H     1 <1>   0.0800 
 37 H       -5.5920     5.6030    -0.6840 H     1 <1>   0.0800 
 38 H       -5.0280     5.9330     0.9320 H     1 <1>   0.0800 
 39 H       -6.6910     5.4940     0.6690 H     1 <1>   0.0800 
 40 H       -4.7530     4.0390     2.5880 H     1 <1>   0.0800 
 41 H       -5.1240     2.4040     2.1120 H     1 <1>   0.0800 
 42 H       -6.4090     3.5610     2.3570 H     1 <1>   0.0800 
 43 H       -6.3850     3.2690    -1.2960 H     1 <1>   0.0800 
 44 H       -7.3640     3.2060     0.1410 H     1 <1>   0.0800 
 45 H       -6.1900     1.9560    -0.1530 H     1 <1>   0.0800 
@<TRIPOS>BOND
  1   1   2  2   
  2   2   3  am  
  3   2   4  1   
  4   3   5  1   
  5   3  21  1   
  6   4   6  ar  
  7   4   7  ar  
  8   5   8  1   
  9   5   9  1   
 10   5  22  1   
 11   6  10  ar  
 12   6  23  1   
 13   7  11  ar  
 14   7  24  1   
 15   8  12  1   
 16   8  13  1   
 17   8  25  1   
 18   9  14  1   
 19   9  26  1   
 20   9  27  1   
 21  10  15  ar  
 22  10  28  1   
 23  11  15  ar  
 24  11  29  1   
 25  12  14  1   
 26  12  30  1   
 27  12  31  1   
 28  13  16  1   
 29  13  32  1   
 30  13  33  1   
 31  14  16  1   
 32  14  34  1   
 33  15  17  1   
 34  16  35  1   
 35  16  36  1   
 36  17  18  1   
 37  17  19  1   
 38  17  20  1   
 39  18  37  1   
 40  18  38  1   
 41  18  39  1   
 42  19  40  1   
 43  19  41  1   
 44  19  42  1   
 45  20  43  1   
 46  20  44  1   
 47  20  45  1   
@<TRIPOS>SUBSTRUCTURE
  1 ****   4 GROUP 4 **** **** 0

# MOE 2024.06 (io_trps.svl 2023.06)
