@<TRIPOS>MOLECULE
NONAME
35 36 1 0 0 
SMALL
USER_CHARGES


@<TRIPOS>ATOM
  1 O       -0.6750    -0.0260     0.0890 O.2   1 <1>  -0.5700 
  2 C       -1.6620    -0.7320     0.0710 C.2   1 <1>   0.7060 
  3 O       -2.8600    -0.1510     0.0820 O.3   1 <1>  -0.2330 
  4 C       -1.6050    -2.1540     0.0380 C.2   1 <1>  -0.1360 
  5 C       -4.0240    -0.8440     0.0640 C.ar  1 <1>   0.0820 
  6 C       -2.7210    -2.9210     0.0180 C.2   1 <1>  -0.1670 
  7 C       -3.9980    -2.2510     0.0320 C.ar  1 <1>   0.0280 
  8 C       -5.2250    -0.1360     0.0790 C.ar  1 <1>  -0.1440 
  9 C       -2.6920    -4.4540    -0.0170 C.3   1 <1>  -0.0220 
 10 C       -5.2280    -2.9150     0.0140 C.ar  1 <1>  -0.1500 
 11 C       -6.4280    -0.8290     0.0610 C.ar  1 <1>   0.0820 
 12 C       -5.2620     1.3930     0.1140 C.3   1 <1>  -0.0960 
 13 C       -1.2900    -5.0820    -0.0290 C.3   1 <1>  -0.1600 
 14 C       -6.4190    -2.2220     0.0280 C.ar  1 <1>  -0.1500 
 15 O       -7.5760    -0.1090     0.0750 O.3   1 <1>  -0.3630 
 16 C       -1.3650    -6.6130    -0.0650 C.3   1 <1>  -0.2400 
 17 C       -8.8680    -0.7190     0.0590 C.3   1 <1>   0.0140 
 18 C      -10.0130     0.2850     0.0810 C.2   1 <1>   0.9060 
 19 O      -10.4880     0.6740    -0.9940 O.co2 1 <1>  -0.9000 
 20 O      -10.4910     0.6250     1.1710 O.co2 1 <1>  -0.9000 
 21 H       -0.6090    -2.5490     0.0300 H     1 <1>   0.1500 
 22 H       -3.2170    -4.7840    -0.8960 H     1 <1>   0.0800 
 23 H       -3.2200    -4.8250     0.8450 H     1 <1>   0.0800 
 24 H       -5.2690    -3.9870    -0.0100 H     1 <1>   0.1500 
 25 H       -4.2830     1.8340     0.1250 H     1 <1>   0.0800 
 26 H       -5.7910     1.7180     0.9920 H     1 <1>   0.0800 
 27 H       -5.7880     1.7590    -0.7500 H     1 <1>   0.0800 
 28 H       -0.7510    -4.7810     0.8530 H     1 <1>   0.0800 
 29 H       -0.7480    -4.7410    -0.8950 H     1 <1>   0.0800 
 30 H       -7.3410    -2.7720     0.0140 H     1 <1>   0.1500 
 31 H       -1.8830    -6.9860     0.8010 H     1 <1>   0.0800 
 32 H       -0.3730    -7.0290    -0.0730 H     1 <1>   0.0800 
 33 H       -1.8810    -6.9460    -0.9490 H     1 <1>   0.0800 
 34 H       -8.9560    -1.3440     0.9260 H     1 <1>   0.0800 
 35 H       -8.9530    -1.3040    -0.8350 H     1 <1>   0.0800 
@<TRIPOS>BOND
  1   1   2  2   
  2   2   3  1   
  3   2   4  1   
  4   3   5  1   
  5   4   6  2   
  6   4  21  1   
  7   5   7  ar  
  8   5   8  ar  
  9   6   7  1   
 10   6   9  1   
 11   7  10  ar  
 12   8  11  ar  
 13   8  12  1   
 14   9  13  1   
 15   9  22  1   
 16   9  23  1   
 17  10  14  ar  
 18  10  24  1   
 19  11  14  ar  
 20  11  15  1   
 21  12  25  1   
 22  12  26  1   
 23  12  27  1   
 24  13  16  1   
 25  13  28  1   
 26  13  29  1   
 27  14  30  1   
 28  15  17  1   
 29  16  31  1   
 30  16  32  1   
 31  16  33  1   
 32  17  18  1   
 33  17  34  1   
 34  17  35  1   
 35  18  19  ar  
 36  18  20  ar  
@<TRIPOS>SUBSTRUCTURE
  1 ****   5 GROUP 4 **** **** 0

# MOE 2024.06 (io_trps.svl 2023.06)
