@<TRIPOS>MOLECULE
NONAME
43 43 1 0 0 
SMALL
USER_CHARGES


@<TRIPOS>ATOM
  1 O        0.2990    -0.2520     0.0330 O.3   1 <1>  -0.3630 
  2 C       -0.9600    -0.7590     0.0420 C.ar  1 <1>   0.0820 
  3 C        1.4240    -1.0900     0.0380 C.3   1 <1>   0.1200 
  4 C       -1.9990     0.1590     0.0320 C.ar  1 <1>  -0.1500 
  5 C       -1.2500    -2.1210     0.0600 C.ar  1 <1>  -0.1500 
  6 C        2.6550    -0.1840     0.0220 C.3   1 <1>  -0.1600 
  7 C       -3.3160    -0.2650     0.0400 C.ar  1 <1>  -0.1440 
  8 C       -2.5660    -2.5530     0.0680 C.ar  1 <1>  -0.1430 
  9 C        3.9380    -1.0040     0.0260 C.3   1 <1>   0.3430 
 10 C       -3.5930    -1.6230     0.0560 C.ar  1 <1>  -0.1500 
 11 C       -4.4530     0.7400     0.0260 C.3   1 <1>  -0.0960 
 12 C       -2.8900    -4.0370     0.0850 C.3   1 <1>  -0.0970 
 13 N        5.0960    -0.0780     0.0090 N.4   1 <1>  -0.9060 
 14 C        6.3980    -0.7850     0.0110 C.3   1 <1>   0.3430 
 15 C        7.5210     0.2480    -0.0070 C.3   1 <1>  -0.1600 
 16 C        8.8930    -0.4380    -0.0040 C.3   1 <1>  -0.1600 
 17 C       10.0220     0.5970    -0.0230 C.3   1 <1>  -0.2400 
 18 H        1.3820    -1.7130    -0.8400 H     1 <1>   0.0800 
 19 H        1.3900    -1.6920     0.9300 H     1 <1>   0.0800 
 20 H       -1.7640     1.2070     0.0180 H     1 <1>   0.1500 
 21 H       -0.4700    -2.8550     0.0670 H     1 <1>   0.1500 
 22 H        2.6210     0.4460     0.8940 H     1 <1>   0.0800 
 23 H        2.6130     0.4260    -0.8640 H     1 <1>   0.0800 
 24 H        3.9640    -1.6440    -0.8430 H     1 <1>   0.0800 
 25 H        3.9720    -1.6230     0.9090 H     1 <1>   0.0800 
 26 H       -4.6150    -1.9560     0.0580 H     1 <1>   0.1500 
 27 H       -4.0970     1.7230     0.2760 H     1 <1>   0.0800 
 28 H       -5.2040     0.4580     0.7430 H     1 <1>   0.0800 
 29 H       -4.8990     0.7710    -0.9520 H     1 <1>   0.0800 
 30 H       -2.0900    -4.5950     0.5360 H     1 <1>   0.0800 
 31 H       -3.0370    -4.3870    -0.9200 H     1 <1>   0.0800 
 32 H       -3.7870    -4.2160     0.6500 H     1 <1>   0.0800 
 33 H        5.0470     0.5460     0.8250 H     1 <1>   0.4500 
 34 H        5.0400     0.5260    -0.8210 H     1 <1>   0.4500 
 35 H        6.4780    -1.4200    -0.8570 H     1 <1>   0.0800 
 36 H        6.4870    -1.3990     0.8940 H     1 <1>   0.0800 
 37 H        7.4500     0.8810     0.8620 H     1 <1>   0.0800 
 38 H        7.4410     0.8590    -0.8900 H     1 <1>   0.0800 
 39 H        8.9910    -1.0740    -0.8690 H     1 <1>   0.0800 
 40 H        8.9990    -1.0520     0.8750 H     1 <1>   0.0800 
 41 H        9.9640     1.2100    -0.9050 H     1 <1>   0.0800 
 42 H       10.9760     0.0990    -0.0210 H     1 <1>   0.0800 
 43 H        9.9720     1.2320     0.8450 H     1 <1>   0.0800 
@<TRIPOS>BOND
  1   1   2  1   
  2   1   3  1   
  3   2   4  ar  
  4   2   5  ar  
  5   3   6  1   
  6   3  18  1   
  7   3  19  1   
  8   4   7  ar  
  9   4  20  1   
 10   5   8  ar  
 11   5  21  1   
 12   6   9  1   
 13   6  22  1   
 14   6  23  1   
 15   7  10  ar  
 16   7  11  1   
 17   8  10  ar  
 18   8  12  1   
 19   9  13  1   
 20   9  24  1   
 21   9  25  1   
 22  10  26  1   
 23  11  27  1   
 24  11  28  1   
 25  11  29  1   
 26  12  30  1   
 27  12  31  1   
 28  12  32  1   
 29  13  14  1   
 30  13  33  1   
 31  13  34  1   
 32  14  15  1   
 33  14  35  1   
 34  14  36  1   
 35  15  16  1   
 36  15  37  1   
 37  15  38  1   
 38  16  17  1   
 39  16  39  1   
 40  16  40  1   
 41  17  41  1   
 42  17  42  1   
 43  17  43  1   
@<TRIPOS>SUBSTRUCTURE
  1 ****   3 GROUP 4 **** **** 0

# MOE 2024.06 (io_trps.svl 2023.06)
