@<TRIPOS>MOLECULE
NONAME
47 48 1 0 0 
SMALL
USER_CHARGES


@<TRIPOS>ATOM
  1 S        0.5020    -0.1330     0.7380 S.o2  1 <1>   1.4470 
  2 O       -0.3050     0.2000     1.8900 O.2   1 <1>  -0.6500 
  3 O        0.6940    -1.5160     0.3660 O.2   1 <1>  -0.6500 
  4 N       -0.2310     0.5330    -0.6150 N.am  1 <1>  -0.9140 
  5 C        2.0910     0.7360     0.8170 C.ar  1 <1>  -0.0090 
  6 C       -1.6510     0.3090    -0.6700 C.3   1 <1>   0.2760 
  7 C        3.2970     0.0410     0.8230 C.ar  1 <1>  -0.1500 
  8 C        2.1390     2.1240     0.8780 C.ar  1 <1>  -0.1500 
  9 C       -2.0080     0.0240    -2.1240 C.3   1 <1>  -0.2400 
 10 C       -2.3610     1.5690    -0.1840 C.3   1 <1>  -0.2400 
 11 C        4.5170     0.6950     0.8830 C.ar  1 <1>  -0.1430 
 12 C        3.3470     2.7950     0.9380 C.ar  1 <1>  -0.1500 
 13 C        4.5360     2.0840     0.9330 C.ar  1 <1>   0.0830 
 14 C        5.8080    -0.1120     0.8860 C.3   1 <1>  -0.0970 
 15 O        5.7060     2.7530     0.9950 O.3   1 <1>  -0.3630 
 16 C        6.1110     3.4500    -0.1760 C.3   1 <1>   0.1810 
 17 C        6.9730     2.5750    -1.0830 C.2   1 <1>   0.5690 
 18 O        6.5400     2.2880    -2.1760 O.2   1 <1>  -0.5700 
 19 N        8.2130     2.1530    -0.6760 N.am  1 <1>  -0.6600 
 20 C        8.8180     2.3960     0.6530 C.3   1 <1>   0.1400 
 21 C        9.0600     1.2630    -1.4950 C.3   1 <1>   0.1400 
 22 C       10.1990     1.7540     0.5750 C.3   1 <1>  -0.1600 
 23 C       10.0750     0.6900    -0.5130 C.3   1 <1>  -0.1600 
 24 H        0.1640    -0.0210    -1.3710 H     1 <1>   0.4200 
 25 H       -1.9350    -0.5390    -0.0630 H     1 <1>   0.0800 
 26 H        3.2730    -1.0350     0.7780 H     1 <1>   0.1500 
 27 H        1.2170     2.6810     0.8810 H     1 <1>   0.1500 
 28 H       -1.7220     0.8470    -2.7550 H     1 <1>   0.0800 
 29 H       -3.0690    -0.1210    -2.2150 H     1 <1>   0.0800 
 30 H       -1.5200    -0.8740    -2.4600 H     1 <1>   0.0800 
 31 H       -2.0740     2.4170    -0.7790 H     1 <1>   0.0800 
 32 H       -2.1190     1.7620     0.8450 H     1 <1>   0.0800 
 33 H       -3.4250     1.4410    -0.2570 H     1 <1>   0.0800 
 34 H        3.3670     3.8690     0.9940 H     1 <1>   0.1500 
 35 H        5.6140    -1.1490     1.0900 H     1 <1>   0.0800 
 36 H        6.4760     0.2620     1.6400 H     1 <1>   0.0800 
 37 H        6.2870    -0.0350    -0.0740 H     1 <1>   0.0800 
 38 H        6.6760     4.3080     0.1330 H     1 <1>   0.0800 
 39 H        5.2400     3.7810    -0.7110 H     1 <1>   0.0800 
 40 H        8.2220     1.9130     1.4080 H     1 <1>   0.0800 
 41 H        8.8870     3.4500     0.8610 H     1 <1>   0.0800 
 42 H        9.5520     1.8490    -2.2530 H     1 <1>   0.0800 
 43 H        8.4730     0.4900    -1.9620 H     1 <1>   0.0800 
 44 H       10.5010     1.3400     1.5210 H     1 <1>   0.0800 
 45 H       10.9140     2.5000     0.2750 H     1 <1>   0.0800 
 46 H       11.0150     0.4750    -0.9890 H     1 <1>   0.0800 
 47 H        9.6780    -0.2190    -0.0940 H     1 <1>   0.0800 
@<TRIPOS>BOND
  1   1   2  2   
  2   1   3  2   
  3   1   4  am  
  4   1   5  1   
  5   4   6  1   
  6   4  24  1   
  7   5   7  ar  
  8   5   8  ar  
  9   6   9  1   
 10   6  10  1   
 11   6  25  1   
 12   7  11  ar  
 13   7  26  1   
 14   8  12  ar  
 15   8  27  1   
 16   9  28  1   
 17   9  29  1   
 18   9  30  1   
 19  10  31  1   
 20  10  32  1   
 21  10  33  1   
 22  11  13  ar  
 23  11  14  1   
 24  12  13  ar  
 25  12  34  1   
 26  13  15  1   
 27  14  35  1   
 28  14  36  1   
 29  14  37  1   
 30  15  16  1   
 31  16  17  1   
 32  16  38  1   
 33  16  39  1   
 34  17  18  2   
 35  17  19  am  
 36  19  20  1   
 37  19  21  1   
 38  20  22  1   
 39  20  40  1   
 40  20  41  1   
 41  21  23  1   
 42  21  42  1   
 43  21  43  1   
 44  22  23  1   
 45  22  44  1   
 46  22  45  1   
 47  23  46  1   
 48  23  47  1   
@<TRIPOS>SUBSTRUCTURE
  1 ****  11 GROUP 4 **** **** 0

# MOE 2024.06 (io_trps.svl 2023.06)
