@<TRIPOS>MOLECULE
NONAME
36 37 1 0 0 
SMALL
USER_CHARGES


@<TRIPOS>ATOM
  1 S        1.8100     0.0010     0.3730 S.o2  1 <1>   1.0900 
  2 O        3.0530     0.3590    -0.2640 O.2   1 <1>  -0.6500 
  3 O        1.6490    -1.2200     1.1210 O.2   1 <1>  -0.6500 
  4 C        1.2860     1.3570     1.3950 C.3   1 <1>  -0.0550 
  5 C        0.4950     0.1410    -0.8190 C.3   1 <1>  -0.0550 
  6 C        0.2420     2.1550     0.5850 C.3   1 <1>   0.2400 
  7 C       -0.5760     1.0950    -0.2350 C.3   1 <1>   0.0610 
  8 N       -0.6490     2.9480     1.5210 N.pl3 1 <1>   0.8000 
  9 C        1.0320     3.1320    -0.3410 C.3   1 <1>  -0.2400 
 10 C       -1.3770     1.7660    -1.3760 C.2   1 <1>   0.6590 
 11 C       -1.4990     0.2050     0.6490 C.3   1 <1>  -0.2400 
 12 O       -0.9240     2.4830     2.6360 O.2   1 <1>  -0.5200 
 13 O       -1.0800     4.0510     1.1640 O.2   1 <1>  -0.5200 
 14 O       -1.0670     1.6110    -2.5270 O.2   1 <1>  -0.5700 
 15 O       -2.3490     2.6120    -1.0630 O.3   1 <1>  -0.2330 
 16 C       -3.5660     2.2250    -0.6170 C.ar  1 <1>   0.0820 
 17 C       -4.1810     2.9810     0.3680 C.ar  1 <1>  -0.1500 
 18 C       -4.1940     1.0930    -1.1240 C.ar  1 <1>  -0.1500 
 19 C       -5.4140     2.5950     0.8640 C.ar  1 <1>  -0.1500 
 20 C       -5.4260     0.7100    -0.6240 C.ar  1 <1>  -0.1500 
 21 C       -6.0340     1.4590     0.3710 C.ar  1 <1>  -0.1500 
 22 H        2.1230     1.9670     1.6790 H     1 <1>   0.0800 
 23 H        0.8500     0.9460     2.2860 H     1 <1>   0.0800 
 24 H        0.0850    -0.8210    -1.0620 H     1 <1>   0.0800 
 25 H        0.9120     0.5500    -1.7200 H     1 <1>   0.0800 
 26 H        1.7070     2.6180    -1.0030 H     1 <1>   0.0800 
 27 H        1.6210     3.8110     0.2520 H     1 <1>   0.0800 
 28 H        0.3710     3.7230    -0.9520 H     1 <1>   0.0800 
 29 H       -0.9510    -0.3350     1.4020 H     1 <1>   0.0800 
 30 H       -2.0090    -0.5220     0.0390 H     1 <1>   0.0800 
 31 H       -2.2540     0.7790     1.1560 H     1 <1>   0.0800 
 32 H       -3.6990     3.8650     0.7470 H     1 <1>   0.1500 
 33 H       -3.7360     0.5170    -1.9080 H     1 <1>   0.1500 
 34 H       -5.8910     3.1780     1.6330 H     1 <1>   0.1500 
 35 H       -5.9180    -0.1660    -1.0110 H     1 <1>   0.1500 
 36 H       -6.9930     1.1600     0.7590 H     1 <1>   0.1500 
@<TRIPOS>BOND
  1   1   2  2   
  2   1   3  2   
  3   1   4  1   
  4   1   5  1   
  5   4   6  1   
  6   4  22  1   
  7   4  23  1   
  8   5   7  1   
  9   5  24  1   
 10   5  25  1   
 11   6   7  1   
 12   6   8  1   
 13   6   9  1   
 14   7  10  1   
 15   7  11  1   
 16   8  12  2   
 17   8  13  2   
 18   9  26  1   
 19   9  27  1   
 20   9  28  1   
 21  10  14  2   
 22  10  15  1   
 23  11  29  1   
 24  11  30  1   
 25  11  31  1   
 26  15  16  1   
 27  16  17  ar  
 28  16  18  ar  
 29  17  19  ar  
 30  17  32  1   
 31  18  20  ar  
 32  18  33  1   
 33  19  21  ar  
 34  19  34  1   
 35  20  21  ar  
 36  20  35  1   
 37  21  36  1   
@<TRIPOS>SUBSTRUCTURE
  1 ****   7 GROUP 4 **** **** 0

# MOE 2024.06 (io_trps.svl 2023.06)
