@<TRIPOS>MOLECULE
NONAME
34 35 1 0 0 
SMALL
USER_CHARGES


@<TRIPOS>ATOM
  1 N        0.2070    -0.9970    -0.3040 N.2   1 <1>  -0.3380 
  2 N        0.0380    -1.0190     1.0250 N.2   1 <1>  -0.3380 
  3 C       -0.7810    -1.6510    -0.8140 C.2   1 <1>   0.0360 
  4 C       -1.0430    -1.6840     1.2500 C.2   1 <1>   0.0360 
  5 N       -1.6090    -2.1330     0.1200 N.pl3 1 <1>   0.5050 
  6 N       -2.7660    -2.8740    -0.0600 N.2   1 <1>  -0.6520 
  7 C       -2.8860    -4.0670     0.3840 C.2   1 <1>   0.3750 
  8 C       -4.1500    -4.7730     0.2510 C.2   1 <1>  -0.1240 
  9 C       -1.7410    -4.7990     1.1100 C.3   1 <1>  -0.0990 
 10 C       -5.3350    -4.1180     0.2340 C.2   1 <1>  -0.2880 
 11 C       -4.0640    -6.2930     0.0970 C.3   1 <1>  -0.0220 
 12 C       -1.6810    -6.3040     0.8360 C.3   1 <1>  -0.1600 
 13 C       -6.7820    -4.5760     0.0690 C.3   1 <1>   0.0580 
 14 C       -3.0540    -6.9310     1.0490 C.3   1 <1>  -0.1600 
 15 C       -7.2920    -5.3080     1.3130 C.3   1 <1>  -0.2400 
 16 C       -7.0170    -5.3740    -1.2180 C.3   1 <1>  -0.2400 
 17 H       -0.9540    -1.8130    -1.8600 H     1 <1>   0.1500 
 18 H       -1.4710    -1.8730     2.2140 H     1 <1>   0.1500 
 19 H       -0.7810    -4.3970     0.8450 H     1 <1>   0.0800 
 20 H       -1.8770    -4.6470     2.1660 H     1 <1>   0.0800 
 21 H       -5.3270    -3.0460     0.3510 H     1 <1>   0.1500 
 22 H       -5.0120    -6.7570     0.2760 H     1 <1>   0.0800 
 23 H       -3.7830    -6.5160    -0.9170 H     1 <1>   0.0800 
 24 H       -1.3590    -6.4720    -0.1780 H     1 <1>   0.0800 
 25 H       -0.9620    -6.7630     1.4940 H     1 <1>   0.0800 
 26 H       -7.3740    -3.6800    -0.0260 H     1 <1>   0.0800 
 27 H       -3.3740    -6.7850     2.0670 H     1 <1>   0.0800 
 28 H       -3.0020    -7.9900     0.8630 H     1 <1>   0.0800 
 29 H       -6.7770    -6.2370     1.4650 H     1 <1>   0.0800 
 30 H       -8.3430    -5.5130     1.2160 H     1 <1>   0.0800 
 31 H       -7.1450    -4.6930     2.1830 H     1 <1>   0.0800 
 32 H       -6.5750    -6.3500    -1.1760 H     1 <1>   0.0800 
 33 H       -6.6000    -4.8440    -2.0560 H     1 <1>   0.0800 
 34 H       -8.0720    -5.4940    -1.3850 H     1 <1>   0.0800 
@<TRIPOS>BOND
  1   1   2  1   
  2   1   3  2   
  3   2   4  2   
  4   3   5  1   
  5   3  17  1   
  6   4   5  1   
  7   4  18  1   
  8   5   6  1   
  9   6   7  2   
 10   7   8  1   
 11   7   9  1   
 12   8  10  2   
 13   8  11  1   
 14   9  12  1   
 15   9  19  1   
 16   9  20  1   
 17  10  13  1   
 18  10  21  1   
 19  11  14  1   
 20  11  22  1   
 21  11  23  1   
 22  12  14  1   
 23  12  24  1   
 24  12  25  1   
 25  13  15  1   
 26  13  16  1   
 27  13  26  1   
 28  14  27  1   
 29  14  28  1   
 30  15  29  1   
 31  15  30  1   
 32  15  31  1   
 33  16  32  1   
 34  16  33  1   
 35  16  34  1   
@<TRIPOS>SUBSTRUCTURE
  1 ****   7 GROUP 4 **** **** 0

# MOE 2024.06 (io_trps.svl 2023.06)
