@<TRIPOS>MOLECULE
NONAME
41 43 1 0 0 
SMALL
USER_CHARGES


@<TRIPOS>ATOM
  1 CL       3.7190    -1.4370    -4.3420 Cl    1 <1>  -0.1770 
  2 C        3.6250    -1.3950    -2.5950 C.ar  1 <1>   0.1770 
  3 C        2.4100    -1.5140    -1.9440 C.ar  1 <1>   0.1900 
  4 C        4.7860    -1.2400    -1.8630 C.ar  1 <1>  -0.1500 
  5 F        1.3070    -1.6620    -2.6340 F     1 <1>  -0.1900 
  6 C        2.3310    -1.4810    -0.5650 C.ar  1 <1>  -0.1500 
  7 C        4.7380    -1.2060    -0.4720 C.ar  1 <1>   0.1170 
  8 C        3.5000    -1.3250     0.1630 C.ar  1 <1>  -0.1500 
  9 N        5.9420    -1.0460     0.2290 N.am  1 <1>  -0.5470 
 10 C        6.2850    -1.1810     1.5450 C.2   1 <1>   0.5690 
 11 O        5.5190    -1.5010     2.4220 O.2   1 <1>  -0.5700 
 12 C        7.7500    -0.9030     1.8910 C.3   1 <1>   0.1710 
 13 N        8.6720    -1.0310     0.7210 N.3   1 <1>  -0.8100 
 14 C        9.9610    -0.3560     0.9980 C.3   1 <1>   0.1100 
 15 C        8.9360    -2.4590     0.4110 C.3   1 <1>   0.1100 
 16 C       10.9410    -0.4540    -0.1870 C.3   1 <1>   0.2090 
 17 C        9.8830    -2.6380    -0.7910 C.3   1 <1>   0.2090 
 18 N       11.1570    -1.8770    -0.5970 N.pl3 1 <1>  -0.8380 
 19 C       12.3900    -2.3700    -0.9750 C.ar  1 <1>   0.7200 
 20 N       12.4190    -3.5870    -1.5190 N.ar  1 <1>  -0.6200 
 21 N       13.4490    -1.5880    -0.7680 N.ar  1 <1>  -0.6200 
 22 C       13.5950    -4.0420    -1.8750 C.ar  1 <1>   0.1600 
 23 C       14.6130    -2.0680    -1.1330 C.ar  1 <1>   0.1600 
 24 C       14.7430    -3.3110    -1.7010 C.ar  1 <1>  -0.1500 
 25 H        5.7240    -1.1480    -2.3780 H     1 <1>   0.1500 
 26 H        1.3780    -1.5740    -0.0740 H     1 <1>   0.1500 
 27 H        3.4390    -1.2940     1.2360 H     1 <1>   0.1500 
 28 H        6.7760    -0.8370    -0.3320 H     1 <1>   0.3700 
 29 H        8.0560    -1.5670     2.6800 H     1 <1>   0.0800 
 30 H        7.7930     0.1010     2.2710 H     1 <1>   0.0800 
 31 H       10.4280    -0.7950     1.8640 H     1 <1>   0.0800 
 32 H        9.7830     0.6850     1.2060 H     1 <1>   0.0800 
 33 H        8.0110    -2.9640     0.1950 H     1 <1>   0.0800 
 34 H        9.3820    -2.9420     1.2650 H     1 <1>   0.0800 
 35 H       11.8660     0.0140     0.1000 H     1 <1>   0.0800 
 36 H       10.5420     0.0940    -1.0220 H     1 <1>   0.0800 
 37 H        9.3970    -2.2870    -1.6840 H     1 <1>   0.0800 
 38 H       10.0760    -3.6890    -0.9120 H     1 <1>   0.0800 
 39 H       13.6450    -5.0230    -2.3160 H     1 <1>   0.1500 
 40 H       15.4830    -1.4550    -0.9740 H     1 <1>   0.1500 
 41 H       15.7020    -3.6940    -1.9950 H     1 <1>   0.1500 
@<TRIPOS>BOND
  1   1   2  1   
  2   2   3  ar  
  3   2   4  ar  
  4   3   5  1   
  5   3   6  ar  
  6   4   7  ar  
  7   4  25  1   
  8   6   8  ar  
  9   6  26  1   
 10   7   8  ar  
 11   7   9  1   
 12   8  27  1   
 13   9  10  am  
 14   9  28  1   
 15  10  11  2   
 16  10  12  1   
 17  12  13  1   
 18  12  29  1   
 19  12  30  1   
 20  13  14  1   
 21  13  15  1   
 22  14  16  1   
 23  14  31  1   
 24  14  32  1   
 25  15  17  1   
 26  15  33  1   
 27  15  34  1   
 28  16  18  1   
 29  16  35  1   
 30  16  36  1   
 31  17  18  1   
 32  17  37  1   
 33  17  38  1   
 34  18  19  1   
 35  19  20  ar  
 36  19  21  ar  
 37  20  22  ar  
 38  21  23  ar  
 39  22  24  ar  
 40  22  39  1   
 41  23  24  ar  
 42  23  40  1   
 43  24  41  1   
@<TRIPOS>SUBSTRUCTURE
  1 ****  15 GROUP 4 **** **** 0

# MOE 2024.06 (io_trps.svl 2023.06)
