@<TRIPOS>MOLECULE
NONAME
36 37 1 0 0 
SMALL
USER_CHARGES


@<TRIPOS>ATOM
  1 O       -0.6580    -0.6500    -1.3350 O.2   1 <1>  -0.5700 
  2 C       -0.8050    -1.7380    -0.8280 C.2   1 <1>   0.4950 
  3 C       -1.9560    -2.0990    -0.0490 C.2   1 <1>   0.0290 
  4 C        0.3100    -2.7320    -1.1250 C.3   1 <1>  -0.0990 
  5 C       -1.8230    -3.2770     0.7570 C.2   1 <1>   0.4950 
  6 C       -3.0700    -1.2780    -0.1090 C.2   1 <1>  -0.0500 
  7 C        0.5140    -3.7880    -0.0310 C.3   1 <1>   0.0000 
  8 O       -2.3870    -3.4760     1.8080 O.2   1 <1>  -0.5700 
  9 C       -0.8570    -4.3680     0.3310 C.3   1 <1>  -0.0990 
 10 N       -4.3590    -1.4040     0.3280 N.pl3 1 <1>  -0.8380 
 11 C        1.4290    -4.9060    -0.5530 C.3   1 <1>  -0.2400 
 12 C        1.1790    -3.1530     1.2060 C.3   1 <1>  -0.2400 
 13 C       -5.2860    -0.2290     0.3060 C.3   1 <1>   0.2090 
 14 C       -5.0120    -2.6320     0.8920 C.3   1 <1>   0.2090 
 15 C       -6.6610    -0.6010    -0.2750 C.3   1 <1>   0.1200 
 16 C       -6.4300    -2.8460     0.3260 C.3   1 <1>   0.1200 
 17 O       -7.2110    -1.6880     0.4130 O.3   1 <1>  -0.5600 
 18 H        0.0640    -3.2130    -2.0550 H     1 <1>   0.0800 
 19 H        1.2270    -2.1920    -1.2820 H     1 <1>   0.0800 
 20 H       -2.8980    -0.3380    -0.6110 H     1 <1>   0.1500 
 21 H       -0.7510    -5.0820     1.1300 H     1 <1>   0.0800 
 22 H       -1.2820    -4.8850    -0.5110 H     1 <1>   0.0800 
 23 H        2.3890    -4.5100    -0.8330 H     1 <1>   0.0800 
 24 H        0.9980    -5.3860    -1.4150 H     1 <1>   0.0800 
 25 H        1.5830    -5.6540     0.2060 H     1 <1>   0.0800 
 26 H        0.5970    -2.3380     1.6000 H     1 <1>   0.0800 
 27 H        1.2960    -3.8850     1.9870 H     1 <1>   0.0800 
 28 H        2.1540    -2.7720     0.9570 H     1 <1>   0.0800 
 29 H       -5.4190     0.1300     1.3120 H     1 <1>   0.0800 
 30 H       -4.8600     0.5690    -0.2760 H     1 <1>   0.0800 
 31 H       -4.4410    -3.5040     0.6420 H     1 <1>   0.0800 
 32 H       -5.0570    -2.5520     1.9640 H     1 <1>   0.0800 
 33 H       -6.5710    -0.8580    -1.3160 H     1 <1>   0.0800 
 34 H       -7.3400     0.2270    -0.1770 H     1 <1>   0.0800 
 35 H       -6.9300    -3.6220     0.8760 H     1 <1>   0.0800 
 36 H       -6.3720    -3.1410    -0.7080 H     1 <1>   0.0800 
@<TRIPOS>BOND
  1   1   2  2   
  2   2   3  1   
  3   2   4  1   
  4   3   5  1   
  5   3   6  2   
  6   4   7  1   
  7   4  18  1   
  8   4  19  1   
  9   5   8  2   
 10   5   9  1   
 11   6  10  1   
 12   6  20  1   
 13   7   9  1   
 14   7  11  1   
 15   7  12  1   
 16   9  21  1   
 17   9  22  1   
 18  10  13  1   
 19  10  14  1   
 20  11  23  1   
 21  11  24  1   
 22  11  25  1   
 23  12  26  1   
 24  12  27  1   
 25  12  28  1   
 26  13  15  1   
 27  13  29  1   
 28  13  30  1   
 29  14  16  1   
 30  14  31  1   
 31  14  32  1   
 32  15  17  1   
 33  15  33  1   
 34  15  34  1   
 35  16  17  1   
 36  16  35  1   
 37  16  36  1   
@<TRIPOS>SUBSTRUCTURE
  1 ****   3 GROUP 4 **** **** 0

# MOE 2024.06 (io_trps.svl 2023.06)
