@<TRIPOS>MOLECULE
NONAME
42 43 1 0 0 
SMALL
USER_CHARGES


@<TRIPOS>ATOM
  1 O        0.3800    -0.1840     1.8100 O.2   1 <1>  -0.5700 
  2 C        0.3380     1.0180     1.7190 C.2   1 <1>   0.5690 
  3 N        1.4360     1.8040     1.5200 N.am  1 <1>  -0.5470 
  4 C       -1.0100     1.7070     1.8330 C.3   1 <1>  -0.0990 
  5 C        2.8120     1.5020     1.4370 C.ar  1 <1>   0.1170 
  6 C       -1.7820     1.7810     0.5010 C.3   1 <1>  -0.0800 
  7 C        3.6750     2.4260     0.8280 C.ar  1 <1>   0.1170 
  8 C        3.3510     0.3320     1.9600 C.ar  1 <1>  -0.1500 
  9 C       -1.0220     2.5940    -0.5640 C.3   1 <1>  -0.1600 
 10 C       -3.1790     2.3810     0.7400 C.3   1 <1>  -0.1600 
 11 N        3.1810     3.6180     0.2720 N.am  1 <1>  -0.5470 
 12 C        5.0360     2.1650     0.7650 C.ar  1 <1>  -0.1500 
 13 C        4.7100     0.0770     1.8870 C.ar  1 <1>  -0.1500 
 14 C       -1.8240     2.7180    -1.8660 C.3   1 <1>  -0.1600 
 15 C       -3.9780     2.4950    -0.5660 C.3   1 <1>  -0.1600 
 16 C        2.5640     3.7900    -0.9220 C.2   1 <1>   0.5690 
 17 C        5.5550     0.9950     1.2900 C.ar  1 <1>  -0.1500 
 18 C       -3.2120     3.3150    -1.6110 C.3   1 <1>  -0.1600 
 19 O        2.0480     4.8430    -1.1860 O.2   1 <1>  -0.5700 
 20 C        2.5190     2.6650    -1.9300 C.3   1 <1>  -0.1790 
 21 H        1.2270     2.7810     1.3180 H     1 <1>   0.3700 
 22 H       -0.8720     2.6950     2.2330 H     1 <1>   0.0800 
 23 H       -1.5940     1.1520     2.5450 H     1 <1>   0.0800 
 24 H       -1.9060     0.7750     0.1330 H     1 <1>   0.0800 
 25 H        2.7130    -0.3910     2.4350 H     1 <1>   0.1500 
 26 H       -0.0900     2.1120    -0.7920 H     1 <1>   0.0800 
 27 H       -0.8090     3.5810    -0.1900 H     1 <1>   0.0800 
 28 H       -3.0820     3.3600     1.1760 H     1 <1>   0.0800 
 29 H       -3.7260     1.7640     1.4320 H     1 <1>   0.0800 
 30 H        3.2830     4.4740     0.8180 H     1 <1>   0.3700 
 31 H        5.6930     2.8770     0.2990 H     1 <1>   0.1500 
 32 H        5.1060    -0.8360     2.2960 H     1 <1>   0.1500 
 33 H       -1.9320     1.7440    -2.3120 H     1 <1>   0.0800 
 34 H       -1.2860     3.3410    -2.5610 H     1 <1>   0.0800 
 35 H       -4.9280     2.9610    -0.3680 H     1 <1>   0.0800 
 36 H       -4.1680     1.5090    -0.9550 H     1 <1>   0.0800 
 37 H        6.6120     0.7980     1.2350 H     1 <1>   0.1500 
 38 H       -3.7700     3.3380    -2.5310 H     1 <1>   0.0800 
 39 H       -3.1070     4.3290    -1.2630 H     1 <1>   0.0800 
 40 H        2.2000     1.7520    -1.4630 H     1 <1>   0.0800 
 41 H        3.4960     2.5230    -2.3500 H     1 <1>   0.0800 
 42 H        1.8320     2.9100    -2.7180 H     1 <1>   0.0800 
@<TRIPOS>BOND
  1   1   2  2   
  2   2   3  am  
  3   2   4  1   
  4   3   5  1   
  5   3  21  1   
  6   4   6  1   
  7   4  22  1   
  8   4  23  1   
  9   5   7  ar  
 10   5   8  ar  
 11   6   9  1   
 12   6  10  1   
 13   6  24  1   
 14   7  11  1   
 15   7  12  ar  
 16   8  13  ar  
 17   8  25  1   
 18   9  14  1   
 19   9  26  1   
 20   9  27  1   
 21  10  15  1   
 22  10  28  1   
 23  10  29  1   
 24  11  16  am  
 25  11  30  1   
 26  12  17  ar  
 27  12  31  1   
 28  13  17  ar  
 29  13  32  1   
 30  14  18  1   
 31  14  33  1   
 32  14  34  1   
 33  15  18  1   
 34  15  35  1   
 35  15  36  1   
 36  16  19  2   
 37  16  20  1   
 38  17  37  1   
 39  18  38  1   
 40  18  39  1   
 41  20  40  1   
 42  20  41  1   
 43  20  42  1   
@<TRIPOS>SUBSTRUCTURE
  1 ****   3 GROUP 4 **** **** 0

# MOE 2024.06 (io_trps.svl 2023.06)
