@<TRIPOS>MOLECULE
NONAME
46 49 1 0 0 
SMALL
USER_CHARGES


@<TRIPOS>ATOM
  1 S        0.1720     0.0520    -0.4710 S.3   1 <1>  -0.0800 
  2 C        0.9080     1.5210     0.1830 C.ar  1 <1>   0.2970 
  3 C       -1.3180     0.9190    -0.8250 C.2   1 <1>  -0.1400 
  4 N        2.1220     1.5350     0.6830 N.ar  1 <1>  -0.5670 
  5 C        0.0430     2.5890     0.0930 C.ar  1 <1>   0.0000 
  6 C       -1.2320     2.2040    -0.4690 C.2   1 <1>  -0.1810 
  7 C       -2.5190     0.2250    -1.4320 C.3   1 <1>   0.3000 
  8 C        2.4480     2.7360     1.1200 C.ar  1 <1>   0.7220 
  9 C        0.5580     3.8000     0.5680 C.ar  1 <1>   0.4100 
 10 C       -2.4470     3.0910    -0.6690 C.3   1 <1>   0.0210 
 11 O       -3.4930     1.1860    -1.7700 O.3   1 <1>  -0.5600 
 12 S        4.0760     2.8770     1.8480 S.3   1 <1>  -0.3320 
 13 N        1.7610     3.8650     1.1060 N.ar  1 <1>  -0.6200 
 14 N       -0.1430     4.9820     0.4790 N.pl3 1 <1>  -0.8380 
 15 C       -3.7330     2.2440    -0.8730 C.3   1 <1>   0.2800 
 16 C        4.8040     1.1810     1.7350 C.3   1 <1>  -0.0100 
 17 C       -0.2130     5.8970     1.6530 C.3   1 <1>   0.2090 
 18 C       -0.2640     5.6380    -0.8490 C.3   1 <1>   0.2090 
 19 C       -4.8250     3.0910    -1.5260 C.3   1 <1>  -0.2400 
 20 C       -4.2680     1.6700     0.4480 C.3   1 <1>  -0.2400 
 21 C        0.7950     7.0440     1.5120 C.3   1 <1>  -0.1600 
 22 C        0.7660     6.7630    -0.9830 C.3   1 <1>  -0.1600 
 23 C        0.6570     7.7710     0.1680 C.3   1 <1>  -0.1600 
 24 H       -2.9500    -0.4750    -0.7390 H     1 <1>   0.0800 
 25 H       -2.2430    -0.2920    -2.3340 H     1 <1>   0.0800 
 26 H       -2.2830     3.7090    -1.5310 H     1 <1>   0.0800 
 27 H       -2.5760     3.7350     0.1820 H     1 <1>   0.0800 
 28 H        5.7880     1.2170     2.1640 H     1 <1>   0.0800 
 29 H        4.8430     0.9080     0.6960 H     1 <1>   0.0800 
 30 H        4.1660     0.5120     2.2850 H     1 <1>   0.0800 
 31 H       -0.0080     5.3450     2.5550 H     1 <1>   0.0800 
 32 H       -1.2100     6.2950     1.7240 H     1 <1>   0.0800 
 33 H       -1.2570     6.0390    -0.9530 H     1 <1>   0.0800 
 34 H       -0.1060     4.9130    -1.6300 H     1 <1>   0.0800 
 35 H       -4.4940     3.4530    -2.4830 H     1 <1>   0.0800 
 36 H       -5.0680     3.9340    -0.9060 H     1 <1>   0.0800 
 37 H       -5.7150     2.5040    -1.6680 H     1 <1>   0.0800 
 38 H       -3.5060     1.1280     0.9770 H     1 <1>   0.0800 
 39 H       -5.1040     1.0200     0.2610 H     1 <1>   0.0800 
 40 H       -4.5970     2.4690     1.0870 H     1 <1>   0.0800 
 41 H        1.7880     6.6380     1.6000 H     1 <1>   0.0800 
 42 H        0.6550     7.7390     2.3190 H     1 <1>   0.0800 
 43 H        0.6240     7.2660    -1.9220 H     1 <1>   0.0800 
 44 H        1.7500     6.3270    -0.9880 H     1 <1>   0.0800 
 45 H        1.4300     8.5140     0.0760 H     1 <1>   0.0800 
 46 H       -0.2960     8.2690     0.1240 H     1 <1>   0.0800 
@<TRIPOS>BOND
  1   1   2  1   
  2   1   3  1   
  3   2   4  ar  
  4   2   5  ar  
  5   3   6  2   
  6   3   7  1   
  7   4   8  ar  
  8   5   6  1   
  9   5   9  ar  
 10   6  10  1   
 11   7  11  1   
 12   7  24  1   
 13   7  25  1   
 14   8  12  1   
 15   8  13  ar  
 16   9  13  ar  
 17   9  14  1   
 18  10  15  1   
 19  10  26  1   
 20  10  27  1   
 21  11  15  1   
 22  12  16  1   
 23  14  17  1   
 24  14  18  1   
 25  15  19  1   
 26  15  20  1   
 27  16  28  1   
 28  16  29  1   
 29  16  30  1   
 30  17  21  1   
 31  17  31  1   
 32  17  32  1   
 33  18  22  1   
 34  18  33  1   
 35  18  34  1   
 36  19  35  1   
 37  19  36  1   
 38  19  37  1   
 39  20  38  1   
 40  20  39  1   
 41  20  40  1   
 42  21  23  1   
 43  21  41  1   
 44  21  42  1   
 45  22  23  1   
 46  22  43  1   
 47  22  44  1   
 48  23  45  1   
 49  23  46  1   
@<TRIPOS>SUBSTRUCTURE
  1 ****   5 GROUP 4 **** **** 0

# MOE 2024.06 (io_trps.svl 2023.06)
