@<TRIPOS>MOLECULE
22806
33 33 1 0 0 
SMALL
USER_CHARGES


@<TRIPOS>ATOM
  1 O       -1.1450    -1.7600     2.6450 O.2   1 <1>  -0.5700 
  2 C       -0.6290    -2.1330     1.6220 C.2   1 <1>   0.6590 
  3 O        0.6090    -2.6190     1.6560 O.3   1 <1>  -0.2330 
  4 C       -1.3320    -1.9660     0.2410 C.3   1 <1>   0.0610 
  5 C        0.9260    -3.8770     1.2720 C.ar  1 <1>   0.0820 
  6 C       -0.3410    -1.4960    -0.8450 C.3   1 <1>  -0.2400 
  7 C       -2.4460    -0.9000     0.3280 C.3   1 <1>  -0.2400 
  8 C       -1.9890    -3.2780    -0.2310 C.3   1 <1>  -0.2400 
  9 C        2.0470    -4.0740     0.4840 C.ar  1 <1>  -0.1500 
 10 C        0.1560    -4.9590     1.6680 C.ar  1 <1>  -0.1500 
 11 C        2.3930    -5.3480     0.0610 C.ar  1 <1>  -0.1430 
 12 C        0.4990    -6.2310     1.2480 C.ar  1 <1>  -0.1500 
 13 C        1.6110    -6.4340     0.4430 C.ar  1 <1>  -0.1430 
 14 C        3.6280    -5.5240    -0.8120 C.3   1 <1>  -0.0970 
 15 C        1.9510    -7.8510     0.0010 C.3   1 <1>  -0.0970 
 16 H        0.4150    -2.2390    -1.0230 H     1 <1>   0.0800 
 17 H        0.1430    -0.5850    -0.5400 H     1 <1>   0.0800 
 18 H       -0.8520    -1.3160    -1.7750 H     1 <1>   0.0800 
 19 H       -2.0370     0.0410     0.6530 H     1 <1>   0.0800 
 20 H       -3.1960    -1.1990     1.0390 H     1 <1>   0.0800 
 21 H       -2.9220    -0.7540    -0.6250 H     1 <1>   0.0800 
 22 H       -1.2470    -4.0240    -0.4520 H     1 <1>   0.0800 
 23 H       -2.5650    -3.1150    -1.1240 H     1 <1>   0.0800 
 24 H       -2.6440    -3.6610     0.5310 H     1 <1>   0.0800 
 25 H        2.6410    -3.2230     0.2050 H     1 <1>   0.1500 
 26 H       -0.7010    -4.8140     2.3030 H     1 <1>   0.1500 
 27 H       -0.1070    -7.0650     1.5570 H     1 <1>   0.1500 
 28 H        4.1060    -4.5800    -1.0020 H     1 <1>   0.0800 
 29 H        3.3530    -5.9580    -1.7570 H     1 <1>   0.0800 
 30 H        4.3360    -6.1680    -0.3230 H     1 <1>   0.0800 
 31 H        2.9240    -8.1260     0.3650 H     1 <1>   0.0800 
 32 H        1.9450    -7.9140    -1.0720 H     1 <1>   0.0800 
 33 H        1.2360    -8.5570     0.3840 H     1 <1>   0.0800 
@<TRIPOS>BOND
  1   1   2  2   
  2   2   3  1   
  3   2   4  1   
  4   3   5  1   
  5   4   6  1   
  6   4   7  1   
  7   4   8  1   
  8   5   9  ar  
  9   5  10  ar  
 10   6  16  1   
 11   6  17  1   
 12   6  18  1   
 13   7  19  1   
 14   7  20  1   
 15   7  21  1   
 16   8  22  1   
 17   8  23  1   
 18   8  24  1   
 19   9  11  ar  
 20   9  25  1   
 21  10  12  ar  
 22  10  26  1   
 23  11  13  ar  
 24  11  14  1   
 25  12  13  ar  
 26  12  27  1   
 27  13  15  1   
 28  14  28  1   
 29  14  29  1   
 30  14  30  1   
 31  15  31  1   
 32  15  32  1   
 33  15  33  1   
@<TRIPOS>SUBSTRUCTURE
  1 ****   5 GROUP 4 **** **** 0

# MOE 2024.06 (io_trps.svl 2023.06)
