@<TRIPOS>MOLECULE
NONAME
34 34 1 0 0 
SMALL
USER_CHARGES


@<TRIPOS>ATOM
  1 O        0.3130    -0.9170    -0.9300 O.2   1 <1>  -0.5700 
  2 C        0.0500    -1.7450    -0.0790 C.2   1 <1>   0.5440 
  3 N        1.0510    -2.1540     0.7590 N.am  1 <1>  -0.7300 
  4 C       -1.2940    -2.2800     0.0490 C.ar  1 <1>   0.0860 
  5 C        2.4420    -1.6290     0.7430 C.3   1 <1>   0.1400 
  6 C       -2.4010    -1.5410    -0.3740 C.ar  1 <1>  -0.1500 
  7 C       -1.5420    -3.5430     0.5940 C.ar  1 <1>  -0.1500 
  8 C        3.2090    -2.1720    -0.4630 C.3   1 <1>   0.1200 
  9 C       -3.6910    -2.0240    -0.2530 C.ar  1 <1>  -0.1500 
 10 C       -2.8280    -4.0330     0.7200 C.ar  1 <1>  -0.1500 
 11 O        4.5580    -1.8580    -0.3080 O.3   1 <1>  -0.5600 
 12 C       -3.9130    -3.2810     0.3010 C.ar  1 <1>   0.0830 
 13 C        5.3450    -2.2210    -1.3960 C.3   1 <1>   0.0400 
 14 O       -5.1360    -3.8330     0.4610 O.3   1 <1>  -0.3630 
 15 C       -6.3070    -3.1730     0.0400 C.3   1 <1>   0.2580 
 16 C       -7.4900    -4.0680     0.3530 C.2   1 <1>  -0.2880 
 17 C       -8.3850    -4.5120    -0.5350 C.2   1 <1>  -0.3000 
 18 H        0.8200    -2.7560     1.5490 H     1 <1>   0.3700 
 19 H        2.9420    -1.9270     1.6480 H     1 <1>   0.0800 
 20 H        2.4180    -0.5540     0.6920 H     1 <1>   0.0800 
 21 H       -2.2370    -0.5690    -0.8070 H     1 <1>   0.1500 
 22 H       -0.7200    -4.1560     0.9150 H     1 <1>   0.1500 
 23 H        2.8430    -1.7140    -1.3670 H     1 <1>   0.0800 
 24 H        3.1130    -3.2420    -0.5190 H     1 <1>   0.0800 
 25 H       -4.5030    -1.4110    -0.5950 H     1 <1>   0.1500 
 26 H       -3.0030    -5.0070     1.1410 H     1 <1>   0.1500 
 27 H        6.3620    -1.9450    -1.1800 H     1 <1>   0.0800 
 28 H        5.0040    -1.6950    -2.2710 H     1 <1>   0.0800 
 29 H        5.2790    -3.2850    -1.5430 H     1 <1>   0.0800 
 30 H       -6.2340    -2.9900    -1.0180 H     1 <1>   0.0800 
 31 H       -6.3860    -2.2440     0.5760 H     1 <1>   0.0800 
 32 H       -7.5360    -4.3210     1.3990 H     1 <1>   0.1500 
 33 H       -9.2140    -5.1500    -0.2810 H     1 <1>   0.1500 
 34 H       -8.3660    -4.2820    -1.5870 H     1 <1>   0.1500 
@<TRIPOS>BOND
  1   1   2  2   
  2   2   3  am  
  3   2   4  1   
  4   3   5  1   
  5   3  18  1   
  6   4   6  ar  
  7   4   7  ar  
  8   5   8  1   
  9   5  19  1   
 10   5  20  1   
 11   6   9  ar  
 12   6  21  1   
 13   7  10  ar  
 14   7  22  1   
 15   8  11  1   
 16   8  23  1   
 17   8  24  1   
 18   9  12  ar  
 19   9  25  1   
 20  10  12  ar  
 21  10  26  1   
 22  11  13  1   
 23  12  14  1   
 24  13  27  1   
 25  13  28  1   
 26  13  29  1   
 27  14  15  1   
 28  15  16  1   
 29  15  30  1   
 30  15  31  1   
 31  16  17  2   
 32  16  32  1   
 33  17  33  1   
 34  17  34  1   
@<TRIPOS>SUBSTRUCTURE
  1 ****   4 GROUP 4 **** **** 0

# MOE 2024.06 (io_trps.svl 2023.06)
