@<TRIPOS>MOLECULE
NONAME
37 39 1 0 0 
SMALL
USER_CHARGES


@<TRIPOS>ATOM
  1 F       -0.7370    -1.9690    -2.1530 F     1 <1>  -0.1900 
  2 C       -1.5350    -1.8760    -1.1140 C.ar  1 <1>   0.1900 
  3 C       -1.1400    -2.4290     0.1100 C.ar  1 <1>   0.1000 
  4 C       -2.7420    -1.2280    -1.2900 C.ar  1 <1>  -0.1500 
  5 N        0.0750    -3.0940     0.3280 N.pl3 1 <1>  -0.8380 
  6 C       -2.0270    -2.2990     1.1720 C.ar  1 <1>  -0.1500 
  7 C       -3.6030    -1.1160    -0.2110 C.ar  1 <1>  -0.1500 
  8 C        1.2920    -2.2290     0.2510 C.3   1 <1>   0.2090 
  9 C        0.2210    -4.3960    -0.3890 C.3   1 <1>   0.2090 
 10 C       -3.2420    -1.6510     1.0160 C.ar  1 <1>  -0.1500 
 11 C        2.5430    -2.9920     0.7320 C.3   1 <1>   0.3430 
 12 C        1.4750    -5.1560     0.0940 C.3   1 <1>   0.3430 
 13 N        2.7210    -4.3120     0.0210 N.4   1 <1>  -0.9590 
 14 C        3.9320    -5.0330     0.4930 C.3   1 <1>   0.5230 
 15 C        5.1480    -4.2230     0.0850 C.2   1 <1>  -0.0400 
 16 O        5.2380    -3.8260    -1.1710 O.3   1 <1>  -0.2800 
 17 C        6.2120    -3.7920     0.7970 C.2   1 <1>  -0.1500 
 18 C        6.3590    -3.1420    -1.2920 C.2   1 <1>  -0.0100 
 19 C        7.0080    -3.0810    -0.1110 C.2   1 <1>  -0.1500 
 20 H       -3.0020    -0.8190    -2.2500 H     1 <1>   0.1500 
 21 H       -1.7570    -2.7100     2.1270 H     1 <1>   0.1500 
 22 H       -4.5490    -0.6140    -0.3240 H     1 <1>   0.1500 
 23 H        1.1460    -1.3590     0.8680 H     1 <1>   0.0800 
 24 H        1.4400    -1.8940    -0.7610 H     1 <1>   0.0800 
 25 H        0.2880    -4.2250    -1.4490 H     1 <1>   0.0800 
 26 H       -0.6530    -4.9990    -0.2070 H     1 <1>   0.0800 
 27 H       -3.9130    -1.5640     1.8540 H     1 <1>   0.1500 
 28 H        2.4430    -3.1620     1.7910 H     1 <1>   0.0800 
 29 H        3.4110    -2.3720     0.5760 H     1 <1>   0.0800 
 30 H        1.5960    -6.0450    -0.5040 H     1 <1>   0.0800 
 31 H        1.3050    -5.4610     1.1130 H     1 <1>   0.0800 
 32 H        2.9150    -4.0860    -0.9660 H     1 <1>   0.4500 
 33 H        3.9890    -6.0020     0.0250 H     1 <1>   0.0800 
 34 H        3.9090    -5.1620     1.5620 H     1 <1>   0.0800 
 35 H        6.4520    -3.9350     1.8370 H     1 <1>   0.1500 
 36 H        6.6230    -2.7330    -2.2540 H     1 <1>   0.1500 
 37 H        7.9440    -2.6000     0.1170 H     1 <1>   0.1500 
@<TRIPOS>BOND
  1   1   2  1   
  2   2   3  ar  
  3   2   4  ar  
  4   3   5  1   
  5   3   6  ar  
  6   4   7  ar  
  7   4  20  1   
  8   5   8  1   
  9   5   9  1   
 10   6  10  ar  
 11   6  21  1   
 12   7  10  ar  
 13   7  22  1   
 14   8  11  1   
 15   8  23  1   
 16   8  24  1   
 17   9  12  1   
 18   9  25  1   
 19   9  26  1   
 20  10  27  1   
 21  11  13  1   
 22  11  28  1   
 23  11  29  1   
 24  12  13  1   
 25  12  30  1   
 26  12  31  1   
 27  13  14  1   
 28  13  32  1   
 29  14  15  1   
 30  14  33  1   
 31  14  34  1   
 32  15  16  1   
 33  15  17  2   
 34  16  18  1   
 35  17  19  1   
 36  17  35  1   
 37  18  19  2   
 38  18  36  1   
 39  19  37  1   
@<TRIPOS>SUBSTRUCTURE
  1 ****   8 GROUP 4 **** **** 0

# MOE 2024.06 (io_trps.svl 2023.06)
