@<TRIPOS>MOLECULE
NONAME
39 40 1 0 0 
SMALL
USER_CHARGES


@<TRIPOS>ATOM
  1 O        0.1130    -0.8780    -1.4780 O.2   1 <1>  -0.5700 
  2 C        0.1230    -1.9450    -0.9080 C.2   1 <1>   0.4950 
  3 C        1.2880    -2.4930    -0.2780 C.2   1 <1>   0.0290 
  4 C       -1.2020    -2.6890    -0.9160 C.3   1 <1>  -0.0990 
  5 C        1.1810    -3.7870     0.3380 C.2   1 <1>   0.4950 
  6 C        2.4580    -1.7610    -0.2880 C.2   1 <1>  -0.0500 
  7 C       -1.3660    -3.6390     0.2760 C.3   1 <1>   0.0000 
  8 O        2.0900    -4.3720     0.8840 O.2   1 <1>  -0.5700 
  9 C       -0.1340    -4.5510     0.3290 C.3   1 <1>  -0.0990 
 10 N        3.6460    -2.1200     0.2550 N.pl3 1 <1>  -0.8690 
 11 C       -2.6300    -4.4920     0.0850 C.3   1 <1>  -0.2400 
 12 C       -1.5110    -2.8460     1.5880 C.3   1 <1>  -0.2400 
 13 C        4.9110    -1.3440     0.2330 C.3   1 <1>   0.2090 
 14 C        6.0990    -2.2360    -0.1630 C.3   1 <1>   0.2000 
 15 O        6.2840    -3.2560     0.7650 O.3   1 <1>  -0.5600 
 16 C        7.4420    -1.5170    -0.1900 C.3   1 <1>  -0.1600 
 17 C        7.5750    -3.7620     0.6670 C.3   1 <1>   0.1200 
 18 C        8.4330    -2.6350     0.0940 C.3   1 <1>  -0.1600 
 19 H       -2.0030    -1.9700    -0.9180 H     1 <1>   0.0800 
 20 H       -1.2600    -3.2380    -1.8380 H     1 <1>   0.0800 
 21 H        2.4450    -0.7960    -0.7740 H     1 <1>   0.1500 
 22 H       -0.1210    -5.2070    -0.5220 H     1 <1>   0.0800 
 23 H       -0.1810    -5.1690     1.2090 H     1 <1>   0.0800 
 24 H        3.7450    -3.0390     0.7330 H     1 <1>   0.4000 
 25 H       -3.5040    -3.8660     0.0320 H     1 <1>   0.0800 
 26 H       -2.7540    -5.1740     0.9070 H     1 <1>   0.0800 
 27 H       -2.5730    -5.0670    -0.8230 H     1 <1>   0.0800 
 28 H       -0.6540    -2.2260     1.7820 H     1 <1>   0.0800 
 29 H       -1.6280    -3.5170     2.4220 H     1 <1>   0.0800 
 30 H       -2.3780    -2.2090     1.5500 H     1 <1>   0.0800 
 31 H        4.8200    -0.5340    -0.4700 H     1 <1>   0.0800 
 32 H        5.0880    -0.9280     1.2090 H     1 <1>   0.0800 
 33 H        5.9070    -2.6950    -1.1180 H     1 <1>   0.0800 
 34 H        7.6180    -1.0360    -1.1350 H     1 <1>   0.0800 
 35 H        7.4780    -0.7840     0.5970 H     1 <1>   0.0800 
 36 H        7.8990    -4.0650     1.6480 H     1 <1>   0.0800 
 37 H        7.5510    -4.6120     0.0060 H     1 <1>   0.0800 
 38 H        9.1870    -2.3270     0.7980 H     1 <1>   0.0800 
 39 H        8.9120    -2.9700    -0.8090 H     1 <1>   0.0800 
@<TRIPOS>BOND
  1   1   2  2   
  2   2   3  1   
  3   2   4  1   
  4   3   5  1   
  5   3   6  2   
  6   4   7  1   
  7   4  19  1   
  8   4  20  1   
  9   5   8  2   
 10   5   9  1   
 11   6  10  1   
 12   6  21  1   
 13   7   9  1   
 14   7  11  1   
 15   7  12  1   
 16   9  22  1   
 17   9  23  1   
 18  10  13  1   
 19  10  24  1   
 20  11  25  1   
 21  11  26  1   
 22  11  27  1   
 23  12  28  1   
 24  12  29  1   
 25  12  30  1   
 26  13  14  1   
 27  13  31  1   
 28  13  32  1   
 29  14  15  1   
 30  14  16  1   
 31  14  33  1   
 32  15  17  1   
 33  16  18  1   
 34  16  34  1   
 35  16  35  1   
 36  17  18  1   
 37  17  36  1   
 38  17  37  1   
 39  18  38  1   
 40  18  39  1   
@<TRIPOS>SUBSTRUCTURE
  1 ****   6 GROUP 4 **** **** 0

# MOE 2024.06 (io_trps.svl 2023.06)
