@<TRIPOS>MOLECULE
NONAME
51 53 1 0 0 
SMALL
USER_CHARGES


@<TRIPOS>ATOM
  1 O       -0.5270     0.3540    -1.5360 O.2   1 <1>  -0.5700 
  2 C       -0.9720     0.9310    -0.5610 C.2   1 <1>   0.6900 
  3 N       -2.2690     0.7180    -0.1690 N.am  1 <1>  -0.6600 
  4 N       -0.2060     1.8160     0.1410 N.am  1 <1>  -0.5470 
  5 C       -3.2320    -0.0250    -1.0450 C.3   1 <1>   0.1400 
  6 C       -2.8280     1.0220     1.1880 C.3   1 <1>   0.1400 
  7 C        1.1600     2.1260     0.0630 C.ar  1 <1>   0.1170 
  8 C       -4.5960     0.6840    -1.1120 C.3   1 <1>   0.2090 
  9 C       -4.1920     1.7280     1.0890 C.3   1 <1>   0.2090 
 10 C        1.5930     3.3720     0.4990 C.ar  1 <1>  -0.1500 
 11 C        2.1090     1.2270    -0.4150 C.ar  1 <1>  -0.1500 
 12 N       -5.1430     0.9380     0.2550 N.pl3 1 <1>  -0.8380 
 13 C        2.9330     3.7120     0.4560 C.ar  1 <1>  -0.1500 
 14 C        3.4500     1.5610    -0.4620 C.ar  1 <1>  -0.1500 
 15 C       -6.4760     1.3690     0.2960 C.ar  1 <1>   0.1000 
 16 C        3.8710     2.8130    -0.0240 C.ar  1 <1>   0.0820 
 17 C       -6.9260     2.6100    -0.1940 C.ar  1 <1>   0.0820 
 18 C       -7.4010     0.5030     0.8610 C.ar  1 <1>  -0.1500 
 19 O        5.1660     3.2270    -0.0330 O.3   1 <1>  -0.3630 
 20 O       -6.0110     3.4620    -0.7540 O.3   1 <1>  -0.3630 
 21 C       -8.2760     2.9380    -0.1000 C.ar  1 <1>  -0.1500 
 22 C       -8.7400     0.8350     0.9490 C.ar  1 <1>  -0.1500 
 23 C        6.1830     2.3980    -0.5430 C.3   1 <1>   0.1200 
 24 C       -6.4130     4.6400    -1.4170 C.3   1 <1>   0.0400 
 25 C       -9.1780     2.0550     0.4690 C.ar  1 <1>  -0.1500 
 26 C        7.5050     3.1520    -0.4360 C.3   1 <1>  -0.2400 
 27 H       -0.7590     2.4300     0.7260 H     1 <1>   0.3700 
 28 H       -3.3710    -1.0160    -0.6530 H     1 <1>   0.0800 
 29 H       -2.8390    -0.1150    -2.0430 H     1 <1>   0.0800 
 30 H       -2.1540     1.6320     1.7590 H     1 <1>   0.0800 
 31 H       -2.9620     0.0960     1.7200 H     1 <1>   0.0800 
 32 H       -5.2900     0.0740    -1.6630 H     1 <1>   0.0800 
 33 H       -4.4820     1.6160    -1.6380 H     1 <1>   0.0800 
 34 H       -4.0560     2.7050     0.6600 H     1 <1>   0.0800 
 35 H       -4.6070     1.8510     2.0750 H     1 <1>   0.0800 
 36 H        0.8820     4.0850     0.8720 H     1 <1>   0.1500 
 37 H        1.7970     0.2550    -0.7530 H     1 <1>   0.1500 
 38 H        3.2640     4.6780     0.7930 H     1 <1>   0.1500 
 39 H        4.1450     0.8360    -0.8410 H     1 <1>   0.1500 
 40 H       -7.0540    -0.4440     1.2320 H     1 <1>   0.1500 
 41 H       -8.6510     3.8760    -0.4580 H     1 <1>   0.1500 
 42 H       -9.4380     0.1460     1.3920 H     1 <1>   0.1500 
 43 H        5.9560     2.1730    -1.5710 H     1 <1>   0.0800 
 44 H        6.2120     1.4950     0.0410 H     1 <1>   0.0800 
 45 H       -5.5370     5.1020    -1.8360 H     1 <1>   0.0800 
 46 H       -6.8700     5.3030    -0.7040 H     1 <1>   0.0800 
 47 H       -7.1010     4.3820    -2.2030 H     1 <1>   0.0800 
 48 H      -10.2190     2.3170     0.5380 H     1 <1>   0.1500 
 49 H        7.4590     4.0610    -1.0090 H     1 <1>   0.0800 
 50 H        8.3040     2.5440    -0.8180 H     1 <1>   0.0800 
 51 H        7.7130     3.3870     0.5930 H     1 <1>   0.0800 
@<TRIPOS>BOND
  1   1   2  2   
  2   2   3  am  
  3   2   4  am  
  4   3   5  1   
  5   3   6  1   
  6   4   7  1   
  7   4  27  1   
  8   5   8  1   
  9   5  28  1   
 10   5  29  1   
 11   6   9  1   
 12   6  30  1   
 13   6  31  1   
 14   7  10  ar  
 15   7  11  ar  
 16   8  12  1   
 17   8  32  1   
 18   8  33  1   
 19   9  12  1   
 20   9  34  1   
 21   9  35  1   
 22  10  13  ar  
 23  10  36  1   
 24  11  14  ar  
 25  11  37  1   
 26  12  15  1   
 27  13  16  ar  
 28  13  38  1   
 29  14  16  ar  
 30  14  39  1   
 31  15  17  ar  
 32  15  18  ar  
 33  16  19  1   
 34  17  20  1   
 35  17  21  ar  
 36  18  22  ar  
 37  18  40  1   
 38  19  23  1   
 39  20  24  1   
 40  21  25  ar  
 41  21  41  1   
 42  22  25  ar  
 43  22  42  1   
 44  23  26  1   
 45  23  43  1   
 46  23  44  1   
 47  24  45  1   
 48  24  46  1   
 49  24  47  1   
 50  25  48  1   
 51  26  49  1   
 52  26  50  1   
 53  26  51  1   
@<TRIPOS>SUBSTRUCTURE
  1 ****   3 GROUP 4 **** **** 0

# MOE 2024.06 (io_trps.svl 2023.06)
