@<TRIPOS>MOLECULE
NONAME
39 40 1 0 0 
SMALL
USER_CHARGES


@<TRIPOS>ATOM
  1 BR      -0.0480     0.6100     1.4080 Br    1 <1>  -0.1110 
  2 C       -1.9170     0.4200     1.0090 C.ar  1 <1>   0.1110 
  3 C       -2.5470    -0.7730     1.3040 C.ar  1 <1>  -0.1500 
  4 C       -2.5910     1.4790     0.4340 C.ar  1 <1>  -0.1500 
  5 C       -3.8940    -0.8990     1.0140 C.ar  1 <1>  -0.1500 
  6 C       -3.9370     1.3340     0.1500 C.ar  1 <1>  -0.1500 
  7 C       -4.6240     0.1460     0.4360 C.ar  1 <1>   0.0860 
  8 C       -6.0410    -0.0120     0.1480 C.2   1 <1>   0.5440 
  9 O       -6.5490    -1.1140     0.0740 O.2   1 <1>  -0.5700 
 10 N       -6.8500     1.0680    -0.0390 N.am  1 <1>  -0.7300 
 11 C       -8.3120     1.0060    -0.3200 C.3   1 <1>   0.2010 
 12 C       -8.9700     2.3910    -0.3900 C.2   1 <1>   0.5690 
 13 O       -8.2570     3.3620    -0.2400 O.2   1 <1>  -0.5700 
 14 N      -10.3220     2.5170    -0.6140 N.am  1 <1>  -0.6600 
 15 C      -11.2630     1.3800    -0.8240 C.3   1 <1>   0.1400 
 16 C      -10.9840     3.8510    -0.6200 C.3   1 <1>   0.1400 
 17 C      -12.3360     1.3970     0.2690 C.3   1 <1>  -0.1600 
 18 C      -12.0610     3.8940     0.4700 C.3   1 <1>  -0.1600 
 19 C      -13.0710     2.7460     0.3170 C.3   1 <1>  -0.0800 
 20 C      -14.0890     2.7670     1.4620 C.3   1 <1>  -0.2400 
 21 H       -1.9950    -1.5820     1.7490 H     1 <1>   0.1500 
 22 H       -2.0700     2.3940     0.2130 H     1 <1>   0.1500 
 23 H       -4.3990    -1.8240     1.2370 H     1 <1>   0.1500 
 24 H       -4.4600     2.1560    -0.3070 H     1 <1>   0.1500 
 25 H       -6.5150     2.0280     0.0970 H     1 <1>   0.3700 
 26 H       -8.7870     0.4340     0.4560 H     1 <1>   0.0800 
 27 H       -8.4600     0.5010    -1.2570 H     1 <1>   0.0800 
 28 H      -10.7520     0.4350    -0.8090 H     1 <1>   0.0800 
 29 H      -11.7290     1.4890    -1.7890 H     1 <1>   0.0800 
 30 H      -11.4310     4.0170    -1.5850 H     1 <1>   0.0800 
 31 H      -10.2680     4.6360    -0.4470 H     1 <1>   0.0800 
 32 H      -11.8680     1.1990     1.2180 H     1 <1>   0.0800 
 33 H      -13.0420     0.6070     0.0800 H     1 <1>   0.0800 
 34 H      -12.5720     4.8380     0.4190 H     1 <1>   0.0800 
 35 H      -11.5770     3.8350     1.4300 H     1 <1>   0.0800 
 36 H      -13.6020     2.8800    -0.6120 H     1 <1>   0.0800 
 37 H      -13.5970     2.6360     2.4100 H     1 <1>   0.0800 
 38 H      -14.8090     1.9760     1.3370 H     1 <1>   0.0800 
 39 H      -14.6160     3.7040     1.4760 H     1 <1>   0.0800 
@<TRIPOS>BOND
  1   1   2  1   
  2   2   3  ar  
  3   2   4  ar  
  4   3   5  ar  
  5   3  21  1   
  6   4   6  ar  
  7   4  22  1   
  8   5   7  ar  
  9   5  23  1   
 10   6   7  ar  
 11   6  24  1   
 12   7   8  1   
 13   8   9  2   
 14   8  10  am  
 15  10  11  1   
 16  10  25  1   
 17  11  12  1   
 18  11  26  1   
 19  11  27  1   
 20  12  13  2   
 21  12  14  am  
 22  14  15  1   
 23  14  16  1   
 24  15  17  1   
 25  15  28  1   
 26  15  29  1   
 27  16  18  1   
 28  16  30  1   
 29  16  31  1   
 30  17  19  1   
 31  17  32  1   
 32  17  33  1   
 33  18  19  1   
 34  18  34  1   
 35  18  35  1   
 36  19  20  1   
 37  19  36  1   
 38  20  37  1   
 39  20  38  1   
 40  20  39  1   
@<TRIPOS>SUBSTRUCTURE
  1 ****  10 GROUP 4 **** **** 0

# MOE 2024.06 (io_trps.svl 2023.06)
