@<TRIPOS>MOLECULE
NONAME
46 48 1 0 0 
SMALL
USER_CHARGES


@<TRIPOS>ATOM
  1 N        0.1750     0.0540    -0.5770 N.3   1 <1>  -0.8100 
  2 C        0.1520    -1.2880    -1.2190 C.3   1 <1>   0.1100 
  3 C        1.2130     0.9100    -1.1930 C.3   1 <1>   0.1100 
  4 C       -1.1540     0.7000    -0.5950 C.3   1 <1>   0.2540 
  5 C        1.5520    -1.9470    -1.2640 C.3   1 <1>   0.3430 
  6 C        2.6200     0.2650    -1.1140 C.3   1 <1>   0.3430 
  7 C       -2.1740    -0.1550     0.1420 C.ar  1 <1>  -0.1440 
  8 N        2.5580    -1.1170    -0.5250 N.4   1 <1>  -0.9590 
  9 C       -2.0360    -0.3860     1.5020 C.ar  1 <1>  -0.1500 
 10 C       -3.2470    -0.7160    -0.5360 C.ar  1 <1>  -0.1500 
 11 C        3.8730    -1.8060    -0.3780 C.3   1 <1>   0.3430 
 12 C       -2.9560    -1.1690     2.1780 C.ar  1 <1>  -0.1500 
 13 C       -4.1670    -1.5010     0.1380 C.ar  1 <1>  -0.1500 
 14 C        4.7770    -1.1080     0.6410 C.3   1 <1>  -0.0170 
 15 C       -4.0210    -1.7280     1.4950 C.ar  1 <1>  -0.1500 
 16 C        6.0390    -1.9310     0.8100 C.ar  1 <1>  -0.1440 
 17 C        7.1410    -1.7000     0.0000 C.ar  1 <1>  -0.1500 
 18 C        6.0970    -2.9300     1.7700 C.ar  1 <1>  -0.1500 
 19 C        8.2860    -2.4640     0.1450 C.ar  1 <1>  -0.1500 
 20 C        7.2420    -3.6940     1.9140 C.ar  1 <1>  -0.1500 
 21 C        8.3370    -3.4620     1.1010 C.ar  1 <1>  -0.1500 
 22 H       -0.2370    -1.2130    -2.2200 H     1 <1>   0.0800 
 23 H       -0.5060    -1.9380    -0.6670 H     1 <1>   0.0800 
 24 H        1.2390     1.8610    -0.6890 H     1 <1>   0.0800 
 25 H        0.9670     1.0970    -2.2250 H     1 <1>   0.0800 
 26 H       -1.4730     0.8630    -1.6110 H     1 <1>   0.0800 
 27 H       -1.0950     1.6570    -0.1050 H     1 <1>   0.0800 
 28 H        1.8550    -2.0650    -2.2910 H     1 <1>   0.0800 
 29 H        1.4860    -2.9300    -0.8260 H     1 <1>   0.0800 
 30 H        3.2510     0.8930    -0.5070 H     1 <1>   0.0800 
 31 H        3.0480     0.2280    -2.1020 H     1 <1>   0.0800 
 32 H        2.1130    -0.9770     0.3980 H     1 <1>   0.4500 
 33 H       -1.2090     0.0460     2.0380 H     1 <1>   0.1500 
 34 H       -3.3770    -0.5460    -1.5900 H     1 <1>   0.1500 
 35 H        4.3760    -1.8490    -1.3300 H     1 <1>   0.0800 
 36 H        3.7120    -2.8180    -0.0450 H     1 <1>   0.0800 
 37 H       -2.8440    -1.3430     3.2340 H     1 <1>   0.1500 
 38 H       -4.9980    -1.9330    -0.3910 H     1 <1>   0.1500 
 39 H        4.2740    -1.0280     1.5880 H     1 <1>   0.0800 
 40 H        5.0420    -0.1220     0.3050 H     1 <1>   0.0800 
 41 H       -4.7370    -2.3370     2.0200 H     1 <1>   0.1500 
 42 H        7.1260    -0.9260    -0.7470 H     1 <1>   0.1500 
 43 H        5.2590    -3.1250     2.4160 H     1 <1>   0.1500 
 44 H        9.1410    -2.2820    -0.4840 H     1 <1>   0.1500 
 45 H        7.2850    -4.4680     2.6610 H     1 <1>   0.1500 
 46 H        9.2280    -4.0550     1.2140 H     1 <1>   0.1500 
@<TRIPOS>BOND
  1   1   2  1   
  2   1   3  1   
  3   1   4  1   
  4   2   5  1   
  5   2  22  1   
  6   2  23  1   
  7   3   6  1   
  8   3  24  1   
  9   3  25  1   
 10   4   7  1   
 11   4  26  1   
 12   4  27  1   
 13   5   8  1   
 14   5  28  1   
 15   5  29  1   
 16   6   8  1   
 17   6  30  1   
 18   6  31  1   
 19   7   9  ar  
 20   7  10  ar  
 21   8  11  1   
 22   8  32  1   
 23   9  12  ar  
 24   9  33  1   
 25  10  13  ar  
 26  10  34  1   
 27  11  14  1   
 28  11  35  1   
 29  11  36  1   
 30  12  15  ar  
 31  12  37  1   
 32  13  15  ar  
 33  13  38  1   
 34  14  16  1   
 35  14  39  1   
 36  14  40  1   
 37  15  41  1   
 38  16  17  ar  
 39  16  18  ar  
 40  17  19  ar  
 41  17  42  1   
 42  18  20  ar  
 43  18  43  1   
 44  19  21  ar  
 45  19  44  1   
 46  20  21  ar  
 47  20  45  1   
 48  21  46  1   
@<TRIPOS>SUBSTRUCTURE
  1 ****   8 GROUP 4 **** **** 0

# MOE 2024.06 (io_trps.svl 2023.06)
