@<TRIPOS>MOLECULE
NONAME
36 36 1 0 0 
SMALL
USER_CHARGES


@<TRIPOS>ATOM
  1 O       -0.6160     2.5830    -2.1600 O.2   1 <1>  -0.5700 
  2 C       -0.5660     2.6270    -0.9590 C.2   1 <1>   0.6590 
  3 O        0.2780     1.8870    -0.2610 O.3   1 <1>  -0.4300 
  4 C       -1.4720     3.5420    -0.1590 C.3   1 <1>  -0.0990 
  5 C        1.1620     1.0090    -0.9140 C.3   1 <1>   0.3200 
  6 C       -2.6810     2.7920     0.4250 C.3   1 <1>  -0.1600 
  7 C        2.0000     0.3340     0.1170 C.1   1 <1>  -0.2000 
  8 C       -3.6020     3.7360     1.2160 C.3   1 <1>  -0.0990 
  9 C        2.6690    -0.2050     0.9400 C.1   1 <1>  -0.1770 
 10 C       -4.7970     3.0060     1.7950 C.2   1 <1>   0.5690 
 11 O       -4.7580     2.6210     2.9370 O.2   1 <1>  -0.5700 
 12 N       -5.8790     2.8040     1.0100 N.am  1 <1>  -0.7300 
 13 C       -7.1090     2.1350     1.4570 C.3   1 <1>   0.2840 
 14 C       -8.1630     2.3360     0.3840 C.ar  1 <1>  -0.1440 
 15 C       -8.3060     1.4110    -0.6400 C.ar  1 <1>  -0.1500 
 16 C       -8.9860     3.4520     0.4120 C.ar  1 <1>  -0.1500 
 17 C       -9.2630     1.5980    -1.6220 C.ar  1 <1>  -0.1500 
 18 C       -9.9430     3.6400    -0.5700 C.ar  1 <1>  -0.1500 
 19 C      -10.0820     2.7130    -1.5880 C.ar  1 <1>  -0.1500 
 20 H       -1.8110     4.3290    -0.8070 H     1 <1>   0.0800 
 21 H       -0.8950     3.9850     0.6330 H     1 <1>   0.0800 
 22 H        1.7770     1.5790    -1.5890 H     1 <1>   0.0800 
 23 H        0.5840     0.2880    -1.4670 H     1 <1>   0.0800 
 24 H       -2.3350     2.0080     1.0790 H     1 <1>   0.0800 
 25 H       -3.2370     2.3340    -0.3760 H     1 <1>   0.0800 
 26 H       -3.9540     4.5290     0.5820 H     1 <1>   0.0800 
 27 H       -3.0540     4.1800     2.0280 H     1 <1>   0.0800 
 28 H        3.2700    -0.6890     1.6900 H     1 <1>   0.1770 
 29 H       -5.9090     3.1370     0.0460 H     1 <1>   0.3700 
 30 H       -7.4330     2.5580     2.3930 H     1 <1>   0.0800 
 31 H       -6.9140     1.0870     1.6060 H     1 <1>   0.0800 
 32 H       -7.6730     0.5410    -0.6760 H     1 <1>   0.1500 
 33 H       -8.8830     4.1790     1.1990 H     1 <1>   0.1500 
 34 H       -9.3700     0.8770    -2.4140 H     1 <1>   0.1500 
 35 H      -10.5800     4.5070    -0.5420 H     1 <1>   0.1500 
 36 H      -10.8260     2.8590    -2.3510 H     1 <1>   0.1500 
@<TRIPOS>BOND
  1   1   2  2   
  2   2   3  1   
  3   2   4  1   
  4   3   5  1   
  5   4   6  1   
  6   4  20  1   
  7   4  21  1   
  8   5   7  1   
  9   5  22  1   
 10   5  23  1   
 11   6   8  1   
 12   6  24  1   
 13   6  25  1   
 14   7   9  3   
 15   8  10  1   
 16   8  26  1   
 17   8  27  1   
 18   9  28  1   
 19  10  11  2   
 20  10  12  am  
 21  12  13  1   
 22  12  29  1   
 23  13  14  1   
 24  13  30  1   
 25  13  31  1   
 26  14  15  ar  
 27  14  16  ar  
 28  15  17  ar  
 29  15  32  1   
 30  16  18  ar  
 31  16  33  1   
 32  17  19  ar  
 33  17  34  1   
 34  18  19  ar  
 35  18  35  1   
 36  19  36  1   
@<TRIPOS>SUBSTRUCTURE
  1 ****   6 GROUP 4 **** **** 0

# MOE 2024.06 (io_trps.svl 2023.06)
