@<TRIPOS>MOLECULE
NONAME
51 53 1 0 0 
SMALL
USER_CHARGES


@<TRIPOS>ATOM
  1 O        0.9870    -1.0400     1.7190 O.2   1 <1>  -0.5700 
  2 C        1.0960    -1.9760     0.9510 C.2   1 <1>   0.5440 
  3 N        2.3290    -2.5760     0.8070 N.am  1 <1>  -0.6600 
  4 C       -0.0630    -2.4190     0.1960 C.ar  1 <1>   0.0860 
  5 C        3.4660    -2.2640     1.7330 C.3   1 <1>   0.1400 
  6 C        2.7510    -3.3090    -0.4300 C.3   1 <1>   0.1400 
  7 C       -0.8530    -1.5060    -0.5010 C.ar  1 <1>  -0.1500 
  8 C       -0.4290    -3.7640     0.1410 C.ar  1 <1>  -0.1500 
  9 C        4.6000    -1.5380     0.9930 C.3   1 <1>   0.2090 
 10 C        3.9080    -2.5840    -1.1420 C.3   1 <1>   0.2090 
 11 C       -1.9480    -1.9180    -1.2390 C.ar  1 <1>  -0.1500 
 12 C       -1.5220    -4.1830    -0.5950 C.ar  1 <1>  -0.1500 
 13 N        5.0410    -2.3220    -0.2030 N.pl3 1 <1>  -0.8380 
 14 C       -2.2820    -3.2600    -1.2900 C.ar  1 <1>  -0.1500 
 15 C        6.2350    -1.8800    -0.8040 C.ar  1 <1>   0.1000 
 16 C        7.3810    -2.6870    -0.7560 C.ar  1 <1>   0.1170 
 17 C        6.2980    -0.6510    -1.4490 C.ar  1 <1>  -0.1500 
 18 N        7.2480    -3.9120    -0.0850 N.am  1 <1>  -0.5470 
 19 C        8.5540    -2.2470    -1.3540 C.ar  1 <1>  -0.1500 
 20 C        7.4730    -0.2220    -2.0410 C.ar  1 <1>  -0.1500 
 21 C        8.0990    -4.9380     0.1990 C.2   1 <1>   0.5690 
 22 C        8.6010    -1.0210    -1.9940 C.ar  1 <1>  -0.1500 
 23 O        9.2600    -4.9540    -0.1350 O.2   1 <1>  -0.5700 
 24 C        7.5320    -6.1240     0.9870 C.3   1 <1>  -0.0190 
 25 C        8.2120    -6.2620     2.3590 C.3   1 <1>  -0.2400 
 26 C        7.6580    -7.4390     0.2010 C.3   1 <1>  -0.2400 
 27 H        3.8460    -3.1830     2.1430 H     1 <1>   0.0800 
 28 H        3.1320    -1.6550     2.5550 H     1 <1>   0.0800 
 29 H        1.9310    -3.4010    -1.1190 H     1 <1>   0.0800 
 30 H        3.0710    -4.3000    -0.1600 H     1 <1>   0.0800 
 31 H       -0.5990    -0.4610    -0.4550 H     1 <1>   0.1500 
 32 H        0.1540    -4.4850     0.6880 H     1 <1>   0.1500 
 33 H        5.4350    -1.4030     1.6590 H     1 <1>   0.0800 
 34 H        4.2550    -0.5660     0.6880 H     1 <1>   0.0800 
 35 H        3.5470    -1.6520    -1.5410 H     1 <1>   0.0800 
 36 H        4.2580    -3.1850    -1.9620 H     1 <1>   0.0800 
 37 H       -2.5420    -1.1950    -1.7720 H     1 <1>   0.1500 
 38 H       -1.7870    -5.2270    -0.6260 H     1 <1>   0.1500 
 39 H       -3.1340    -3.5820    -1.8640 H     1 <1>   0.1500 
 40 H        5.4250    -0.0280    -1.4860 H     1 <1>   0.1500 
 41 H        6.2870    -3.9950     0.2550 H     1 <1>   0.3700 
 42 H        9.4370    -2.8580    -1.3240 H     1 <1>   0.1500 
 43 H        7.5100     0.7320    -2.5380 H     1 <1>   0.1500 
 44 H        9.5170    -0.6920    -2.4540 H     1 <1>   0.1500 
 45 H        6.4850    -5.9450     1.1570 H     1 <1>   0.0800 
 46 H        9.2640    -6.4540     2.2340 H     1 <1>   0.0800 
 47 H        7.7760    -7.0710     2.9190 H     1 <1>   0.0800 
 48 H        8.0980    -5.3530     2.9220 H     1 <1>   0.0800 
 49 H        8.6950    -7.6660     0.0210 H     1 <1>   0.0800 
 50 H        7.1630    -7.3510    -0.7500 H     1 <1>   0.0800 
 51 H        7.2150    -8.2520     0.7470 H     1 <1>   0.0800 
@<TRIPOS>BOND
  1   1   2  2   
  2   2   3  am  
  3   2   4  1   
  4   3   5  1   
  5   3   6  1   
  6   4   7  ar  
  7   4   8  ar  
  8   5   9  1   
  9   5  27  1   
 10   5  28  1   
 11   6  10  1   
 12   6  29  1   
 13   6  30  1   
 14   7  11  ar  
 15   7  31  1   
 16   8  12  ar  
 17   8  32  1   
 18   9  13  1   
 19   9  33  1   
 20   9  34  1   
 21  10  13  1   
 22  10  35  1   
 23  10  36  1   
 24  11  14  ar  
 25  11  37  1   
 26  12  14  ar  
 27  12  38  1   
 28  13  15  1   
 29  14  39  1   
 30  15  16  ar  
 31  15  17  ar  
 32  16  18  1   
 33  16  19  ar  
 34  17  20  ar  
 35  17  40  1   
 36  18  21  am  
 37  18  41  1   
 38  19  22  ar  
 39  19  42  1   
 40  20  22  ar  
 41  20  43  1   
 42  21  23  2   
 43  21  24  1   
 44  22  44  1   
 45  24  25  1   
 46  24  26  1   
 47  24  45  1   
 48  25  46  1   
 49  25  47  1   
 50  25  48  1   
 51  26  49  1   
 52  26  50  1   
 53  26  51  1   
@<TRIPOS>SUBSTRUCTURE
  1 ****  13 GROUP 4 **** **** 0

# MOE 2024.06 (io_trps.svl 2023.06)
