@<TRIPOS>MOLECULE
NONAME
25 26 1 0 0 
SMALL
USER_CHARGES


@<TRIPOS>ATOM
  1 CL      -1.4320     1.4880    -2.5680 Cl    1 <1>  -0.1240 
  2 C       -2.0720     0.4710    -1.3070 C.2   1 <1>   0.1640 
  3 S       -3.5390    -0.4070    -1.6730 S.3   1 <1>  -0.0800 
  4 C       -1.6370     0.2250    -0.0610 C.2   1 <1>  -0.1500 
  5 C       -3.5550    -1.1280    -0.0590 C.2   1 <1>  -0.0220 
  6 C       -2.4840    -0.6900     0.6430 C.2   1 <1>  -0.1500 
  7 S       -4.8900    -2.2800     0.3500 S.o2  1 <1>   1.5000 
  8 O       -5.1180    -2.2630     1.7790 O.2   1 <1>  -0.6500 
  9 O       -4.6540    -3.5470    -0.3070 O.2   1 <1>  -0.6500 
 10 N       -6.2660    -1.5940    -0.3600 N.am  1 <1>  -0.8490 
 11 C       -7.3180    -2.5940    -0.6250 C.3   1 <1>   0.1960 
 12 C       -6.8030    -0.4420     0.3700 C.3   1 <1>   0.1960 
 13 C       -8.7410    -1.9960    -0.7150 C.3   1 <1>   0.1200 
 14 C       -7.9670     0.2200    -0.4030 C.3   1 <1>   0.1200 
 15 O       -8.7130    -0.6800    -1.1840 O.3   1 <1>  -0.5600 
 16 H       -0.7560     0.6480     0.3890 H     1 <1>   0.1500 
 17 H       -2.2550    -0.9850     1.6540 H     1 <1>   0.1500 
 18 H       -7.3200    -3.3450     0.1480 H     1 <1>   0.0800 
 19 H       -7.0870    -3.0920    -1.5520 H     1 <1>   0.0800 
 20 H       -6.0290     0.2900     0.5310 H     1 <1>   0.0800 
 21 H       -7.1580    -0.7580     1.3370 H     1 <1>   0.0800 
 22 H       -9.2100    -1.9970     0.2540 H     1 <1>   0.0800 
 23 H       -9.3470    -2.5780    -1.3860 H     1 <1>   0.0800 
 24 H       -7.5760     0.9650    -1.0740 H     1 <1>   0.0800 
 25 H       -8.6380     0.7050     0.2840 H     1 <1>   0.0800 
@<TRIPOS>BOND
  1   1   2  1   
  2   2   3  1   
  3   2   4  2   
  4   3   5  1   
  5   4   6  1   
  6   4  16  1   
  7   5   6  2   
  8   5   7  1   
  9   6  17  1   
 10   7   8  2   
 11   7   9  2   
 12   7  10  am  
 13  10  11  1   
 14  10  12  1   
 15  11  13  1   
 16  11  18  1   
 17  11  19  1   
 18  12  14  1   
 19  12  20  1   
 20  12  21  1   
 21  13  15  1   
 22  13  22  1   
 23  13  23  1   
 24  14  15  1   
 25  14  24  1   
 26  14  25  1   
@<TRIPOS>SUBSTRUCTURE
  1 ****  10 GROUP 4 **** **** 0

# MOE 2024.06 (io_trps.svl 2023.06)
