@<TRIPOS>MOLECULE
NONAME
33 34 1 0 0 
SMALL
USER_CHARGES


@<TRIPOS>ATOM
  1 P        0.4900    -0.2610     1.0680 P.3   1 <1>   1.1100 
  2 O        0.3080    -0.9960     2.3200 O.2   1 <1>  -0.7000 
  3 O        1.8190     0.6270     1.0480 O.3   1 <1>  -0.5510 
  4 C       -0.8750     0.7810     0.5550 C.ar  1 <1>  -0.1390 
  5 C        0.9200    -1.2830    -0.3510 C.3   1 <1>   0.2800 
  6 C        2.8680     0.1100     0.3000 C.3   1 <1>   0.2800 
  7 C       -2.1810     0.4660     0.9120 C.ar  1 <1>  -0.1500 
  8 C       -0.6920     1.9100    -0.2360 C.ar  1 <1>  -0.1500 
  9 O        0.5890    -0.7490    -1.6020 O.3   1 <1>  -0.6800 
 10 C        2.4450    -1.2650    -0.2810 C.3   1 <1>  -0.1600 
 11 C        0.3700    -2.7150    -0.3750 C.3   1 <1>  -0.2400 
 12 C        4.0630    -0.0170     1.2430 C.3   1 <1>  -0.2400 
 13 C        3.1730     1.1280    -0.8000 C.3   1 <1>  -0.2400 
 14 C       -3.2570     1.2320     0.4980 C.ar  1 <1>  -0.1500 
 15 C       -1.7580     2.6860    -0.6580 C.ar  1 <1>  -0.1500 
 16 C       -3.0460     2.3460    -0.2920 C.ar  1 <1>  -0.1500 
 17 H       -2.3640    -0.3950     1.5350 H     1 <1>   0.1500 
 18 H        0.3040     2.1950    -0.5300 H     1 <1>   0.1500 
 19 H       -0.3780    -0.6120    -1.6710 H     1 <1>   0.4000 
 20 H        2.9040    -1.4670    -1.2330 H     1 <1>   0.0800 
 21 H        2.7680    -2.0330     0.4000 H     1 <1>   0.0800 
 22 H       -0.7030    -2.7030    -0.4360 H     1 <1>   0.0800 
 23 H        0.6430    -3.2270     0.5310 H     1 <1>   0.0800 
 24 H        0.7730    -3.2620    -1.2090 H     1 <1>   0.0800 
 25 H        3.8270    -0.6730     2.0620 H     1 <1>   0.0800 
 26 H        4.3300     0.9470     1.6370 H     1 <1>   0.0800 
 27 H        4.9110    -0.4170     0.7170 H     1 <1>   0.0800 
 28 H        2.3390     1.2350    -1.4680 H     1 <1>   0.0800 
 29 H        4.0210     0.8050    -1.3760 H     1 <1>   0.0800 
 30 H        3.4030     2.0860    -0.3680 H     1 <1>   0.0800 
 31 H       -4.2560     0.9630     0.7930 H     1 <1>   0.1500 
 32 H       -1.5840     3.5540    -1.2700 H     1 <1>   0.1500 
 33 H       -3.8780     2.9460    -0.6170 H     1 <1>   0.1500 
@<TRIPOS>BOND
  1   1   2  2   
  2   1   3  1   
  3   1   4  1   
  4   1   5  1   
  5   3   6  1   
  6   4   7  ar  
  7   4   8  ar  
  8   5   9  1   
  9   5  10  1   
 10   5  11  1   
 11   6  10  1   
 12   6  12  1   
 13   6  13  1   
 14   7  14  ar  
 15   7  17  1   
 16   8  15  ar  
 17   8  18  1   
 18   9  19  1   
 19  10  20  1   
 20  10  21  1   
 21  11  22  1   
 22  11  23  1   
 23  11  24  1   
 24  12  25  1   
 25  12  26  1   
 26  12  27  1   
 27  13  28  1   
 28  13  29  1   
 29  13  30  1   
 30  14  16  ar  
 31  14  31  1   
 32  15  16  ar  
 33  15  32  1   
 34  16  33  1   
@<TRIPOS>SUBSTRUCTURE
  1 ****   1 GROUP 4 **** **** 0

# MOE 2024.06 (io_trps.svl 2023.06)
