@<TRIPOS>MOLECULE
NONAME
51 53 1 0 0 
SMALL
USER_CHARGES


@<TRIPOS>ATOM
  1 O       -0.1290    -0.1110     0.8420 O.2   1 <1>  -0.5700 
  2 C       -0.2140    -1.2650     0.4700 C.2   1 <1>   0.5440 
  3 N       -1.4040    -1.7540     0.0000 N.am  1 <1>  -0.5470 
  4 C        0.9320    -2.1550     0.5440 C.ar  1 <1>   0.0860 
  5 C       -2.6840    -1.2230    -0.2120 C.ar  1 <1>   0.1170 
  6 C        1.0830    -3.2410    -0.3220 C.ar  1 <1>  -0.1500 
  7 C        1.9290    -1.9630     1.5000 C.ar  1 <1>  -0.1500 
  8 C       -3.6910    -2.1530    -0.5080 C.ar  1 <1>   0.1000 
  9 C       -2.9920     0.1290    -0.1560 C.ar  1 <1>  -0.1500 
 10 C        2.1640    -4.0980    -0.2260 C.ar  1 <1>  -0.1500 
 11 C        3.0120    -2.8160     1.6000 C.ar  1 <1>  -0.1500 
 12 N       -3.3780    -3.5250    -0.5560 N.pl3 1 <1>  -0.8380 
 13 C       -4.9840    -1.7010    -0.7370 C.ar  1 <1>  -0.1500 
 14 C       -4.2860     0.5650    -0.3880 C.ar  1 <1>  -0.1500 
 15 C        3.1360    -3.8940     0.7390 C.ar  1 <1>  -0.1430 
 16 C       -3.7670    -4.3140     0.6490 C.3   1 <1>   0.2090 
 17 C       -3.6890    -4.2520    -1.8240 C.3   1 <1>   0.2090 
 18 C       -5.2820    -0.3510    -0.6790 C.ar  1 <1>  -0.1500 
 19 C        4.3260    -4.8340     0.8470 C.3   1 <1>  -0.0170 
 20 C       -3.0600    -5.6820     0.6570 C.3   1 <1>   0.1400 
 21 C       -2.9750    -5.6140    -1.8530 C.3   1 <1>   0.1400 
 22 C        5.4800    -4.3420    -0.0290 C.3   1 <1>  -0.2400 
 23 N       -3.2830    -6.4240    -0.6280 N.am  1 <1>  -0.6600 
 24 C       -3.7420    -7.7100    -0.7330 C.2   1 <1>   0.5690 
 25 O       -3.9390    -8.2330    -1.8020 O.2   1 <1>  -0.5700 
 26 C       -4.0230    -8.5320     0.5030 C.3   1 <1>  -0.1790 
 27 H       -1.4420    -2.7620    -0.1660 H     1 <1>   0.3700 
 28 H        0.3510    -3.4170    -1.0910 H     1 <1>   0.1500 
 29 H        1.8480    -1.1270     2.1740 H     1 <1>   0.1500 
 30 H       -2.2240     0.8470     0.0660 H     1 <1>   0.1500 
 31 H        2.2520    -4.9250    -0.9090 H     1 <1>   0.1500 
 32 H        3.7620    -2.6360     2.3500 H     1 <1>   0.1500 
 33 H       -5.7610    -2.4080    -0.9580 H     1 <1>   0.1500 
 34 H       -4.5120     1.6160    -0.3420 H     1 <1>   0.1500 
 35 H       -4.8330    -4.4610     0.6560 H     1 <1>   0.0800 
 36 H       -3.5000    -3.7650     1.5360 H     1 <1>   0.0800 
 37 H       -3.3690    -3.6590    -2.6640 H     1 <1>   0.0800 
 38 H       -4.7500    -4.4070    -1.9070 H     1 <1>   0.0800 
 39 H       -6.2870    -0.0120    -0.8580 H     1 <1>   0.1500 
 40 H        4.0360    -5.8240     0.5410 H     1 <1>   0.0800 
 41 H        4.6510    -4.8920     1.8720 H     1 <1>   0.0800 
 42 H       -3.4150    -6.2470     1.4980 H     1 <1>   0.0800 
 43 H       -2.0040    -5.5240     0.7880 H     1 <1>   0.0800 
 44 H       -1.9140    -5.4520    -1.9080 H     1 <1>   0.0800 
 45 H       -3.2720    -6.1420    -2.7420 H     1 <1>   0.0800 
 46 H        5.1700    -4.2970    -1.0590 H     1 <1>   0.0800 
 47 H        6.3180    -5.0110     0.0510 H     1 <1>   0.0800 
 48 H        5.7890    -3.3600     0.2810 H     1 <1>   0.0800 
 49 H       -4.8310    -8.0950     1.0570 H     1 <1>   0.0800 
 50 H       -3.1420    -8.5870     1.1150 H     1 <1>   0.0800 
 51 H       -4.3030    -9.5290     0.2170 H     1 <1>   0.0800 
@<TRIPOS>BOND
  1   1   2  2   
  2   2   3  am  
  3   2   4  1   
  4   3   5  1   
  5   3  27  1   
  6   4   6  ar  
  7   4   7  ar  
  8   5   8  ar  
  9   5   9  ar  
 10   6  10  ar  
 11   6  28  1   
 12   7  11  ar  
 13   7  29  1   
 14   8  12  1   
 15   8  13  ar  
 16   9  14  ar  
 17   9  30  1   
 18  10  15  ar  
 19  10  31  1   
 20  11  15  ar  
 21  11  32  1   
 22  12  16  1   
 23  12  17  1   
 24  13  18  ar  
 25  13  33  1   
 26  14  18  ar  
 27  14  34  1   
 28  15  19  1   
 29  16  20  1   
 30  16  35  1   
 31  16  36  1   
 32  17  21  1   
 33  17  37  1   
 34  17  38  1   
 35  18  39  1   
 36  19  22  1   
 37  19  40  1   
 38  19  41  1   
 39  20  23  1   
 40  20  42  1   
 41  20  43  1   
 42  21  23  1   
 43  21  44  1   
 44  21  45  1   
 45  22  46  1   
 46  22  47  1   
 47  22  48  1   
 48  23  24  am  
 49  24  25  2   
 50  24  26  1   
 51  26  49  1   
 52  26  50  1   
 53  26  51  1   
@<TRIPOS>SUBSTRUCTURE
  1 ****   3 GROUP 4 **** **** 0

# MOE 2024.06 (io_trps.svl 2023.06)
