@<TRIPOS>MOLECULE
NONAME
30 31 1 0 0 
SMALL
USER_CHARGES


@<TRIPOS>ATOM
  1 I       -0.5820    -0.3460     0.8370 I     1 <1>  -0.0810 
  2 C        1.3640    -1.0830     0.4150 C.ar  1 <1>   0.0810 
  3 C        1.8550    -2.1380     1.1620 C.ar  1 <1>  -0.1500 
  4 C        2.0950    -0.4930    -0.5990 C.ar  1 <1>  -0.1500 
  5 C        3.1250    -2.6070     0.8810 C.ar  1 <1>  -0.1500 
  6 C        3.3630    -0.9800    -0.8630 C.ar  1 <1>  -0.1500 
  7 C        3.9090    -2.0370    -0.1260 C.ar  1 <1>   0.0860 
  8 C        5.2430    -2.5380    -0.3970 C.2   1 <1>   0.5440 
  9 O        5.4190    -3.7370    -0.5000 O.2   1 <1>  -0.5700 
 10 N        6.3290    -1.6970    -0.5280 N.am  1 <1>  -0.6600 
 11 C        7.6420    -2.1910    -1.0470 C.3   1 <1>   0.1400 
 12 C        6.4110    -0.3460     0.1130 C.3   1 <1>   0.1400 
 13 C        8.7020    -2.1950     0.0650 C.3   1 <1>   0.1400 
 14 C        7.4800    -0.3260     1.2190 C.3   1 <1>   0.1400 
 15 N        8.7820    -0.8580     0.7190 N.am  1 <1>  -0.6600 
 16 C        9.9450    -0.1480     0.8070 C.2   1 <1>   0.5700 
 17 O       10.0160     0.9580     1.2860 O.2   1 <1>  -0.5700 
 18 H        1.2600    -2.5830     1.9410 H     1 <1>   0.1500 
 19 H        1.6830     0.3210    -1.1690 H     1 <1>   0.1500 
 20 H        3.5280    -3.4340     1.4420 H     1 <1>   0.1500 
 21 H        3.9470    -0.5420    -1.6550 H     1 <1>   0.1500 
 22 H        7.9680    -1.5480    -1.8460 H     1 <1>   0.0800 
 23 H        7.5420    -3.1840    -1.4500 H     1 <1>   0.0800 
 24 H        5.4670    -0.0670     0.5440 H     1 <1>   0.0800 
 25 H        6.6640     0.3860    -0.6340 H     1 <1>   0.0800 
 26 H        9.6570    -2.4640    -0.3490 H     1 <1>   0.0800 
 27 H        8.4350    -2.9350     0.8000 H     1 <1>   0.0800 
 28 H        7.1480    -0.9320     2.0440 H     1 <1>   0.0800 
 29 H        7.6010     0.6820     1.5790 H     1 <1>   0.0800 
 30 H       10.8450    -0.5980     0.4240 H     1 <1>   0.0600 
@<TRIPOS>BOND
  1   1   2  1   
  2   2   3  ar  
  3   2   4  ar  
  4   3   5  ar  
  5   3  18  1   
  6   4   6  ar  
  7   4  19  1   
  8   5   7  ar  
  9   5  20  1   
 10   6   7  ar  
 11   6  21  1   
 12   7   8  1   
 13   8   9  2   
 14   8  10  am  
 15  10  11  1   
 16  10  12  1   
 17  11  13  1   
 18  11  22  1   
 19  11  23  1   
 20  12  14  1   
 21  12  24  1   
 22  12  25  1   
 23  13  15  1   
 24  13  26  1   
 25  13  27  1   
 26  14  15  1   
 27  14  28  1   
 28  14  29  1   
 29  15  16  am  
 30  16  17  2   
 31  16  30  1   
@<TRIPOS>SUBSTRUCTURE
  1 ****  10 GROUP 4 **** **** 0

# MOE 2024.06 (io_trps.svl 2023.06)
