@<TRIPOS>MOLECULE
NONAME
43 44 1 0 0 
SMALL
USER_CHARGES


@<TRIPOS>ATOM
  1 N        0.6320    -0.1440     0.4470 N.4   1 <1>  -0.9590 
  2 C        0.3750     1.3270     0.4990 C.3   1 <1>   0.3430 
  3 C        1.5070    -0.5540    -0.6920 C.3   1 <1>   0.3430 
  4 C       -0.6690    -0.8910     0.3910 C.3   1 <1>   0.2630 
  5 C        1.6990     2.0920     0.5710 C.3   1 <1>  -0.1600 
  6 C        2.8390     0.1970    -0.6270 C.3   1 <1>  -0.1600 
  7 C        2.6040     1.7090    -0.6070 C.3   1 <1>   0.4230 
  8 N        3.9050     2.4430    -0.5970 N.4   1 <1>  -0.9590 
  9 C        4.7280     2.3260     0.6480 C.3   1 <1>   0.4860 
 10 C        3.7540     3.8870    -0.9860 C.3   1 <1>   0.2630 
 11 C        6.1420     2.7440     0.3100 C.ar  1 <1>  -0.1430 
 12 C        6.9660     1.8990    -0.4190 C.ar  1 <1>  -0.1500 
 13 C        6.6250     3.9790     0.7200 C.ar  1 <1>  -0.1500 
 14 C        8.2510     2.2930    -0.7470 C.ar  1 <1>  -0.1500 
 15 C        7.9100     4.3680     0.3900 C.ar  1 <1>  -0.1500 
 16 C        8.7290     3.5290    -0.3460 C.ar  1 <1>  -0.1430 
 17 C       10.1400     3.9590    -0.7080 C.3   1 <1>  -0.0970 
 18 H        1.0910    -0.4260     1.3290 H     1 <1>   0.4500 
 19 H       -0.2270     1.5640     1.3640 H     1 <1>   0.0800 
 20 H       -0.1730     1.6300    -0.3790 H     1 <1>   0.0800 
 21 H        1.0120    -0.3370    -1.6260 H     1 <1>   0.0800 
 22 H        1.6890    -1.6170    -0.6510 H     1 <1>   0.0800 
 23 H       -1.2090    -0.6460    -0.5100 H     1 <1>   0.0800 
 24 H       -1.2860    -0.6390     1.2390 H     1 <1>   0.0800 
 25 H       -0.4930    -1.9560     0.4050 H     1 <1>   0.0800 
 26 H        2.1680     1.8740     1.5130 H     1 <1>   0.0800 
 27 H        1.4760     3.1430     0.5380 H     1 <1>   0.0800 
 28 H        3.4150    -0.0690    -1.4960 H     1 <1>   0.0800 
 29 H        3.3740    -0.1300     0.2460 H     1 <1>   0.0800 
 30 H        2.0860     1.9670    -1.5190 H     1 <1>   0.0800 
 31 H        4.5100     2.0350    -1.3270 H     1 <1>   0.4500 
 32 H        4.7440     1.3090     1.0020 H     1 <1>   0.0800 
 33 H        4.3310     2.9570     1.4270 H     1 <1>   0.0800 
 34 H        3.2100     4.4300    -0.2310 H     1 <1>   0.0800 
 35 H        3.2280     3.9730    -1.9230 H     1 <1>   0.0800 
 36 H        4.7230     4.3460    -1.1030 H     1 <1>   0.0800 
 37 H        6.6340     0.9260    -0.7380 H     1 <1>   0.1500 
 38 H        6.0170     4.6530     1.3000 H     1 <1>   0.1500 
 39 H        8.8860     1.6330    -1.3150 H     1 <1>   0.1500 
 40 H        8.2780     5.3290     0.7100 H     1 <1>   0.1500 
 41 H       10.7890     3.1040    -0.7730 H     1 <1>   0.0800 
 42 H       10.5350     4.6250     0.0370 H     1 <1>   0.0800 
 43 H       10.1360     4.4640    -1.6570 H     1 <1>   0.0800 
@<TRIPOS>BOND
  1   1   2  1   
  2   1   3  1   
  3   1   4  1   
  4   1  18  1   
  5   2   5  1   
  6   2  19  1   
  7   2  20  1   
  8   3   6  1   
  9   3  21  1   
 10   3  22  1   
 11   4  23  1   
 12   4  24  1   
 13   4  25  1   
 14   5   7  1   
 15   5  26  1   
 16   5  27  1   
 17   6   7  1   
 18   6  28  1   
 19   6  29  1   
 20   7   8  1   
 21   7  30  1   
 22   8   9  1   
 23   8  10  1   
 24   8  31  1   
 25   9  11  1   
 26   9  32  1   
 27   9  33  1   
 28  10  34  1   
 29  10  35  1   
 30  10  36  1   
 31  11  12  ar  
 32  11  13  ar  
 33  12  14  ar  
 34  12  37  1   
 35  13  15  ar  
 36  13  38  1   
 37  14  16  ar  
 38  14  39  1   
 39  15  16  ar  
 40  15  40  1   
 41  16  17  1   
 42  17  41  1   
 43  17  42  1   
 44  17  43  1   
@<TRIPOS>SUBSTRUCTURE
  1 ****   9 GROUP 4 **** **** 0

# MOE 2024.06 (io_trps.svl 2023.06)
