@<TRIPOS>MOLECULE
NONAME
23 23 1 0 0 
SMALL
USER_CHARGES


@<TRIPOS>ATOM
  1 S       -0.0320     0.1770    -1.3000 S.3   1 <1>   0.0000 
  2 S       -1.7420     0.5480    -0.1120 S.3   1 <1>   0.0000 
  3 S        1.5040     0.7960    -0.0060 S.3   1 <1>   0.0000 
  4 S       -1.0490     2.0950     1.1390 S.3   1 <1>  -0.2300 
  5 S        1.8480     2.6960    -0.8510 S.3   1 <1>  -0.2300 
  6 C       -0.7160     3.4240    -0.0490 C.3   1 <1>   0.1500 
  7 C        0.7680     3.7870     0.1280 C.3   1 <1>   0.0700 
  8 C       -1.6370     4.6230     0.2570 C.3   1 <1>  -0.1600 
  9 C       -3.0720     4.5100    -0.2950 C.3   1 <1>  -0.1600 
 10 C       -4.0150     3.6600     0.5670 C.3   1 <1>  -0.1600 
 11 C       -5.4540     3.7440     0.0520 C.3   1 <1>  -0.2400 
 12 H       -0.8980     3.0470    -1.0410 H     1 <1>   0.0800 
 13 H        0.9640     4.7790    -0.2370 H     1 <1>   0.0800 
 14 H        1.0780     3.7190     1.1560 H     1 <1>   0.0800 
 15 H       -1.2040     5.4910    -0.2100 H     1 <1>   0.0800 
 16 H       -1.6560     4.8160     1.3160 H     1 <1>   0.0800 
 17 H       -3.0490     4.1240    -1.3000 H     1 <1>   0.0800 
 18 H       -3.4810     5.5050    -0.3450 H     1 <1>   0.0800 
 19 H       -3.9850     4.0010     1.5880 H     1 <1>   0.0800 
 20 H       -3.7100     2.6300     0.5510 H     1 <1>   0.0800 
 21 H       -5.8090     4.7590     0.0870 H     1 <1>   0.0800 
 22 H       -6.0980     3.1360     0.6620 H     1 <1>   0.0800 
 23 H       -5.5110     3.3900    -0.9630 H     1 <1>   0.0800 
@<TRIPOS>BOND
  1   1   2  1   
  2   1   3  1   
  3   2   4  1   
  4   3   5  1   
  5   4   6  1   
  6   5   7  1   
  7   6   7  1   
  8   6   8  1   
  9   6  12  1   
 10   7  13  1   
 11   7  14  1   
 12   8   9  1   
 13   8  15  1   
 14   8  16  1   
 15   9  10  1   
 16   9  17  1   
 17   9  18  1   
 18  10  11  1   
 19  10  19  1   
 20  10  20  1   
 21  11  21  1   
 22  11  22  1   
 23  11  23  1   
@<TRIPOS>SUBSTRUCTURE
  1 ****   6 GROUP 4 **** **** 0

# MOE 2024.06 (io_trps.svl 2023.06)
