@<TRIPOS>MOLECULE
NONAME
35 36 1 0 0 
SMALL
USER_CHARGES


@<TRIPOS>ATOM
  1 I        0.3480    -1.2900     1.0440 I     1 <1>  -0.0810 
  2 C        2.3150    -0.6130     0.5950 C.ar  1 <1>   0.0810 
  3 C        2.5110     0.1550    -0.5360 C.ar  1 <1>  -0.1500 
  4 C        3.3460    -0.9590     1.4470 C.ar  1 <1>  -0.1500 
  5 C        3.7940     0.5910    -0.8220 C.ar  1 <1>  -0.1500 
  6 C        4.6220    -0.5140     1.1460 C.ar  1 <1>  -0.1500 
  7 C        4.8560     0.2600     0.0130 C.ar  1 <1>  -0.1430 
  8 C        6.2640     0.7460    -0.3190 C.3   1 <1>   0.3640 
  9 N        7.1480    -0.4210    -0.5330 N.am  1 <1>  -0.7300 
 10 C        6.7940     1.7390     0.7150 C.3   1 <1>  -0.2400 
 11 C        7.9220    -1.1080     0.3500 C.2   1 <1>   0.5690 
 12 O        8.0510    -0.7880     1.5070 O.2   1 <1>  -0.5700 
 13 C        8.6310    -2.3620    -0.1620 C.3   1 <1>  -0.0190 
 14 C        8.0440    -3.6630     0.3860 C.3   1 <1>  -0.1600 
 15 C       10.1130    -2.4600     0.2100 C.3   1 <1>  -0.1600 
 16 C        9.1430    -4.7120     0.1910 C.3   1 <1>  -0.1600 
 17 C       10.4610    -3.9410     0.0470 C.3   1 <1>  -0.1600 
 18 H        1.6850     0.4070    -1.1770 H     1 <1>   0.1500 
 19 H        3.1640    -1.5570     2.3210 H     1 <1>   0.1500 
 20 H        3.9580     1.1910    -1.7010 H     1 <1>   0.1500 
 21 H        5.4390    -0.7740     1.7990 H     1 <1>   0.1500 
 22 H        6.2230     1.2750    -1.2560 H     1 <1>   0.0800 
 23 H        7.0020    -0.8490    -1.4450 H     1 <1>   0.3700 
 24 H        6.7420     1.3310     1.7070 H     1 <1>   0.0800 
 25 H        6.1940     2.6300     0.6950 H     1 <1>   0.0800 
 26 H        7.8110     2.0020     0.4900 H     1 <1>   0.0800 
 27 H        8.5620    -2.3900    -1.2350 H     1 <1>   0.0800 
 28 H        7.1290    -3.9340    -0.1110 H     1 <1>   0.0800 
 29 H        7.8490    -3.5480     1.4400 H     1 <1>   0.0800 
 30 H       10.2450    -2.1790     1.2420 H     1 <1>   0.0800 
 31 H       10.7270    -1.8260    -0.4050 H     1 <1>   0.0800 
 32 H        8.9560    -5.2800    -0.7050 H     1 <1>   0.0800 
 33 H        9.1750    -5.3870     1.0290 H     1 <1>   0.0800 
 34 H       11.1810    -4.2490     0.7860 H     1 <1>   0.0800 
 35 H       10.8730    -4.1120    -0.9320 H     1 <1>   0.0800 
@<TRIPOS>BOND
  1   1   2  1   
  2   2   3  ar  
  3   2   4  ar  
  4   3   5  ar  
  5   3  18  1   
  6   4   6  ar  
  7   4  19  1   
  8   5   7  ar  
  9   5  20  1   
 10   6   7  ar  
 11   6  21  1   
 12   7   8  1   
 13   8   9  1   
 14   8  10  1   
 15   8  22  1   
 16   9  11  am  
 17   9  23  1   
 18  10  24  1   
 19  10  25  1   
 20  10  26  1   
 21  11  12  2   
 22  11  13  1   
 23  13  14  1   
 24  13  15  1   
 25  13  27  1   
 26  14  16  1   
 27  14  28  1   
 28  14  29  1   
 29  15  17  1   
 30  15  30  1   
 31  15  31  1   
 32  16  17  1   
 33  16  32  1   
 34  16  33  1   
 35  17  34  1   
 36  17  35  1   
@<TRIPOS>SUBSTRUCTURE
  1 ****   9 GROUP 4 **** **** 0

# MOE 2024.06 (io_trps.svl 2023.06)
