@<TRIPOS>MOLECULE
NONAME
49 51 1 0 0 
SMALL
USER_CHARGES


@<TRIPOS>ATOM
  1 O       -8.2820    -4.1540    -0.5740 O.3   1 <1>  -0.5600 
  2 C       -7.4560    -3.0960    -0.1720 C.3   1 <1>   0.2000 
  3 C       -8.5550    -5.1570     0.3700 C.3   1 <1>   0.2000 
  4 C       -6.0630    -3.6210     0.2620 C.3   1 <1>   0.3430 
  5 C       -8.1620    -2.2730     0.9130 C.3   1 <1>  -0.2400 
  6 C       -7.2820    -5.5750     1.1550 C.3   1 <1>   0.3430 
  7 C       -9.1590    -6.3180    -0.4160 C.3   1 <1>  -0.2400 
  8 N       -6.0260    -5.1130     0.4790 N.4   1 <1>  -0.9590 
  9 C       -4.8040    -5.5950     1.1960 C.3   1 <1>   0.3430 
 10 C       -3.5080    -5.2400     0.4610 C.3   1 <1>   0.1200 
 11 O       -2.4900    -6.0850     0.9480 O.3   1 <1>  -0.3630 
 12 C       -1.7690    -6.8010     0.0560 C.ar  1 <1>   0.0820 
 13 C       -2.3580    -7.7550    -0.7870 C.ar  1 <1>   0.0000 
 14 C       -0.4050    -6.5600     0.0090 C.ar  1 <1>  -0.1500 
 15 C       -3.7640    -8.0870    -0.7440 C.ar  1 <1>   0.0000 
 16 C       -1.5330    -8.4190    -1.6900 C.ar  1 <1>  -0.1500 
 17 C        0.3930    -7.2370    -0.8930 C.ar  1 <1>  -0.1500 
 18 C       -4.2930    -8.8070     0.3230 C.ar  1 <1>  -0.1500 
 19 C       -4.6240    -7.7040    -1.7690 C.ar  1 <1>  -0.1500 
 20 C       -0.1750    -8.1650    -1.7480 C.ar  1 <1>  -0.1500 
 21 C       -5.6380    -9.1250     0.3730 C.ar  1 <1>  -0.1500 
 22 C       -5.9700    -8.0200    -1.7250 C.ar  1 <1>  -0.1500 
 23 C       -6.4790    -8.7310    -0.6530 C.ar  1 <1>  -0.1500 
 24 H       -7.3290    -2.4640    -1.0350 H     1 <1>   0.0800 
 25 H       -9.2970    -4.7840     1.0550 H     1 <1>   0.0800 
 26 H       -5.7770    -3.1120     1.1670 H     1 <1>   0.0800 
 27 H       -5.3460    -3.3500    -0.4950 H     1 <1>   0.0800 
 28 H       -8.2460    -2.8110     1.8390 H     1 <1>   0.0800 
 29 H       -9.1440    -1.9900     0.5750 H     1 <1>   0.0800 
 30 H       -7.6080    -1.3700     1.1030 H     1 <1>   0.0800 
 31 H       -7.2720    -6.6470     1.2660 H     1 <1>   0.0800 
 32 H       -7.3360    -5.1490     2.1430 H     1 <1>   0.0800 
 33 H       -8.4790    -6.6580    -1.1740 H     1 <1>   0.0800 
 34 H      -10.0710    -5.9970    -0.8890 H     1 <1>   0.0800 
 35 H       -9.3940    -7.1370     0.2400 H     1 <1>   0.0800 
 36 H       -6.0570    -5.5540    -0.4550 H     1 <1>   0.4500 
 37 H       -4.8570    -6.6670     1.2850 H     1 <1>   0.0800 
 38 H       -4.7700    -5.1770     2.1880 H     1 <1>   0.0800 
 39 H       -3.2110    -4.2270     0.6650 H     1 <1>   0.0800 
 40 H       -3.6050    -5.3810    -0.6000 H     1 <1>   0.0800 
 41 H        0.0290    -5.8390     0.6780 H     1 <1>   0.1500 
 42 H       -1.9620    -9.1530    -2.3510 H     1 <1>   0.1500 
 43 H        1.4520    -7.0450    -0.9320 H     1 <1>   0.1500 
 44 H       -3.6340    -9.1260     1.1140 H     1 <1>   0.1500 
 45 H       -4.2260    -7.1670    -2.6130 H     1 <1>   0.1500 
 46 H        0.4440    -8.6940    -2.4530 H     1 <1>   0.1500 
 47 H       -6.0250    -9.6950     1.2010 H     1 <1>   0.1500 
 48 H       -6.6180    -7.7310    -2.5370 H     1 <1>   0.1500 
 49 H       -7.5220    -8.9990    -0.6260 H     1 <1>   0.1500 
@<TRIPOS>BOND
  1   1   2  1   
  2   1   3  1   
  3   2   4  1   
  4   2   5  1   
  5   2  24  1   
  6   3   6  1   
  7   3   7  1   
  8   3  25  1   
  9   4   8  1   
 10   4  26  1   
 11   4  27  1   
 12   5  28  1   
 13   5  29  1   
 14   5  30  1   
 15   6   8  1   
 16   6  31  1   
 17   6  32  1   
 18   7  33  1   
 19   7  34  1   
 20   7  35  1   
 21   8   9  1   
 22   8  36  1   
 23   9  10  1   
 24   9  37  1   
 25   9  38  1   
 26  10  11  1   
 27  10  39  1   
 28  10  40  1   
 29  11  12  1   
 30  12  13  ar  
 31  12  14  ar  
 32  13  15  1   
 33  13  16  ar  
 34  14  17  ar  
 35  14  41  1   
 36  15  18  ar  
 37  15  19  ar  
 38  16  20  ar  
 39  16  42  1   
 40  17  20  ar  
 41  17  43  1   
 42  18  21  ar  
 43  18  44  1   
 44  19  22  ar  
 45  19  45  1   
 46  20  46  1   
 47  21  23  ar  
 48  21  47  1   
 49  22  23  ar  
 50  22  48  1   
 51  23  49  1   
@<TRIPOS>SUBSTRUCTURE
  1 ****   9 GROUP 4 **** **** 0

# MOE 2024.06 (io_trps.svl 2023.06)
