@<TRIPOS>MOLECULE
NONAME
53 57 1 0 0 
SMALL
USER_CHARGES


@<TRIPOS>ATOM
  1 S        0.1030     2.9170    -1.3130 S.3   1 <1>  -0.3610 
  2 C       -0.8850     1.8030    -0.4400 C.cat 1 <1>   0.8400 
  3 C        1.7020     2.1110    -0.8680 C.3   1 <1>   0.0700 
  4 N       -0.1680     0.8930     0.1500 N.pl3 1 <1>  -0.7940 
  5 N       -2.1830     1.9710    -0.4550 N.pl3 1 <1>  -0.6850 
  6 C        1.3140     0.9100     0.0190 C.3   1 <1>   0.3300 
  7 C       -3.1730     1.2340     0.1510 C.2   1 <1>   0.8650 
  8 O       -2.8030     0.2800     0.8000 O.2   1 <1>  -0.5700 
  9 C       -4.5850     1.5710     0.0240 C.ar  1 <1>   0.0860 
 10 C       -5.0770     2.6630    -0.7140 C.ar  1 <1>   0.0830 
 11 C       -5.5330     0.7730     0.6690 C.ar  1 <1>  -0.1500 
 12 O       -4.1930     3.4690    -1.3590 O.3   1 <1>  -0.3630 
 13 C       -6.4490     2.9110    -0.7800 C.ar  1 <1>  -0.1500 
 14 C       -6.8860     1.0310     0.5950 C.ar  1 <1>  -0.1500 
 15 C       -4.5780     4.5930    -2.1290 C.3   1 <1>   0.0400 
 16 C       -7.3760     2.1060    -0.1320 C.ar  1 <1>  -0.1440 
 17 C       -8.9040     2.3520    -0.1840 C.3   1 <1>   0.1440 
 18 C       -9.6130     1.1200    -0.7980 C.3   1 <1>  -0.1600 
 19 C       -9.3000     3.5880    -1.0330 C.3   1 <1>  -0.1600 
 20 C       -9.4480     2.5770     1.2480 C.3   1 <1>  -0.1600 
 21 C      -11.1430     1.3080    -0.8130 C.3   1 <1>  -0.0800 
 22 C      -10.8260     3.7940    -1.0570 C.3   1 <1>  -0.0800 
 23 C      -10.9770     2.7700     1.2390 C.3   1 <1>  -0.0800 
 24 C      -11.4930     2.5450    -1.6580 C.3   1 <1>  -0.1600 
 25 C      -11.6400     1.5210     0.6290 C.3   1 <1>  -0.1600 
 26 C      -11.3290     3.9990     0.3830 C.3   1 <1>  -0.1600 
 27 H        2.3040     2.8290    -0.3400 H     1 <1>   0.0800 
 28 H        2.1880     1.8050    -1.7780 H     1 <1>   0.0800 
 29 H       -0.6240     0.1600     0.7100 H     1 <1>   0.4500 
 30 H       -2.5490     2.7620    -0.9890 H     1 <1>   0.4500 
 31 H        1.7680     1.0070     0.9910 H     1 <1>   0.0800 
 32 H        1.6530    -0.0080    -0.4330 H     1 <1>   0.0800 
 33 H       -5.2140    -0.0780     1.2490 H     1 <1>   0.1500 
 34 H       -6.7990     3.7470    -1.3480 H     1 <1>   0.1500 
 35 H       -7.5610     0.3750     1.1160 H     1 <1>   0.1500 
 36 H       -3.6920     5.0540    -2.5280 H     1 <1>   0.0800 
 37 H       -5.0950     5.2940    -1.4960 H     1 <1>   0.0800 
 38 H       -5.2120     4.2680    -2.9370 H     1 <1>   0.0800 
 39 H       -9.3850     0.2340    -0.2340 H     1 <1>   0.0800 
 40 H       -9.2590     0.9640    -1.8010 H     1 <1>   0.0800 
 41 H       -8.9550     3.4620    -2.0440 H     1 <1>   0.0800 
 42 H       -8.8400     4.4720    -0.6270 H     1 <1>   0.0800 
 43 H       -8.9780     3.4430     1.6790 H     1 <1>   0.0800 
 44 H       -9.2150     1.7380     1.8760 H     1 <1>   0.0800 
 45 H      -11.6130     0.4360    -1.2350 H     1 <1>   0.0800 
 46 H      -11.0700     4.6580    -1.6520 H     1 <1>   0.0800 
 47 H      -11.3320     2.9150     2.2450 H     1 <1>   0.0800 
 48 H      -12.5610     2.6790    -1.6820 H     1 <1>   0.0800 
 49 H      -11.1600     2.4030    -2.6710 H     1 <1>   0.0800 
 50 H      -11.4100     0.6560     1.2260 H     1 <1>   0.0800 
 51 H      -12.7100     1.6410     0.6300 H     1 <1>   0.0800 
 52 H      -10.8800     4.8800     0.8060 H     1 <1>   0.0800 
 53 H      -12.3950     4.1470     0.3780 H     1 <1>   0.0800 
@<TRIPOS>BOND
  1   1   2  1   
  2   1   3  1   
  3   2   4  ar  
  4   2   5  ar  
  5   3   6  1   
  6   3  27  1   
  7   3  28  1   
  8   4   6  1   
  9   4  29  1   
 10   5   7  1   
 11   5  30  1   
 12   6  31  1   
 13   6  32  1   
 14   7   8  2   
 15   7   9  1   
 16   9  10  ar  
 17   9  11  ar  
 18  10  12  1   
 19  10  13  ar  
 20  11  14  ar  
 21  11  33  1   
 22  12  15  1   
 23  13  16  ar  
 24  13  34  1   
 25  14  16  ar  
 26  14  35  1   
 27  15  36  1   
 28  15  37  1   
 29  15  38  1   
 30  16  17  1   
 31  17  18  1   
 32  17  19  1   
 33  17  20  1   
 34  18  21  1   
 35  18  39  1   
 36  18  40  1   
 37  19  22  1   
 38  19  41  1   
 39  19  42  1   
 40  20  23  1   
 41  20  43  1   
 42  20  44  1   
 43  21  24  1   
 44  21  25  1   
 45  21  45  1   
 46  22  24  1   
 47  22  26  1   
 48  22  46  1   
 49  23  25  1   
 50  23  26  1   
 51  23  47  1   
 52  24  48  1   
 53  24  49  1   
 54  25  50  1   
 55  25  51  1   
 56  26  52  1   
 57  26  53  1   
@<TRIPOS>SUBSTRUCTURE
  1 ****  13 GROUP 4 **** **** 0

# MOE 2024.06 (io_trps.svl 2023.06)
