@<TRIPOS>MOLECULE
NONAME
45 46 1 0 0 
SMALL
USER_CHARGES


@<TRIPOS>ATOM
  1 O        0.3960    -0.1900    -0.3530 O.3   1 <1>  -0.3630 
  2 C       -0.8210    -0.7710    -0.2020 C.ar  1 <1>   0.0830 
  3 C        1.5820    -0.8880    -0.0450 C.3   1 <1>   0.1200 
  4 C       -1.0090    -2.0710     0.2580 C.ar  1 <1>  -0.1500 
  5 C       -1.9240    -0.0020    -0.5330 C.ar  1 <1>  -0.1500 
  6 C        2.7610     0.0400    -0.3240 C.3   1 <1>   0.1200 
  7 C       -2.2900    -2.5830     0.3800 C.ar  1 <1>  -0.1500 
  8 C       -3.2030    -0.5170    -0.4090 C.ar  1 <1>  -0.1500 
  9 O        3.9480    -0.6330    -0.0230 O.3   1 <1>  -0.5600 
 10 C       -3.3920    -1.8120     0.0470 C.ar  1 <1>  -0.1430 
 11 C        5.0970     0.1140    -0.2400 C.3   1 <1>   0.1200 
 12 C       -4.7940    -2.3780     0.1850 C.3   1 <1>  -0.0970 
 13 C        6.2950    -0.7750     0.1200 C.3   1 <1>   0.3430 
 14 N        7.6160    -0.1080    -0.1260 N.4   1 <1>  -0.9590 
 15 C        8.7160    -1.1130    -0.0310 C.3   1 <1>   0.3430 
 16 C        7.8530     1.0410     0.8000 C.3   1 <1>   0.3430 
 17 C       10.0450    -0.4620    -0.4210 C.3   1 <1>  -0.1600 
 18 C        9.1630     1.7410     0.4300 C.3   1 <1>  -0.1600 
 19 C       10.3490     0.7690     0.4430 C.3   1 <1>  -0.1600 
 20 H        1.6330    -1.7610    -0.6720 H     1 <1>   0.0800 
 21 H        1.5540    -1.1600     0.9950 H     1 <1>   0.0800 
 22 H       -0.1800    -2.6970     0.5250 H     1 <1>   0.1500 
 23 H       -1.7770     1.0020    -0.8870 H     1 <1>   0.1500 
 24 H        2.6900     0.9170     0.2970 H     1 <1>   0.0800 
 25 H        2.7700     0.3150    -1.3650 H     1 <1>   0.0800 
 26 H       -2.4260    -3.5890     0.7380 H     1 <1>   0.1500 
 27 H       -4.0480     0.0950    -0.6690 H     1 <1>   0.1500 
 28 H        5.0550     0.9860     0.3900 H     1 <1>   0.0800 
 29 H        5.1280     0.3950    -1.2790 H     1 <1>   0.0800 
 30 H       -4.7870    -3.4420     0.0310 H     1 <1>   0.0800 
 31 H       -5.4510    -1.9350    -0.5420 H     1 <1>   0.0800 
 32 H       -5.1740    -2.1700     1.1690 H     1 <1>   0.0800 
 33 H        6.2310    -1.6690    -0.4780 H     1 <1>   0.0800 
 34 H        6.2190    -1.0580     1.1570 H     1 <1>   0.0800 
 35 H        7.6310     0.2560    -1.0880 H     1 <1>   0.4500 
 36 H        8.5190    -1.9440    -0.6900 H     1 <1>   0.0800 
 37 H        8.7820    -1.4880     0.9780 H     1 <1>   0.0800 
 38 H        7.9110     0.6850     1.8160 H     1 <1>   0.0800 
 39 H        7.0430     1.7490     0.7350 H     1 <1>   0.0800 
 40 H       10.0180    -0.1850    -1.4600 H     1 <1>   0.0800 
 41 H       10.8370    -1.1820    -0.3030 H     1 <1>   0.0800 
 42 H        9.3480     2.5350     1.1330 H     1 <1>   0.0800 
 43 H        9.0660     2.1900    -0.5430 H     1 <1>   0.0800 
 44 H       11.2340     1.2640     0.0760 H     1 <1>   0.0800 
 45 H       10.5470     0.4570     1.4550 H     1 <1>   0.0800 
@<TRIPOS>BOND
  1   1   2  1   
  2   1   3  1   
  3   2   4  ar  
  4   2   5  ar  
  5   3   6  1   
  6   3  20  1   
  7   3  21  1   
  8   4   7  ar  
  9   4  22  1   
 10   5   8  ar  
 11   5  23  1   
 12   6   9  1   
 13   6  24  1   
 14   6  25  1   
 15   7  10  ar  
 16   7  26  1   
 17   8  10  ar  
 18   8  27  1   
 19   9  11  1   
 20  10  12  1   
 21  11  13  1   
 22  11  28  1   
 23  11  29  1   
 24  12  30  1   
 25  12  31  1   
 26  12  32  1   
 27  13  14  1   
 28  13  33  1   
 29  13  34  1   
 30  14  15  1   
 31  14  16  1   
 32  14  35  1   
 33  15  17  1   
 34  15  36  1   
 35  15  37  1   
 36  16  18  1   
 37  16  38  1   
 38  16  39  1   
 39  17  19  1   
 40  17  40  1   
 41  17  41  1   
 42  18  19  1   
 43  18  42  1   
 44  18  43  1   
 45  19  44  1   
 46  19  45  1   
@<TRIPOS>SUBSTRUCTURE
  1 ****   6 GROUP 4 **** **** 0

# MOE 2024.06 (io_trps.svl 2023.06)
