@<TRIPOS>MOLECULE
NONAME
36 37 1 0 0 
SMALL
USER_CHARGES


@<TRIPOS>ATOM
  1 CL       0.1620     0.2930     1.5150 Cl    1 <1>  -0.1770 
  2 C        1.4970    -0.6430     0.9180 C.ar  1 <1>   0.7970 
  3 N        1.2760    -1.9130     0.7650 N.ar  1 <1>  -0.6200 
  4 N        2.5870     0.0200     0.6780 N.ar  1 <1>  -0.6200 
  5 C        2.3210    -2.5560     0.3100 C.ar  1 <1>   0.7200 
  6 C        3.5470    -0.7420     0.2280 C.ar  1 <1>   0.7200 
  7 N        3.4800    -2.0270     0.0280 N.ar  1 <1>  -0.6200 
  8 N        2.2540    -3.9020     0.1130 N.pl3 1 <1>  -0.6000 
  9 N        4.7470    -0.1940    -0.0570 N.pl3 1 <1>  -0.8690 
 10 C        1.2220    -4.8360     0.2670 C.ar  1 <1>   0.1000 
 11 C        5.1270     1.2220    -0.2400 C.3   1 <1>   0.3690 
 12 C        1.5380    -6.1230     0.6870 C.ar  1 <1>  -0.1500 
 13 C       -0.1100    -4.5380    -0.0060 C.ar  1 <1>  -0.1500 
 14 C        4.9350     2.0390     1.0650 C.3   1 <1>   0.1200 
 15 C        4.3150     1.8160    -1.3940 C.3   1 <1>  -0.2400 
 16 C        6.6050     1.2050    -0.6360 C.3   1 <1>  -0.2400 
 17 C        0.5540    -7.0830     0.8390 C.ar  1 <1>  -0.1500 
 18 C       -1.0970    -5.4950     0.1460 C.ar  1 <1>  -0.1500 
 19 O        5.4890     1.3720     2.1530 O.3   1 <1>  -0.6800 
 20 C       -0.7670    -6.7700     0.5700 C.ar  1 <1>  -0.1500 
 21 H        3.1680    -4.2840    -0.1150 H     1 <1>   0.4000 
 22 H        5.4070    -0.8520    -0.4660 H     1 <1>   0.4000 
 23 H        2.5600    -6.3740     0.9020 H     1 <1>   0.1500 
 24 H       -0.3800    -3.5550    -0.3440 H     1 <1>   0.1500 
 25 H        3.8890     2.1890     1.2650 H     1 <1>   0.0800 
 26 H        5.4060     3.0020     0.9870 H     1 <1>   0.0800 
 27 H        4.4280     1.2190    -2.2810 H     1 <1>   0.0800 
 28 H        4.6550     2.8130    -1.6090 H     1 <1>   0.0800 
 29 H        3.2730     1.8700    -1.1400 H     1 <1>   0.0800 
 30 H        6.7520     0.6550    -1.5480 H     1 <1>   0.0800 
 31 H        7.1980     0.7610     0.1440 H     1 <1>   0.0800 
 32 H        6.9580     2.2090    -0.7880 H     1 <1>   0.0800 
 33 H        0.8140    -8.0740     1.1680 H     1 <1>   0.1500 
 34 H       -2.1220    -5.2470    -0.0660 H     1 <1>   0.1500 
 35 H        5.2190     0.4310     2.0900 H     1 <1>   0.4000 
 36 H       -1.5340    -7.5150     0.6890 H     1 <1>   0.1500 
@<TRIPOS>BOND
  1   1   2  1   
  2   2   3  ar  
  3   2   4  ar  
  4   3   5  ar  
  5   4   6  ar  
  6   5   7  ar  
  7   5   8  1   
  8   6   7  ar  
  9   6   9  1   
 10   8  10  1   
 11   8  21  1   
 12   9  11  1   
 13   9  22  1   
 14  10  12  ar  
 15  10  13  ar  
 16  11  14  1   
 17  11  15  1   
 18  11  16  1   
 19  12  17  ar  
 20  12  23  1   
 21  13  18  ar  
 22  13  24  1   
 23  14  19  1   
 24  14  25  1   
 25  14  26  1   
 26  15  27  1   
 27  15  28  1   
 28  15  29  1   
 29  16  30  1   
 30  16  31  1   
 31  16  32  1   
 32  17  20  ar  
 33  17  33  1   
 34  18  20  ar  
 35  18  34  1   
 36  19  35  1   
 37  20  36  1   
@<TRIPOS>SUBSTRUCTURE
  1 ****   5 GROUP 4 **** **** 0

# MOE 2024.06 (io_trps.svl 2023.06)
