@<TRIPOS>MOLECULE
NONAME
44 45 1 0 0 
SMALL
USER_CHARGES


@<TRIPOS>ATOM
  1 O       -0.1160    -0.5090     1.2270 O.2   1 <1>  -0.5700 
  2 C        0.0310    -1.4450     0.4760 C.2   1 <1>   0.5690 
  3 N        1.2410    -1.8260    -0.0450 N.am  1 <1>  -0.5470 
  4 C       -1.2400    -2.2270     0.1000 C.3   1 <1>   0.4040 
  5 C        2.5160    -1.2500     0.1060 C.ar  1 <1>   0.1170 
  6 N       -2.5080    -1.4230     0.2840 N.4   1 <1>  -0.9590 
  7 C        3.6600    -2.0520     0.0060 C.ar  1 <1>  -0.1430 
  8 C        2.6630     0.1170     0.3180 C.ar  1 <1>  -0.1500 
  9 C       -3.7340    -2.2680     0.3190 C.3   1 <1>   0.3430 
 10 C       -2.6020    -0.3060    -0.7020 C.3   1 <1>   0.3430 
 11 C        4.9230    -1.4690     0.0990 C.ar  1 <1>  -0.1430 
 12 C        3.5140    -3.5620    -0.2050 C.3   1 <1>  -0.0970 
 13 C        3.9130     0.6870     0.4260 C.ar  1 <1>  -0.1500 
 14 C       -4.9440    -1.4040     0.6770 C.3   1 <1>  -0.1600 
 15 C       -3.7980     0.5820    -0.3580 C.3   1 <1>  -0.1600 
 16 C        5.0380    -0.1040     0.3130 C.ar  1 <1>  -0.1500 
 17 C        6.2140    -2.2700    -0.0260 C.3   1 <1>  -0.0970 
 18 C       -5.1040    -0.2220    -0.2900 C.3   1 <1>  -0.0800 
 19 C       -6.2670     0.6760     0.1450 C.3   1 <1>  -0.2400 
 20 H        1.2790    -2.6900    -0.5830 H     1 <1>   0.3700 
 21 H       -1.2790    -3.0980     0.7310 H     1 <1>   0.0800 
 22 H       -1.1630    -2.5530    -0.9220 H     1 <1>   0.0800 
 23 H       -2.4010    -0.9600     1.2030 H     1 <1>   0.4500 
 24 H        1.8020     0.7540     0.3970 H     1 <1>   0.1500 
 25 H       -3.6260    -3.0510     1.0540 H     1 <1>   0.0800 
 26 H       -3.8930    -2.7240    -0.6450 H     1 <1>   0.0800 
 27 H       -2.7230    -0.7010    -1.6970 H     1 <1>   0.0800 
 28 H       -1.7020     0.2890    -0.6750 H     1 <1>   0.0800 
 29 H        2.7090    -3.9550     0.3880 H     1 <1>   0.0800 
 30 H        4.3960    -4.0980     0.0920 H     1 <1>   0.0800 
 31 H        3.3290    -3.7700    -1.2440 H     1 <1>   0.0800 
 32 H        4.0140     1.7450     0.5940 H     1 <1>   0.1500 
 33 H       -4.8380    -1.0480     1.6870 H     1 <1>   0.0800 
 34 H       -5.8290    -2.0160     0.6430 H     1 <1>   0.0800 
 35 H       -3.8870     1.3490    -1.1080 H     1 <1>   0.0800 
 36 H       -3.6120     1.0740     0.5820 H     1 <1>   0.0800 
 37 H        6.0080     0.3560     0.3950 H     1 <1>   0.1500 
 38 H        6.1980    -2.8650    -0.9210 H     1 <1>   0.0800 
 39 H        6.3310    -2.9140     0.8270 H     1 <1>   0.0800 
 40 H        7.0700    -1.6220    -0.0760 H     1 <1>   0.0800 
 41 H       -5.3260    -0.6060    -1.2730 H     1 <1>   0.0800 
 42 H       -6.0940     1.0870     1.1240 H     1 <1>   0.0800 
 43 H       -7.1860     0.1150     0.1680 H     1 <1>   0.0800 
 44 H       -6.3920     1.4900    -0.5480 H     1 <1>   0.0800 
@<TRIPOS>BOND
  1   1   2  2   
  2   2   3  am  
  3   2   4  1   
  4   3   5  1   
  5   3  20  1   
  6   4   6  1   
  7   4  21  1   
  8   4  22  1   
  9   5   7  ar  
 10   5   8  ar  
 11   6   9  1   
 12   6  10  1   
 13   6  23  1   
 14   7  11  ar  
 15   7  12  1   
 16   8  13  ar  
 17   8  24  1   
 18   9  14  1   
 19   9  25  1   
 20   9  26  1   
 21  10  15  1   
 22  10  27  1   
 23  10  28  1   
 24  11  16  ar  
 25  11  17  1   
 26  12  29  1   
 27  12  30  1   
 28  12  31  1   
 29  13  16  ar  
 30  13  32  1   
 31  14  18  1   
 32  14  33  1   
 33  14  34  1   
 34  15  18  1   
 35  15  35  1   
 36  15  36  1   
 37  16  37  1   
 38  17  38  1   
 39  17  39  1   
 40  17  40  1   
 41  18  19  1   
 42  18  41  1   
 43  19  42  1   
 44  19  43  1   
 45  19  44  1   
@<TRIPOS>SUBSTRUCTURE
  1 ****   2 GROUP 4 **** **** 0

# MOE 2024.06 (io_trps.svl 2023.06)
