@<TRIPOS>MOLECULE
NONAME
39 41 1 0 0 
SMALL
USER_CHARGES


@<TRIPOS>ATOM
  1 O        0.3760     1.0010    -0.7360 O.3   1 <1>  -0.5600 
  2 C        1.5670     1.5810    -0.3070 C.3   1 <1>   0.2640 
  3 C       -0.7230     1.3400     0.0520 C.3   1 <1>   0.2640 
  4 C        1.4560     3.0970    -0.3580 C.ar  1 <1>  -0.1440 
  5 C       -0.9030     2.8520     0.1200 C.ar  1 <1>  -0.1440 
  6 C        0.2050     3.6960    -0.1020 C.ar  1 <1>   0.0000 
  7 C        2.5480     3.8610    -0.6490 C.ar  1 <1>  -0.1500 
  8 C       -2.1280     3.3770     0.4100 C.ar  1 <1>  -0.1500 
  9 C        0.0640     5.1140    -0.0800 C.ar  1 <1>   0.0000 
 10 C        2.4170     5.2410    -0.7130 C.ar  1 <1>  -0.1500 
 11 C       -2.2730     4.7530     0.5210 C.ar  1 <1>  -0.1500 
 12 C        1.2200     5.8810    -0.4700 C.ar  1 <1>   0.1000 
 13 C       -1.2220     5.6240     0.3230 C.ar  1 <1>   0.1000 
 14 N        1.2100     7.2630    -0.6920 N.pl3 1 <1>  -0.8380 
 15 N       -1.4880     6.9710     0.6000 N.pl3 1 <1>  -0.8380 
 16 C        0.3330     7.7940    -1.7640 C.3   1 <1>   0.1290 
 17 C        2.3060     8.1540    -0.2340 C.3   1 <1>   0.1290 
 18 C       -2.7230     7.6530     0.1420 C.3   1 <1>   0.1290 
 19 C       -0.7210     7.6370     1.6810 C.3   1 <1>   0.1290 
 20 H        2.3500     1.2370    -0.9600 H     1 <1>   0.0800 
 21 H        1.7720     1.2490     0.6960 H     1 <1>   0.0800 
 22 H       -0.5710     0.9360     1.0380 H     1 <1>   0.0800 
 23 H       -1.5900     0.8790    -0.3870 H     1 <1>   0.0800 
 24 H        3.5070     3.4180    -0.8460 H     1 <1>   0.1500 
 25 H       -2.9850     2.7480     0.5740 H     1 <1>   0.1500 
 26 H        3.2810     5.8120    -0.9900 H     1 <1>   0.1500 
 27 H       -3.2360     5.1340     0.7980 H     1 <1>   0.1500 
 28 H       -0.3670     7.0370    -2.0730 H     1 <1>   0.0800 
 29 H        0.9250     8.0900    -2.6110 H     1 <1>   0.0800 
 30 H       -0.2180     8.6390    -1.3930 H     1 <1>   0.0800 
 31 H        2.9870     8.3420    -1.0450 H     1 <1>   0.0800 
 32 H        2.8380     7.6900     0.5790 H     1 <1>   0.0800 
 33 H        1.8940     9.0860     0.1100 H     1 <1>   0.0800 
 34 H       -3.4390     7.6910     0.9440 H     1 <1>   0.0800 
 35 H       -3.1490     7.1190    -0.6900 H     1 <1>   0.0800 
 36 H       -2.4880     8.6530    -0.1740 H     1 <1>   0.0800 
 37 H        0.1100     7.0200     1.9760 H     1 <1>   0.0800 
 38 H       -1.3550     7.8020     2.5330 H     1 <1>   0.0800 
 39 H       -0.3410     8.5780     1.3250 H     1 <1>   0.0800 
@<TRIPOS>BOND
  1   1   2  1   
  2   1   3  1   
  3   2   4  1   
  4   2  20  1   
  5   2  21  1   
  6   3   5  1   
  7   3  22  1   
  8   3  23  1   
  9   4   6  ar  
 10   4   7  ar  
 11   5   6  ar  
 12   5   8  ar  
 13   6   9  ar  
 14   7  10  ar  
 15   7  24  1   
 16   8  11  ar  
 17   8  25  1   
 18   9  12  ar  
 19   9  13  ar  
 20  10  12  ar  
 21  10  26  1   
 22  11  13  ar  
 23  11  27  1   
 24  12  14  1   
 25  13  15  1   
 26  14  16  1   
 27  14  17  1   
 28  15  18  1   
 29  15  19  1   
 30  16  28  1   
 31  16  29  1   
 32  16  30  1   
 33  17  31  1   
 34  17  32  1   
 35  17  33  1   
 36  18  34  1   
 37  18  35  1   
 38  18  36  1   
 39  19  37  1   
 40  19  38  1   
 41  19  39  1   
@<TRIPOS>SUBSTRUCTURE
  1 ****   9 GROUP 4 **** **** 0

# MOE 2024.06 (io_trps.svl 2023.06)
