@<TRIPOS>MOLECULE
NONAME
45 46 1 0 0 
SMALL
USER_CHARGES


@<TRIPOS>ATOM
  1 S        0.7370     1.8310    -1.1460 S.3   1 <1>  -0.0800 
  2 C        2.4340     1.8890    -0.6550 C.2   1 <1>  -0.0450 
  3 C        0.3140     3.1950    -0.1360 C.2   1 <1>  -0.1100 
  4 C        3.3360     0.9100    -1.2150 C.2   1 <1>   0.7150 
  5 C        2.5890     2.9190     0.2200 C.2   1 <1>  -0.1500 
  6 C        1.4000     3.6480     0.5140 C.2   1 <1>  -0.1500 
  7 O        3.1090     0.3590    -2.2720 O.2   1 <1>  -0.5700 
  8 N        4.4890     0.5340    -0.6090 N.am  1 <1>  -0.7300 
  9 C        4.7460     0.5150     0.8660 C.3   1 <1>   0.2810 
 10 C        5.6270     1.6900     1.3350 C.2   1 <1>   0.5690 
 11 C        5.3550    -0.8520     1.2650 C.3   1 <1>  -0.0800 
 12 O        5.6720     1.9540     2.5130 O.2   1 <1>  -0.5700 
 13 N        6.3080     2.4200     0.4100 N.am  1 <1>  -0.7300 
 14 C        6.7140    -1.1350     0.5970 C.3   1 <1>  -0.2400 
 15 C        4.3870    -2.0140     0.9830 C.3   1 <1>  -0.2400 
 16 C        7.1710     3.5770     0.6860 C.3   1 <1>   0.2200 
 17 C        6.5590     4.8160     0.0240 C.3   1 <1>  -0.1600 
 18 C        8.5730     3.2880     0.1410 C.3   1 <1>  -0.1600 
 19 C        7.4750     6.0390     0.1830 C.3   1 <1>  -0.1600 
 20 C        9.4920     4.5070     0.3020 C.3   1 <1>  -0.1600 
 21 C        8.8830     5.7520    -0.3580 C.3   1 <1>  -0.1600 
 22 H       -0.7120     3.5160    -0.1360 H     1 <1>   0.1500 
 23 H        3.5170     3.2110     0.6780 H     1 <1>   0.1500 
 24 H        1.4130     4.4800     1.1980 H     1 <1>   0.1500 
 25 H        4.9880    -0.1980    -1.1160 H     1 <1>   0.3700 
 26 H        3.8060     0.6150     1.3790 H     1 <1>   0.0800 
 27 H        5.5190    -0.8230     2.3300 H     1 <1>   0.0800 
 28 H        6.1910     2.1790    -0.5760 H     1 <1>   0.3700 
 29 H        6.6190    -1.2140    -0.4710 H     1 <1>   0.0800 
 30 H        7.1190    -2.0610     0.9670 H     1 <1>   0.0800 
 31 H        7.4200    -0.3550     0.8240 H     1 <1>   0.0800 
 32 H        4.2110    -2.1310    -0.0720 H     1 <1>   0.0800 
 33 H        3.4430    -1.8410     1.4680 H     1 <1>   0.0800 
 34 H        4.7930    -2.9360     1.3610 H     1 <1>   0.0800 
 35 H        7.2320     3.7400     1.7500 H     1 <1>   0.0800 
 36 H        5.6060     5.0270     0.4750 H     1 <1>   0.0800 
 37 H        6.4080     4.6280    -1.0250 H     1 <1>   0.0800 
 38 H        8.5100     3.0330    -0.9020 H     1 <1>   0.0800 
 39 H        8.9940     2.4530     0.6730 H     1 <1>   0.0800 
 40 H        7.5420     6.3000     1.2260 H     1 <1>   0.0800 
 41 H        7.0520     6.8790    -0.3400 H     1 <1>   0.0800 
 42 H       10.4510     4.2970    -0.1400 H     1 <1>   0.0800 
 43 H        9.6480     4.7000     1.3500 H     1 <1>   0.0800 
 44 H        9.5180     6.6020    -0.1770 H     1 <1>   0.0800 
 45 H        8.8320     5.6020    -1.4230 H     1 <1>   0.0800 
@<TRIPOS>BOND
  1   1   2  1   
  2   1   3  1   
  3   2   4  1   
  4   2   5  2   
  5   3   6  2   
  6   3  22  1   
  7   4   7  2   
  8   4   8  am  
  9   5   6  1   
 10   5  23  1   
 11   6  24  1   
 12   8   9  1   
 13   8  25  1   
 14   9  10  1   
 15   9  11  1   
 16   9  26  1   
 17  10  12  2   
 18  10  13  am  
 19  11  14  1   
 20  11  15  1   
 21  11  27  1   
 22  13  16  1   
 23  13  28  1   
 24  14  29  1   
 25  14  30  1   
 26  14  31  1   
 27  15  32  1   
 28  15  33  1   
 29  15  34  1   
 30  16  17  1   
 31  16  18  1   
 32  16  35  1   
 33  17  19  1   
 34  17  36  1   
 35  17  37  1   
 36  18  20  1   
 37  18  38  1   
 38  18  39  1   
 39  19  21  1   
 40  19  40  1   
 41  19  41  1   
 42  20  21  1   
 43  20  42  1   
 44  20  43  1   
 45  21  44  1   
 46  21  45  1   
@<TRIPOS>SUBSTRUCTURE
  1 ****  13 GROUP 4 **** **** 0

# MOE 2024.06 (io_trps.svl 2023.06)
