@<TRIPOS>MOLECULE
NONAME
49 50 1 0 0 
SMALL
USER_CHARGES


@<TRIPOS>ATOM
  1 O        0.3110     0.3270    -0.5630 O.3   1 <1>  -0.3630 
  2 C        1.4700     0.9320    -0.1860 C.ar  1 <1>   0.0830 
  3 C       -0.7920     0.5250     0.2930 C.3   1 <1>   0.0400 
  4 C        1.6300     2.3020    -0.4170 C.ar  1 <1>   0.0830 
  5 C        2.5000     0.2050     0.4260 C.ar  1 <1>   0.0830 
  6 O        0.6160     2.9740    -1.0350 O.3   1 <1>  -0.3630 
  7 C        2.8050     2.9370    -0.0190 C.ar  1 <1>  -0.1500 
  8 O        2.4970    -1.1330     0.6850 O.3   1 <1>  -0.3630 
  9 C        3.6510     0.8620     0.8260 C.ar  1 <1>  -0.1500 
 10 C        0.6460     4.3660    -1.2610 C.3   1 <1>   0.0400 
 11 C        3.8160     2.2190     0.6020 C.ar  1 <1>  -0.1430 
 12 C        1.7640    -2.0370    -0.1140 C.3   1 <1>   0.0400 
 13 C        5.1020     2.8940     1.0170 C.3   1 <1>   0.4860 
 14 N        6.0750     2.6260    -0.0610 N.4   1 <1>  -0.9060 
 15 C        7.4330     3.1400     0.1840 C.3   1 <1>   0.4230 
 16 C        7.4400     4.6730     0.1110 C.3   1 <1>  -0.1600 
 17 C        8.3670     2.5370    -0.8680 C.3   1 <1>  -0.1600 
 18 C        8.8660     5.2260     0.2570 C.3   1 <1>  -0.1600 
 19 C        9.7950     3.0840    -0.7200 C.3   1 <1>  -0.1600 
 20 C        9.8160     4.6190    -0.7870 C.3   1 <1>  -0.0800 
 21 C       11.2410     5.1400    -0.5760 C.3   1 <1>  -0.2400 
 22 H       -1.6210    -0.0400    -0.0910 H     1 <1>   0.0800 
 23 H       -1.0410     1.5710     0.3140 H     1 <1>   0.0800 
 24 H       -0.5330     0.1800     1.2790 H     1 <1>   0.0800 
 25 H        2.9320     3.9890    -0.1900 H     1 <1>   0.1500 
 26 H        4.4110     0.2780     1.3140 H     1 <1>   0.1500 
 27 H       -0.2790     4.6440    -1.7340 H     1 <1>   0.0800 
 28 H        1.4690     4.5980    -1.9120 H     1 <1>   0.0800 
 29 H        0.7370     4.8730    -0.3170 H     1 <1>   0.0800 
 30 H        2.1590    -3.0240     0.0460 H     1 <1>   0.0800 
 31 H        1.8670    -1.7610    -1.1490 H     1 <1>   0.0800 
 32 H        0.7320    -2.0090     0.1850 H     1 <1>   0.0800 
 33 H        5.4480     2.4820     1.9520 H     1 <1>   0.0800 
 34 H        4.9440     3.9530     1.1360 H     1 <1>   0.0800 
 35 H        5.7090     3.0110    -0.9380 H     1 <1>   0.4500 
 36 H        6.1100     1.6100    -0.1990 H     1 <1>   0.4500 
 37 H        7.7730     2.8320     1.1610 H     1 <1>   0.0800 
 38 H        6.8380     5.0920     0.8980 H     1 <1>   0.0800 
 39 H        7.0440     4.9980    -0.8360 H     1 <1>   0.0800 
 40 H        8.0130     2.7730    -1.8570 H     1 <1>   0.0800 
 41 H        8.3990     1.4660    -0.7620 H     1 <1>   0.0800 
 42 H        9.2360     5.0130     1.2460 H     1 <1>   0.0800 
 43 H        8.8470     6.2980     0.1420 H     1 <1>   0.0800 
 44 H       10.4140     2.6830    -1.5060 H     1 <1>   0.0800 
 45 H       10.2110     2.7580     0.2190 H     1 <1>   0.0800 
 46 H        9.4920     4.9260    -1.7690 H     1 <1>   0.0800 
 47 H       11.6150     4.8600     0.3930 H     1 <1>   0.0800 
 48 H       11.2620     6.2140    -0.6530 H     1 <1>   0.0800 
 49 H       11.9010     4.7390    -1.3260 H     1 <1>   0.0800 
@<TRIPOS>BOND
  1   1   2  1   
  2   1   3  1   
  3   2   4  ar  
  4   2   5  ar  
  5   3  22  1   
  6   3  23  1   
  7   3  24  1   
  8   4   6  1   
  9   4   7  ar  
 10   5   8  1   
 11   5   9  ar  
 12   6  10  1   
 13   7  11  ar  
 14   7  25  1   
 15   8  12  1   
 16   9  11  ar  
 17   9  26  1   
 18  10  27  1   
 19  10  28  1   
 20  10  29  1   
 21  11  13  1   
 22  12  30  1   
 23  12  31  1   
 24  12  32  1   
 25  13  14  1   
 26  13  33  1   
 27  13  34  1   
 28  14  15  1   
 29  14  35  1   
 30  14  36  1   
 31  15  16  1   
 32  15  17  1   
 33  15  37  1   
 34  16  18  1   
 35  16  38  1   
 36  16  39  1   
 37  17  19  1   
 38  17  40  1   
 39  17  41  1   
 40  18  20  1   
 41  18  42  1   
 42  18  43  1   
 43  19  20  1   
 44  19  44  1   
 45  19  45  1   
 46  20  21  1   
 47  20  46  1   
 48  21  47  1   
 49  21  48  1   
 50  21  49  1   
@<TRIPOS>SUBSTRUCTURE
  1 ****  11 GROUP 4 **** **** 0

# MOE 2024.06 (io_trps.svl 2023.06)
