@<TRIPOS>MOLECULE
NONAME
23 24 1 0 0 
SMALL
USER_CHARGES


@<TRIPOS>ATOM
  1 O        0.0290     0.4520    -0.6150 O.2   1 <1>  -0.5700 
  2 C       -0.0690     1.6330    -0.3570 C.2   1 <1>   0.5440 
  3 N        1.0830     2.3290    -0.1780 N.am  1 <1>  -0.7300 
  4 C       -1.3470     2.3090    -0.2110 C.ar  1 <1>   0.0860 
  5 C        1.1170     3.7080     0.3320 C.3   1 <1>   0.2200 
  6 C       -1.3900     3.7050    -0.1160 C.ar  1 <1>  -0.1440 
  7 C       -2.5520     1.6110    -0.1490 C.ar  1 <1>  -0.1500 
  8 C       -0.0870     4.4950    -0.2180 C.3   1 <1>  -0.0160 
  9 C        2.4470     4.3400    -0.0690 C.3   1 <1>  -0.2400 
 10 C       -2.5980     4.3640     0.0460 C.ar  1 <1>  -0.1500 
 11 C       -3.7570     2.2700     0.0130 C.ar  1 <1>  -0.1500 
 12 C       -3.7800     3.6490     0.1120 C.ar  1 <1>  -0.1500 
 13 H        1.9550     1.7990    -0.2120 H     1 <1>   0.3700 
 14 H        1.0480     3.6700     1.4070 H     1 <1>   0.0800 
 15 H       -2.5340     0.5370    -0.2260 H     1 <1>   0.1500 
 16 H        0.0870     4.7300    -1.2540 H     1 <1>   0.0800 
 17 H       -0.1730     5.4230     0.3180 H     1 <1>   0.0800 
 18 H        2.5520     4.3520    -1.1400 H     1 <1>   0.0800 
 19 H        3.2640     3.7900     0.3620 H     1 <1>   0.0800 
 20 H        2.4960     5.3520     0.2920 H     1 <1>   0.0800 
 21 H       -2.6270     5.4380     0.1170 H     1 <1>   0.1500 
 22 H       -4.6750     1.7100     0.0600 H     1 <1>   0.1500 
 23 H       -4.7170     4.1640     0.2380 H     1 <1>   0.1500 
@<TRIPOS>BOND
  1   1   2  2   
  2   2   3  am  
  3   2   4  1   
  4   3   5  1   
  5   3  13  1   
  6   4   6  ar  
  7   4   7  ar  
  8   5   8  1   
  9   5   9  1   
 10   5  14  1   
 11   6   8  1   
 12   6  10  ar  
 13   7  11  ar  
 14   7  15  1   
 15   8  16  1   
 16   8  17  1   
 17   9  18  1   
 18   9  19  1   
 19   9  20  1   
 20  10  12  ar  
 21  10  21  1   
 22  11  12  ar  
 23  11  22  1   
 24  12  23  1   
@<TRIPOS>SUBSTRUCTURE
  1 ****   4 GROUP 4 **** **** 0

# MOE 2024.06 (io_trps.svl 2023.06)
