@<TRIPOS>MOLECULE
NONAME
52 54 1 0 0 
SMALL
USER_CHARGES


@<TRIPOS>ATOM
  1 O       -0.4540    -0.6330    -1.8910 O.2   1 <1>  -0.5700 
  2 C        0.5400    -0.9810    -1.2740 C.2   1 <1>   0.5440 
  3 N        1.4090    -0.0110    -0.8140 N.am  1 <1>  -0.6600 
  4 C        0.7540    -2.3910    -1.0120 C.ar  1 <1>   0.0860 
  5 C        2.3190    -0.2140     0.3490 C.3   1 <1>   0.1400 
  6 C        1.3070     1.4060    -1.2630 C.3   1 <1>   0.1400 
  7 C       -0.2630    -3.1780    -0.4460 C.ar  1 <1>   0.1170 
  8 C        1.9760    -2.9940    -1.3140 C.ar  1 <1>  -0.1500 
  9 C        1.8470     0.6470     1.5260 C.3   1 <1>  -0.1600 
 10 C        0.8200     2.2790    -0.1020 C.3   1 <1>  -0.1600 
 11 N       -1.5080    -2.5880    -0.1890 N.am  1 <1>  -0.5470 
 12 C       -0.0150    -4.5230    -0.1830 C.ar  1 <1>  -0.1500 
 13 C        2.2070    -4.3290    -1.0480 C.ar  1 <1>  -0.1500 
 14 C        1.7180     2.1260     1.1340 C.3   1 <1>  -0.1600 
 15 C       -2.5460    -2.8930     0.6600 C.2   1 <1>   0.5440 
 16 C        1.2070    -5.0950    -0.4760 C.ar  1 <1>  -0.1500 
 17 O       -2.4270    -3.8110     1.4480 O.2   1 <1>  -0.5700 
 18 C       -3.7600    -2.0940     0.6280 C.ar  1 <1>   0.0860 
 19 C       -4.6810    -2.1510     1.6770 C.ar  1 <1>  -0.1500 
 20 C       -4.0670    -1.2350    -0.4340 C.ar  1 <1>  -0.1500 
 21 C       -5.8380    -1.3950     1.6740 C.ar  1 <1>  -0.1500 
 22 C       -5.2210    -0.4730    -0.4440 C.ar  1 <1>  -0.1500 
 23 C       -6.1210    -0.5530     0.6120 C.ar  1 <1>   0.0820 
 24 O       -7.2690     0.1680     0.6780 O.3   1 <1>  -0.2320 
 25 C       -8.0110     0.6470    -0.3200 C.2   1 <1>   0.6590 
 26 O       -7.7990     0.4250    -1.4830 O.2   1 <1>  -0.5700 
 27 C       -9.1810     1.5170     0.1050 C.3   1 <1>  -0.0990 
 28 C       -8.7380     2.8660     0.6940 C.3   1 <1>  -0.2400 
 29 H        3.3180     0.0680     0.0660 H     1 <1>   0.0800 
 30 H        2.3350    -1.2450     0.6560 H     1 <1>   0.0800 
 31 H        0.6300     1.4960    -2.0960 H     1 <1>   0.0800 
 32 H        2.2770     1.7400    -1.5890 H     1 <1>   0.0800 
 33 H        2.7520    -2.4000    -1.7650 H     1 <1>   0.1500 
 34 H        2.5420     0.5490     2.3400 H     1 <1>   0.0800 
 35 H        0.8940     0.2780     1.8630 H     1 <1>   0.0800 
 36 H       -0.1890     1.9950     0.1420 H     1 <1>   0.0800 
 37 H        0.8040     3.3080    -0.4140 H     1 <1>   0.0800 
 38 H       -1.6310    -1.7100    -0.7090 H     1 <1>   0.3700 
 39 H       -0.7870    -5.1340     0.2500 H     1 <1>   0.1500 
 40 H        3.1570    -4.7770    -1.2840 H     1 <1>   0.1500 
 41 H        2.6940     2.5250     0.9170 H     1 <1>   0.0800 
 42 H        1.3040     2.6860     1.9560 H     1 <1>   0.0800 
 43 H        1.3780    -6.1370    -0.2630 H     1 <1>   0.1500 
 44 H       -4.4790    -2.8040     2.5110 H     1 <1>   0.1500 
 45 H       -3.4020    -1.1530    -1.2760 H     1 <1>   0.1500 
 46 H       -6.5260    -1.4590     2.4980 H     1 <1>   0.1500 
 47 H       -5.4060     0.1810    -1.2770 H     1 <1>   0.1500 
 48 H       -9.7620     0.9770     0.8300 H     1 <1>   0.0800 
 49 H       -9.8050     1.6920    -0.7530 H     1 <1>   0.0800 
 50 H       -8.1300     2.7140     1.5690 H     1 <1>   0.0800 
 51 H       -9.5980     3.4500     0.9710 H     1 <1>   0.0800 
 52 H       -8.1670     3.4190    -0.0320 H     1 <1>   0.0800 
@<TRIPOS>BOND
  1   1   2  2   
  2   2   3  am  
  3   2   4  1   
  4   3   5  1   
  5   3   6  1   
  6   4   7  ar  
  7   4   8  ar  
  8   5   9  1   
  9   5  29  1   
 10   5  30  1   
 11   6  10  1   
 12   6  31  1   
 13   6  32  1   
 14   7  11  1   
 15   7  12  ar  
 16   8  13  ar  
 17   8  33  1   
 18   9  14  1   
 19   9  34  1   
 20   9  35  1   
 21  10  14  1   
 22  10  36  1   
 23  10  37  1   
 24  11  15  am  
 25  11  38  1   
 26  12  16  ar  
 27  12  39  1   
 28  13  16  ar  
 29  13  40  1   
 30  14  41  1   
 31  14  42  1   
 32  15  17  2   
 33  15  18  1   
 34  16  43  1   
 35  18  19  ar  
 36  18  20  ar  
 37  19  21  ar  
 38  19  44  1   
 39  20  22  ar  
 40  20  45  1   
 41  21  23  ar  
 42  21  46  1   
 43  22  23  ar  
 44  22  47  1   
 45  23  24  1   
 46  24  25  1   
 47  25  26  2   
 48  25  27  1   
 49  27  28  1   
 50  27  48  1   
 51  27  49  1   
 52  28  50  1   
 53  28  51  1   
 54  28  52  1   
@<TRIPOS>SUBSTRUCTURE
  1 ****  11 GROUP 4 **** **** 0

# MOE 2024.06 (io_trps.svl 2023.06)
