@<TRIPOS>MOLECULE
NONAME
56 59 1 0 0 
SMALL
USER_CHARGES


@<TRIPOS>ATOM
  1 S       -0.1000    -1.3450    -0.3020 S.o2  1 <1>   1.2040 
  2 O       -0.6740    -1.5090     1.0140 O.2   1 <1>  -0.6500 
  3 O        0.1540    -2.4980    -1.1350 O.2   1 <1>  -0.6500 
  4 C        1.4080    -0.3510    -0.1850 C.ar  1 <1>  -0.0090 
  5 C       -1.1850    -0.2660    -1.2170 C.3   1 <1>  -0.1350 
  6 C        2.4010    -0.4410    -1.1540 C.ar  1 <1>  -0.1500 
  7 C        1.5960     0.5490     0.8710 C.ar  1 <1>  -0.1500 
  8 C        3.5200     0.3600    -1.0350 C.ar  1 <1>   0.0400 
  9 C        2.7280     1.3430     0.9680 C.ar  1 <1>  -0.1500 
 10 S        4.9130     0.4580    -2.0900 S.3   1 <1>  -0.0800 
 11 C        3.7150     1.2540    -0.0020 C.ar  1 <1>   0.2270 
 12 C        5.6160     1.6820    -1.0330 C.2   1 <1>   0.4420 
 13 N        4.8890     1.9890    -0.0300 N.2   1 <1>  -0.5650 
 14 N        6.8400     2.1870    -1.4120 N.am  1 <1>  -0.4940 
 15 C        7.6830     2.9700    -0.6660 C.2   1 <1>   0.5690 
 16 O        7.5750     3.1200     0.5260 O.2   1 <1>  -0.5700 
 17 C        8.8390     3.7260    -1.3430 C.3   1 <1>   0.4040 
 18 N        9.2600     4.9560    -0.5700 N.4   1 <1>  -0.9590 
 19 C        8.2020     6.0090    -0.5910 C.3   1 <1>   0.3430 
 20 C       10.5990     5.4720    -0.9650 C.3   1 <1>   0.3430 
 21 C        8.5870     7.1420     0.3570 C.3   1 <1>  -0.1600 
 22 C       11.0160     6.5970    -0.0160 C.3   1 <1>  -0.1600 
 23 C        9.9730     7.7260     0.0260 C.3   1 <1>  -0.0800 
 24 C       10.3890     8.8190     1.0290 C.3   1 <1>  -0.0170 
 25 C        9.3990     9.9730     1.0390 C.ar  1 <1>  -0.1430 
 26 C        9.4130    10.9120     0.0180 C.ar  1 <1>  -0.1500 
 27 C        8.4710    10.0970     2.0620 C.ar  1 <1>  -0.1500 
 28 C        8.5040    11.9560     0.0150 C.ar  1 <1>  -0.1500 
 29 C        7.5620    11.1400     2.0600 C.ar  1 <1>  -0.1500 
 30 C        7.5770    12.0700     1.0350 C.ar  1 <1>  -0.1500 
 31 H       -0.7670    -0.0420    -2.1790 H     1 <1>   0.0800 
 32 H       -1.3410     0.6500    -0.6830 H     1 <1>   0.0800 
 33 H       -2.1360    -0.7420    -1.3610 H     1 <1>   0.0800 
 34 H        2.3070    -1.1240    -1.9820 H     1 <1>   0.1500 
 35 H        0.8390     0.6220     1.6350 H     1 <1>   0.1500 
 36 H        2.8620     2.0280     1.7870 H     1 <1>   0.1500 
 37 H        7.1190     1.9130    -2.3520 H     1 <1>   0.3700 
 38 H        8.5440     4.0070    -2.3390 H     1 <1>   0.0800 
 39 H        9.6730     3.0490    -1.4140 H     1 <1>   0.0800 
 40 H        9.3020     4.6450     0.4180 H     1 <1>   0.4500 
 41 H        7.2570     5.5930    -0.2750 H     1 <1>   0.0800 
 42 H        8.0890     6.4000    -1.5890 H     1 <1>   0.0800 
 43 H       10.5630     5.8500    -1.9740 H     1 <1>   0.0800 
 44 H       11.3310     4.6810    -0.9220 H     1 <1>   0.0800 
 45 H        8.5650     6.7800     1.3710 H     1 <1>   0.0800 
 46 H        7.8400     7.9120     0.2770 H     1 <1>   0.0800 
 47 H       11.9610     6.9950    -0.3470 H     1 <1>   0.0800 
 48 H       11.1660     6.1910     0.9700 H     1 <1>   0.0800 
 49 H        9.9240     8.1790    -0.9510 H     1 <1>   0.0800 
 50 H       11.3600     9.2030     0.7670 H     1 <1>   0.0800 
 51 H       10.4670     8.4020     2.0190 H     1 <1>   0.0800 
 52 H       10.1310    10.8380    -0.7790 H     1 <1>   0.1500 
 53 H        8.4480     9.3830     2.8670 H     1 <1>   0.1500 
 54 H        8.5190    12.6820    -0.7800 H     1 <1>   0.1500 
 55 H        6.8430    11.2310     2.8560 H     1 <1>   0.1500 
 56 H        6.8700    12.8820     1.0340 H     1 <1>   0.1500 
@<TRIPOS>BOND
  1   1   2  2   
  2   1   3  2   
  3   1   4  1   
  4   1   5  1   
  5   4   6  ar  
  6   4   7  ar  
  7   5  31  1   
  8   5  32  1   
  9   5  33  1   
 10   6   8  ar  
 11   6  34  1   
 12   7   9  ar  
 13   7  35  1   
 14   8  10  1   
 15   8  11  ar  
 16   9  11  ar  
 17   9  36  1   
 18  10  12  1   
 19  11  13  1   
 20  12  13  2   
 21  12  14  1   
 22  14  15  am  
 23  14  37  1   
 24  15  16  2   
 25  15  17  1   
 26  17  18  1   
 27  17  38  1   
 28  17  39  1   
 29  18  19  1   
 30  18  20  1   
 31  18  40  1   
 32  19  21  1   
 33  19  41  1   
 34  19  42  1   
 35  20  22  1   
 36  20  43  1   
 37  20  44  1   
 38  21  23  1   
 39  21  45  1   
 40  21  46  1   
 41  22  23  1   
 42  22  47  1   
 43  22  48  1   
 44  23  24  1   
 45  23  49  1   
 46  24  25  1   
 47  24  50  1   
 48  24  51  1   
 49  25  26  ar  
 50  25  27  ar  
 51  26  28  ar  
 52  26  52  1   
 53  27  29  ar  
 54  27  53  1   
 55  28  30  ar  
 56  28  54  1   
 57  29  30  ar  
 58  29  55  1   
 59  30  56  1   
@<TRIPOS>SUBSTRUCTURE
  1 ****  16 GROUP 4 **** **** 0

# MOE 2024.06 (io_trps.svl 2023.06)
