@<TRIPOS>MOLECULE
NONAME
43 44 1 0 0 
SMALL
USER_CHARGES


@<TRIPOS>ATOM
  1 O        0.2900    -0.0580    -0.1040 O.2   1 <1>  -0.5700 
  2 C        0.7090     1.0630     0.1190 C.2   1 <1>   0.6900 
  3 N        2.0580     1.3090     0.1150 N.am  1 <1>  -0.6600 
  4 N       -0.1430     2.0920     0.4080 N.am  1 <1>  -0.5470 
  5 C        3.0120     0.1590     0.0840 C.3   1 <1>   0.1400 
  6 C        2.6410     2.6780    -0.0370 C.3   1 <1>   0.1400 
  7 C       -1.5410     2.1850     0.3750 C.ar  1 <1>   0.1170 
  8 C        4.3810     0.5700     0.6450 C.3   1 <1>  -0.0800 
  9 C        3.9520     2.6310    -0.8360 C.3   1 <1>  -0.0800 
 10 C       -2.1670     3.1590     1.1430 C.ar  1 <1>  -0.1500 
 11 C       -2.3360     1.3580    -0.4120 C.ar  1 <1>  -0.1500 
 12 C        5.0050     1.7300    -0.1590 C.3   1 <1>  -0.1600 
 13 C        5.3390    -0.6270     0.7030 C.3   1 <1>  -0.2400 
 14 C        4.5140     4.0400    -1.0660 C.3   1 <1>  -0.2400 
 15 C       -3.5430     3.3010     1.1320 C.ar  1 <1>  -0.1500 
 16 C       -3.7120     1.4970    -0.4240 C.ar  1 <1>  -0.1500 
 17 C       -4.3270     2.4690     0.3490 C.ar  1 <1>  -0.1430 
 18 C       -5.8390     2.6210     0.3350 C.3   1 <1>  -0.0170 
 19 C       -6.2710     3.6080    -0.7510 C.3   1 <1>  -0.2400 
 20 H        0.3360     2.8840     0.8160 H     1 <1>   0.3700 
 21 H        3.1150    -0.1820    -0.9320 H     1 <1>   0.0800 
 22 H        2.6110    -0.6520     0.6690 H     1 <1>   0.0800 
 23 H        2.8280     3.0900     0.9400 H     1 <1>   0.0800 
 24 H        1.9420     3.3150    -0.5530 H     1 <1>   0.0800 
 25 H        4.2170     0.9050     1.6560 H     1 <1>   0.0800 
 26 H        3.7170     2.2120    -1.8010 H     1 <1>   0.0800 
 27 H       -1.5770     3.8110     1.7590 H     1 <1>   0.1500 
 28 H       -1.8790     0.6000    -1.0220 H     1 <1>   0.1500 
 29 H        5.6530     1.3440    -0.9260 H     1 <1>   0.0800 
 30 H        5.6150     2.3100     0.5130 H     1 <1>   0.0800 
 31 H        5.5120    -1.0230    -0.2830 H     1 <1>   0.0800 
 32 H        4.9240    -1.4060     1.3170 H     1 <1>   0.0800 
 33 H        6.2830    -0.3290     1.1260 H     1 <1>   0.0800 
 34 H        4.7390     4.5190    -0.1300 H     1 <1>   0.0800 
 35 H        3.8000     4.6450    -1.5990 H     1 <1>   0.0800 
 36 H        5.4150     3.9890    -1.6520 H     1 <1>   0.0800 
 37 H       -4.0050     4.0620     1.7360 H     1 <1>   0.1500 
 38 H       -4.3030     0.8430    -1.0410 H     1 <1>   0.1500 
 39 H       -6.1770     2.9680     1.2960 H     1 <1>   0.0800 
 40 H       -6.2970     1.6630     0.1560 H     1 <1>   0.0800 
 41 H       -5.8320     4.5730    -0.5700 H     1 <1>   0.0800 
 42 H       -7.3420     3.7090    -0.7560 H     1 <1>   0.0800 
 43 H       -5.9500     3.2590    -1.7160 H     1 <1>   0.0800 
@<TRIPOS>BOND
  1   1   2  2   
  2   2   3  am  
  3   2   4  am  
  4   3   5  1   
  5   3   6  1   
  6   4   7  1   
  7   4  20  1   
  8   5   8  1   
  9   5  21  1   
 10   5  22  1   
 11   6   9  1   
 12   6  23  1   
 13   6  24  1   
 14   7  10  ar  
 15   7  11  ar  
 16   8  12  1   
 17   8  13  1   
 18   8  25  1   
 19   9  12  1   
 20   9  14  1   
 21   9  26  1   
 22  10  15  ar  
 23  10  27  1   
 24  11  16  ar  
 25  11  28  1   
 26  12  29  1   
 27  12  30  1   
 28  13  31  1   
 29  13  32  1   
 30  13  33  1   
 31  14  34  1   
 32  14  35  1   
 33  14  36  1   
 34  15  17  ar  
 35  15  37  1   
 36  16  17  ar  
 37  16  38  1   
 38  17  18  1   
 39  18  19  1   
 40  18  39  1   
 41  18  40  1   
 42  19  41  1   
 43  19  42  1   
 44  19  43  1   
@<TRIPOS>SUBSTRUCTURE
  1 ****   4 GROUP 4 **** **** 0

# MOE 2024.06 (io_trps.svl 2023.06)
