@<TRIPOS>MOLECULE
NONAME
47 48 1 0 0 
SMALL
USER_CHARGES


@<TRIPOS>ATOM
  1 O        0.3700     3.5530     2.3720 O.2   1 <1>  -0.5700 
  2 C       -0.1820     2.8030     1.6050 C.2   1 <1>   0.5690 
  3 N        0.5230     1.9280     0.8420 N.am  1 <1>  -0.7300 
  4 C       -1.6990     2.8330     1.4950 C.3   1 <1>   0.0440 
  5 C        1.9810     1.7970     0.8480 C.3   1 <1>   0.2200 
  6 C       -2.2310     1.7470     0.5630 C.ar  1 <1>  -0.1440 
  7 C        2.4740     1.5790    -0.5790 C.3   1 <1>  -0.1600 
  8 C        2.3700     0.6270     1.7460 C.3   1 <1>  -0.1600 
  9 C       -2.3790     2.0010    -0.7920 C.ar  1 <1>  -0.1500 
 10 C       -2.5420     0.4910     1.0590 C.ar  1 <1>  -0.1500 
 11 C        3.9810     1.3370    -0.5870 C.3   1 <1>   0.3430 
 12 C        3.8780     0.4070     1.7040 C.3   1 <1>   0.3430 
 13 C       -2.8260     1.0100    -1.6510 C.ar  1 <1>  -0.1440 
 14 C       -2.9910    -0.5010     0.2070 C.ar  1 <1>  -0.1500 
 15 N        4.3170     0.1770     0.2950 N.4   1 <1>  -0.9590 
 16 C       -3.1310    -0.2420    -1.1450 C.ar  1 <1>  -0.1500 
 17 C       -2.9930     1.2940    -3.1330 C.3   1 <1>  -0.0970 
 18 C        5.7700    -0.1510     0.2590 C.3   1 <1>   0.3430 
 19 C        6.1440    -0.7820    -1.0840 C.3   1 <1>  -0.1600 
 20 C        7.6090    -1.2330    -1.0850 C.3   1 <1>  -0.2400 
 21 H       -0.0170     1.2960     0.2390 H     1 <1>   0.3700 
 22 H       -1.9960     3.8010     1.1380 H     1 <1>   0.0800 
 23 H       -2.1140     2.7080     2.4780 H     1 <1>   0.0800 
 24 H        2.4140     2.7050     1.2390 H     1 <1>   0.0800 
 25 H        2.2580     2.4540    -1.1660 H     1 <1>   0.0800 
 26 H        1.9730     0.7390    -1.0290 H     1 <1>   0.0800 
 27 H        1.8620    -0.2710     1.4410 H     1 <1>   0.0800 
 28 H        2.0790     0.8510     2.7580 H     1 <1>   0.0800 
 29 H       -2.1460     2.9760    -1.1830 H     1 <1>   0.1500 
 30 H       -2.4380     0.2780     2.1100 H     1 <1>   0.1500 
 31 H        4.4880     2.2220    -0.2350 H     1 <1>   0.0800 
 32 H        4.3020     1.1440    -1.5980 H     1 <1>   0.0800 
 33 H        4.1310    -0.4450     2.3160 H     1 <1>   0.0800 
 34 H        4.3780     1.2730     2.1070 H     1 <1>   0.0800 
 35 H       -3.2360    -1.4750     0.5950 H     1 <1>   0.1500 
 36 H        3.8060    -0.6440    -0.0560 H     1 <1>   0.4500 
 37 H       -3.4850    -1.0190    -1.8000 H     1 <1>   0.1500 
 38 H       -2.3430     2.0920    -3.4430 H     1 <1>   0.0800 
 39 H       -4.0100     1.5780    -3.3350 H     1 <1>   0.0800 
 40 H       -2.7570     0.4190    -3.7110 H     1 <1>   0.0800 
 41 H        6.0000    -0.8560     1.0430 H     1 <1>   0.0800 
 42 H        6.3580     0.7380     0.4260 H     1 <1>   0.0800 
 43 H        6.0100    -0.0750    -1.8830 H     1 <1>   0.0800 
 44 H        5.5230    -1.6410    -1.2700 H     1 <1>   0.0800 
 45 H        8.2690    -0.3970    -0.9240 H     1 <1>   0.0800 
 46 H        7.8570    -1.6760    -2.0350 H     1 <1>   0.0800 
 47 H        7.7860    -1.9670    -0.3180 H     1 <1>   0.0800 
@<TRIPOS>BOND
  1   1   2  2   
  2   2   3  am  
  3   2   4  1   
  4   3   5  1   
  5   3  21  1   
  6   4   6  1   
  7   4  22  1   
  8   4  23  1   
  9   5   7  1   
 10   5   8  1   
 11   5  24  1   
 12   6   9  ar  
 13   6  10  ar  
 14   7  11  1   
 15   7  25  1   
 16   7  26  1   
 17   8  12  1   
 18   8  27  1   
 19   8  28  1   
 20   9  13  ar  
 21   9  29  1   
 22  10  14  ar  
 23  10  30  1   
 24  11  15  1   
 25  11  31  1   
 26  11  32  1   
 27  12  15  1   
 28  12  33  1   
 29  12  34  1   
 30  13  16  ar  
 31  13  17  1   
 32  14  16  ar  
 33  14  35  1   
 34  15  18  1   
 35  15  36  1   
 36  16  37  1   
 37  17  38  1   
 38  17  39  1   
 39  17  40  1   
 40  18  19  1   
 41  18  41  1   
 42  18  42  1   
 43  19  20  1   
 44  19  43  1   
 45  19  44  1   
 46  20  45  1   
 47  20  46  1   
 48  20  47  1   
@<TRIPOS>SUBSTRUCTURE
  1 ****   3 GROUP 4 **** **** 0

# MOE 2024.06 (io_trps.svl 2023.06)
