@<TRIPOS>MOLECULE
NONAME
45 47 1 0 0 
SMALL
USER_CHARGES


@<TRIPOS>ATOM
  1 O       -0.4880    -0.3290     1.0010 O.3   1 <1>  -0.3630 
  2 C       -1.6160    -0.8350     0.4370 C.ar  1 <1>   0.0830 
  3 C        0.1820    -0.9850     2.0550 C.3   1 <1>   0.0400 
  4 C       -2.1450    -0.1610    -0.6570 C.ar  1 <1>  -0.1440 
  5 C       -2.2470    -1.9840     0.9050 C.ar  1 <1>  -0.1500 
  6 C       -3.2960    -0.6370    -1.2590 C.ar  1 <1>  -0.1500 
  7 C       -1.4620     1.0890    -1.1960 C.3   1 <1>  -0.0960 
  8 C       -3.3990    -2.4630     0.3010 C.ar  1 <1>  -0.1430 
  9 C       -3.9340    -1.7730    -0.7840 C.ar  1 <1>  -0.1430 
 10 C       -4.0260    -3.7370     0.8580 C.3   1 <1>  -0.0970 
 11 C       -5.2140    -2.2150    -1.4670 C.3   1 <1>   0.4860 
 12 N       -6.3600    -1.8460    -0.5970 N.4   1 <1>  -0.9590 
 13 C       -7.6450    -2.4090    -1.0830 C.3   1 <1>   0.4860 
 14 C       -6.4790    -0.3730    -0.3800 C.3   1 <1>   0.3430 
 15 C       -8.7650    -2.0630    -0.1160 C.ar  1 <1>  -0.1430 
 16 C       -7.4320    -0.0950     0.7840 C.3   1 <1>  -0.0170 
 17 C       -8.6740    -0.9760     0.7480 C.ar  1 <1>  -0.1430 
 18 C       -9.9080    -2.8500    -0.1060 C.ar  1 <1>  -0.1500 
 19 C       -9.7230    -0.6900     1.6070 C.ar  1 <1>  -0.1500 
 20 C      -10.9510    -2.5590     0.7540 C.ar  1 <1>  -0.1500 
 21 C      -10.8590    -1.4780     1.6100 C.ar  1 <1>  -0.1500 
 22 H        1.0580    -0.4110     2.3000 H     1 <1>   0.0800 
 23 H        0.4710    -1.9680     1.7270 H     1 <1>   0.0800 
 24 H       -0.4710    -1.0360     2.9080 H     1 <1>   0.0800 
 25 H       -1.8420    -2.5140     1.7450 H     1 <1>   0.1500 
 26 H       -3.6900    -0.1070    -2.1090 H     1 <1>   0.1500 
 27 H       -0.4560     0.8530    -1.4940 H     1 <1>   0.0800 
 28 H       -1.4210     1.8420    -0.4290 H     1 <1>   0.0800 
 29 H       -1.9840     1.4910    -2.0450 H     1 <1>   0.0800 
 30 H       -3.3160    -4.2700     1.4670 H     1 <1>   0.0800 
 31 H       -4.3260    -4.3990     0.0670 H     1 <1>   0.0800 
 32 H       -4.8750    -3.5010     1.4740 H     1 <1>   0.0800 
 33 H       -5.1870    -3.2810    -1.6200 H     1 <1>   0.0800 
 34 H       -5.3020    -1.7340    -2.4270 H     1 <1>   0.0800 
 35 H       -6.1780    -2.2550     0.3270 H     1 <1>   0.4500 
 36 H       -7.5700    -3.4810    -1.1670 H     1 <1>   0.0800 
 37 H       -7.8830    -2.0060    -2.0540 H     1 <1>   0.0800 
 38 H       -6.8600     0.0950    -1.2740 H     1 <1>   0.0800 
 39 H       -5.5170     0.0570    -0.1530 H     1 <1>   0.0800 
 40 H       -7.7200     0.9420     0.7580 H     1 <1>   0.0800 
 41 H       -6.9110    -0.2610     1.7110 H     1 <1>   0.0800 
 42 H      -10.0060    -3.6960    -0.7650 H     1 <1>   0.1500 
 43 H       -9.6660     0.1480     2.2820 H     1 <1>   0.1500 
 44 H      -11.8380    -3.1710     0.7580 H     1 <1>   0.1500 
 45 H      -11.6720    -1.2510     2.2790 H     1 <1>   0.1500 
@<TRIPOS>BOND
  1   1   2  1   
  2   1   3  1   
  3   2   4  ar  
  4   2   5  ar  
  5   3  22  1   
  6   3  23  1   
  7   3  24  1   
  8   4   6  ar  
  9   4   7  1   
 10   5   8  ar  
 11   5  25  1   
 12   6   9  ar  
 13   6  26  1   
 14   7  27  1   
 15   7  28  1   
 16   7  29  1   
 17   8   9  ar  
 18   8  10  1   
 19   9  11  1   
 20  10  30  1   
 21  10  31  1   
 22  10  32  1   
 23  11  12  1   
 24  11  33  1   
 25  11  34  1   
 26  12  13  1   
 27  12  14  1   
 28  12  35  1   
 29  13  15  1   
 30  13  36  1   
 31  13  37  1   
 32  14  16  1   
 33  14  38  1   
 34  14  39  1   
 35  15  17  ar  
 36  15  18  ar  
 37  16  17  1   
 38  16  40  1   
 39  16  41  1   
 40  17  19  ar  
 41  18  20  ar  
 42  18  42  1   
 43  19  21  ar  
 44  19  43  1   
 45  20  21  ar  
 46  20  44  1   
 47  21  45  1   
@<TRIPOS>SUBSTRUCTURE
  1 ****  12 GROUP 4 **** **** 0

# MOE 2024.06 (io_trps.svl 2023.06)
