@<TRIPOS>MOLECULE
NONAME
36 36 1 0 0 
SMALL
USER_CHARGES


@<TRIPOS>ATOM
  1 F       -1.6810     2.9620    -0.5610 F     1 <1>  -0.3400 
  2 C       -1.0650     1.8090    -0.3140 C.3   1 <1>   1.0200 
  3 F       -0.8240     1.8020     0.9960 F     1 <1>  -0.3400 
  4 F        0.1320     1.9140    -0.8840 F     1 <1>  -0.3400 
  5 C       -1.8820     0.5360    -0.7870 C.3   1 <1>   0.4240 
  6 O       -1.8880     0.4230    -2.1900 O.3   1 <1>  -0.6800 
  7 C       -3.3550     0.6140    -0.3010 C.ar  1 <1>  -0.1440 
  8 C       -1.2770    -0.7920    -0.2700 C.3   1 <1>  -0.0990 
  9 C       -4.4280     0.6950    -1.1870 C.ar  1 <1>  -0.1500 
 10 C       -3.6450     0.6070     1.0620 C.ar  1 <1>  -0.1500 
 11 C        0.1440    -1.0700    -0.7440 C.2   1 <1>   0.4480 
 12 C       -5.7330     0.7590    -0.7310 C.ar  1 <1>  -0.1500 
 13 C       -4.9490     0.6720     1.5210 C.ar  1 <1>  -0.1500 
 14 O        0.4370    -0.8390    -1.8810 O.2   1 <1>  -0.5700 
 15 C        1.1600    -1.6660     0.2630 C.3   1 <1>   0.0610 
 16 C       -5.9960     0.7460     0.6240 C.ar  1 <1>  -0.1500 
 17 C        1.4830    -0.6550     1.3790 C.3   1 <1>  -0.2400 
 18 C        0.6160    -2.9610     0.8960 C.3   1 <1>  -0.2400 
 19 C        2.4870    -2.0170    -0.4420 C.3   1 <1>  -0.2400 
 20 H       -0.9980     0.0990    -2.4810 H     1 <1>   0.4000 
 21 H       -1.9040    -1.6040    -0.5920 H     1 <1>   0.0800 
 22 H       -1.2990    -0.7910     0.8010 H     1 <1>   0.0800 
 23 H       -4.2700     0.7100    -2.2520 H     1 <1>   0.1500 
 24 H       -2.8640     0.5550     1.8010 H     1 <1>   0.1500 
 25 H       -6.5440     0.8190    -1.4360 H     1 <1>   0.1500 
 26 H       -5.1500     0.6660     2.5780 H     1 <1>   0.1500 
 27 H       -7.0110     0.7970     0.9790 H     1 <1>   0.1500 
 28 H        0.6190    -0.4340     1.9780 H     1 <1>   0.0800 
 29 H        1.8470     0.2650     0.9540 H     1 <1>   0.0800 
 30 H        2.2440    -1.0450     2.0320 H     1 <1>   0.0800 
 31 H       -0.2670    -2.7750     1.4810 H     1 <1>   0.0800 
 32 H        1.3530    -3.4030     1.5430 H     1 <1>   0.0800 
 33 H        0.3720    -3.6750     0.1280 H     1 <1>   0.0800 
 34 H        2.9230    -1.1370    -0.8810 H     1 <1>   0.0800 
 35 H        2.3150    -2.7310    -1.2290 H     1 <1>   0.0800 
 36 H        3.1950    -2.4380     0.2500 H     1 <1>   0.0800 
@<TRIPOS>BOND
  1   1   2  1   
  2   2   3  1   
  3   2   4  1   
  4   2   5  1   
  5   5   6  1   
  6   5   7  1   
  7   5   8  1   
  8   6  20  1   
  9   7   9  ar  
 10   7  10  ar  
 11   8  11  1   
 12   8  21  1   
 13   8  22  1   
 14   9  12  ar  
 15   9  23  1   
 16  10  13  ar  
 17  10  24  1   
 18  11  14  2   
 19  11  15  1   
 20  12  16  ar  
 21  12  25  1   
 22  13  16  ar  
 23  13  26  1   
 24  15  17  1   
 25  15  18  1   
 26  15  19  1   
 27  16  27  1   
 28  17  28  1   
 29  17  29  1   
 30  17  30  1   
 31  18  31  1   
 32  18  32  1   
 33  18  33  1   
 34  19  34  1   
 35  19  35  1   
 36  19  36  1   
@<TRIPOS>SUBSTRUCTURE
  1 ****   5 GROUP 4 **** **** 0

# MOE 2024.06 (io_trps.svl 2023.06)
