@<TRIPOS>MOLECULE
NONAME
40 41 1 0 0 
SMALL
USER_CHARGES


@<TRIPOS>ATOM
  1 O       -0.0070     0.3270     1.0260 O.2   1 <1>  -0.5700 
  2 C        0.0090     1.1780     0.1600 C.2   1 <1>   0.6900 
  3 N        1.1640     1.6830    -0.3570 N.am  1 <1>  -0.5470 
  4 N       -1.1640     1.6580    -0.3250 N.am  1 <1>  -0.7300 
  5 C        2.5010     1.3050    -0.1620 C.ar  1 <1>   0.1170 
  6 C       -2.4730     1.2240     0.1810 C.3   1 <1>   0.2200 
  7 C        2.8780     0.0330     0.2560 C.ar  1 <1>  -0.1500 
  8 C        3.5020     2.2360    -0.4150 C.ar  1 <1>  -0.1500 
  9 C       -2.9190    -0.0270    -0.5720 C.3   1 <1>  -0.1600 
 10 C       -3.4940     2.3460     0.0200 C.3   1 <1>  -0.1600 
 11 C        4.2110    -0.2960     0.4190 C.ar  1 <1>  -0.1500 
 12 C        4.8370     1.9090    -0.2540 C.ar  1 <1>  -0.1500 
 13 C       -4.2960    -0.4690    -0.0910 C.3   1 <1>   0.3430 
 14 C       -4.8690     1.8760     0.4900 C.3   1 <1>   0.3430 
 15 C        5.2000     0.6390     0.1630 C.ar  1 <1>  -0.1430 
 16 N       -5.2750     0.6480    -0.2610 N.4   1 <1>  -0.9590 
 17 C        6.6630     0.2770     0.3450 C.3   1 <1>  -0.0970 
 18 C       -6.6460     0.2110     0.1440 C.3   1 <1>   0.2630 
 19 H        1.0440     2.5400    -0.8840 H     1 <1>   0.3700 
 20 H       -1.1510     2.2070    -1.1820 H     1 <1>   0.3700 
 21 H       -2.3770     0.9870     1.2300 H     1 <1>   0.0800 
 22 H        2.1300    -0.7120     0.4550 H     1 <1>   0.1500 
 23 H        3.2410     3.2260    -0.7370 H     1 <1>   0.1500 
 24 H       -2.2170    -0.8210    -0.3830 H     1 <1>   0.0800 
 25 H       -2.9430     0.1530    -1.6320 H     1 <1>   0.0800 
 26 H       -3.5530     2.6630    -1.0060 H     1 <1>   0.0800 
 27 H       -3.1920     3.1880     0.6190 H     1 <1>   0.0800 
 28 H        4.4750    -1.2860     0.7470 H     1 <1>   0.1500 
 29 H        5.5930     2.6480    -0.4530 H     1 <1>   0.1500 
 30 H       -4.2380    -0.7500     0.9500 H     1 <1>   0.0800 
 31 H       -4.6140    -1.3310    -0.6550 H     1 <1>   0.0800 
 32 H       -5.5910     2.6620     0.3320 H     1 <1>   0.0800 
 33 H       -4.8320     1.6600     1.5460 H     1 <1>   0.0800 
 34 H       -5.2960     0.8880    -1.2630 H     1 <1>   0.4500 
 35 H        6.8210    -0.7640     0.1260 H     1 <1>   0.0800 
 36 H        6.9600     0.4680     1.3600 H     1 <1>   0.0800 
 37 H        7.2800     0.8600    -0.3150 H     1 <1>   0.0800 
 38 H       -6.6630    -0.0520     1.1890 H     1 <1>   0.0800 
 39 H       -6.9510    -0.6480    -0.4320 H     1 <1>   0.0800 
 40 H       -7.3580     1.0040    -0.0240 H     1 <1>   0.0800 
@<TRIPOS>BOND
  1   1   2  2   
  2   2   3  am  
  3   2   4  am  
  4   3   5  1   
  5   3  19  1   
  6   4   6  1   
  7   4  20  1   
  8   5   7  ar  
  9   5   8  ar  
 10   6   9  1   
 11   6  10  1   
 12   6  21  1   
 13   7  11  ar  
 14   7  22  1   
 15   8  12  ar  
 16   8  23  1   
 17   9  13  1   
 18   9  24  1   
 19   9  25  1   
 20  10  14  1   
 21  10  26  1   
 22  10  27  1   
 23  11  15  ar  
 24  11  28  1   
 25  12  15  ar  
 26  12  29  1   
 27  13  16  1   
 28  13  30  1   
 29  13  31  1   
 30  14  16  1   
 31  14  32  1   
 32  14  33  1   
 33  15  17  1   
 34  16  18  1   
 35  16  34  1   
 36  17  35  1   
 37  17  36  1   
 38  17  37  1   
 39  18  38  1   
 40  18  39  1   
 41  18  40  1   
@<TRIPOS>SUBSTRUCTURE
  1 ****   2 GROUP 4 **** **** 0

# MOE 2024.06 (io_trps.svl 2023.06)
