@<TRIPOS>MOLECULE
NONAME
40 41 1 0 0 
SMALL
USER_CHARGES


@<TRIPOS>ATOM
  1 F       -0.7980     0.2900    -1.1090 F     1 <1>  -0.1900 
  2 C       -1.8050    -0.4130    -0.6670 C.ar  1 <1>   0.1900 
  3 C       -2.4290    -1.2980    -1.5250 C.ar  1 <1>  -0.1500 
  4 C       -2.2090    -0.2490     0.6430 C.ar  1 <1>  -0.1500 
  5 C       -3.4980    -2.0400    -1.0530 C.ar  1 <1>  -0.1500 
  6 C       -3.2800    -0.9950     1.1070 C.ar  1 <1>  -0.1500 
  7 C       -3.9310    -1.8870     0.2610 C.ar  1 <1>  -0.1430 
  8 C       -5.1120    -2.6930     0.7730 C.3   1 <1>   0.4870 
  9 N       -6.3640    -2.1450     0.1820 N.4   1 <1>  -0.9590 
 10 C       -6.6140    -0.7390     0.6190 C.3   1 <1>   0.3430 
 11 C       -7.5270    -3.0350     0.4520 C.3   1 <1>   0.3430 
 12 C       -7.8190    -0.1780    -0.1340 C.3   1 <1>  -0.1600 
 13 C       -8.7500    -2.5220    -0.3060 C.3   1 <1>  -0.1600 
 14 C       -9.0730    -1.0560     0.0400 C.3   1 <1>  -0.0190 
 15 C      -10.2260    -0.5350    -0.8140 C.2   1 <1>   0.6590 
 16 O      -10.1470    -0.5060    -2.0140 O.2   1 <1>  -0.5700 
 17 O      -11.2980    -0.1250    -0.1550 O.3   1 <1>  -0.4300 
 18 C      -12.4280     0.3780    -0.8310 C.3   1 <1>   0.1200 
 19 C      -13.4740     0.7580     0.2120 C.3   1 <1>  -0.2400 
 20 H       -2.0760    -1.3990    -2.5370 H     1 <1>   0.1500 
 21 H       -1.6890     0.4470     1.2790 H     1 <1>   0.1500 
 22 H       -3.9780    -2.7350    -1.7210 H     1 <1>   0.1500 
 23 H       -3.5900    -0.8700     2.1320 H     1 <1>   0.1500 
 24 H       -5.1530    -2.6450     1.8490 H     1 <1>   0.0800 
 25 H       -4.9850    -3.7240     0.4830 H     1 <1>   0.0800 
 26 H       -6.2160    -2.1110    -0.8350 H     1 <1>   0.4500 
 27 H       -5.7510    -0.1260     0.4110 H     1 <1>   0.0800 
 28 H       -6.8030    -0.7110     1.6800 H     1 <1>   0.0800 
 29 H       -7.7390    -3.0510     1.5100 H     1 <1>   0.0800 
 30 H       -7.3070    -4.0420     0.1340 H     1 <1>   0.0800 
 31 H       -7.5720    -0.0900    -1.1790 H     1 <1>   0.0800 
 32 H       -8.0270     0.8150     0.2270 H     1 <1>   0.0800 
 33 H       -9.5980    -3.1390    -0.0640 H     1 <1>   0.0800 
 34 H       -8.5760    -2.6210    -1.3640 H     1 <1>   0.0800 
 35 H       -9.3830    -1.0080     1.0700 H     1 <1>   0.0800 
 36 H      -12.8010    -0.3870    -1.4910 H     1 <1>   0.0800 
 37 H      -12.1280     1.2370    -1.4080 H     1 <1>   0.0800 
 38 H      -13.7590    -0.1050     0.7860 H     1 <1>   0.0800 
 39 H      -14.3490     1.1460    -0.2770 H     1 <1>   0.0800 
 40 H      -13.0860     1.5170     0.8690 H     1 <1>   0.0800 
@<TRIPOS>BOND
  1   1   2  1   
  2   2   3  ar  
  3   2   4  ar  
  4   3   5  ar  
  5   3  20  1   
  6   4   6  ar  
  7   4  21  1   
  8   5   7  ar  
  9   5  22  1   
 10   6   7  ar  
 11   6  23  1   
 12   7   8  1   
 13   8   9  1   
 14   8  24  1   
 15   8  25  1   
 16   9  10  1   
 17   9  11  1   
 18   9  26  1   
 19  10  12  1   
 20  10  27  1   
 21  10  28  1   
 22  11  13  1   
 23  11  29  1   
 24  11  30  1   
 25  12  14  1   
 26  12  31  1   
 27  12  32  1   
 28  13  14  1   
 29  13  33  1   
 30  13  34  1   
 31  14  15  1   
 32  14  35  1   
 33  15  16  2   
 34  15  17  1   
 35  17  18  1   
 36  18  19  1   
 37  18  36  1   
 38  18  37  1   
 39  19  38  1   
 40  19  39  1   
 41  19  40  1   
@<TRIPOS>SUBSTRUCTURE
  1 ****  10 GROUP 4 **** **** 0

# MOE 2024.06 (io_trps.svl 2023.06)
