@<TRIPOS>MOLECULE
NONAME
45 45 1 0 0 
SMALL
USER_CHARGES


@<TRIPOS>ATOM
  1 N        0.0770     0.3410     0.0900 N.4   1 <1>  -0.9590 
  2 C       -1.1600    -0.4720     0.3930 C.3   1 <1>   0.3430 
  3 C        1.2700    -0.2720     0.7610 C.3   1 <1>   0.3430 
  4 C       -0.0580     1.7870     0.4920 C.3   1 <1>   0.2630 
  5 C       -2.4240    -0.0610    -0.4190 C.3   1 <1>   0.3430 
  6 C        2.5620     0.2330     0.1190 C.3   1 <1>  -0.1600 
  7 N       -3.6640    -0.8690    -0.1110 N.4   1 <1>  -0.9590 
  8 C        3.8110    -0.4000     0.7530 C.3   1 <1>   0.0630 
  9 C       -3.5560    -2.3160    -0.5040 C.3   1 <1>   0.2630 
 10 C       -4.8580    -0.2730    -0.8030 C.3   1 <1>   0.2630 
 11 C        5.0550     0.2820     0.1910 C.ar  1 <1>  -0.1430 
 12 C        3.8810    -1.9190     0.5360 C.3   1 <1>  -0.2400 
 13 C        5.8450     1.0660     1.0210 C.ar  1 <1>  -0.1500 
 14 C        5.4140     0.1460    -1.1440 C.ar  1 <1>  -0.1500 
 15 C        6.9680     1.7050     0.5260 C.ar  1 <1>  -0.1500 
 16 C        6.5370     0.7850    -1.6400 C.ar  1 <1>  -0.1500 
 17 C        7.3150     1.5660    -0.8050 C.ar  1 <1>  -0.1500 
 18 H        0.2850     0.3080    -0.9230 H     1 <1>   0.4500 
 19 H       -1.3810    -0.3860     1.4450 H     1 <1>   0.0800 
 20 H       -0.9480    -1.5080     0.1830 H     1 <1>   0.0800 
 21 H        1.2340    -1.3450     0.6560 H     1 <1>   0.0800 
 22 H        1.2690    -0.0390     1.8150 H     1 <1>   0.0800 
 23 H       -0.2090     1.8710     1.5560 H     1 <1>   0.0800 
 24 H       -0.8880     2.2510    -0.0150 H     1 <1>   0.0800 
 25 H        0.8350     2.3350     0.2340 H     1 <1>   0.0800 
 26 H       -2.2050    -0.1520    -1.4700 H     1 <1>   0.0800 
 27 H       -2.6340     0.9760    -0.2130 H     1 <1>   0.0800 
 28 H        2.6460     1.2980     0.2440 H     1 <1>   0.0800 
 29 H        2.5580     0.0140    -0.9340 H     1 <1>   0.0800 
 30 H       -3.8740    -0.8300     0.9030 H     1 <1>   0.4500 
 31 H        3.7860    -0.2240     1.8160 H     1 <1>   0.0800 
 32 H       -3.3710    -2.4080    -1.5630 H     1 <1>   0.0800 
 33 H       -4.4750    -2.8340    -0.2770 H     1 <1>   0.0800 
 34 H       -2.7570    -2.8020     0.0310 H     1 <1>   0.0800 
 35 H       -4.7270    -0.2980    -1.8740 H     1 <1>   0.0800 
 36 H       -5.0020     0.7520    -0.4980 H     1 <1>   0.0800 
 37 H       -5.7500    -0.8270    -0.5570 H     1 <1>   0.0800 
 38 H        3.8150    -2.1680    -0.5080 H     1 <1>   0.0800 
 39 H        3.0980    -2.4280     1.0680 H     1 <1>   0.0800 
 40 H        4.8220    -2.2880     0.9060 H     1 <1>   0.0800 
 41 H        5.5980     1.1880     2.0610 H     1 <1>   0.1500 
 42 H        4.8290    -0.4580    -1.8120 H     1 <1>   0.1500 
 43 H        7.5740     2.3110     1.1780 H     1 <1>   0.1500 
 44 H        6.8090     0.6730    -2.6750 H     1 <1>   0.1500 
 45 H        8.1890     2.0630    -1.1900 H     1 <1>   0.1500 
@<TRIPOS>BOND
  1   1   2  1   
  2   1   3  1   
  3   1   4  1   
  4   1  18  1   
  5   2   5  1   
  6   2  19  1   
  7   2  20  1   
  8   3   6  1   
  9   3  21  1   
 10   3  22  1   
 11   4  23  1   
 12   4  24  1   
 13   4  25  1   
 14   5   7  1   
 15   5  26  1   
 16   5  27  1   
 17   6   8  1   
 18   6  28  1   
 19   6  29  1   
 20   7   9  1   
 21   7  10  1   
 22   7  30  1   
 23   8  11  1   
 24   8  12  1   
 25   8  31  1   
 26   9  32  1   
 27   9  33  1   
 28   9  34  1   
 29  10  35  1   
 30  10  36  1   
 31  10  37  1   
 32  11  13  ar  
 33  11  14  ar  
 34  12  38  1   
 35  12  39  1   
 36  12  40  1   
 37  13  15  ar  
 38  13  41  1   
 39  14  16  ar  
 40  14  42  1   
 41  15  17  ar  
 42  15  43  1   
 43  16  17  ar  
 44  16  44  1   
 45  17  45  1   
@<TRIPOS>SUBSTRUCTURE
  1 ****   6 GROUP 4 **** **** 0

# MOE 2024.06 (io_trps.svl 2023.06)
