@<TRIPOS>MOLECULE
NONAME
49 51 1 0 0 
SMALL
USER_CHARGES


@<TRIPOS>ATOM
  1 F        1.2100    -0.0130    -2.0970 F     1 <1>  -0.1900 
  2 C        2.2700    -0.6160    -1.6380 C.ar  1 <1>   0.1900 
  3 C        2.3580    -0.8770    -0.2840 C.ar  1 <1>  -0.1500 
  4 C        3.2700    -0.9760    -2.5200 C.ar  1 <1>  -0.1500 
  5 C        3.4900    -1.5150     0.1950 C.ar  1 <1>  -0.1500 
  6 C        4.3940    -1.6130    -2.0230 C.ar  1 <1>  -0.1500 
  7 C        4.5330    -1.8880    -0.6600 C.ar  1 <1>   0.0860 
  8 C        5.7220    -2.5510    -0.1580 C.2   1 <1>   0.5440 
  9 O        6.1060    -3.5670    -0.7060 O.2   1 <1>  -0.5700 
 10 N        6.4400    -2.0590     0.9150 N.am  1 <1>  -0.6600 
 11 C        7.4760    -2.8810     1.5980 C.3   1 <1>   0.1400 
 12 C        6.4310    -0.6290     1.3230 C.3   1 <1>   0.1400 
 13 C        8.8590    -2.3030     1.2960 C.3   1 <1>  -0.1600 
 14 C        7.8010    -0.0130     1.0260 C.3   1 <1>  -0.1600 
 15 C        8.9440    -0.8130     1.6840 C.3   1 <1>  -0.0190 
 16 C       10.3070    -0.2120     1.3540 C.2   1 <1>   0.5690 
 17 O       10.9480     0.2960     2.2400 O.2   1 <1>  -0.5700 
 18 N       10.7530    -0.2620     0.0730 N.am  1 <1>  -0.7300 
 19 C       12.0370     0.2710    -0.4050 C.3   1 <1>   0.2200 
 20 C       11.7630     1.3370    -1.4700 C.3   1 <1>  -0.1600 
 21 C       12.8710    -0.8820    -0.9710 C.3   1 <1>  -0.1600 
 22 C       13.0720     1.8540    -2.0860 C.3   1 <1>  -0.1600 
 23 C       14.1810    -0.3700    -1.5860 C.3   1 <1>  -0.1600 
 24 C       13.9120     0.7010    -2.6530 C.3   1 <1>  -0.1600 
 25 H        1.5550    -0.5900     0.3710 H     1 <1>   0.1500 
 26 H        3.1660    -0.7630    -3.5690 H     1 <1>   0.1500 
 27 H        3.5730    -1.7360     1.2450 H     1 <1>   0.1500 
 28 H        5.1830    -1.9110    -2.6930 H     1 <1>   0.1500 
 29 H        7.4280    -3.9060     1.2690 H     1 <1>   0.0800 
 30 H        7.2930    -2.8670     2.6590 H     1 <1>   0.0800 
 31 H        6.2180    -0.5640     2.3770 H     1 <1>   0.0800 
 32 H        5.6750    -0.0780     0.7920 H     1 <1>   0.0800 
 33 H        9.0560    -2.4320     0.2470 H     1 <1>   0.0800 
 34 H        9.6030    -2.8590     1.8400 H     1 <1>   0.0800 
 35 H        7.8210     1.0000     1.3880 H     1 <1>   0.0800 
 36 H        7.9390     0.0190    -0.0400 H     1 <1>   0.0800 
 37 H        8.8200    -0.7450     2.7510 H     1 <1>   0.0800 
 38 H       10.1800    -0.7150    -0.6380 H     1 <1>   0.3700 
 39 H       12.5710     0.7230     0.4160 H     1 <1>   0.0800 
 40 H       11.2340     2.1590    -1.0210 H     1 <1>   0.0800 
 41 H       11.1510     0.9200    -2.2500 H     1 <1>   0.0800 
 42 H       12.3070    -1.3980    -1.7280 H     1 <1>   0.0800 
 43 H       13.0970    -1.5760    -0.1800 H     1 <1>   0.0800 
 44 H       13.6400     2.3700    -1.3310 H     1 <1>   0.0800 
 45 H       12.8500     2.5580    -2.8690 H     1 <1>   0.0800 
 46 H       14.7190    -1.1910    -2.0260 H     1 <1>   0.0800 
 47 H       14.7980     0.0500    -0.8090 H     1 <1>   0.0800 
 48 H       14.8480     1.0850    -3.0210 H     1 <1>   0.0800 
 49 H       13.3910     0.2540    -3.4820 H     1 <1>   0.0800 
@<TRIPOS>BOND
  1   1   2  1   
  2   2   3  ar  
  3   2   4  ar  
  4   3   5  ar  
  5   3  25  1   
  6   4   6  ar  
  7   4  26  1   
  8   5   7  ar  
  9   5  27  1   
 10   6   7  ar  
 11   6  28  1   
 12   7   8  1   
 13   8   9  2   
 14   8  10  am  
 15  10  11  1   
 16  10  12  1   
 17  11  13  1   
 18  11  29  1   
 19  11  30  1   
 20  12  14  1   
 21  12  31  1   
 22  12  32  1   
 23  13  15  1   
 24  13  33  1   
 25  13  34  1   
 26  14  15  1   
 27  14  35  1   
 28  14  36  1   
 29  15  16  1   
 30  15  37  1   
 31  16  17  2   
 32  16  18  am  
 33  18  19  1   
 34  18  38  1   
 35  19  20  1   
 36  19  21  1   
 37  19  39  1   
 38  20  22  1   
 39  20  40  1   
 40  20  41  1   
 41  21  23  1   
 42  21  42  1   
 43  21  43  1   
 44  22  24  1   
 45  22  44  1   
 46  22  45  1   
 47  23  24  1   
 48  23  46  1   
 49  23  47  1   
 50  24  48  1   
 51  24  49  1   
@<TRIPOS>SUBSTRUCTURE
  1 ****  14 GROUP 4 **** **** 0

# MOE 2024.06 (io_trps.svl 2023.06)
