@<TRIPOS>MOLECULE
NONAME
38 40 1 0 0 
SMALL
USER_CHARGES


@<TRIPOS>ATOM
  1 F       -1.5550     1.1690    -1.3290 F     1 <1>  -0.1900 
  2 C       -0.9610     2.1160    -0.6520 C.ar  1 <1>   0.1900 
  3 C       -1.5980     2.6300     0.4710 C.ar  1 <1>  -0.1440 
  4 C        0.2690     2.5710    -1.0990 C.ar  1 <1>  -0.1500 
  5 C       -0.9640     3.6470     1.1730 C.ar  1 <1>  -0.1500 
  6 C       -2.9440     2.0880     0.9090 C.3   1 <1>   0.4870 
  7 C        0.8950     3.5880    -0.3960 C.ar  1 <1>  -0.1500 
  8 C        0.2640     4.1050     0.7230 C.ar  1 <1>   0.1900 
  9 N       -3.9680     2.4410    -0.1090 N.4   1 <1>  -0.9590 
 10 F        0.8470     5.0660     1.3840 F     1 <1>  -0.1900 
 11 C       -4.1250     3.9430    -0.2490 C.3   1 <1>   0.3430 
 12 C       -5.2880     1.7600     0.1800 C.3   1 <1>   0.3430 
 13 C       -5.2420     4.3300    -1.2390 C.3   1 <1>   0.2090 
 14 C       -6.4070     2.1720    -0.8010 C.3   1 <1>   0.2090 
 15 N       -6.5120     3.6580    -0.8390 N.pl3 1 <1>  -0.8380 
 16 C       -7.3860     4.2810     0.0230 C.ar  1 <1>   0.7200 
 17 N       -8.6110     3.7750     0.0910 N.ar  1 <1>  -0.6200 
 18 N       -6.9050     5.2980     0.7350 N.ar  1 <1>  -0.6200 
 19 C       -9.4420     4.3820     0.9030 C.ar  1 <1>   0.1600 
 20 C       -7.7600     5.8870     1.5410 C.ar  1 <1>   0.1600 
 21 C       -9.0610     5.4630     1.6610 C.ar  1 <1>  -0.1500 
 22 H        0.7260     2.1400    -1.9730 H     1 <1>   0.1500 
 23 H       -1.3930     4.0910     2.0550 H     1 <1>   0.1500 
 24 H       -3.2150     2.5030     1.8660 H     1 <1>   0.0800 
 25 H       -2.8770     1.0170     1.0080 H     1 <1>   0.0800 
 26 H        1.8510     3.9750    -0.7040 H     1 <1>   0.1500 
 27 H       -3.6180     2.0840    -1.0100 H     1 <1>   0.4500 
 28 H       -3.1980     4.3820    -0.5780 H     1 <1>   0.0800 
 29 H       -4.3730     4.3720     0.7070 H     1 <1>   0.0800 
 30 H       -5.6150     2.0190     1.1740 H     1 <1>   0.0800 
 31 H       -5.1670     0.6900     0.1410 H     1 <1>   0.0800 
 32 H       -4.9740     4.0290    -2.2370 H     1 <1>   0.0800 
 33 H       -5.3690     5.4000    -1.2490 H     1 <1>   0.0800 
 34 H       -7.3380     1.7300    -0.4870 H     1 <1>   0.0800 
 35 H       -6.1930     1.8030    -1.7880 H     1 <1>   0.0800 
 36 H      -10.4510     4.0100     0.9670 H     1 <1>   0.1500 
 37 H       -7.4170     6.7280     2.1200 H     1 <1>   0.1500 
 38 H       -9.7520     5.9540     2.3200 H     1 <1>   0.1500 
@<TRIPOS>BOND
  1   1   2  1   
  2   2   3  ar  
  3   2   4  ar  
  4   3   5  ar  
  5   3   6  1   
  6   4   7  ar  
  7   4  22  1   
  8   5   8  ar  
  9   5  23  1   
 10   6   9  1   
 11   6  24  1   
 12   6  25  1   
 13   7   8  ar  
 14   7  26  1   
 15   8  10  1   
 16   9  11  1   
 17   9  12  1   
 18   9  27  1   
 19  11  13  1   
 20  11  28  1   
 21  11  29  1   
 22  12  14  1   
 23  12  30  1   
 24  12  31  1   
 25  13  15  1   
 26  13  32  1   
 27  13  33  1   
 28  14  15  1   
 29  14  34  1   
 30  14  35  1   
 31  15  16  1   
 32  16  17  ar  
 33  16  18  ar  
 34  17  19  ar  
 35  18  20  ar  
 36  19  21  ar  
 37  19  36  1   
 38  20  21  ar  
 39  20  37  1   
 40  21  38  1   
@<TRIPOS>SUBSTRUCTURE
  1 ****  11 GROUP 4 **** **** 0

# MOE 2024.06 (io_trps.svl 2023.06)
