@<TRIPOS>MOLECULE
NONAME
46 48 1 0 0 
SMALL
USER_CHARGES


@<TRIPOS>ATOM
  1 O        0.3380     0.6140    -0.4560 O.2   1 <1>  -0.5700 
  2 C        0.5080     1.7810    -0.2050 C.2   1 <1>   0.5690 
  3 N       -0.4460     2.7450    -0.0470 N.am  1 <1>  -0.4770 
  4 C        1.8890     2.3410    -0.0130 C.3   1 <1>  -0.0990 
  5 C       -1.8490     2.6160    -0.1060 C.ar  1 <1>   0.1170 
  6 C        0.1860     4.0470     0.2560 C.3   1 <1>   0.1400 
  7 C        1.6240     3.6930     0.6650 C.3   1 <1>  -0.0190 
  8 C       -2.6430     3.6520    -0.5910 C.ar  1 <1>  -0.1500 
  9 C       -2.4850     1.4580     0.3290 C.ar  1 <1>  -0.1500 
 10 C        2.6440     4.7730     0.3300 C.2   1 <1>   0.5690 
 11 C       -4.0210     3.5370    -0.6320 C.ar  1 <1>  -0.1500 
 12 C       -3.8630     1.3390     0.2880 C.ar  1 <1>  -0.1500 
 13 O        2.2480     5.8530    -0.0300 O.2   1 <1>  -0.5700 
 14 N        3.9680     4.4540     0.4660 N.am  1 <1>  -0.5470 
 15 C       -4.6400     2.3800    -0.1900 C.ar  1 <1>  -0.1430 
 16 C        5.1320     5.2080     0.2470 C.ar  1 <1>   0.1170 
 17 C       -6.1520     2.2500    -0.2360 C.3   1 <1>  -0.0970 
 18 C        6.3350     4.5330     0.0770 C.ar  1 <1>  -0.1500 
 19 C        5.1490     6.5970     0.2070 C.ar  1 <1>  -0.1500 
 20 C        7.5260     5.2100    -0.1320 C.ar  1 <1>  -0.1430 
 21 C        6.3310     7.2820    -0.0020 C.ar  1 <1>  -0.1500 
 22 C        7.5250     6.6000    -0.1720 C.ar  1 <1>  -0.1430 
 23 C        8.8110     4.4150    -0.3140 C.3   1 <1>  -0.0970 
 24 C        8.8040     7.3940    -0.4000 C.3   1 <1>  -0.0970 
 25 H        2.3410     2.4650    -0.9810 H     1 <1>   0.0800 
 26 H        2.4840     1.6870     0.5970 H     1 <1>   0.0800 
 27 H       -0.3350     4.5560     1.0480 H     1 <1>   0.0800 
 28 H        0.1730     4.6510    -0.6360 H     1 <1>   0.0800 
 29 H        1.6280     3.5540     1.7310 H     1 <1>   0.0800 
 30 H       -2.1870     4.5550    -0.9490 H     1 <1>   0.1500 
 31 H       -1.8990     0.6380     0.7040 H     1 <1>   0.1500 
 32 H       -4.6100     4.3520    -1.0140 H     1 <1>   0.1500 
 33 H       -4.3250     0.4300     0.6300 H     1 <1>   0.1500 
 34 H        4.1550     3.4930     0.7410 H     1 <1>   0.3700 
 35 H       -6.6160     3.2150    -0.1390 H     1 <1>   0.0800 
 36 H       -6.4990     1.6240     0.5660 H     1 <1>   0.0800 
 37 H       -6.4490     1.8130    -1.1720 H     1 <1>   0.0800 
 38 H        6.3380     3.4600     0.1050 H     1 <1>   0.1500 
 39 H        4.2420     7.1550     0.3420 H     1 <1>   0.1500 
 40 H        6.3110     8.3570    -0.0300 H     1 <1>   0.1500 
 41 H        8.6250     3.3570    -0.2590 H     1 <1>   0.0800 
 42 H        9.5160     4.6730     0.4550 H     1 <1>   0.0800 
 43 H        9.2450     4.6300    -1.2740 H     1 <1>   0.0800 
 44 H        9.2330     7.1350    -1.3510 H     1 <1>   0.0800 
 45 H        9.5140     7.1810     0.3780 H     1 <1>   0.0800 
 46 H        8.6070     8.4510    -0.3960 H     1 <1>   0.0800 
@<TRIPOS>BOND
  1   1   2  2   
  2   2   3  am  
  3   2   4  1   
  4   3   5  1   
  5   3   6  1   
  6   4   7  1   
  7   4  25  1   
  8   4  26  1   
  9   5   8  ar  
 10   5   9  ar  
 11   6   7  1   
 12   6  27  1   
 13   6  28  1   
 14   7  10  1   
 15   7  29  1   
 16   8  11  ar  
 17   8  30  1   
 18   9  12  ar  
 19   9  31  1   
 20  10  13  2   
 21  10  14  am  
 22  11  15  ar  
 23  11  32  1   
 24  12  15  ar  
 25  12  33  1   
 26  14  16  1   
 27  14  34  1   
 28  15  17  1   
 29  16  18  ar  
 30  16  19  ar  
 31  17  35  1   
 32  17  36  1   
 33  17  37  1   
 34  18  20  ar  
 35  18  38  1   
 36  19  21  ar  
 37  19  39  1   
 38  20  22  ar  
 39  20  23  1   
 40  21  22  ar  
 41  21  40  1   
 42  22  24  1   
 43  23  41  1   
 44  23  42  1   
 45  23  43  1   
 46  24  44  1   
 47  24  45  1   
 48  24  46  1   
@<TRIPOS>SUBSTRUCTURE
  1 ****   7 GROUP 4 **** **** 0

# MOE 2024.06 (io_trps.svl 2023.06)
