@<TRIPOS>MOLECULE
NONAME
41 42 1 0 0 
SMALL
USER_CHARGES


@<TRIPOS>ATOM
  1 CL      -0.3520     1.7070    -3.7980 Cl    1 <1>  -0.1770 
  2 C       -1.4250     1.9580    -2.4440 C.ar  1 <1>   0.1770 
  3 C       -1.6140     3.2370    -1.9620 C.ar  1 <1>  -0.1500 
  4 C       -2.0630     0.8720    -1.8780 C.ar  1 <1>  -0.1500 
  5 C       -2.4450     3.4580    -0.8710 C.ar  1 <1>   0.1990 
  6 C       -2.9120     1.0760    -0.8040 C.ar  1 <1>  -0.1500 
  7 N       -2.5830     4.7620    -0.3750 N.am  1 <1>  -0.6930 
  8 C       -3.1030     2.3570    -0.2990 C.ar  1 <1>   0.0830 
  9 S       -3.5060     5.9360    -1.2410 S.o2  1 <1>   1.3330 
 10 C       -1.8740     5.2010     0.8720 C.3   1 <1>   0.3370 
 11 O       -3.9490     2.5560     0.7470 O.3   1 <1>  -0.3630 
 12 O       -3.2300     7.2200    -0.6440 O.2   1 <1>  -0.6500 
 13 O       -3.2600     5.7220    -2.6460 O.2   1 <1>  -0.6500 
 14 C       -5.1740     5.4520    -0.8510 C.3   1 <1>  -0.1350 
 15 C       -0.7300     4.2440     1.2880 C.2   1 <1>   0.5690 
 16 C       -2.8840     5.4580     2.0050 C.3   1 <1>  -0.2400 
 17 C       -3.7470     1.7660     1.9010 C.3   1 <1>   0.0400 
 18 O       -0.8100     3.5950     2.3090 O.2   1 <1>  -0.5700 
 19 N        0.3590     4.1520     0.4710 N.am  1 <1>  -0.5790 
 20 C        1.4950     3.2410     0.6520 C.3   1 <1>   0.0490 
 21 C        2.8100     3.6320     0.0670 C.3   1 <1>  -0.2000 
 22 C        2.0100     2.5260    -0.5520 C.3   1 <1>  -0.2000 
 23 H       -1.1170     4.0620    -2.4370 H     1 <1>   0.1500 
 24 H       -1.9010    -0.1140    -2.2770 H     1 <1>   0.1500 
 25 H       -3.4270     0.2380    -0.3710 H     1 <1>   0.1500 
 26 H       -1.3970     6.1420     0.6580 H     1 <1>   0.0800 
 27 H       -5.3550     4.4500    -1.1890 H     1 <1>   0.0800 
 28 H       -5.8710     6.1100    -1.3300 H     1 <1>   0.0800 
 29 H       -5.3350     5.4880     0.2080 H     1 <1>   0.0800 
 30 H       -3.4180     4.5620     2.2500 H     1 <1>   0.0800 
 31 H       -3.5780     6.2320     1.7410 H     1 <1>   0.0800 
 32 H       -2.3550     5.7790     2.8840 H     1 <1>   0.0800 
 33 H       -4.3150     2.1960     2.7060 H     1 <1>   0.0800 
 34 H       -2.7000     1.7720     2.1530 H     1 <1>   0.0800 
 35 H       -4.0860     0.7640     1.7120 H     1 <1>   0.0800 
 36 H        0.3560     4.6600    -0.4140 H     1 <1>   0.3700 
 37 H        1.4800     2.7180     1.5960 H     1 <1>   0.1000 
 38 H        3.7090     3.3720     0.5990 H     1 <1>   0.1000 
 39 H        2.8930     4.5710    -0.4510 H     1 <1>   0.1000 
 40 H        1.5370     2.6930    -1.5040 H     1 <1>   0.1000 
 41 H        2.3640     1.5160    -0.4390 H     1 <1>   0.1000 
@<TRIPOS>BOND
  1   1   2  1   
  2   2   3  ar  
  3   2   4  ar  
  4   3   5  ar  
  5   3  23  1   
  6   4   6  ar  
  7   4  24  1   
  8   5   7  1   
  9   5   8  ar  
 10   6   8  ar  
 11   6  25  1   
 12   7   9  am  
 13   7  10  1   
 14   8  11  1   
 15   9  12  2   
 16   9  13  2   
 17   9  14  1   
 18  10  15  1   
 19  10  16  1   
 20  10  26  1   
 21  11  17  1   
 22  14  27  1   
 23  14  28  1   
 24  14  29  1   
 25  15  18  2   
 26  15  19  am  
 27  16  30  1   
 28  16  31  1   
 29  16  32  1   
 30  17  33  1   
 31  17  34  1   
 32  17  35  1   
 33  19  20  1   
 34  19  36  1   
 35  20  21  1   
 36  20  22  1   
 37  20  37  1   
 38  21  22  1   
 39  21  38  1   
 40  21  39  1   
 41  22  40  1   
 42  22  41  1   
@<TRIPOS>SUBSTRUCTURE
  1 ****   5 GROUP 4 **** **** 0

# MOE 2024.06 (io_trps.svl 2023.06)
