@<TRIPOS>MOLECULE
NONAME
48 49 1 0 0 
SMALL
USER_CHARGES


@<TRIPOS>ATOM
  1 S       -0.0240     0.2390     0.7060 S.o2  1 <1>   1.4470 
  2 O       -0.2700     0.1450     2.1300 O.2   1 <1>  -0.6500 
  3 O        0.2790    -0.9650    -0.0370 O.2   1 <1>  -0.6500 
  4 N       -1.4220     0.9160     0.0230 N.am  1 <1>  -0.8490 
  5 C        1.2530     1.4850     0.3730 C.ar  1 <1>  -0.0090 
  6 C       -1.9040     2.0690     0.7900 C.3   1 <1>   0.1960 
  7 C       -2.4710    -0.0920    -0.1510 C.3   1 <1>   0.1960 
  8 C        1.3900     2.0500    -0.8900 C.ar  1 <1>  -0.1500 
  9 C        2.1300     1.9040     1.3680 C.ar  1 <1>  -0.1500 
 10 C       -3.0690     2.7420     0.0600 C.3   1 <1>  -0.1600 
 11 C       -3.6660     0.5050    -0.9010 C.3   1 <1>  -0.1600 
 12 C        2.3590     3.0020    -1.1490 C.ar  1 <1>  -0.1500 
 13 C        3.1040     2.8560     1.1200 C.ar  1 <1>  -0.1500 
 14 C       -4.2180     1.7490    -0.1860 C.3   1 <1>  -0.0190 
 15 C        3.2230     3.4140    -0.1480 C.ar  1 <1>   0.0830 
 16 C       -5.3610     2.3880    -0.9730 C.2   1 <1>   0.5690 
 17 O        4.1430     4.3510    -0.4810 O.3   1 <1>  -0.3630 
 18 O       -5.1410     2.8830    -2.0510 O.2   1 <1>  -0.5700 
 19 N       -6.6060     2.3840    -0.4350 N.am  1 <1>  -0.7300 
 20 C        5.0870     4.8200     0.4530 C.3   1 <1>   0.1200 
 21 C       -7.7960     2.9430    -1.0890 C.3   1 <1>   0.2780 
 22 C        5.9720     5.8480    -0.2460 C.3   1 <1>  -0.2400 
 23 C       -8.9740     2.0820    -0.6860 C.2   1 <1>  -0.2880 
 24 C      -10.0150     2.4850     0.0500 C.2   1 <1>  -0.3000 
 25 H       -1.1080     2.7870     0.9070 H     1 <1>   0.0800 
 26 H       -2.2200     1.7540     1.7720 H     1 <1>   0.0800 
 27 H       -2.7820    -0.4660     0.8120 H     1 <1>   0.0800 
 28 H       -2.0890    -0.9200    -0.7240 H     1 <1>   0.0800 
 29 H        0.7260     1.7380    -1.6800 H     1 <1>   0.1500 
 30 H        2.0470     1.4770     2.3540 H     1 <1>   0.1500 
 31 H       -2.7120     3.1300    -0.8790 H     1 <1>   0.0800 
 32 H       -3.4250     3.5720     0.6430 H     1 <1>   0.0800 
 33 H       -4.4390    -0.2370    -0.9890 H     1 <1>   0.0800 
 34 H       -3.3510     0.7690    -1.8960 H     1 <1>   0.0800 
 35 H        2.4530     3.4320    -2.1300 H     1 <1>   0.1500 
 36 H        3.7570     3.1470     1.9210 H     1 <1>   0.1500 
 37 H       -4.6000     1.4410     0.7710 H     1 <1>   0.0800 
 38 H       -6.7870     1.9710     0.4790 H     1 <1>   0.3700 
 39 H        5.6720     3.9840     0.7950 H     1 <1>   0.0800 
 40 H        4.5590     5.2700     1.2760 H     1 <1>   0.0800 
 41 H       -7.6760     2.9380    -2.1600 H     1 <1>   0.0800 
 42 H       -7.9400     3.9580    -0.7610 H     1 <1>   0.0800 
 43 H        6.4830     5.3930    -1.0760 H     1 <1>   0.0800 
 44 H        6.7060     6.2260     0.4430 H     1 <1>   0.0800 
 45 H        5.3760     6.6710    -0.5980 H     1 <1>   0.0800 
 46 H       -8.8870     1.0780    -1.0660 H     1 <1>   0.1500 
 47 H      -10.8420     1.8490     0.3190 H     1 <1>   0.1500 
 48 H      -10.1330     3.4800     0.4440 H     1 <1>   0.1500 
@<TRIPOS>BOND
  1   1   2  2   
  2   1   3  2   
  3   1   4  am  
  4   1   5  1   
  5   4   6  1   
  6   4   7  1   
  7   5   8  ar  
  8   5   9  ar  
  9   6  10  1   
 10   6  25  1   
 11   6  26  1   
 12   7  11  1   
 13   7  27  1   
 14   7  28  1   
 15   8  12  ar  
 16   8  29  1   
 17   9  13  ar  
 18   9  30  1   
 19  10  14  1   
 20  10  31  1   
 21  10  32  1   
 22  11  14  1   
 23  11  33  1   
 24  11  34  1   
 25  12  15  ar  
 26  12  35  1   
 27  13  15  ar  
 28  13  36  1   
 29  14  16  1   
 30  14  37  1   
 31  15  17  1   
 32  16  18  2   
 33  16  19  am  
 34  17  20  1   
 35  19  21  1   
 36  19  38  1   
 37  20  22  1   
 38  20  39  1   
 39  20  40  1   
 40  21  23  1   
 41  21  41  1   
 42  21  42  1   
 43  22  43  1   
 44  22  44  1   
 45  22  45  1   
 46  23  24  2   
 47  23  46  1   
 48  24  47  1   
 49  24  48  1   
@<TRIPOS>SUBSTRUCTURE
  1 ****   6 GROUP 4 **** **** 0

# MOE 2024.06 (io_trps.svl 2023.06)
