@<TRIPOS>MOLECULE
NONAME
49 50 1 0 0 
SMALL
USER_CHARGES


@<TRIPOS>ATOM
  1 O       -0.4740     1.0340    -2.3410 O.2   1 <1>  -0.5700 
  2 C       -0.7850     1.6260    -1.3360 C.2   1 <1>   0.5690 
  3 N       -1.7250     1.1730    -0.4450 N.am  1 <1>  -0.5470 
  4 C       -0.0800     2.9530    -1.0230 C.3   1 <1>   0.1710 
  5 C       -2.4350    -0.0370    -0.3820 C.ar  1 <1>   0.1170 
  6 N        1.3130     2.8070    -0.5040 N.3   1 <1>  -0.8100 
  7 C       -3.5570    -0.1050     0.4350 C.ar  1 <1>  -0.1500 
  8 C       -2.0610    -1.1810    -1.0760 C.ar  1 <1>  -0.1500 
  9 C        2.0070     4.1010    -0.3250 C.3   1 <1>   0.1100 
 10 C        1.4250     1.9580     0.7080 C.3   1 <1>   0.1100 
 11 C       -4.2930    -1.2720     0.5660 C.ar  1 <1>  -0.1430 
 12 C       -2.7880    -2.3500    -0.9550 C.ar  1 <1>  -0.1500 
 13 C        3.4900     3.9110     0.0870 C.3   1 <1>   0.3430 
 14 C        2.8970     1.7680     1.1530 C.3   1 <1>   0.3430 
 15 C       -3.9050    -2.4080    -0.1360 C.ar  1 <1>  -0.1440 
 16 C       -5.5130    -1.2840     1.4750 C.3   1 <1>  -0.0970 
 17 N        3.8400     2.4560     0.2070 N.4   1 <1>  -0.9590 
 18 C       -4.6770    -3.7160    -0.0300 C.3   1 <1>  -0.0970 
 19 C        5.2820     2.2260     0.4790 C.3   1 <1>   0.3430 
 20 C        5.6510     0.7650     0.2100 C.3   1 <1>  -0.1600 
 21 C        7.1600     0.5440     0.3630 C.3   1 <1>  -0.2400 
 22 H       -1.9880     1.8310     0.2830 H     1 <1>   0.3700 
 23 H       -0.6710     3.5100    -0.3190 H     1 <1>   0.0800 
 24 H       -0.0480     3.5160    -1.9400 H     1 <1>   0.0800 
 25 H       -3.8620     0.7700     0.9750 H     1 <1>   0.1500 
 26 H       -1.1990    -1.1730    -1.7170 H     1 <1>   0.1500 
 27 H        1.5020     4.6900     0.4220 H     1 <1>   0.0800 
 28 H        1.9750     4.6540    -1.2500 H     1 <1>   0.0800 
 29 H        1.0100     0.9840     0.5070 H     1 <1>   0.0800 
 30 H        0.8610     2.3910     1.5170 H     1 <1>   0.0800 
 31 H       -2.4740    -3.2180    -1.5070 H     1 <1>   0.1500 
 32 H        3.6640     4.4110     1.0250 H     1 <1>   0.0800 
 33 H        4.1180     4.3770    -0.6550 H     1 <1>   0.0800 
 34 H        3.1110     0.7130     1.1870 H     1 <1>   0.0800 
 35 H        3.0220     2.1610     2.1480 H     1 <1>   0.0800 
 36 H       -5.6710    -0.3210     1.9260 H     1 <1>   0.0800 
 37 H       -5.3810    -2.0060     2.2600 H     1 <1>   0.0800 
 38 H       -6.3910    -1.5380     0.9090 H     1 <1>   0.0800 
 39 H        3.5880     2.0660    -0.7170 H     1 <1>   0.4500 
 40 H       -4.6890    -4.0560     0.9890 H     1 <1>   0.0800 
 41 H       -4.2240    -4.4810    -0.6350 H     1 <1>   0.0800 
 42 H       -5.6870    -3.5750    -0.3680 H     1 <1>   0.0800 
 43 H        5.5140     2.4820     1.5000 H     1 <1>   0.0800 
 44 H        5.8740     2.8540    -0.1680 H     1 <1>   0.0800 
 45 H        5.3650     0.4970    -0.7920 H     1 <1>   0.0800 
 46 H        5.1420     0.1170     0.9020 H     1 <1>   0.0800 
 47 H        7.7100     1.1530    -0.3340 H     1 <1>   0.0800 
 48 H        7.4010    -0.4880     0.1690 H     1 <1>   0.0800 
 49 H        7.4840     0.7810     1.3620 H     1 <1>   0.0800 
@<TRIPOS>BOND
  1   1   2  2   
  2   2   3  am  
  3   2   4  1   
  4   3   5  1   
  5   3  22  1   
  6   4   6  1   
  7   4  23  1   
  8   4  24  1   
  9   5   7  ar  
 10   5   8  ar  
 11   6   9  1   
 12   6  10  1   
 13   7  11  ar  
 14   7  25  1   
 15   8  12  ar  
 16   8  26  1   
 17   9  13  1   
 18   9  27  1   
 19   9  28  1   
 20  10  14  1   
 21  10  29  1   
 22  10  30  1   
 23  11  15  ar  
 24  11  16  1   
 25  12  15  ar  
 26  12  31  1   
 27  13  17  1   
 28  13  32  1   
 29  13  33  1   
 30  14  17  1   
 31  14  34  1   
 32  14  35  1   
 33  15  18  1   
 34  16  36  1   
 35  16  37  1   
 36  16  38  1   
 37  17  19  1   
 38  17  39  1   
 39  18  40  1   
 40  18  41  1   
 41  18  42  1   
 42  19  20  1   
 43  19  43  1   
 44  19  44  1   
 45  20  21  1   
 46  20  45  1   
 47  20  46  1   
 48  21  47  1   
 49  21  48  1   
 50  21  49  1   
@<TRIPOS>SUBSTRUCTURE
  1 ****   2 GROUP 4 **** **** 0

# MOE 2024.06 (io_trps.svl 2023.06)
