@<TRIPOS>MOLECULE
NONAME
40 40 1 0 0 
SMALL
USER_CHARGES


@<TRIPOS>ATOM
  1 O       -6.1010     3.3460    -0.0280 O.3   1 <1>  -0.3630 
  2 C       -6.6060     4.6070    -0.1130 C.ar  1 <1>   0.0830 
  3 C       -4.7140     3.1200     0.1180 C.3   1 <1>   0.1200 
  4 C       -7.9480     4.7370    -0.4630 C.ar  1 <1>  -0.1440 
  5 C       -5.8480     5.7460     0.1430 C.ar  1 <1>  -0.1500 
  6 C       -4.4710     1.6110     0.0730 C.3   1 <1>  -0.1600 
  7 C       -8.5200     5.9970    -0.5500 C.ar  1 <1>  -0.1500 
  8 C       -8.7750     3.5050    -0.7530 C.3   1 <1>   0.4870 
  9 C       -6.4280     6.9980     0.0530 C.ar  1 <1>  -0.1500 
 10 C       -2.9820     1.2870     0.2230 C.3   1 <1>  -0.2400 
 11 C       -7.7610     7.1240    -0.2920 C.ar  1 <1>  -0.1500 
 12 N       -8.7870     2.6980     0.4830 N.4   1 <1>  -0.9060 
 13 C       -9.3630     1.3610     0.4280 C.3   1 <1>   0.5030 
 14 C       -9.2230     0.7770     1.8290 C.3   1 <1>  -0.2400 
 15 C       -8.5820     0.5070    -0.5700 C.3   1 <1>  -0.2400 
 16 C      -10.8380     1.4530     0.0420 C.3   1 <1>  -0.2400 
 17 H       -4.3960     3.5270     1.0620 H     1 <1>   0.0800 
 18 H       -4.2000     3.6120    -0.6910 H     1 <1>   0.0800 
 19 H       -4.8110     5.6860     0.4160 H     1 <1>   0.1500 
 20 H       -4.8190     1.2210    -0.8680 H     1 <1>   0.0800 
 21 H       -5.0140     1.1350     0.8710 H     1 <1>   0.0800 
 22 H       -9.5550     6.1220    -0.8220 H     1 <1>   0.1500 
 23 H       -8.3170     2.9560    -1.5580 H     1 <1>   0.0800 
 24 H       -9.7770     3.7810    -1.0380 H     1 <1>   0.0800 
 25 H       -5.8410     7.8800     0.2520 H     1 <1>   0.1500 
 26 H       -2.4140     1.7360    -0.5730 H     1 <1>   0.0800 
 27 H       -2.8310     0.2220     0.1870 H     1 <1>   0.0800 
 28 H       -2.6060     1.6510     1.1640 H     1 <1>   0.0800 
 29 H       -8.2050     8.1040    -0.3610 H     1 <1>   0.1500 
 30 H       -9.2250     3.2420     1.2280 H     1 <1>   0.4500 
 31 H       -7.7920     2.6170     0.7370 H     1 <1>   0.4500 
 32 H       -8.1900     0.7150     2.1220 H     1 <1>   0.0800 
 33 H       -9.6300    -0.2190     1.8540 H     1 <1>   0.0800 
 34 H       -9.7600     1.3670     2.5510 H     1 <1>   0.0800 
 35 H       -8.9370    -0.5080    -0.5340 H     1 <1>   0.0800 
 36 H       -8.7130     0.8530    -1.5790 H     1 <1>   0.0800 
 37 H       -7.5330     0.4970    -0.3320 H     1 <1>   0.0800 
 38 H      -10.9630     1.8160    -0.9620 H     1 <1>   0.0800 
 39 H      -11.3770     2.0880     0.7220 H     1 <1>   0.0800 
 40 H      -11.2840     0.4740     0.0850 H     1 <1>   0.0800 
@<TRIPOS>BOND
  1   1   2  1   
  2   1   3  1   
  3   2   4  ar  
  4   2   5  ar  
  5   3   6  1   
  6   3  17  1   
  7   3  18  1   
  8   4   7  ar  
  9   4   8  1   
 10   5   9  ar  
 11   5  19  1   
 12   6  10  1   
 13   6  20  1   
 14   6  21  1   
 15   7  11  ar  
 16   7  22  1   
 17   8  12  1   
 18   8  23  1   
 19   8  24  1   
 20   9  11  ar  
 21   9  25  1   
 22  10  26  1   
 23  10  27  1   
 24  10  28  1   
 25  11  29  1   
 26  12  13  1   
 27  12  30  1   
 28  12  31  1   
 29  13  14  1   
 30  13  15  1   
 31  13  16  1   
 32  14  32  1   
 33  14  33  1   
 34  14  34  1   
 35  15  35  1   
 36  15  36  1   
 37  15  37  1   
 38  16  38  1   
 39  16  39  1   
 40  16  40  1   
@<TRIPOS>SUBSTRUCTURE
  1 ****   1 GROUP 4 **** **** 0

# MOE 2024.06 (io_trps.svl 2023.06)
