@<TRIPOS>MOLECULE
NONAME
37 38 1 0 0 
SMALL
USER_CHARGES


@<TRIPOS>ATOM
  1 S       -0.4660    -0.7880     0.0090 S.o2  1 <1>   1.3330 
  2 O       -1.2470    -1.6220     0.8850 O.2   1 <1>  -0.6500 
  3 O        0.5640    -1.3330    -0.8370 O.2   1 <1>  -0.6500 
  4 N       -1.5330    -0.0130    -1.0890 N.am  1 <1>  -0.7570 
  5 C        0.2070     0.5900     0.9120 C.3   1 <1>  -0.1350 
  6 C       -2.7950     0.5210    -0.8890 C.ar  1 <1>   0.1990 
  7 C       -3.4740     1.0600    -1.9760 C.ar  1 <1>  -0.1500 
  8 C       -3.4240     0.5580     0.3530 C.ar  1 <1>  -0.1500 
  9 C       -4.7330     1.6100    -1.8300 C.ar  1 <1>  -0.1500 
 10 C       -4.6830     1.1090     0.4960 C.ar  1 <1>  -0.1500 
 11 C       -5.3750     1.6420    -0.5930 C.ar  1 <1>   0.0860 
 12 C       -6.6970     2.2160    -0.4510 C.2   1 <1>   0.5440 
 13 O       -6.9020     3.3320    -0.8940 O.2   1 <1>  -0.5700 
 14 N       -7.7310     1.5380     0.1670 N.am  1 <1>  -0.6600 
 15 C       -7.7540     0.0600     0.3570 C.3   1 <1>   0.1400 
 16 C       -8.9990     2.2250     0.5440 C.3   1 <1>   0.1400 
 17 C       -8.9190    -0.5470    -0.4330 C.3   1 <1>  -0.1600 
 18 C      -10.1670     1.6350    -0.2520 C.3   1 <1>  -0.1600 
 19 C      -10.2580     0.1130    -0.0750 C.3   1 <1>  -0.1600 
 20 H       -1.1960    -0.1410    -2.0380 H     1 <1>   0.4200 
 21 H        0.9320     0.2440     1.6220 H     1 <1>   0.0800 
 22 H       -0.5710     1.1060     1.4390 H     1 <1>   0.0800 
 23 H        0.6840     1.2760     0.2410 H     1 <1>   0.0800 
 24 H       -3.0110     1.0510    -2.9460 H     1 <1>   0.1500 
 25 H       -2.9390     0.1510     1.2200 H     1 <1>   0.1500 
 26 H       -5.2420     2.0300    -2.6820 H     1 <1>   0.1500 
 27 H       -5.1480     1.1330     1.4660 H     1 <1>   0.1500 
 28 H       -7.8720    -0.1560     1.4050 H     1 <1>   0.0800 
 29 H       -6.8360    -0.3880     0.0220 H     1 <1>   0.0800 
 30 H       -8.9310     3.2830     0.3570 H     1 <1>   0.0800 
 31 H       -9.1680     2.0870     1.5980 H     1 <1>   0.0800 
 32 H       -8.9730    -1.6020    -0.2330 H     1 <1>   0.0800 
 33 H       -8.7260    -0.4220    -1.4840 H     1 <1>   0.0800 
 34 H      -10.0280     1.8750    -1.2920 H     1 <1>   0.0800 
 35 H      -11.0840     2.0940     0.0700 H     1 <1>   0.0800 
 36 H      -10.5080    -0.1130     0.9480 H     1 <1>   0.0800 
 37 H      -11.0390    -0.2800    -0.7040 H     1 <1>   0.0800 
@<TRIPOS>BOND
  1   1   2  2   
  2   1   3  2   
  3   1   4  am  
  4   1   5  1   
  5   4   6  1   
  6   4  20  1   
  7   5  21  1   
  8   5  22  1   
  9   5  23  1   
 10   6   7  ar  
 11   6   8  ar  
 12   7   9  ar  
 13   7  24  1   
 14   8  10  ar  
 15   8  25  1   
 16   9  11  ar  
 17   9  26  1   
 18  10  11  ar  
 19  10  27  1   
 20  11  12  1   
 21  12  13  2   
 22  12  14  am  
 23  14  15  1   
 24  14  16  1   
 25  15  17  1   
 26  15  28  1   
 27  15  29  1   
 28  16  18  1   
 29  16  30  1   
 30  16  31  1   
 31  17  19  1   
 32  17  32  1   
 33  17  33  1   
 34  18  19  1   
 35  18  34  1   
 36  18  35  1   
 37  19  36  1   
 38  19  37  1   
@<TRIPOS>SUBSTRUCTURE
  1 ****  10 GROUP 4 **** **** 0

# MOE 2024.06 (io_trps.svl 2023.06)
