@<TRIPOS>MOLECULE
NONAME
50 51 1 0 0 
SMALL
USER_CHARGES


@<TRIPOS>ATOM
  1 S        0.6910     0.8620     1.0420 S.o2  1 <1>   1.3330 
  2 O        0.2100    -0.3610     0.4510 O.2   1 <1>  -0.6500 
  3 O        1.9550     0.8840     1.7410 O.2   1 <1>  -0.6500 
  4 N        0.8200     2.0360    -0.2160 N.am  1 <1>  -0.6930 
  5 C       -0.5620     1.5540     2.0990 C.3   1 <1>  -0.1350 
  6 C       -0.2400     2.2600    -1.0960 C.ar  1 <1>   0.1990 
  7 C        1.9090     3.0580    -0.1300 C.3   1 <1>   0.2570 
  8 C       -1.1550     3.3070    -0.9080 C.ar  1 <1>   0.0830 
  9 C       -0.3940     1.4200    -2.1890 C.ar  1 <1>  -0.1500 
 10 C        3.2350     2.5990    -0.7420 C.2   1 <1>   0.5690 
 11 O       -0.9880     4.1070     0.1910 O.3   1 <1>  -0.3630 
 12 C       -2.1890     3.4920    -1.8200 C.ar  1 <1>  -0.1500 
 13 C       -1.4250     1.6080    -3.0910 C.ar  1 <1>  -0.1500 
 14 O        3.6660     3.1980    -1.6980 O.2   1 <1>  -0.5700 
 15 N        3.8940     1.5440    -0.1730 N.am  1 <1>  -0.5470 
 16 C       -1.7850     5.2510     0.3920 C.3   1 <1>   0.1200 
 17 C       -2.3210     2.6450    -2.9080 C.ar  1 <1>  -0.1500 
 18 C        5.0430     0.8880    -0.6280 C.ar  1 <1>   0.1170 
 19 C       -1.2970     5.9440     1.6600 C.3   1 <1>  -0.2400 
 20 C        6.3230     1.4390    -0.5260 C.ar  1 <1>  -0.1430 
 21 C        4.8920    -0.3790    -1.1780 C.ar  1 <1>  -0.1500 
 22 C        7.4140     0.7130    -0.9820 C.ar  1 <1>  -0.1500 
 23 C        6.5710     2.8150     0.0850 C.3   1 <1>  -0.0170 
 24 C        5.9840    -1.0940    -1.6300 C.ar  1 <1>  -0.1500 
 25 C        7.2500    -0.5460    -1.5320 C.ar  1 <1>  -0.1500 
 26 C        6.6150     2.7320     1.6130 C.3   1 <1>  -0.2400 
 27 H       -0.7140     0.9240     2.9520 H     1 <1>   0.0800 
 28 H       -1.4890     1.6390     1.5650 H     1 <1>   0.0800 
 29 H       -0.2680     2.5290     2.4340 H     1 <1>   0.0800 
 30 H        2.0740     3.3270     0.8970 H     1 <1>   0.0800 
 31 H        1.5990     3.9470    -0.6510 H     1 <1>   0.0800 
 32 H        0.3030     0.6120    -2.3270 H     1 <1>   0.1500 
 33 H       -2.9060     4.2830    -1.7080 H     1 <1>   0.1500 
 34 H       -1.5280     0.9460    -3.9350 H     1 <1>   0.1500 
 35 H        3.4010     1.0810     0.6030 H     1 <1>   0.3700 
 36 H       -2.8100     4.9410     0.4990 H     1 <1>   0.0800 
 37 H       -1.6760     5.8990    -0.4610 H     1 <1>   0.0800 
 38 H       -3.1230     2.7910    -3.6120 H     1 <1>   0.1500 
 39 H       -1.3980     5.2860     2.5050 H     1 <1>   0.0800 
 40 H       -1.8860     6.8250     1.8420 H     1 <1>   0.0800 
 41 H       -0.2690     6.2370     1.5510 H     1 <1>   0.0800 
 42 H        3.9070    -0.8030    -1.2540 H     1 <1>   0.1500 
 43 H        8.4050     1.1260    -0.9090 H     1 <1>   0.1500 
 44 H        5.8060     3.5030    -0.2220 H     1 <1>   0.0800 
 45 H        7.5050     3.2080    -0.2750 H     1 <1>   0.0800 
 46 H        5.8500    -2.0720    -2.0560 H     1 <1>   0.1500 
 47 H        8.1040    -1.0970    -1.8830 H     1 <1>   0.1500 
 48 H        5.6770     2.3670     1.9920 H     1 <1>   0.0800 
 49 H        6.8030     3.7040     2.0310 H     1 <1>   0.0800 
 50 H        7.3960     2.0610     1.9240 H     1 <1>   0.0800 
@<TRIPOS>BOND
  1   1   2  2   
  2   1   3  2   
  3   1   4  am  
  4   1   5  1   
  5   4   6  1   
  6   4   7  1   
  7   5  27  1   
  8   5  28  1   
  9   5  29  1   
 10   6   8  ar  
 11   6   9  ar  
 12   7  10  1   
 13   7  30  1   
 14   7  31  1   
 15   8  11  1   
 16   8  12  ar  
 17   9  13  ar  
 18   9  32  1   
 19  10  14  2   
 20  10  15  am  
 21  11  16  1   
 22  12  17  ar  
 23  12  33  1   
 24  13  17  ar  
 25  13  34  1   
 26  15  18  1   
 27  15  35  1   
 28  16  19  1   
 29  16  36  1   
 30  16  37  1   
 31  17  38  1   
 32  18  20  ar  
 33  18  21  ar  
 34  19  39  1   
 35  19  40  1   
 36  19  41  1   
 37  20  22  ar  
 38  20  23  1   
 39  21  24  ar  
 40  21  42  1   
 41  22  25  ar  
 42  22  43  1   
 43  23  26  1   
 44  23  44  1   
 45  23  45  1   
 46  24  25  ar  
 47  24  46  1   
 48  25  47  1   
 49  26  48  1   
 50  26  49  1   
 51  26  50  1   
@<TRIPOS>SUBSTRUCTURE
  1 ****   7 GROUP 4 **** **** 0

# MOE 2024.06 (io_trps.svl 2023.06)
