@<TRIPOS>MOLECULE
NONAME
33 33 1 0 0 
SMALL
USER_CHARGES


@<TRIPOS>ATOM
  1 S        0.2830     0.7600    -0.2760 S.3   1 <1>  -0.4780 
  2 P       -1.2960     1.4450     0.8220 P.3   1 <1>   1.4900 
  3 C        1.2070    -0.1780     0.9590 C.3   1 <1>   0.2140 
  4 O       -0.8930     2.0890     2.0730 O.2   1 <1>  -0.7000 
  5 O       -2.2310     0.1500     1.0010 O.3   1 <1>  -0.5510 
  6 O       -2.1190     2.3890    -0.1810 O.3   1 <1>  -0.5510 
  7 C        2.3370    -0.9120     0.2580 C.ar  1 <1>  -0.1430 
  8 C       -2.7290    -0.5320    -0.0970 C.3   1 <1>   0.1200 
  9 C       -3.2110     3.0860     0.2990 C.3   1 <1>   0.1200 
 10 C        3.4510    -0.2160    -0.1860 C.ar  1 <1>  -0.1500 
 11 C        2.2670    -2.2830     0.0590 C.ar  1 <1>  -0.1500 
 12 C       -3.6080    -1.6640     0.4230 C.3   1 <1>  -0.2400 
 13 C       -3.8180     3.8580    -0.8660 C.3   1 <1>  -0.2400 
 14 C        4.4860    -0.8830    -0.8180 C.ar  1 <1>  -0.1500 
 15 C        3.3020    -2.9510    -0.5730 C.ar  1 <1>  -0.1500 
 16 C        4.4120    -2.2510    -1.0110 C.ar  1 <1>  -0.1500 
 17 H        0.5210    -0.8600     1.4290 H     1 <1>   0.0800 
 18 H        1.5810     0.5240     1.6850 H     1 <1>   0.0800 
 19 H       -1.9080    -0.9250    -0.6720 H     1 <1>   0.0800 
 20 H       -3.3050     0.1480    -0.7020 H     1 <1>   0.0800 
 21 H       -2.8780     3.7570     1.0740 H     1 <1>   0.0800 
 22 H       -3.9210     2.3840     0.7060 H     1 <1>   0.0800 
 23 H        3.5120     0.8490    -0.0450 H     1 <1>   0.1500 
 24 H        1.4070    -2.8370     0.3930 H     1 <1>   0.1500 
 25 H       -3.0280    -2.3340     1.0330 H     1 <1>   0.0800 
 26 H       -4.0130    -2.2190    -0.4040 H     1 <1>   0.0800 
 27 H       -4.4230    -1.2670     1.0010 H     1 <1>   0.0800 
 28 H       -3.0970     4.5470    -1.2680 H     1 <1>   0.0800 
 29 H       -4.6720     4.4160    -0.5270 H     1 <1>   0.0800 
 30 H       -4.1360     3.1790    -1.6370 H     1 <1>   0.0800 
 31 H        5.3470    -0.3370    -1.1610 H     1 <1>   0.1500 
 32 H        3.2420    -4.0140    -0.7250 H     1 <1>   0.1500 
 33 H        5.2170    -2.7700    -1.5030 H     1 <1>   0.1500 
@<TRIPOS>BOND
  1   1   2  1   
  2   1   3  1   
  3   2   4  2   
  4   2   5  1   
  5   2   6  1   
  6   3   7  1   
  7   3  17  1   
  8   3  18  1   
  9   5   8  1   
 10   6   9  1   
 11   7  10  ar  
 12   7  11  ar  
 13   8  12  1   
 14   8  19  1   
 15   8  20  1   
 16   9  13  1   
 17   9  21  1   
 18   9  22  1   
 19  10  14  ar  
 20  10  23  1   
 21  11  15  ar  
 22  11  24  1   
 23  12  25  1   
 24  12  26  1   
 25  12  27  1   
 26  13  28  1   
 27  13  29  1   
 28  13  30  1   
 29  14  16  ar  
 30  14  31  1   
 31  15  16  ar  
 32  15  32  1   
 33  16  33  1   
@<TRIPOS>SUBSTRUCTURE
  1 ****   1 GROUP 4 **** **** 0

# MOE 2024.06 (io_trps.svl 2023.06)
