@<TRIPOS>MOLECULE
NONAME
35 35 1 0 0 
SMALL
USER_CHARGES


@<TRIPOS>ATOM
  1 CL      -0.3760    -0.8600    -0.0660 Cl    1 <1>  -0.1770 
  2 C       -1.5350     0.4580    -0.0090 C.ar  1 <1>   0.1770 
  3 C       -1.1870     1.8170     0.0290 C.ar  1 <1>   0.0820 
  4 C       -2.8630     0.0690    -0.0040 C.ar  1 <1>  -0.1500 
  5 O        0.0630     2.3620     0.0300 O.3   1 <1>  -0.3630 
  6 C       -2.2130     2.7510     0.0720 C.ar  1 <1>  -0.1500 
  7 C       -3.8690     1.0180     0.0400 C.ar  1 <1>  -0.1500 
  8 C        1.2500     1.6160    -0.0100 C.3   1 <1>   0.1200 
  9 C       -3.5410     2.3610     0.0780 C.ar  1 <1>  -0.1500 
 10 C        2.4180     2.6030     0.0060 C.3   1 <1>  -0.1600 
 11 C        3.7690     1.8750    -0.0360 C.3   1 <1>  -0.1600 
 12 C        4.9180     2.8790    -0.0190 C.3   1 <1>   0.3430 
 13 N        6.2040     2.1430    -0.0600 N.4   1 <1>  -0.9060 
 14 C        7.3720     3.0740    -0.0460 C.3   1 <1>   0.3430 
 15 C        8.7060     2.3190    -0.0870 C.3   1 <1>   0.1200 
 16 O        9.7140     3.2630    -0.0710 O.3   1 <1>  -0.6800 
 17 H       -3.1090    -0.9780    -0.0330 H     1 <1>   0.1500 
 18 H       -1.9630     3.7970     0.1020 H     1 <1>   0.1500 
 19 H       -4.9020     0.7130     0.0440 H     1 <1>   0.1500 
 20 H        1.2540     1.0340    -0.9160 H     1 <1>   0.0800 
 21 H        1.2780     0.9780     0.8570 H     1 <1>   0.0800 
 22 H       -4.3190     3.1050     0.1120 H     1 <1>   0.1500 
 23 H        2.3490     3.1980     0.9010 H     1 <1>   0.0800 
 24 H        2.3260     3.2530    -0.8480 H     1 <1>   0.0800 
 25 H        3.8150     1.2800    -0.9320 H     1 <1>   0.0800 
 26 H        3.8390     1.2250     0.8200 H     1 <1>   0.0800 
 27 H        4.8620     3.4790     0.8760 H     1 <1>   0.0800 
 28 H        4.8380     3.5340    -0.8730 H     1 <1>   0.0800 
 29 H        6.2320     1.5620    -0.9070 H     1 <1>   0.4500 
 30 H        6.2540     1.5100     0.7480 H     1 <1>   0.4500 
 31 H        7.3470     3.6760     0.8490 H     1 <1>   0.0800 
 32 H        7.3230     3.7310    -0.8990 H     1 <1>   0.0800 
 33 H        8.8030     1.7450    -0.9930 H     1 <1>   0.0800 
 34 H        8.8270     1.6880     0.7770 H     1 <1>   0.0800 
 35 H       10.6050     2.8510    -0.0960 H     1 <1>   0.4000 
@<TRIPOS>BOND
  1   1   2  1   
  2   2   3  ar  
  3   2   4  ar  
  4   3   5  1   
  5   3   6  ar  
  6   4   7  ar  
  7   4  17  1   
  8   5   8  1   
  9   6   9  ar  
 10   6  18  1   
 11   7   9  ar  
 12   7  19  1   
 13   8  10  1   
 14   8  20  1   
 15   8  21  1   
 16   9  22  1   
 17  10  11  1   
 18  10  23  1   
 19  10  24  1   
 20  11  12  1   
 21  11  25  1   
 22  11  26  1   
 23  12  13  1   
 24  12  27  1   
 25  12  28  1   
 26  13  14  1   
 27  13  29  1   
 28  13  30  1   
 29  14  15  1   
 30  14  31  1   
 31  14  32  1   
 32  15  16  1   
 33  15  33  1   
 34  15  34  1   
 35  16  35  1   
@<TRIPOS>SUBSTRUCTURE
  1 ****   8 GROUP 4 **** **** 0

# MOE 2024.06 (io_trps.svl 2023.06)
