@<TRIPOS>MOLECULE
NONAME
48 49 1 0 0 
SMALL
USER_CHARGES


@<TRIPOS>ATOM
  1 BR      -1.0420     0.0120    -1.6580 Br    1 <1>  -0.1110 
  2 C       -1.9390    -1.5600    -0.9870 C.ar  1 <1>   0.1110 
  3 C       -2.3000    -1.6340     0.3500 C.ar  1 <1>  -0.1440 
  4 C       -2.1930    -2.5790    -1.8840 C.ar  1 <1>  -0.1500 
  5 C       -2.9430    -2.7820     0.7830 C.ar  1 <1>  -0.1500 
  6 C       -2.0020    -0.4990     1.3180 C.3   1 <1>  -0.0960 
  7 C       -2.8370    -3.7240    -1.4430 C.ar  1 <1>  -0.1430 
  8 C       -3.2190    -3.8230    -0.1060 C.ar  1 <1>   0.0830 
  9 C       -3.1190    -4.8570    -2.4200 C.3   1 <1>  -0.0960 
 10 O       -3.8610    -4.9590     0.2740 O.3   1 <1>  -0.3630 
 11 C       -4.5050    -5.0610     1.5350 C.3   1 <1>   0.1810 
 12 C       -5.3680    -6.3170     1.6210 C.2   1 <1>   0.5690 
 13 O       -5.0710    -7.1240     2.4730 O.2   1 <1>  -0.5700 
 14 N       -6.4550    -6.5080     0.7950 N.am  1 <1>  -0.6600 
 15 C       -7.3030    -7.7270     0.9110 C.3   1 <1>   0.1400 
 16 C       -6.8660    -5.5790    -0.2950 C.3   1 <1>   0.1400 
 17 C       -8.7600    -7.3150     1.1400 C.3   1 <1>  -0.1600 
 18 C       -8.3190    -5.1490    -0.0800 C.3   1 <1>  -0.1600 
 19 C       -9.2630    -6.3610     0.0370 C.3   1 <1>  -0.0190 
 20 C      -10.7060    -5.9090     0.2540 C.2   1 <1>   0.6590 
 21 O      -11.2610    -5.9880     1.3200 O.2   1 <1>  -0.5700 
 22 O      -11.3110    -5.4110    -0.8160 O.3   1 <1>  -0.4300 
 23 C      -12.6390    -4.9460    -0.7590 C.3   1 <1>   0.1200 
 24 C      -13.0200    -4.4310    -2.1430 C.3   1 <1>  -0.2400 
 25 H       -1.8880    -2.4710    -2.9090 H     1 <1>   0.1500 
 26 H       -3.2190    -2.8550     1.8170 H     1 <1>   0.1500 
 27 H       -0.9410    -0.3250     1.3640 H     1 <1>   0.0800 
 28 H       -2.3510    -0.7320     2.3080 H     1 <1>   0.0800 
 29 H       -2.4880     0.4020     0.9900 H     1 <1>   0.0800 
 30 H       -2.7360    -4.6310    -3.3980 H     1 <1>   0.0800 
 31 H       -4.1780    -5.0220    -2.4930 H     1 <1>   0.0800 
 32 H       -2.6520    -5.7610    -2.0700 H     1 <1>   0.0800 
 33 H       -5.1260    -4.1970     1.6770 H     1 <1>   0.0800 
 34 H       -3.7460    -5.0950     2.2950 H     1 <1>   0.0800 
 35 H       -6.9750    -8.3470     1.7280 H     1 <1>   0.0800 
 36 H       -7.2180    -8.3010     0.0050 H     1 <1>   0.0800 
 37 H       -6.7690    -6.0880    -1.2390 H     1 <1>   0.0800 
 38 H       -6.2430    -4.7050    -0.3270 H     1 <1>   0.0800 
 39 H       -8.8340    -6.8380     2.1020 H     1 <1>   0.0800 
 40 H       -9.3770    -8.1960     1.1660 H     1 <1>   0.0800 
 41 H       -8.6270    -4.5300    -0.9050 H     1 <1>   0.0800 
 42 H       -8.3790    -4.5550     0.8150 H     1 <1>   0.0800 
 43 H       -9.2420    -6.8960    -0.8960 H     1 <1>   0.0800 
 44 H      -12.6940    -4.1600    -0.0240 H     1 <1>   0.0800 
 45 H      -13.2740    -5.7640    -0.4610 H     1 <1>   0.0800 
 46 H      -12.3720    -3.6230    -2.4300 H     1 <1>   0.0800 
 47 H      -14.0320    -4.0690    -2.1280 H     1 <1>   0.0800 
 48 H      -12.9510    -5.2240    -2.8660 H     1 <1>   0.0800 
@<TRIPOS>BOND
  1   1   2  1   
  2   2   3  ar  
  3   2   4  ar  
  4   3   5  ar  
  5   3   6  1   
  6   4   7  ar  
  7   4  25  1   
  8   5   8  ar  
  9   5  26  1   
 10   6  27  1   
 11   6  28  1   
 12   6  29  1   
 13   7   8  ar  
 14   7   9  1   
 15   8  10  1   
 16   9  30  1   
 17   9  31  1   
 18   9  32  1   
 19  10  11  1   
 20  11  12  1   
 21  11  33  1   
 22  11  34  1   
 23  12  13  2   
 24  12  14  am  
 25  14  15  1   
 26  14  16  1   
 27  15  17  1   
 28  15  35  1   
 29  15  36  1   
 30  16  18  1   
 31  16  37  1   
 32  16  38  1   
 33  17  19  1   
 34  17  39  1   
 35  17  40  1   
 36  18  19  1   
 37  18  41  1   
 38  18  42  1   
 39  19  20  1   
 40  19  43  1   
 41  20  21  2   
 42  20  22  1   
 43  22  23  1   
 44  23  24  1   
 45  23  44  1   
 46  23  45  1   
 47  24  46  1   
 48  24  47  1   
 49  24  48  1   
@<TRIPOS>SUBSTRUCTURE
  1 ****  16 GROUP 4 **** **** 0

# MOE 2024.06 (io_trps.svl 2023.06)
