@<TRIPOS>MOLECULE
NONAME
48 50 1 0 0 
SMALL
USER_CHARGES


@<TRIPOS>ATOM
  1 S       -0.1960    -0.7430     1.2230 S.o2  1 <1>   1.4470 
  2 O        0.9910    -1.5160     1.5220 O.2   1 <1>  -0.6500 
  3 O       -0.3460     0.5660     1.8190 O.2   1 <1>  -0.6500 
  4 N       -0.2250    -0.5260    -0.4570 N.am  1 <1>  -0.8490 
  5 C       -1.6760    -1.7350     1.5760 C.ar  1 <1>  -0.0090 
  6 C        0.7180     0.5120    -0.8930 C.3   1 <1>   0.1960 
  7 C        0.0350    -1.7670    -1.2080 C.3   1 <1>   0.1960 
  8 C       -2.7550    -1.7610     0.7020 C.ar  1 <1>  -0.1500 
  9 C       -1.7690    -2.4900     2.7390 C.ar  1 <1>  -0.1500 
 10 C        0.6530     0.7100    -2.4190 C.3   1 <1>   0.1200 
 11 C       -0.0340    -1.5090    -2.7240 C.3   1 <1>   0.1200 
 12 C       -3.8750    -2.5470     0.9330 C.ar  1 <1>   0.1170 
 13 C       -2.8910    -3.2560     3.0070 C.ar  1 <1>  -0.1500 
 14 O        0.8690    -0.5010    -3.0880 O.3   1 <1>  -0.5600 
 15 N       -4.9300    -2.6110     0.0170 N.am  1 <1>  -0.5470 
 16 C       -3.9380    -3.2850     2.1060 C.ar  1 <1>  -0.1500 
 17 C       -4.9200    -2.5160    -1.3490 C.2   1 <1>   0.5690 
 18 O       -3.9120    -2.3600    -1.9960 O.2   1 <1>  -0.5700 
 19 C       -6.2420    -2.6270    -2.0910 C.3   1 <1>   0.0440 
 20 C       -7.4150    -2.9400    -1.1580 C.ar  1 <1>  -0.1430 
 21 C       -8.0920    -1.9440    -0.4580 C.ar  1 <1>  -0.1430 
 22 C       -7.7860    -4.2660    -0.9900 C.ar  1 <1>  -0.1500 
 23 C       -9.1250    -2.2960     0.3980 C.ar  1 <1>  -0.1500 
 24 C       -7.7360    -0.4690    -0.5990 C.3   1 <1>  -0.0970 
 25 C       -8.8170    -4.6070    -0.1350 C.ar  1 <1>  -0.1500 
 26 C       -9.4870    -3.6200     0.5610 C.ar  1 <1>  -0.1500 
 27 H        1.7230     0.2410    -0.6110 H     1 <1>   0.0800 
 28 H        0.4780     1.4450    -0.4110 H     1 <1>   0.0800 
 29 H       -0.6960    -2.5130    -0.9520 H     1 <1>   0.0800 
 30 H        1.0100    -2.1550    -0.9630 H     1 <1>   0.0800 
 31 H       -2.7220    -1.1580    -0.1880 H     1 <1>   0.1500 
 32 H       -0.9510    -2.4800     3.4410 H     1 <1>   0.1500 
 33 H        1.4110     1.4020    -2.7380 H     1 <1>   0.0800 
 34 H       -0.3110     1.0940    -2.7060 H     1 <1>   0.0800 
 35 H       -1.0280    -1.2080    -3.0090 H     1 <1>   0.0800 
 36 H        0.2280    -2.3990    -3.2660 H     1 <1>   0.0800 
 37 H       -2.9440    -3.8320     3.9160 H     1 <1>   0.1500 
 38 H       -5.8540    -2.8220     0.4080 H     1 <1>   0.3700 
 39 H       -4.8030    -3.8890     2.3110 H     1 <1>   0.1500 
 40 H       -6.1460    -3.4020    -2.8280 H     1 <1>   0.0800 
 41 H       -6.4160    -1.7110    -2.6230 H     1 <1>   0.0800 
 42 H       -7.2730    -5.0480    -1.5240 H     1 <1>   0.1500 
 43 H       -9.6600    -1.5390     0.9440 H     1 <1>   0.1500 
 44 H       -6.6920    -0.3090    -0.3980 H     1 <1>   0.0800 
 45 H       -8.3020     0.1320     0.0910 H     1 <1>   0.0800 
 46 H       -7.9580    -0.1310    -1.5950 H     1 <1>   0.0800 
 47 H       -9.0980    -5.6390    -0.0120 H     1 <1>   0.1500 
 48 H      -10.2910    -3.8810     1.2270 H     1 <1>   0.1500 
@<TRIPOS>BOND
  1   1   2  2   
  2   1   3  2   
  3   1   4  am  
  4   1   5  1   
  5   4   6  1   
  6   4   7  1   
  7   5   8  ar  
  8   5   9  ar  
  9   6  10  1   
 10   6  27  1   
 11   6  28  1   
 12   7  11  1   
 13   7  29  1   
 14   7  30  1   
 15   8  12  ar  
 16   8  31  1   
 17   9  13  ar  
 18   9  32  1   
 19  10  14  1   
 20  10  33  1   
 21  10  34  1   
 22  11  14  1   
 23  11  35  1   
 24  11  36  1   
 25  12  15  1   
 26  12  16  ar  
 27  13  16  ar  
 28  13  37  1   
 29  15  17  am  
 30  15  38  1   
 31  16  39  1   
 32  17  18  2   
 33  17  19  1   
 34  19  20  1   
 35  19  40  1   
 36  19  41  1   
 37  20  21  ar  
 38  20  22  ar  
 39  21  23  ar  
 40  21  24  1   
 41  22  25  ar  
 42  22  42  1   
 43  23  26  ar  
 44  23  43  1   
 45  24  44  1   
 46  24  45  1   
 47  24  46  1   
 48  25  26  ar  
 49  25  47  1   
 50  26  48  1   
@<TRIPOS>SUBSTRUCTURE
  1 ****   8 GROUP 4 **** **** 0

# MOE 2024.06 (io_trps.svl 2023.06)
