@<TRIPOS>MOLECULE
NONAME
53 56 1 0 0 
SMALL
USER_CHARGES


@<TRIPOS>ATOM
  1 F       -4.2520     3.6400     3.4350 F     1 <1>  -0.1900 
  2 C       -4.3520     2.8090     2.4340 C.ar  1 <1>   0.1900 
  3 C       -4.2770     1.4530     2.6830 C.ar  1 <1>  -0.1500 
  4 C       -4.5310     3.3170     1.1630 C.ar  1 <1>  -0.1500 
  5 C       -4.3950     0.5760     1.6190 C.ar  1 <1>  -0.1500 
  6 C       -4.6470     2.4320     0.1040 C.ar  1 <1>  -0.1500 
  7 C       -4.5900     1.0600     0.3280 C.ar  1 <1>  -0.1430 
  8 C       -4.7410     0.0850    -0.8300 C.3   1 <1>   0.4980 
  9 N       -6.0600    -0.6200    -0.7770 N.pl3 1 <1>  -0.7640 
 10 C       -6.2640    -1.8520    -1.4140 C.2   1 <1>   0.2770 
 11 C       -7.2150    -0.2970    -0.1900 C.cat 1 <1>   0.6560 
 12 C       -5.4530    -2.7240    -2.2150 C.2   1 <1>   0.7030 
 13 C       -7.5430    -2.2170    -1.1650 C.2   1 <1>   0.4260 
 14 N       -8.1110    -1.2510    -0.4100 N.pl3 1 <1>  -0.7000 
 15 C       -7.6150     0.9410     0.6360 C.3   1 <1>   0.2540 
 16 O       -4.3070    -2.4220    -2.5000 O.2   1 <1>  -0.5700 
 17 N       -6.0090    -3.9140    -2.6640 N.am  1 <1>  -0.4200 
 18 N       -8.1190    -3.3830    -1.6330 N.am  1 <1>  -0.4360 
 19 N       -9.0920     1.0150     0.8240 N.3   1 <1>  -0.8100 
 20 C       -7.3320    -4.2420    -2.3860 C.2   1 <1>   0.6900 
 21 C       -5.1930    -4.8600    -3.4890 C.3   1 <1>   0.0600 
 22 C       -9.5390    -3.7140    -1.3120 C.3   1 <1>   0.0600 
 23 C       -9.7540     1.6480    -0.3340 C.3   1 <1>   0.1100 
 24 C       -9.4350     1.7270     2.0680 C.3   1 <1>   0.1100 
 25 O       -7.7990    -5.2820    -2.8030 O.2   1 <1>  -0.5700 
 26 C      -11.2730     1.5520    -0.1780 C.3   1 <1>  -0.1600 
 27 C      -10.9440     1.6420     2.3130 C.3   1 <1>  -0.1600 
 28 C      -11.7370     2.2080     1.1280 C.3   1 <1>  -0.1600 
 29 H       -4.1260     1.1000     3.6890 H     1 <1>   0.1500 
 30 H       -4.5740     4.3820     1.0120 H     1 <1>   0.1500 
 31 H       -4.3320    -0.4840     1.8050 H     1 <1>   0.1500 
 32 H       -4.7800     2.8270    -0.8910 H     1 <1>   0.1500 
 33 H       -3.9420    -0.6350    -0.7700 H     1 <1>   0.0800 
 34 H       -4.6480     0.6000    -1.7710 H     1 <1>   0.0800 
 35 H       -9.0620    -1.1610    -0.0330 H     1 <1>   0.4500 
 36 H       -7.2620     1.8380     0.1610 H     1 <1>   0.0800 
 37 H       -7.1370     0.8570     1.5960 H     1 <1>   0.0800 
 38 H       -4.1390    -4.6760    -3.3670 H     1 <1>   0.0800 
 39 H       -5.4500    -4.7460    -4.5280 H     1 <1>   0.0800 
 40 H       -5.3920    -5.8760    -3.1930 H     1 <1>   0.0800 
 41 H      -10.1560    -2.8370    -1.4020 H     1 <1>   0.0800 
 42 H       -9.6050    -4.0970    -0.3090 H     1 <1>   0.0800 
 43 H       -9.9200    -4.4610    -1.9890 H     1 <1>   0.0800 
 44 H       -9.4650     1.1540    -1.2460 H     1 <1>   0.0800 
 45 H       -9.4640     2.6840    -0.4040 H     1 <1>   0.0800 
 46 H       -9.1320     2.7590     2.0020 H     1 <1>   0.0800 
 47 H       -8.9250     1.2750     2.9030 H     1 <1>   0.0800 
 48 H      -11.5660     0.5170    -0.1880 H     1 <1>   0.0800 
 49 H      -11.7510     2.0370    -1.0110 H     1 <1>   0.0800 
 50 H      -11.1930     2.1890     3.2050 H     1 <1>   0.0800 
 51 H      -11.2150     0.6130     2.4740 H     1 <1>   0.0800 
 52 H      -12.7900     2.0360     1.2740 H     1 <1>   0.0800 
 53 H      -11.5780     3.2710     1.0700 H     1 <1>   0.0800 
@<TRIPOS>BOND
  1   1   2  1   
  2   2   3  ar  
  3   2   4  ar  
  4   3   5  ar  
  5   3  29  1   
  6   4   6  ar  
  7   4  30  1   
  8   5   7  ar  
  9   5  31  1   
 10   6   7  ar  
 11   6  32  1   
 12   7   8  1   
 13   8   9  1   
 14   8  33  1   
 15   8  34  1   
 16   9  10  1   
 17   9  11  ar  
 18  10  12  1   
 19  10  13  2   
 20  11  14  ar  
 21  11  15  1   
 22  12  16  2   
 23  12  17  am  
 24  13  14  1   
 25  13  18  1   
 26  14  35  1   
 27  15  19  1   
 28  15  36  1   
 29  15  37  1   
 30  17  20  am  
 31  17  21  1   
 32  18  20  am  
 33  18  22  1   
 34  19  23  1   
 35  19  24  1   
 36  20  25  2   
 37  21  38  1   
 38  21  39  1   
 39  21  40  1   
 40  22  41  1   
 41  22  42  1   
 42  22  43  1   
 43  23  26  1   
 44  23  44  1   
 45  23  45  1   
 46  24  27  1   
 47  24  46  1   
 48  24  47  1   
 49  26  28  1   
 50  26  48  1   
 51  26  49  1   
 52  27  28  1   
 53  27  50  1   
 54  27  51  1   
 55  28  52  1   
 56  28  53  1   
@<TRIPOS>SUBSTRUCTURE
  1 ****  11 GROUP 4 **** **** 0

# MOE 2024.06 (io_trps.svl 2023.06)
