@<TRIPOS>MOLECULE
NONAME
54 56 1 0 0 
SMALL
USER_CHARGES


@<TRIPOS>ATOM
  1 O       -0.2920     0.1850    -1.0330 O.2   1 <1>  -0.5700 
  2 C       -0.2080    -0.9980    -0.7690 C.2   1 <1>   0.6340 
  3 O        1.0080    -1.5480    -0.6640 O.3   1 <1>  -0.4300 
  4 C       -1.3620    -1.8480    -0.5650 C.ar  1 <1>   0.0860 
  5 C        2.1860    -0.7880    -0.8470 C.3   1 <1>   0.0400 
  6 C       -2.6560    -1.3240    -0.5900 C.ar  1 <1>  -0.1500 
  7 C       -1.2510    -3.2190    -0.3370 C.ar  1 <1>  -0.1500 
  8 C       -3.7920    -2.0930    -0.4030 C.ar  1 <1>   0.1170 
  9 C       -2.3670    -4.0090    -0.1530 C.ar  1 <1>  -0.1500 
 10 N       -5.0220    -1.4050    -0.4670 N.am  1 <1>  -0.5470 
 11 C       -3.6530    -3.4820    -0.1810 C.ar  1 <1>   0.1000 
 12 C       -5.9800    -1.2500     0.5020 C.2   1 <1>   0.5440 
 13 N       -4.7060    -4.3840     0.0090 N.pl3 1 <1>  -0.8380 
 14 O       -5.9050    -1.8850     1.5390 O.2   1 <1>  -0.5700 
 15 C       -7.1000    -0.3570     0.2770 C.ar  1 <1>   0.0860 
 16 C       -5.8590    -4.4830    -0.9410 C.3   1 <1>   0.2090 
 17 C       -4.7860    -5.1340     1.3070 C.3   1 <1>   0.2090 
 18 C       -7.7560     0.2470     1.3510 C.ar  1 <1>  -0.1500 
 19 C       -7.5810    -0.0730    -1.0060 C.ar  1 <1>  -0.1500 
 20 C       -7.2410    -4.3650    -0.2460 C.3   1 <1>   0.3430 
 21 C       -6.2380    -5.4020     1.7640 C.3   1 <1>   0.3430 
 22 C       -8.8360     1.0870     1.1580 C.ar  1 <1>  -0.1500 
 23 C       -8.6600     0.7690    -1.2060 C.ar  1 <1>  -0.1500 
 24 N       -7.1610    -4.3420     1.2550 N.4   1 <1>  -0.9590 
 25 C       -9.2990     1.3560    -0.1190 C.ar  1 <1>   0.0830 
 26 C       -8.4880    -4.3120     1.9290 C.3   1 <1>   0.2630 
 27 O      -10.3590     2.1860    -0.2230 O.3   1 <1>  -0.3620 
 28 C      -10.8910     2.5700    -1.4730 C.3   1 <1>   0.0400 
 29 H        3.0340    -1.4360    -0.7130 H     1 <1>   0.0800 
 30 H        2.2050     0.0040    -0.1190 H     1 <1>   0.0800 
 31 H        2.1840    -0.3780    -1.8420 H     1 <1>   0.0800 
 32 H       -2.7630    -0.2660    -0.7560 H     1 <1>   0.1500 
 33 H       -0.2760    -3.6750    -0.3080 H     1 <1>   0.1500 
 34 H       -2.2400    -5.0640     0.0080 H     1 <1>   0.1500 
 35 H       -5.0390    -0.6800    -1.1830 H     1 <1>   0.3700 
 36 H       -5.8040    -5.4320    -1.4430 H     1 <1>   0.0800 
 37 H       -5.7730    -3.7240    -1.6990 H     1 <1>   0.0800 
 38 H       -4.2900    -4.5550     2.0670 H     1 <1>   0.0800 
 39 H       -4.2610    -6.0690     1.2170 H     1 <1>   0.0800 
 40 H       -7.4110     0.0580     2.3540 H     1 <1>   0.1500 
 41 H       -7.1140    -0.5160    -1.8670 H     1 <1>   0.1500 
 42 H       -7.8560    -5.1900    -0.5660 H     1 <1>   0.0800 
 43 H       -7.7160    -3.4600    -0.5870 H     1 <1>   0.0800 
 44 H       -6.2620    -5.4340     2.8410 H     1 <1>   0.0800 
 45 H       -6.5530    -6.3640     1.3950 H     1 <1>   0.0800 
 46 H       -9.3300     1.5460     1.9970 H     1 <1>   0.1500 
 47 H       -8.9940     0.9610    -2.2090 H     1 <1>   0.1500 
 48 H       -6.6470    -3.4540     1.4680 H     1 <1>   0.4500 
 49 H       -9.0330    -5.2190     1.7270 H     1 <1>   0.0800 
 50 H       -9.0640    -3.4720     1.5750 H     1 <1>   0.0800 
 51 H       -8.3600    -4.2110     2.9950 H     1 <1>   0.0800 
 52 H      -11.7100     3.2430    -1.2940 H     1 <1>   0.0800 
 53 H      -11.2440     1.6940    -1.9870 H     1 <1>   0.0800 
 54 H      -10.1260     3.0700    -2.0390 H     1 <1>   0.0800 
@<TRIPOS>BOND
  1   1   2  2   
  2   2   3  1   
  3   2   4  1   
  4   3   5  1   
  5   4   6  ar  
  6   4   7  ar  
  7   5  29  1   
  8   5  30  1   
  9   5  31  1   
 10   6   8  ar  
 11   6  32  1   
 12   7   9  ar  
 13   7  33  1   
 14   8  10  1   
 15   8  11  ar  
 16   9  11  ar  
 17   9  34  1   
 18  10  12  am  
 19  10  35  1   
 20  11  13  1   
 21  12  14  2   
 22  12  15  1   
 23  13  16  1   
 24  13  17  1   
 25  15  18  ar  
 26  15  19  ar  
 27  16  20  1   
 28  16  36  1   
 29  16  37  1   
 30  17  21  1   
 31  17  38  1   
 32  17  39  1   
 33  18  22  ar  
 34  18  40  1   
 35  19  23  ar  
 36  19  41  1   
 37  20  24  1   
 38  20  42  1   
 39  20  43  1   
 40  21  24  1   
 41  21  44  1   
 42  21  45  1   
 43  22  25  ar  
 44  22  46  1   
 45  23  25  ar  
 46  23  47  1   
 47  24  26  1   
 48  24  48  1   
 49  25  27  1   
 50  26  49  1   
 51  26  50  1   
 52  26  51  1   
 53  27  28  1   
 54  28  52  1   
 55  28  53  1   
 56  28  54  1   
@<TRIPOS>SUBSTRUCTURE
  1 ****  10 GROUP 4 **** **** 0

# MOE 2024.06 (io_trps.svl 2023.06)
