@<TRIPOS>MOLECULE
NONAME
40 40 1 0 0 
SMALL
USER_CHARGES


@<TRIPOS>ATOM
  1 CL       0.2790    -0.9640    -0.5450 Cl    1 <1>  -0.1770 
  2 C       -0.8410     0.3660    -0.3170 C.ar  1 <1>   0.1770 
  3 C       -0.4850     1.7160    -0.4500 C.ar  1 <1>   0.0830 
  4 C       -2.1410     0.0060    -0.0070 C.ar  1 <1>  -0.1500 
  5 O        0.7500     2.2140    -0.7340 O.3   1 <1>  -0.3630 
  6 C       -1.4740     2.6750    -0.2830 C.ar  1 <1>  -0.1500 
  7 C       -3.1100     0.9790     0.1660 C.ar  1 <1>  -0.1500 
  8 C        1.9350     1.5190    -0.4400 C.3   1 <1>   0.1200 
  9 C       -2.7750     2.3140     0.0240 C.ar  1 <1>  -0.1500 
 10 C        3.0790     2.5340    -0.4290 C.3   1 <1>  -0.1600 
 11 C        4.4260     1.8600    -0.1300 C.3   1 <1>  -0.1600 
 12 C        5.5530     2.8900    -0.1300 C.3   1 <1>   0.3430 
 13 N        6.8370     2.2010     0.1570 N.4   1 <1>  -0.9060 
 14 C        8.0400     3.0350     0.1970 C.3   1 <1>   0.5030 
 15 C        8.2550     3.6990    -1.1630 C.3   1 <1>  -0.2400 
 16 C        9.2020     2.0960     0.5050 C.3   1 <1>  -0.2400 
 17 C        7.9090     4.0800     1.3040 C.3   1 <1>  -0.2400 
 18 H       -2.3930    -1.0340     0.0930 H     1 <1>   0.1500 
 19 H       -1.2180     3.7140    -0.3920 H     1 <1>   0.1500 
 20 H       -4.1220     0.6980     0.4060 H     1 <1>   0.1500 
 21 H        2.0910     0.7810    -1.2070 H     1 <1>   0.0800 
 22 H        1.8280     1.0490     0.5230 H     1 <1>   0.0800 
 23 H       -3.5270     3.0740     0.1540 H     1 <1>   0.1500 
 24 H        2.8680     3.2790     0.3200 H     1 <1>   0.0800 
 25 H        3.1170     3.0150    -1.3920 H     1 <1>   0.0800 
 26 H        4.6150     1.1130    -0.8830 H     1 <1>   0.0800 
 27 H        4.3690     1.3810     0.8320 H     1 <1>   0.0800 
 28 H        5.3560     3.6380     0.6210 H     1 <1>   0.0800 
 29 H        5.5970     3.3750    -1.0920 H     1 <1>   0.0800 
 30 H        6.9930     1.4750    -0.5490 H     1 <1>   0.4500 
 31 H        6.7670     1.7220     1.0600 H     1 <1>   0.4500 
 32 H        7.4840     4.4140    -1.3830 H     1 <1>   0.0800 
 33 H        9.1900     4.2320    -1.1610 H     1 <1>   0.0800 
 34 H        8.2980     2.9670    -1.9500 H     1 <1>   0.0800 
 35 H        9.0710     1.6140     1.4570 H     1 <1>   0.0800 
 36 H       10.1220     2.6540     0.5480 H     1 <1>   0.0800 
 37 H        9.3120     1.3480    -0.2600 H     1 <1>   0.0800 
 38 H        7.7080     3.6160     2.2540 H     1 <1>   0.0800 
 39 H        7.1370     4.7960     1.0860 H     1 <1>   0.0800 
 40 H        8.8310     4.6270     1.3960 H     1 <1>   0.0800 
@<TRIPOS>BOND
  1   1   2  1   
  2   2   3  ar  
  3   2   4  ar  
  4   3   5  1   
  5   3   6  ar  
  6   4   7  ar  
  7   4  18  1   
  8   5   8  1   
  9   6   9  ar  
 10   6  19  1   
 11   7   9  ar  
 12   7  20  1   
 13   8  10  1   
 14   8  21  1   
 15   8  22  1   
 16   9  23  1   
 17  10  11  1   
 18  10  24  1   
 19  10  25  1   
 20  11  12  1   
 21  11  26  1   
 22  11  27  1   
 23  12  13  1   
 24  12  28  1   
 25  12  29  1   
 26  13  14  1   
 27  13  30  1   
 28  13  31  1   
 29  14  15  1   
 30  14  16  1   
 31  14  17  1   
 32  15  32  1   
 33  15  33  1   
 34  15  34  1   
 35  16  35  1   
 36  16  36  1   
 37  16  37  1   
 38  17  38  1   
 39  17  39  1   
 40  17  40  1   
@<TRIPOS>SUBSTRUCTURE
  1 ****  10 GROUP 4 **** **** 0

# MOE 2024.06 (io_trps.svl 2023.06)
