@<TRIPOS>MOLECULE
NONAME
46 47 1 0 0 
SMALL
USER_CHARGES


@<TRIPOS>ATOM
  1 CL       0.1880     0.2890    -1.4200 Cl    1 <1>  -0.1770 
  2 C        1.8050     0.2870    -0.7640 C.ar  1 <1>   0.1770 
  3 C        2.1160    -0.5830     0.2660 C.ar  1 <1>  -0.1500 
  4 C        2.7470     1.1570    -1.2850 C.ar  1 <1>  -0.1500 
  5 C        3.4010    -0.5820     0.7850 C.ar  1 <1>  -0.1500 
  6 C        4.0320     1.1580    -0.7670 C.ar  1 <1>  -0.1500 
  7 C        4.3480     0.2860     0.2670 C.ar  1 <1>   0.1020 
  8 S        5.9930     0.2230     0.9980 S.3   1 <1>  -0.3320 
  9 C        7.0180     1.4760     0.1110 C.3   1 <1>   0.0700 
 10 C        8.4170     1.4390     0.7180 C.3   1 <1>   0.1200 
 11 O        9.2130     2.3770     0.0580 O.3   1 <1>  -0.5600 
 12 C       10.5190     2.4430     0.5220 C.3   1 <1>   0.1200 
 13 C       11.2360     3.5340    -0.2830 C.3   1 <1>   0.3430 
 14 N       12.6640     3.7160     0.1300 N.4   1 <1>  -0.9590 
 15 C       13.2760     4.9450    -0.4730 C.3   1 <1>   0.3430 
 16 C       13.5450     2.5260    -0.1620 C.3   1 <1>   0.3430 
 17 C       14.6830     5.2130     0.1240 C.3   1 <1>   0.2000 
 18 C       15.0570     2.8420    -0.0030 C.3   1 <1>   0.2000 
 19 O       15.2380     4.0500     0.6870 O.3   1 <1>  -0.5600 
 20 C       14.6320     6.2420     1.2520 C.3   1 <1>  -0.2400 
 21 C       15.8180     2.8900    -1.3340 C.3   1 <1>  -0.2400 
 22 H        1.3650    -1.2480     0.6530 H     1 <1>   0.1500 
 23 H        2.4730     1.8200    -2.0860 H     1 <1>   0.1500 
 24 H        3.6700    -1.2480     1.5860 H     1 <1>   0.1500 
 25 H        4.7590     1.8330    -1.1740 H     1 <1>   0.1500 
 26 H        6.5530     2.4340     0.2580 H     1 <1>   0.0800 
 27 H        7.0340     1.2010    -0.9280 H     1 <1>   0.0800 
 28 H        8.8490     0.4600     0.5900 H     1 <1>   0.0800 
 29 H        8.3720     1.6900     1.7640 H     1 <1>   0.0800 
 30 H       10.9790     1.4820     0.3710 H     1 <1>   0.0800 
 31 H       10.4970     2.6950     1.5690 H     1 <1>   0.0800 
 32 H       10.7020     4.4590    -0.1370 H     1 <1>   0.0800 
 33 H       11.1910     3.2800    -1.3290 H     1 <1>   0.0800 
 34 H       12.7230     3.8680     1.1490 H     1 <1>   0.4500 
 35 H       12.6500     5.8050    -0.3010 H     1 <1>   0.0800 
 36 H       13.3690     4.8180    -1.5390 H     1 <1>   0.0800 
 37 H       13.3730     2.1790    -1.1680 H     1 <1>   0.0800 
 38 H       13.2930     1.7170     0.5020 H     1 <1>   0.0800 
 39 H       15.3480     5.5680    -0.6450 H     1 <1>   0.0800 
 40 H       15.5040     2.0730     0.6060 H     1 <1>   0.0800 
 41 H       14.0030     5.9030     2.0550 H     1 <1>   0.0800 
 42 H       14.2530     7.1800     0.8870 H     1 <1>   0.0800 
 43 H       15.6240     6.4100     1.6340 H     1 <1>   0.0800 
 44 H       15.3800     3.5830    -2.0270 H     1 <1>   0.0800 
 45 H       15.8120     1.9160    -1.7910 H     1 <1>   0.0800 
 46 H       16.8430     3.1630    -1.1560 H     1 <1>   0.0800 
@<TRIPOS>BOND
  1   1   2  1   
  2   2   3  ar  
  3   2   4  ar  
  4   3   5  ar  
  5   3  22  1   
  6   4   6  ar  
  7   4  23  1   
  8   5   7  ar  
  9   5  24  1   
 10   6   7  ar  
 11   6  25  1   
 12   7   8  1   
 13   8   9  1   
 14   9  10  1   
 15   9  26  1   
 16   9  27  1   
 17  10  11  1   
 18  10  28  1   
 19  10  29  1   
 20  11  12  1   
 21  12  13  1   
 22  12  30  1   
 23  12  31  1   
 24  13  14  1   
 25  13  32  1   
 26  13  33  1   
 27  14  15  1   
 28  14  16  1   
 29  14  34  1   
 30  15  17  1   
 31  15  35  1   
 32  15  36  1   
 33  16  18  1   
 34  16  37  1   
 35  16  38  1   
 36  17  19  1   
 37  17  20  1   
 38  17  39  1   
 39  18  19  1   
 40  18  21  1   
 41  18  40  1   
 42  20  41  1   
 43  20  42  1   
 44  20  43  1   
 45  21  44  1   
 46  21  45  1   
 47  21  46  1   
@<TRIPOS>SUBSTRUCTURE
  1 ****  11 GROUP 4 **** **** 0

# MOE 2024.06 (io_trps.svl 2023.06)
