@<TRIPOS>MOLECULE
NONAME
44 45 1 0 0 
SMALL
USER_CHARGES


@<TRIPOS>ATOM
  1 O        0.5090     0.6310    -0.8110 O.2   1 <1>  -0.5700 
  2 C        0.5430     1.6000    -0.0970 C.2   1 <1>   0.6590 
  3 O       -0.4770     1.9690     0.6610 O.3   1 <1>  -0.4300 
  4 C        1.7830     2.4710    -0.0150 C.3   1 <1>  -0.0190 
  5 C       -1.6880     1.2480     0.6730 C.3   1 <1>   0.1200 
  6 C        2.9330     1.7500    -0.7270 C.3   1 <1>   0.3430 
  7 C        1.5430     3.8650    -0.6270 C.3   1 <1>  -0.1600 
  8 C       -2.6420     1.9430     1.6390 C.3   1 <1>  -0.2400 
  9 N        4.1780     2.5840    -0.7480 N.4   1 <1>  -0.9590 
 10 C        2.8500     4.6690    -0.6870 C.3   1 <1>  -0.1600 
 11 C        3.9600     3.9040    -1.4100 C.3   1 <1>   0.3430 
 12 C        5.2970     1.8340    -1.3600 C.3   1 <1>   0.4810 
 13 C        6.5720     2.4870    -0.8900 C.2   1 <1>  -0.2880 
 14 C        7.3890     1.9790     0.0490 C.2   1 <1>  -0.1780 
 15 C        8.6200     2.5470     0.5540 C.ar  1 <1>   0.0280 
 16 C        9.1720     2.0670     1.7390 C.ar  1 <1>  -0.1500 
 17 C        9.2970     3.5730    -0.1040 C.ar  1 <1>  -0.1500 
 18 C       10.3430     2.5920     2.2530 C.ar  1 <1>  -0.1500 
 19 C       10.4690     4.1030     0.4060 C.ar  1 <1>  -0.1500 
 20 C       10.9940     3.6140     1.5880 C.ar  1 <1>  -0.1500 
 21 H        2.0320     2.5750     1.0260 H     1 <1>   0.0800 
 22 H       -2.0910     1.2360    -0.3260 H     1 <1>   0.0800 
 23 H       -1.4840     0.2390     0.9910 H     1 <1>   0.0800 
 24 H        2.6290     1.5280    -1.7380 H     1 <1>   0.0800 
 25 H        3.1220     0.8120    -0.2280 H     1 <1>   0.0800 
 26 H        1.1440     3.7560    -1.6230 H     1 <1>   0.0800 
 27 H        0.8130     4.4000    -0.0420 H     1 <1>   0.0800 
 28 H       -2.8320     2.9500     1.3150 H     1 <1>   0.0800 
 29 H       -2.2260     1.9550     2.6300 H     1 <1>   0.0800 
 30 H       -3.5760     1.4120     1.6680 H     1 <1>   0.0800 
 31 H        4.4690     2.7690     0.2220 H     1 <1>   0.4500 
 32 H        3.1770     4.9180     0.3090 H     1 <1>   0.0800 
 33 H        2.6710     5.5970    -1.2040 H     1 <1>   0.0800 
 34 H        4.8670     4.4870    -1.3870 H     1 <1>   0.0800 
 35 H        3.6800     3.7550    -2.4410 H     1 <1>   0.0800 
 36 H        5.2800     0.8110    -1.0190 H     1 <1>   0.0800 
 37 H        5.2300     1.8400    -2.4370 H     1 <1>   0.0800 
 38 H        6.7750     3.4180    -1.3880 H     1 <1>   0.1500 
 39 H        7.1430     1.0410     0.5190 H     1 <1>   0.1500 
 40 H        8.6830     1.2720     2.2730 H     1 <1>   0.1500 
 41 H        8.9190     3.9650    -1.0280 H     1 <1>   0.1500 
 42 H       10.7510     2.2060     3.1720 H     1 <1>   0.1500 
 43 H       10.9760     4.8960    -0.1160 H     1 <1>   0.1500 
 44 H       11.9050     4.0250     1.9860 H     1 <1>   0.1500 
@<TRIPOS>BOND
  1   1   2  2   
  2   2   3  1   
  3   2   4  1   
  4   3   5  1   
  5   4   6  1   
  6   4   7  1   
  7   4  21  1   
  8   5   8  1   
  9   5  22  1   
 10   5  23  1   
 11   6   9  1   
 12   6  24  1   
 13   6  25  1   
 14   7  10  1   
 15   7  26  1   
 16   7  27  1   
 17   8  28  1   
 18   8  29  1   
 19   8  30  1   
 20   9  11  1   
 21   9  12  1   
 22   9  31  1   
 23  10  11  1   
 24  10  32  1   
 25  10  33  1   
 26  11  34  1   
 27  11  35  1   
 28  12  13  1   
 29  12  36  1   
 30  12  37  1   
 31  13  14  2   
 32  13  38  1   
 33  14  15  1   
 34  14  39  1   
 35  15  16  ar  
 36  15  17  ar  
 37  16  18  ar  
 38  16  40  1   
 39  17  19  ar  
 40  17  41  1   
 41  18  20  ar  
 42  18  42  1   
 43  19  20  ar  
 44  19  43  1   
 45  20  44  1   
@<TRIPOS>SUBSTRUCTURE
  1 ****   9 GROUP 4 **** **** 0

# MOE 2024.06 (io_trps.svl 2023.06)
