@<TRIPOS>MOLECULE
NONAME
46 48 1 0 0 
SMALL
USER_CHARGES


@<TRIPOS>ATOM
  1 CL      -0.7900     0.0500     1.7320 Cl    1 <1>  -0.1770 
  2 C       -2.1420     0.8040     0.9270 C.ar  1 <1>   0.1770 
  3 C       -2.9340     0.0510     0.0810 C.ar  1 <1>  -0.1500 
  4 C       -2.4030     2.1430     1.1500 C.ar  1 <1>  -0.1500 
  5 C       -4.0060     0.6520    -0.5560 C.ar  1 <1>  -0.1500 
  6 C       -3.4770     2.7390     0.5100 C.ar  1 <1>  -0.1500 
  7 C       -4.2810     1.9970    -0.3460 C.ar  1 <1>  -0.1430 
  8 C       -5.4610     2.6490    -1.0450 C.3   1 <1>   0.2840 
  9 N       -6.6640     2.3890    -0.2400 N.am  1 <1>  -0.7300 
 10 C       -7.9250     2.4060    -0.7330 C.2   1 <1>   0.5690 
 11 O       -8.1410     2.6890    -1.8870 O.2   1 <1>  -0.5700 
 12 C       -9.0780     2.0480     0.2040 C.3   1 <1>  -0.0190 
 13 C       -9.3340     0.5300     0.2050 C.3   1 <1>  -0.1600 
 14 C      -10.3800     2.7980    -0.1440 C.3   1 <1>  -0.1600 
 15 C      -10.4880     0.1540     1.1380 C.3   1 <1>   0.1400 
 16 C      -11.5320     2.4040     0.7850 C.3   1 <1>   0.1400 
 17 N      -11.7080     0.9250     0.7640 N.am  1 <1>  -0.6600 
 18 C      -12.8410     0.2940     0.2870 C.2   1 <1>   0.5440 
 19 O      -12.8000    -0.8970     0.0440 O.2   1 <1>  -0.5700 
 20 C      -14.0820     1.0090     0.0590 C.ar  1 <1>   0.0860 
 21 C      -14.7300     1.6890     1.0950 C.ar  1 <1>  -0.1500 
 22 C      -14.6690     1.0270    -1.2090 C.ar  1 <1>  -0.1500 
 23 C      -15.9120     2.3760     0.8760 C.ar  1 <1>  -0.1500 
 24 C      -15.8500     1.7090    -1.4470 C.ar  1 <1>  -0.1500 
 25 C      -16.4510     2.3760    -0.3960 C.ar  1 <1>   0.1900 
 26 F      -17.5610     3.0230    -0.6110 F     1 <1>  -0.1900 
 27 H       -2.7100    -0.9890    -0.0760 H     1 <1>   0.1500 
 28 H       -1.7710     2.7060     1.8130 H     1 <1>   0.1500 
 29 H       -4.6290     0.0710    -1.2160 H     1 <1>   0.1500 
 30 H       -3.6830     3.7830     0.6810 H     1 <1>   0.1500 
 31 H       -5.5860     2.2400    -2.0340 H     1 <1>   0.0800 
 32 H       -5.3110     3.7110    -1.1330 H     1 <1>   0.0800 
 33 H       -6.4750     2.1070     0.7220 H     1 <1>   0.3700 
 34 H       -8.7900     2.3400     1.1980 H     1 <1>   0.0800 
 35 H       -8.4460     0.0090     0.5150 H     1 <1>   0.0800 
 36 H       -9.5750     0.2010    -0.7920 H     1 <1>   0.0800 
 37 H      -10.6670     2.5770    -1.1580 H     1 <1>   0.0800 
 38 H      -10.2140     3.8580    -0.0780 H     1 <1>   0.0800 
 39 H      -10.2290     0.3840     2.1570 H     1 <1>   0.0800 
 40 H      -10.6700    -0.9060     1.0770 H     1 <1>   0.0800 
 41 H      -12.4260     2.9070     0.4620 H     1 <1>   0.0800 
 42 H      -11.3160     2.7170     1.7920 H     1 <1>   0.0800 
 43 H      -14.2960     1.6690     2.0800 H     1 <1>   0.1500 
 44 H      -14.1850     0.4930    -2.0090 H     1 <1>   0.1500 
 45 H      -16.4110     2.9010     1.6710 H     1 <1>   0.1500 
 46 H      -16.3010     1.7240    -2.4230 H     1 <1>   0.1500 
@<TRIPOS>BOND
  1   1   2  1   
  2   2   3  ar  
  3   2   4  ar  
  4   3   5  ar  
  5   3  27  1   
  6   4   6  ar  
  7   4  28  1   
  8   5   7  ar  
  9   5  29  1   
 10   6   7  ar  
 11   6  30  1   
 12   7   8  1   
 13   8   9  1   
 14   8  31  1   
 15   8  32  1   
 16   9  10  am  
 17   9  33  1   
 18  10  11  2   
 19  10  12  1   
 20  12  13  1   
 21  12  14  1   
 22  12  34  1   
 23  13  15  1   
 24  13  35  1   
 25  13  36  1   
 26  14  16  1   
 27  14  37  1   
 28  14  38  1   
 29  15  17  1   
 30  15  39  1   
 31  15  40  1   
 32  16  17  1   
 33  16  41  1   
 34  16  42  1   
 35  17  18  am  
 36  18  19  2   
 37  18  20  1   
 38  20  21  ar  
 39  20  22  ar  
 40  21  23  ar  
 41  21  43  1   
 42  22  24  ar  
 43  22  44  1   
 44  23  25  ar  
 45  23  45  1   
 46  24  25  ar  
 47  24  46  1   
 48  25  26  1   
@<TRIPOS>SUBSTRUCTURE
  1 ****  12 GROUP 4 **** **** 0

# MOE 2024.06 (io_trps.svl 2023.06)
