@<TRIPOS>MOLECULE
NONAME
34 34 1 0 0 
SMALL
USER_CHARGES


@<TRIPOS>ATOM
  1 S        0.0140    -0.9650    -1.0350 S.o2  1 <1>   1.4470 
  2 O       -0.2050     0.2940    -1.7070 O.2   1 <1>  -0.6500 
  3 O        0.2350    -2.1770    -1.7890 O.2   1 <1>  -0.6500 
  4 N        1.3340    -0.8510    -0.0070 N.am  1 <1>  -0.9140 
  5 C       -1.3610    -1.2590     0.1140 C.ar  1 <1>  -0.0090 
  6 C        2.5290    -0.2020    -0.4920 C.3   1 <1>   0.5560 
  7 C       -1.4400    -0.6070     1.3410 C.ar  1 <1>  -0.1500 
  8 C       -2.3870    -2.1370    -0.2170 C.ar  1 <1>  -0.1500 
  9 C        2.9400    -0.7610    -1.8170 C.1   1 <1>  -0.2000 
 10 C        3.6360    -0.5460     0.5330 C.3   1 <1>  -0.1600 
 11 C        2.3890     1.3380    -0.5970 C.3   1 <1>  -0.1600 
 12 C       -2.4970    -0.8280     2.2080 C.ar  1 <1>  -0.1500 
 13 C       -3.4480    -2.3650     0.6430 C.ar  1 <1>  -0.1500 
 14 C        3.2580    -1.2060    -2.8740 C.1   1 <1>  -0.1770 
 15 C        3.8990    -2.0480     0.7840 C.3   1 <1>  -0.2400 
 16 C        1.7210     2.0570     0.5920 C.3   1 <1>  -0.2400 
 17 C       -3.5030    -1.7090     1.8590 C.ar  1 <1>  -0.1500 
 18 H        1.6280    -1.8190     0.0630 H     1 <1>   0.4200 
 19 H       -0.6640     0.0820     1.6250 H     1 <1>   0.1500 
 20 H       -2.3550    -2.6530    -1.1630 H     1 <1>   0.1500 
 21 H        3.3970    -0.0880     1.4750 H     1 <1>   0.0800 
 22 H        4.5560    -0.1010     0.1960 H     1 <1>   0.0800 
 23 H        1.8510     1.5880    -1.4930 H     1 <1>   0.0800 
 24 H        3.3720     1.7530    -0.7320 H     1 <1>   0.0800 
 25 H       -2.5360    -0.3130     3.1530 H     1 <1>   0.1500 
 26 H       -4.2300    -3.0510     0.3660 H     1 <1>   0.1500 
 27 H        3.5210    -1.6130    -3.8340 H     1 <1>   0.1770 
 28 H        3.0450    -2.5240     1.2320 H     1 <1>   0.0800 
 29 H        4.7290    -2.1580     1.4600 H     1 <1>   0.0800 
 30 H        4.1460    -2.5580    -0.1310 H     1 <1>   0.0800 
 31 H        0.6970     1.7460     0.6880 H     1 <1>   0.0800 
 32 H        1.7280     3.1190     0.4210 H     1 <1>   0.0800 
 33 H        2.2350     1.8590     1.5140 H     1 <1>   0.0800 
 34 H       -4.3260    -1.8830     2.5310 H     1 <1>   0.1500 
@<TRIPOS>BOND
  1   1   2  2   
  2   1   3  2   
  3   1   4  am  
  4   1   5  1   
  5   4   6  1   
  6   4  18  1   
  7   5   7  ar  
  8   5   8  ar  
  9   6   9  1   
 10   6  10  1   
 11   6  11  1   
 12   7  12  ar  
 13   7  19  1   
 14   8  13  ar  
 15   8  20  1   
 16   9  14  3   
 17  10  15  1   
 18  10  21  1   
 19  10  22  1   
 20  11  16  1   
 21  11  23  1   
 22  11  24  1   
 23  12  17  ar  
 24  12  25  1   
 25  13  17  ar  
 26  13  26  1   
 27  14  27  1   
 28  15  28  1   
 29  15  29  1   
 30  15  30  1   
 31  16  31  1   
 32  16  32  1   
 33  16  33  1   
 34  17  34  1   
@<TRIPOS>SUBSTRUCTURE
  1 ****   4 GROUP 4 **** **** 0

# MOE 2024.06 (io_trps.svl 2023.06)
