@<TRIPOS>MOLECULE
NONAME
39 40 1 0 0 
SMALL
USER_CHARGES


@<TRIPOS>ATOM
  1 S        1.5970    -0.0030    -1.5060 S.3   1 <1>  -0.3310 
  2 C        1.2210     1.1630    -0.1780 C.ar  1 <1>   0.1020 
  3 C        0.0510    -0.9390    -1.8850 C.3   1 <1>  -0.0100 
  4 C        2.2030     2.0790     0.2120 C.ar  1 <1>   0.0860 
  5 C       -0.0280     1.1450     0.4250 C.ar  1 <1>  -0.1500 
  6 C        3.5250     2.1220    -0.3740 C.2   1 <1>   0.5440 
  7 C        1.8610     3.0040     1.2010 C.ar  1 <1>  -0.1500 
  8 C       -0.3290     2.0600     1.4180 C.ar  1 <1>  -0.1500 
  9 O        3.7460     3.0150    -1.1740 O.2   1 <1>  -0.5700 
 10 N        4.5550     1.2460    -0.0620 N.am  1 <1>  -0.6600 
 11 C        0.6160     2.9950     1.8020 C.ar  1 <1>  -0.1500 
 12 C        4.6390     0.2640     1.0640 C.3   1 <1>   0.2200 
 13 C        5.6660     1.0850    -1.0520 C.3   1 <1>   0.2200 
 14 C        4.4120    -1.1570     0.5210 C.3   1 <1>  -0.1600 
 15 C        3.7690     0.5600     2.2860 C.3   1 <1>  -0.2400 
 16 C        6.1790    -0.3700    -1.1230 C.3   1 <1>  -0.1600 
 17 C        6.7990     2.0510    -0.7040 C.3   1 <1>  -0.2400 
 18 C        5.0550    -1.3840    -0.8630 C.3   1 <1>  -0.1600 
 19 H        0.2630    -1.5890    -2.7150 H     1 <1>   0.0800 
 20 H       -0.7130    -0.2280    -2.1440 H     1 <1>   0.0800 
 21 H       -0.2160    -1.5090    -1.0140 H     1 <1>   0.0800 
 22 H       -0.7770     0.4350     0.1380 H     1 <1>   0.1500 
 23 H        2.5930     3.7360     1.4930 H     1 <1>   0.1500 
 24 H       -1.2980     2.0510     1.8880 H     1 <1>   0.1500 
 25 H        0.3810     3.7160     2.5660 H     1 <1>   0.1500 
 26 H        5.6540     0.3080     1.4210 H     1 <1>   0.0800 
 27 H        5.2850     1.3400    -2.0290 H     1 <1>   0.0800 
 28 H        3.3580    -1.3610     0.4570 H     1 <1>   0.0800 
 29 H        4.8290    -1.8540     1.2250 H     1 <1>   0.0800 
 30 H        2.7340     0.3540     2.0940 H     1 <1>   0.0800 
 31 H        3.8980     1.5810     2.5960 H     1 <1>   0.0800 
 32 H        4.0760    -0.0740     3.0980 H     1 <1>   0.0800 
 33 H        6.9620    -0.5200    -0.4010 H     1 <1>   0.0800 
 34 H        6.6070    -0.5410    -2.0950 H     1 <1>   0.0800 
 35 H        7.1940     1.8400     0.2730 H     1 <1>   0.0800 
 36 H        6.4320     3.0620    -0.7260 H     1 <1>   0.0800 
 37 H        7.5890     1.9640    -1.4260 H     1 <1>   0.0800 
 38 H        4.3020    -1.2550    -1.6220 H     1 <1>   0.0800 
 39 H        5.4290    -2.3900    -0.9370 H     1 <1>   0.0800 
@<TRIPOS>BOND
  1   1   2  1   
  2   1   3  1   
  3   2   4  ar  
  4   2   5  ar  
  5   3  19  1   
  6   3  20  1   
  7   3  21  1   
  8   4   6  1   
  9   4   7  ar  
 10   5   8  ar  
 11   5  22  1   
 12   6   9  2   
 13   6  10  am  
 14   7  11  ar  
 15   7  23  1   
 16   8  11  ar  
 17   8  24  1   
 18  10  12  1   
 19  10  13  1   
 20  11  25  1   
 21  12  14  1   
 22  12  15  1   
 23  12  26  1   
 24  13  16  1   
 25  13  17  1   
 26  13  27  1   
 27  14  18  1   
 28  14  28  1   
 29  14  29  1   
 30  15  30  1   
 31  15  31  1   
 32  15  32  1   
 33  16  18  1   
 34  16  33  1   
 35  16  34  1   
 36  17  35  1   
 37  17  36  1   
 38  17  37  1   
 39  18  38  1   
 40  18  39  1   
@<TRIPOS>SUBSTRUCTURE
  1 ****   6 GROUP 4 **** **** 0

# MOE 2024.06 (io_trps.svl 2023.06)
