@<TRIPOS>MOLECULE
NONAME
31 32 1 0 0 
SMALL
USER_CHARGES


@<TRIPOS>ATOM
  1 CL       0.1150    -0.3020    -0.8870 Cl    1 <1>  -0.1770 
  2 C        1.0840     1.1250    -0.5990 C.ar  1 <1>   0.1770 
  3 C        2.3030     1.0210     0.0640 C.ar  1 <1>   0.0830 
  4 C        0.6050     2.3400    -1.0420 C.ar  1 <1>  -0.1500 
  5 O        2.7310    -0.1950     0.4680 O.3   1 <1>  -0.3630 
  6 C        3.0850     2.1640     0.2820 C.ar  1 <1>   0.0860 
  7 C        1.3710     3.4660    -0.8110 C.ar  1 <1>   0.1770 
  8 C        2.6080    -0.5010     1.8410 C.3   1 <1>   0.0400 
  9 C        4.3640     2.1120     0.9530 C.2   1 <1>   0.5440 
 10 C        2.5860     3.3900    -0.1610 C.ar  1 <1>  -0.1500 
 11 CL       0.7870     5.0170    -1.3570 Cl    1 <1>  -0.1770 
 12 O        4.4630     2.6340     2.0470 O.2   1 <1>  -0.5700 
 13 N        5.4720     1.5070     0.3970 N.am  1 <1>  -0.6600 
 14 C        6.7500     1.3350     1.1520 C.3   1 <1>   0.1400 
 15 C        5.4930     0.8130    -0.9250 C.3   1 <1>   0.1400 
 16 C        7.1370    -0.1520     1.2090 C.3   1 <1>   0.1200 
 17 C        5.9380    -0.6480    -0.7490 C.3   1 <1>   0.1200 
 18 O        7.1640    -0.7110    -0.0750 O.3   1 <1>  -0.5600 
 19 H       -0.3390     2.4110    -1.5520 H     1 <1>   0.1500 
 20 H        2.9440    -1.5120     1.9910 H     1 <1>   0.0800 
 21 H        1.5750    -0.4120     2.1270 H     1 <1>   0.0800 
 22 H        3.2170     0.1740     2.4160 H     1 <1>   0.0800 
 23 H        3.1580     4.2860     0.0090 H     1 <1>   0.1500 
 24 H        6.6580     1.7150     2.1540 H     1 <1>   0.0800 
 25 H        7.5300     1.8880     0.6590 H     1 <1>   0.0800 
 26 H        6.1880     1.3150    -1.5750 H     1 <1>   0.0800 
 27 H        4.5280     0.8360    -1.3950 H     1 <1>   0.0800 
 28 H        6.4330    -0.7010     1.8100 H     1 <1>   0.0800 
 29 H        8.1180    -0.2630     1.6370 H     1 <1>   0.0800 
 30 H        6.0670    -1.1160    -1.7090 H     1 <1>   0.0800 
 31 H        5.2050    -1.2030    -0.1890 H     1 <1>   0.0800 
@<TRIPOS>BOND
  1   1   2  1   
  2   2   3  ar  
  3   2   4  ar  
  4   3   5  1   
  5   3   6  ar  
  6   4   7  ar  
  7   4  19  1   
  8   5   8  1   
  9   6   9  1   
 10   6  10  ar  
 11   7  10  ar  
 12   7  11  1   
 13   8  20  1   
 14   8  21  1   
 15   8  22  1   
 16   9  12  2   
 17   9  13  am  
 18  10  23  1   
 19  13  14  1   
 20  13  15  1   
 21  14  16  1   
 22  14  24  1   
 23  14  25  1   
 24  15  17  1   
 25  15  26  1   
 26  15  27  1   
 27  16  18  1   
 28  16  28  1   
 29  16  29  1   
 30  17  18  1   
 31  17  30  1   
 32  17  31  1   
@<TRIPOS>SUBSTRUCTURE
  1 ****   6 GROUP 4 **** **** 0

# MOE 2024.06 (io_trps.svl 2023.06)
