@<TRIPOS>MOLECULE
NONAME
35 37 1 0 0 
SMALL
USER_CHARGES


@<TRIPOS>ATOM
  1 O        0.7810    -0.9440    -1.4040 O.3   1 <1>  -0.5600 
  2 C        1.4130     0.2620    -1.0620 C.3   1 <1>   0.1200 
  3 C        0.3840    -1.7180    -0.3050 C.3   1 <1>   0.1200 
  4 C        2.6170     0.0270    -0.1200 C.3   1 <1>   0.3430 
  5 C        1.6040    -2.1300     0.5530 C.3   1 <1>   0.3430 
  6 N        2.8570    -1.4410     0.0970 N.4   1 <1>  -0.9590 
  7 C        4.0440    -1.7350     0.9450 C.3   1 <1>   0.4860 
  8 C        5.2620    -1.0800     0.3230 C.ar  1 <1>  -0.1440 
  9 C        5.8560     0.0050     0.9140 C.ar  1 <1>  -0.1500 
 10 C        5.7840    -1.5820    -0.8790 C.ar  1 <1>  -0.1500 
 11 C        6.9720     0.6420     0.3360 C.ar  1 <1>   0.0000 
 12 C        6.8660    -0.9820    -1.4610 C.ar  1 <1>  -0.1500 
 13 C        7.4840     0.1420    -0.8800 C.ar  1 <1>   0.0000 
 14 C        7.5950     1.7620     0.9230 C.ar  1 <1>  -0.1500 
 15 C        8.5950     0.7840    -1.4630 C.ar  1 <1>  -0.1500 
 16 C        8.6730     2.3640     0.3350 C.ar  1 <1>  -0.1500 
 17 C        9.1770     1.8700    -0.8720 C.ar  1 <1>  -0.1500 
 18 H        0.6900     0.9130    -0.6000 H     1 <1>   0.0800 
 19 H        1.7440     0.7260    -1.9750 H     1 <1>   0.0800 
 20 H       -0.1190    -2.5930    -0.6800 H     1 <1>   0.0800 
 21 H       -0.3200    -1.1510     0.2790 H     1 <1>   0.0800 
 22 H        2.4270     0.5140     0.8220 H     1 <1>   0.0800 
 23 H        3.4920     0.4890    -0.5520 H     1 <1>   0.0800 
 24 H        1.7300    -3.1980     0.4880 H     1 <1>   0.0800 
 25 H        1.4000    -1.8890     1.5830 H     1 <1>   0.0800 
 26 H        3.0470    -1.8020    -0.8480 H     1 <1>   0.4500 
 27 H        4.2040    -2.7990     1.0090 H     1 <1>   0.0800 
 28 H        3.8920    -1.3500     1.9400 H     1 <1>   0.0800 
 29 H        5.4890     0.4070     1.8420 H     1 <1>   0.1500 
 30 H        5.3410    -2.4440    -1.3470 H     1 <1>   0.1500 
 31 H        7.2720    -1.3620    -2.3830 H     1 <1>   0.1500 
 32 H        7.2100     2.1410     1.8530 H     1 <1>   0.1500 
 33 H        8.9820     0.4000    -2.3900 H     1 <1>   0.1500 
 34 H        9.1460     3.2190     0.7880 H     1 <1>   0.1500 
 35 H       10.0260     2.3560    -1.3220 H     1 <1>   0.1500 
@<TRIPOS>BOND
  1   1   2  1   
  2   1   3  1   
  3   2   4  1   
  4   2  18  1   
  5   2  19  1   
  6   3   5  1   
  7   3  20  1   
  8   3  21  1   
  9   4   6  1   
 10   4  22  1   
 11   4  23  1   
 12   5   6  1   
 13   5  24  1   
 14   5  25  1   
 15   6   7  1   
 16   6  26  1   
 17   7   8  1   
 18   7  27  1   
 19   7  28  1   
 20   8   9  ar  
 21   8  10  ar  
 22   9  11  ar  
 23   9  29  1   
 24  10  12  ar  
 25  10  30  1   
 26  11  13  ar  
 27  11  14  ar  
 28  12  13  ar  
 29  12  31  1   
 30  13  15  ar  
 31  14  16  ar  
 32  14  32  1   
 33  15  17  ar  
 34  15  33  1   
 35  16  17  ar  
 36  16  34  1   
 37  17  35  1   
@<TRIPOS>SUBSTRUCTURE
  1 ****   8 GROUP 4 **** **** 0

# MOE 2024.06 (io_trps.svl 2023.06)
