@<TRIPOS>MOLECULE
NONAME
37 37 1 0 0 
SMALL
USER_CHARGES


@<TRIPOS>ATOM
  1 O        1.2250     1.4500    -0.2400 O.2   1 <1>  -0.5700 
  2 C        0.8050     2.5580    -0.5150 C.2   1 <1>   0.5440 
  3 N        1.7220     3.4940    -0.9110 N.am  1 <1>  -0.7300 
  4 C       -0.6030     2.8920    -0.3820 C.ar  1 <1>   0.0860 
  5 C        3.1040     3.2230    -1.4130 C.3   1 <1>   0.1400 
  6 C       -1.4230     2.2010     0.5100 C.ar  1 <1>  -0.1500 
  7 C       -1.1950     3.9090    -1.1310 C.ar  1 <1>  -0.1500 
  8 C        4.1280     3.0630    -0.2700 C.3   1 <1>   0.3430 
  9 C       -2.7630     2.5100     0.6720 C.ar  1 <1>  -0.1440 
 10 C       -2.5310     4.2280    -0.9780 C.ar  1 <1>  -0.1500 
 11 N        3.8130     1.8800     0.5860 N.4   1 <1>  -0.9590 
 12 C       -3.3240     3.5370    -0.0780 C.ar  1 <1>  -0.1430 
 13 C       -3.5930     1.7120     1.6690 C.3   1 <1>  -0.0970 
 14 C        4.2050     2.0760     2.0100 C.3   1 <1>   0.2630 
 15 C        4.3470     0.6030     0.0280 C.3   1 <1>   0.2630 
 16 C       -4.7910     3.9180     0.0630 C.3   1 <1>  -0.0970 
 17 H        1.3740     4.4440    -1.0740 H     1 <1>   0.3700 
 18 H        3.4080     4.0420    -2.0420 H     1 <1>   0.0800 
 19 H        3.0960     2.3340    -2.0200 H     1 <1>   0.0800 
 20 H       -0.9910     1.4030     1.0870 H     1 <1>   0.1500 
 21 H       -0.6160     4.4570    -1.8510 H     1 <1>   0.1500 
 22 H        4.1060     3.9600     0.3260 H     1 <1>   0.0800 
 23 H        5.1190     2.9610    -0.6800 H     1 <1>   0.0800 
 24 H       -2.9550     5.0200    -1.5710 H     1 <1>   0.1500 
 25 H        2.7700     1.7870     0.5380 H     1 <1>   0.4500 
 26 H       -2.9990     0.9580     2.1520 H     1 <1>   0.0800 
 27 H       -4.4070     1.2250     1.1630 H     1 <1>   0.0800 
 28 H       -3.9900     2.3650     2.4250 H     1 <1>   0.0800 
 29 H        5.2740     2.1780     2.0950 H     1 <1>   0.0800 
 30 H        3.8890     1.2320     2.6010 H     1 <1>   0.0800 
 31 H        3.7370     2.9630     2.4060 H     1 <1>   0.0800 
 32 H        5.4240     0.6250    -0.0030 H     1 <1>   0.0800 
 33 H        3.9680     0.4470    -0.9690 H     1 <1>   0.0800 
 34 H        4.0330    -0.2280     0.6400 H     1 <1>   0.0800 
 35 H       -5.4150     3.0800    -0.1910 H     1 <1>   0.0800 
 36 H       -5.0440     4.7350    -0.5880 H     1 <1>   0.0800 
 37 H       -5.0000     4.2170     1.0750 H     1 <1>   0.0800 
@<TRIPOS>BOND
  1   1   2  2   
  2   2   3  am  
  3   2   4  1   
  4   3   5  1   
  5   3  17  1   
  6   4   6  ar  
  7   4   7  ar  
  8   5   8  1   
  9   5  18  1   
 10   5  19  1   
 11   6   9  ar  
 12   6  20  1   
 13   7  10  ar  
 14   7  21  1   
 15   8  11  1   
 16   8  22  1   
 17   8  23  1   
 18   9  12  ar  
 19   9  13  1   
 20  10  12  ar  
 21  10  24  1   
 22  11  14  1   
 23  11  15  1   
 24  11  25  1   
 25  12  16  1   
 26  13  26  1   
 27  13  27  1   
 28  13  28  1   
 29  14  29  1   
 30  14  30  1   
 31  14  31  1   
 32  15  32  1   
 33  15  33  1   
 34  15  34  1   
 35  16  35  1   
 36  16  36  1   
 37  16  37  1   
@<TRIPOS>SUBSTRUCTURE
  1 ****   2 GROUP 4 **** **** 0

# MOE 2024.06 (io_trps.svl 2023.06)
