@<TRIPOS>MOLECULE
NONAME
37 37 1 0 0 
SMALL
USER_CHARGES


@<TRIPOS>ATOM
  1 CL      -0.0630    -0.1870    -0.9250 Cl    1 <1>  -0.1770 
  2 C        1.4810    -0.8520    -0.4650 C.ar  1 <1>   0.1770 
  3 C        2.6270    -0.4140    -1.1010 C.ar  1 <1>  -0.1500 
  4 C        1.5420    -1.8070     0.5310 C.ar  1 <1>  -0.1500 
  5 C        3.8510    -0.9460    -0.7330 C.ar  1 <1>  -0.1500 
  6 C        2.7710    -2.3320     0.8890 C.ar  1 <1>  -0.1500 
  7 C        3.9530    -1.9220     0.2640 C.ar  1 <1>   0.0860 
  8 C        5.2310    -2.4960     0.6470 C.2   1 <1>   0.5440 
  9 O        5.4110    -2.9040     1.7770 O.2   1 <1>  -0.5700 
 10 N        6.2430    -2.6000    -0.2650 N.am  1 <1>  -0.7300 
 11 C        7.5850    -3.1800    -0.0110 C.3   1 <1>   0.2200 
 12 C        8.6560    -2.0900    -0.2990 C.3   1 <1>  -0.0800 
 13 C        7.7860    -4.4950    -0.8310 C.3   1 <1>  -0.0800 
 14 C       10.0920    -2.5650    -0.0180 C.3   1 <1>  -0.2400 
 15 C        8.4120    -0.8130     0.5270 C.3   1 <1>  -0.2400 
 16 C        6.4980    -5.1170    -1.4080 C.3   1 <1>  -0.2400 
 17 C        8.4670    -5.5700     0.0350 C.3   1 <1>  -0.2400 
 18 H        2.5550     0.3350    -1.8690 H     1 <1>   0.1500 
 19 H        0.6390    -2.1320     1.0170 H     1 <1>   0.1500 
 20 H        4.7410    -0.5920    -1.2220 H     1 <1>   0.1500 
 21 H        2.8280    -3.0750     1.6670 H     1 <1>   0.1500 
 22 H        6.0590    -2.3840    -1.2420 H     1 <1>   0.3700 
 23 H        7.6460    -3.4270     1.0360 H     1 <1>   0.0800 
 24 H        8.5990    -1.8310    -1.3430 H     1 <1>   0.0800 
 25 H        8.4340    -4.2830    -1.6640 H     1 <1>   0.0800 
 26 H       10.1860    -2.8910     1.0040 H     1 <1>   0.0800 
 27 H       10.7910    -1.7650    -0.1850 H     1 <1>   0.0800 
 28 H       10.3680    -3.3740    -0.6690 H     1 <1>   0.0800 
 29 H        8.4010    -1.0450     1.5780 H     1 <1>   0.0800 
 30 H        7.4710    -0.3600     0.2720 H     1 <1>   0.0800 
 31 H        9.1840    -0.0870     0.3430 H     1 <1>   0.0800 
 32 H        5.7930    -5.3200    -0.6200 H     1 <1>   0.0800 
 33 H        6.7210    -6.0420    -1.9100 H     1 <1>   0.0800 
 34 H        6.0410    -4.4600    -2.1250 H     1 <1>   0.0800 
 35 H        7.8260    -5.8490     0.8540 H     1 <1>   0.0800 
 36 H        9.3960    -5.2150     0.4420 H     1 <1>   0.0800 
 37 H        8.6750    -6.4480    -0.5500 H     1 <1>   0.0800 
@<TRIPOS>BOND
  1   1   2  1   
  2   2   3  ar  
  3   2   4  ar  
  4   3   5  ar  
  5   3  18  1   
  6   4   6  ar  
  7   4  19  1   
  8   5   7  ar  
  9   5  20  1   
 10   6   7  ar  
 11   6  21  1   
 12   7   8  1   
 13   8   9  2   
 14   8  10  am  
 15  10  11  1   
 16  10  22  1   
 17  11  12  1   
 18  11  13  1   
 19  11  23  1   
 20  12  14  1   
 21  12  15  1   
 22  12  24  1   
 23  13  16  1   
 24  13  17  1   
 25  13  25  1   
 26  14  26  1   
 27  14  27  1   
 28  14  28  1   
 29  15  29  1   
 30  15  30  1   
 31  15  31  1   
 32  16  32  1   
 33  16  33  1   
 34  16  34  1   
 35  17  35  1   
 36  17  36  1   
 37  17  37  1   
@<TRIPOS>SUBSTRUCTURE
  1 ****   8 GROUP 4 **** **** 0

# MOE 2024.06 (io_trps.svl 2023.06)
