@<TRIPOS>MOLECULE
NONAME
52 54 1 0 0 
SMALL
USER_CHARGES


@<TRIPOS>ATOM
  1 S       -0.1890    -0.5310     1.6520 S.3   1 <1>  -0.3320 
  2 C       -1.4350    -1.1530     0.5170 C.ar  1 <1>   0.1020 
  3 C        1.4120    -0.4930     0.7100 C.3   1 <1>   0.6220 
  4 C       -1.0780    -1.7530    -0.6870 C.ar  1 <1>   0.1170 
  5 C       -2.7550    -1.0210     0.9010 C.ar  1 <1>  -0.1500 
  6 N        2.3790    -0.9150     1.8000 N.3   1 <1>  -0.9000 
  7 C        1.3900    -1.3790    -0.5690 C.2   1 <1>   0.5690 
  8 C        1.5970     0.9520     0.1950 C.2   1 <1>   0.6590 
  9 N        0.2510    -1.9100    -1.0950 N.am  1 <1>  -0.5470 
 10 C       -2.0980    -2.2170    -1.5070 C.ar  1 <1>  -0.1500 
 11 C       -3.7620    -1.4900     0.0720 C.ar  1 <1>  -0.1440 
 12 C        3.7120    -1.4430     1.4500 C.3   1 <1>   0.1100 
 13 O        2.4260    -1.5790    -1.1720 O.2   1 <1>  -0.5700 
 14 O        2.5630     1.6220     0.4920 O.2   1 <1>  -0.5700 
 15 O        0.6540     1.4230    -0.6190 O.3   1 <1>  -0.4300 
 16 C       -3.4250    -2.0850    -1.1330 C.ar  1 <1>  -0.1500 
 17 C       -5.2190    -1.3500     0.4770 C.3   1 <1>  -0.0970 
 18 C        4.6070    -0.4510     0.6740 C.3   1 <1>   0.3430 
 19 C        0.6890     2.7110    -1.1950 C.3   1 <1>   0.1200 
 20 N        5.7970    -1.1150     0.0640 N.4   1 <1>  -0.9590 
 21 C        1.5090     2.6500    -2.4820 C.3   1 <1>  -0.2400 
 22 C        6.8160    -0.1160    -0.4010 C.3   1 <1>   0.3430 
 23 C        5.4260    -2.0290    -1.0750 C.3   1 <1>   0.3430 
 24 C        8.0160    -0.8060    -1.0910 C.3   1 <1>   0.1200 
 25 C        6.6770    -2.6230    -1.7620 C.3   1 <1>   0.1200 
 26 O        7.8550    -2.1990    -1.1290 O.3   1 <1>  -0.5600 
 27 H       -2.9900    -0.5560     1.8410 H     1 <1>   0.1500 
 28 H        2.4380    -0.1330     2.4680 H     1 <1>   0.3600 
 29 H        0.4010    -2.4530    -1.9460 H     1 <1>   0.3700 
 30 H       -1.8630    -2.6840    -2.4460 H     1 <1>   0.1500 
 31 H        3.5770    -2.3480     0.8860 H     1 <1>   0.0800 
 32 H        4.2130    -1.7120     2.3650 H     1 <1>   0.0800 
 33 H       -4.2000    -2.4510    -1.7850 H     1 <1>   0.1500 
 34 H       -5.3090    -1.2650     1.5450 H     1 <1>   0.0800 
 35 H       -5.7800    -2.2100     0.1570 H     1 <1>   0.0800 
 36 H       -5.6400    -0.4710     0.0230 H     1 <1>   0.0800 
 37 H        4.9240     0.3290     1.3470 H     1 <1>   0.0800 
 38 H        4.0330    -0.0020    -0.1170 H     1 <1>   0.0800 
 39 H        1.1100     3.4070    -0.4880 H     1 <1>   0.0800 
 40 H       -0.3260     3.0000    -1.4090 H     1 <1>   0.0800 
 41 H        6.2830    -1.7060     0.7540 H     1 <1>   0.4500 
 42 H        2.5270     2.3810    -2.2680 H     1 <1>   0.0800 
 43 H        1.5070     3.6160    -2.9530 H     1 <1>   0.0800 
 44 H        1.0790     1.9380    -3.1640 H     1 <1>   0.0800 
 45 H        7.1760     0.4620     0.4350 H     1 <1>   0.0800 
 46 H        6.3640     0.5720    -1.0970 H     1 <1>   0.0800 
 47 H        4.8480    -1.4880    -1.8070 H     1 <1>   0.0800 
 48 H        4.8060    -2.8350    -0.7190 H     1 <1>   0.0800 
 49 H        8.9240    -0.5970    -0.5520 H     1 <1>   0.0800 
 50 H        8.1340    -0.4460    -2.0990 H     1 <1>   0.0800 
 51 H        6.7170    -2.3310    -2.7970 H     1 <1>   0.0800 
 52 H        6.6480    -3.6980    -1.7170 H     1 <1>   0.0800 
@<TRIPOS>BOND
  1   1   2  1   
  2   1   3  1   
  3   2   4  ar  
  4   2   5  ar  
  5   3   6  1   
  6   3   7  1   
  7   3   8  1   
  8   4   9  1   
  9   4  10  ar  
 10   5  11  ar  
 11   5  27  1   
 12   6  12  1   
 13   6  28  1   
 14   7   9  am  
 15   7  13  2   
 16   8  14  2   
 17   8  15  1   
 18   9  29  1   
 19  10  16  ar  
 20  10  30  1   
 21  11  16  ar  
 22  11  17  1   
 23  12  18  1   
 24  12  31  1   
 25  12  32  1   
 26  15  19  1   
 27  16  33  1   
 28  17  34  1   
 29  17  35  1   
 30  17  36  1   
 31  18  20  1   
 32  18  37  1   
 33  18  38  1   
 34  19  21  1   
 35  19  39  1   
 36  19  40  1   
 37  20  22  1   
 38  20  23  1   
 39  20  41  1   
 40  21  42  1   
 41  21  43  1   
 42  21  44  1   
 43  22  24  1   
 44  22  45  1   
 45  22  46  1   
 46  23  25  1   
 47  23  47  1   
 48  23  48  1   
 49  24  26  1   
 50  24  49  1   
 51  24  50  1   
 52  25  26  1   
 53  25  51  1   
 54  25  52  1   
@<TRIPOS>SUBSTRUCTURE
  1 ****   7 GROUP 4 **** **** 0

# MOE 2024.06 (io_trps.svl 2023.06)
