@<TRIPOS>MOLECULE
NONAME
35 37 1 0 0 
SMALL
USER_CHARGES


@<TRIPOS>ATOM
  1 O        0.3050     0.5780    -0.1090 O.2   1 <1>  -0.5700 
  2 C        0.1560     1.7620    -0.3460 C.2   1 <1>   0.5440 
  3 N        1.2620     2.5260    -0.6660 N.am  1 <1>  -0.6600 
  4 C       -1.1760     2.3330    -0.2730 C.ar  1 <1>   0.0860 
  5 C        1.2940     4.0140    -0.5920 C.3   1 <1>   0.1400 
  6 C        2.5820     1.9040    -0.9720 C.3   1 <1>   0.1400 
  7 C       -1.9530     2.1900     0.8750 C.ar  1 <1>  -0.1500 
  8 C       -1.7300     3.0350    -1.3440 C.ar  1 <1>  -0.1500 
  9 C        2.2940     4.4470     0.4810 C.3   1 <1>  -0.1600 
 10 C        3.5960     2.3060     0.0990 C.3   1 <1>  -0.1600 
 11 C       -3.2200     2.7380     0.9600 C.ar  1 <1>  -0.1500 
 12 C       -2.9970     3.5850    -1.2670 C.ar  1 <1>  -0.1500 
 13 C        3.6640     3.8290     0.2250 C.3   1 <1>   0.5600 
 14 C       -3.7440     3.4390    -0.1110 C.ar  1 <1>  -0.1500 
 15 O        4.5250     4.1980     1.2460 O.3   1 <1>  -0.5600 
 16 O        4.2040     4.3880    -0.9290 O.3   1 <1>  -0.5600 
 17 C        5.7930     4.3700     0.7270 C.3   1 <1>   0.1200 
 18 C        5.5680     4.5430    -0.7630 C.3   1 <1>   0.1200 
 19 H        0.3260     4.4130    -0.3490 H     1 <1>   0.0800 
 20 H        1.5920     4.4080    -1.5490 H     1 <1>   0.0800 
 21 H        2.9140     2.2480    -1.9370 H     1 <1>   0.0800 
 22 H        2.5000     0.8310    -1.0120 H     1 <1>   0.0800 
 23 H       -1.5490     1.6380     1.7060 H     1 <1>   0.1500 
 24 H       -1.1540     3.1430    -2.2470 H     1 <1>   0.1500 
 25 H        1.9350     4.1230     1.4400 H     1 <1>   0.0800 
 26 H        2.3820     5.5170     0.4920 H     1 <1>   0.0800 
 27 H        4.5600     1.9050    -0.1470 H     1 <1>   0.0800 
 28 H        3.2830     1.8870     1.0370 H     1 <1>   0.0800 
 29 H       -3.8000     2.6170     1.8590 H     1 <1>   0.1500 
 30 H       -3.4030     4.1250    -2.1050 H     1 <1>   0.1500 
 31 H       -4.7300     3.8660    -0.0480 H     1 <1>   0.1500 
 32 H        6.3800     3.4940     0.9390 H     1 <1>   0.0800 
 33 H        6.2420     5.2390     1.1740 H     1 <1>   0.0800 
 34 H        5.8500     5.5240    -1.1010 H     1 <1>   0.0800 
 35 H        6.0810     3.7890    -1.3330 H     1 <1>   0.0800 
@<TRIPOS>BOND
  1   1   2  2   
  2   2   3  am  
  3   2   4  1   
  4   3   5  1   
  5   3   6  1   
  6   4   7  ar  
  7   4   8  ar  
  8   5   9  1   
  9   5  19  1   
 10   5  20  1   
 11   6  10  1   
 12   6  21  1   
 13   6  22  1   
 14   7  11  ar  
 15   7  23  1   
 16   8  12  ar  
 17   8  24  1   
 18   9  13  1   
 19   9  25  1   
 20   9  26  1   
 21  10  13  1   
 22  10  27  1   
 23  10  28  1   
 24  11  14  ar  
 25  11  29  1   
 26  12  14  ar  
 27  12  30  1   
 28  13  15  1   
 29  13  16  1   
 30  14  31  1   
 31  15  17  1   
 32  16  18  1   
 33  17  18  1   
 34  17  32  1   
 35  17  33  1   
 36  18  34  1   
 37  18  35  1   
@<TRIPOS>SUBSTRUCTURE
  1 ****   3 GROUP 4 **** **** 0

# MOE 2024.06 (io_trps.svl 2023.06)
