@<TRIPOS>MOLECULE
NONAME
52 55 1 0 0 
SMALL
USER_CHARGES


@<TRIPOS>ATOM
  1 O       -0.4740    -0.7480    -1.3900 O.2   1 <1>  -0.5700 
  2 C       -1.5820    -1.2280    -1.3120 C.2   1 <1>   0.6900 
  3 N       -2.5250    -0.6680    -0.5040 N.am  1 <1>  -0.5390 
  4 N       -1.9180    -2.3280    -2.0290 N.am  1 <1>  -0.4900 
  5 C       -3.7810    -1.2080    -0.3770 C.2   1 <1>   0.2090 
  6 C       -3.1590    -2.8920    -1.9710 C.2   1 <1>   0.6160 
  7 N       -4.6790    -0.5820     0.4500 N.pl3 1 <1>  -0.6000 
  8 C       -4.1020    -2.3310    -1.0770 C.2   1 <1>  -0.1240 
  9 O       -3.3880    -3.8220    -2.7240 O.2   1 <1>  -0.5700 
 10 C       -5.9770    -1.0260     0.5720 C.2   1 <1>  -0.0380 
 11 C       -5.4630    -2.9970    -0.9010 C.3   1 <1>   0.3400 
 12 C       -6.4220    -2.1460    -0.0580 C.2   1 <1>  -0.1240 
 13 C       -6.8930    -0.1920     1.4600 C.3   1 <1>  -0.0220 
 14 C       -5.3050    -4.4030    -0.2990 C.ar  1 <1>  -0.1430 
 15 C       -7.7700    -2.5980     0.0150 C.2   1 <1>   0.4950 
 16 C       -8.3920    -0.4090     1.1470 C.3   1 <1>   0.0000 
 17 C       -4.7040    -4.6260     0.9410 C.ar  1 <1>   0.0830 
 18 C       -5.7800    -5.4890    -1.0240 C.ar  1 <1>  -0.1500 
 19 O       -8.2420    -3.4660    -0.6820 O.2   1 <1>  -0.5700 
 20 C       -8.6880    -1.9190     1.0150 C.3   1 <1>  -0.0990 
 21 C       -9.2460     0.1810     2.2800 C.3   1 <1>  -0.2400 
 22 C       -8.7640     0.3130    -0.1620 C.3   1 <1>  -0.2400 
 23 O       -4.2490    -3.5520     1.6390 O.3   1 <1>  -0.3620 
 24 C       -4.5850    -5.9260     1.4290 C.ar  1 <1>  -0.1500 
 25 C       -5.6630    -6.7860    -0.5330 C.ar  1 <1>   0.0830 
 26 C       -3.4910    -3.6950     2.8180 C.3   1 <1>   0.0400 
 27 C       -5.0610    -6.9940     0.6940 C.ar  1 <1>  -0.1500 
 28 O       -6.1120    -7.8880    -1.1890 O.3   1 <1>  -0.3620 
 29 C       -6.8260    -7.7650    -2.3980 C.3   1 <1>   0.0400 
 30 H       -2.2310     0.1580     0.0090 H     1 <1>   0.3700 
 31 H       -1.2310    -2.7350    -2.6510 H     1 <1>   0.3700 
 32 H       -4.3750     0.2400     0.9760 H     1 <1>   0.4000 
 33 H       -5.8950    -3.0800    -1.8830 H     1 <1>   0.0800 
 34 H       -6.6570     0.8510     1.3480 H     1 <1>   0.0800 
 35 H       -6.6910    -0.4640     2.4810 H     1 <1>   0.0800 
 36 H       -6.2440    -5.3120    -1.9740 H     1 <1>   0.1500 
 37 H       -8.5510    -2.4060     1.9630 H     1 <1>   0.0800 
 38 H       -9.7090    -2.0700     0.7130 H     1 <1>   0.0800 
 39 H       -9.0280    -0.3020     3.2160 H     1 <1>   0.0800 
 40 H      -10.2940     0.0490     2.0710 H     1 <1>   0.0800 
 41 H       -9.0560     1.2340     2.3900 H     1 <1>   0.0800 
 42 H       -8.1730    -0.0400    -0.9880 H     1 <1>   0.0800 
 43 H       -8.6030     1.3730    -0.0690 H     1 <1>   0.0800 
 44 H       -9.8010     0.1520    -0.4010 H     1 <1>   0.0800 
 45 H       -4.1300    -6.1300     2.3790 H     1 <1>   0.1500 
 46 H       -4.1010    -4.1590     3.5720 H     1 <1>   0.0800 
 47 H       -3.1920    -2.7150     3.1420 H     1 <1>   0.0800 
 48 H       -2.6210    -4.2900     2.6030 H     1 <1>   0.0800 
 49 H       -4.9720    -7.9980     1.0670 H     1 <1>   0.1500 
 50 H       -7.1180    -8.7500    -2.7160 H     1 <1>   0.0800 
 51 H       -6.1860    -7.3160    -3.1370 H     1 <1>   0.0800 
 52 H       -7.7000    -7.1610    -2.2270 H     1 <1>   0.0800 
@<TRIPOS>BOND
  1   1   2  2   
  2   2   3  am  
  3   2   4  am  
  4   3   5  1   
  5   3  30  1   
  6   4   6  am  
  7   4  31  1   
  8   5   7  1   
  9   5   8  2   
 10   6   8  1   
 11   6   9  2   
 12   7  10  1   
 13   7  32  1   
 14   8  11  1   
 15  10  12  2   
 16  10  13  1   
 17  11  12  1   
 18  11  14  1   
 19  11  33  1   
 20  12  15  1   
 21  13  16  1   
 22  13  34  1   
 23  13  35  1   
 24  14  17  ar  
 25  14  18  ar  
 26  15  19  2   
 27  15  20  1   
 28  16  20  1   
 29  16  21  1   
 30  16  22  1   
 31  17  23  1   
 32  17  24  ar  
 33  18  25  ar  
 34  18  36  1   
 35  20  37  1   
 36  20  38  1   
 37  21  39  1   
 38  21  40  1   
 39  21  41  1   
 40  22  42  1   
 41  22  43  1   
 42  22  44  1   
 43  23  26  1   
 44  24  27  ar  
 45  24  45  1   
 46  25  27  ar  
 47  25  28  1   
 48  26  46  1   
 49  26  47  1   
 50  26  48  1   
 51  27  49  1   
 52  28  29  1   
 53  29  50  1   
 54  29  51  1   
 55  29  52  1   
@<TRIPOS>SUBSTRUCTURE
  1 ****  11 GROUP 4 **** **** 0

# MOE 2024.06 (io_trps.svl 2023.06)
