@<TRIPOS>MOLECULE
NONAME
27 28 1 0 0 
SMALL
USER_CHARGES


@<TRIPOS>ATOM
  1 BR       1.0230     0.0880    -1.9150 Br    1 <1>  -0.0580 
  2 C        1.2330     1.6970    -0.8860 C.2   1 <1>   0.1980 
  3 O        2.4410     2.1810    -0.7420 O.3   1 <1>  -0.2800 
  4 C        0.2900     2.4320    -0.2650 C.2   1 <1>  -0.1500 
  5 C        2.3310     3.2850     0.0010 C.2   1 <1>   0.0550 
  6 C        1.0140     3.4750     0.3180 C.2   1 <1>  -0.1500 
  7 C        3.4980     4.0610     0.3430 C.2   1 <1>   0.7150 
  8 O        3.3900     5.0660     1.0200 O.2   1 <1>  -0.5700 
  9 N        4.7130     3.6440    -0.1070 N.am  1 <1>  -0.4930 
 10 C        5.9800     4.1690     0.0560 C.2   1 <1>   0.5790 
 11 N        6.2920     5.2620     0.7500 N.2   1 <1>  -0.2270 
 12 N        6.9760     3.5840    -0.4900 N.2   1 <1>  -0.7070 
 13 N        7.5570     5.3900     0.6460 N.2   1 <1>  -0.4180 
 14 N        7.9590     4.3770    -0.1000 N.pl3 1 <1>   0.5800 
 15 C        9.3700     4.1510    -0.4680 C.3   1 <1>   0.0960 
 16 C       10.0530     3.1740     0.5030 C.3   1 <1>  -0.1600 
 17 C       11.5210     2.9440     0.1230 C.3   1 <1>  -0.2400 
 18 H       -0.7720     2.2720    -0.2160 H     1 <1>   0.1500 
 19 H        0.6000     4.2770     0.9060 H     1 <1>   0.1500 
 20 H        4.7090     2.7990    -0.6680 H     1 <1>   0.3700 
 21 H        9.8760     5.0990    -0.4560 H     1 <1>   0.0800 
 22 H        9.3960     3.7590    -1.4680 H     1 <1>   0.0800 
 23 H        9.5330     2.2310     0.4860 H     1 <1>   0.0800 
 24 H       10.0060     3.5720     1.5030 H     1 <1>   0.0800 
 25 H       11.5960     2.5260    -0.8660 H     1 <1>   0.0800 
 26 H       11.9760     2.2580     0.8170 H     1 <1>   0.0800 
 27 H       12.0700     3.8690     0.1530 H     1 <1>   0.0800 
@<TRIPOS>BOND
  1   1   2  1   
  2   2   3  1   
  3   2   4  2   
  4   3   5  1   
  5   4   6  1   
  6   4  18  1   
  7   5   6  2   
  8   5   7  1   
  9   6  19  1   
 10   7   8  2   
 11   7   9  am  
 12   9  10  1   
 13   9  20  1   
 14  10  11  1   
 15  10  12  2   
 16  11  13  2   
 17  12  14  1   
 18  13  14  1   
 19  14  15  1   
 20  15  16  1   
 21  15  21  1   
 22  15  22  1   
 23  16  17  1   
 24  16  23  1   
 25  16  24  1   
 26  17  25  1   
 27  17  26  1   
 28  17  27  1   
@<TRIPOS>SUBSTRUCTURE
  1 ****   9 GROUP 4 **** **** 0

# MOE 2024.06 (io_trps.svl 2023.06)
