@<TRIPOS>MOLECULE
NONAME
35 37 1 0 0 
SMALL
USER_CHARGES


@<TRIPOS>ATOM
  1 O        0.4780    -1.2640     2.2840 O.2   1 <1>  -0.5700 
  2 C        0.3510    -1.8860     1.2480 C.2   1 <1>   0.7160 
  3 N       -0.9000    -2.0240     0.6960 N.am  1 <1>  -0.6600 
  4 C        1.4940    -2.4670     0.6050 C.2   1 <1>  -0.0860 
  5 C       -1.1750    -2.6130    -0.6340 C.3   1 <1>   0.1400 
  6 C       -2.1020    -1.3680     1.2520 C.3   1 <1>   0.1400 
  7 C        2.5170    -1.7990    -0.0600 C.2   1 <1>   0.2350 
  8 C        1.8670    -3.7550     0.4840 C.2   1 <1>  -0.0400 
  9 C       -2.6800    -2.4620    -0.8210 C.3   1 <1>  -0.1600 
 10 C       -3.0730    -1.2940     0.0800 C.3   1 <1>  -0.1600 
 11 N        3.3630    -2.6700    -0.5070 N.2   1 <1>  -0.4100 
 12 C        2.6520    -0.3670    -0.2440 C.ar  1 <1>   0.0540 
 13 O        2.9830    -3.8840    -0.1860 O.3   1 <1>  -0.0190 
 14 C        1.1950    -5.0080     1.0120 C.3   1 <1>  -0.0600 
 15 C        1.5630     0.4600    -0.5250 C.ar  1 <1>  -0.1500 
 16 C        3.9060     0.2360    -0.1550 C.ar  1 <1>  -0.1500 
 17 C        1.7180     1.8240    -0.6960 C.ar  1 <1>  -0.1500 
 18 C        4.0690     1.5980    -0.3260 C.ar  1 <1>  -0.1500 
 19 C        2.9730     2.3970    -0.5960 C.ar  1 <1>  -0.1500 
 20 H       -0.8780    -3.6470    -0.6690 H     1 <1>   0.0800 
 21 H       -0.6440    -2.0570    -1.3880 H     1 <1>   0.0800 
 22 H       -1.8690    -0.3890     1.6390 H     1 <1>   0.0800 
 23 H       -2.5030    -1.9810     2.0410 H     1 <1>   0.0800 
 24 H       -3.1660    -3.3610    -0.4840 H     1 <1>   0.0800 
 25 H       -2.9400    -2.2910    -1.8510 H     1 <1>   0.0800 
 26 H       -2.9240    -0.3630    -0.4390 H     1 <1>   0.0800 
 27 H       -4.0970    -1.3520     0.4060 H     1 <1>   0.0800 
 28 H        1.8660    -5.5250     1.6750 H     1 <1>   0.0800 
 29 H        0.2990    -4.7590     1.5520 H     1 <1>   0.0800 
 30 H        0.9430    -5.6590     0.1950 H     1 <1>   0.0800 
 31 H        0.5800     0.0390    -0.6160 H     1 <1>   0.1500 
 32 H        4.7640    -0.3790     0.0540 H     1 <1>   0.1500 
 33 H        0.8630     2.4420    -0.9070 H     1 <1>   0.1500 
 34 H        5.0490     2.0360    -0.2490 H     1 <1>   0.1500 
 35 H        3.0960     3.4580    -0.7280 H     1 <1>   0.1500 
@<TRIPOS>BOND
  1   1   2  2   
  2   2   3  am  
  3   2   4  1   
  4   3   5  1   
  5   3   6  1   
  6   4   7  1   
  7   4   8  2   
  8   5   9  1   
  9   5  20  1   
 10   5  21  1   
 11   6  10  1   
 12   6  22  1   
 13   6  23  1   
 14   7  11  2   
 15   7  12  1   
 16   8  13  1   
 17   8  14  1   
 18   9  10  1   
 19   9  24  1   
 20   9  25  1   
 21  10  26  1   
 22  10  27  1   
 23  11  13  1   
 24  12  15  ar  
 25  12  16  ar  
 26  14  28  1   
 27  14  29  1   
 28  14  30  1   
 29  15  17  ar  
 30  15  31  1   
 31  16  18  ar  
 32  16  32  1   
 33  17  19  ar  
 34  17  33  1   
 35  18  19  ar  
 36  18  34  1   
 37  19  35  1   
@<TRIPOS>SUBSTRUCTURE
  1 ****   4 GROUP 4 **** **** 0

# MOE 2024.06 (io_trps.svl 2023.06)
