@<TRIPOS>MOLECULE
NONAME
49 50 1 0 0 
SMALL
USER_CHARGES


@<TRIPOS>ATOM
  1 S        0.2970     0.0770     0.4450 S.o2  1 <1>   1.3330 
  2 O        0.8920    -1.2220     0.2380 O.2   1 <1>  -0.6500 
  3 O       -0.0010     0.5860     1.7610 O.2   1 <1>  -0.6500 
  4 N        1.2620     1.2490    -0.3990 N.am  1 <1>  -0.6930 
  5 C       -1.2100     0.1140    -0.4990 C.3   1 <1>  -0.1350 
  6 C        1.4230     2.5340     0.1210 C.ar  1 <1>   0.1990 
  7 C        2.2350     0.7020    -1.3800 C.3   1 <1>   0.1160 
  8 C        2.6130     2.9890     0.7220 C.ar  1 <1>   0.0860 
  9 C        0.3420     3.4090     0.0330 C.ar  1 <1>  -0.1500 
 10 C        3.7970     2.1740     0.8180 C.2   1 <1>   0.5440 
 11 C        2.6540     4.2920     1.2240 C.ar  1 <1>  -0.1500 
 12 C        0.4060     4.6950     0.5280 C.ar  1 <1>  -0.1500 
 13 O        3.8020     1.1400     1.4520 O.2   1 <1>  -0.5700 
 14 N        4.9290     2.5980     0.1560 N.am  1 <1>  -0.5470 
 15 C        1.5690     5.1390     1.1300 C.ar  1 <1>  -0.1500 
 16 C        6.2090     2.0370     0.0230 C.ar  1 <1>   0.1170 
 17 C        7.0100     2.4640    -1.0290 C.ar  1 <1>  -0.1500 
 18 C        6.7270     1.0860     0.8970 C.ar  1 <1>  -0.1500 
 19 C        8.2840     1.9550    -1.2090 C.ar  1 <1>  -0.1500 
 20 C        8.0000     0.5750     0.7190 C.ar  1 <1>  -0.1500 
 21 C        8.7880     1.0040    -0.3370 C.ar  1 <1>  -0.1430 
 22 C       10.1870     0.4420    -0.5310 C.3   1 <1>  -0.0170 
 23 C       11.2170     1.2860     0.2280 C.3   1 <1>  -0.1600 
 24 C       12.6380     0.7370     0.0490 C.3   1 <1>  -0.1600 
 25 C       13.6560     1.5890     0.8110 C.3   1 <1>  -0.2400 
 26 H       -1.8960    -0.6150    -0.1140 H     1 <1>   0.0800 
 27 H       -1.0090    -0.1130    -1.5270 H     1 <1>   0.0800 
 28 H       -1.6690     1.0790    -0.4350 H     1 <1>   0.0800 
 29 H        1.7180     0.1130    -2.1180 H     1 <1>   0.0800 
 30 H        2.9460     0.0710    -0.8720 H     1 <1>   0.0800 
 31 H        2.7610     1.4990    -1.8740 H     1 <1>   0.0800 
 32 H       -0.5650     3.0750    -0.4330 H     1 <1>   0.1500 
 33 H        3.5530     4.6400     1.7040 H     1 <1>   0.1500 
 34 H       -0.4450     5.3510     0.4520 H     1 <1>   0.1500 
 35 H        4.7960     3.4530    -0.3800 H     1 <1>   0.3700 
 36 H        1.6210     6.1400     1.5270 H     1 <1>   0.1500 
 37 H        6.6390     3.1980    -1.7190 H     1 <1>   0.1500 
 38 H        6.1420     0.7390     1.7280 H     1 <1>   0.1500 
 39 H        8.8850     2.3010    -2.0320 H     1 <1>   0.1500 
 40 H        8.3740    -0.1600     1.4100 H     1 <1>   0.1500 
 41 H       10.4280     0.4290    -1.5800 H     1 <1>   0.0800 
 42 H       10.2170    -0.5740    -0.1770 H     1 <1>   0.0800 
 43 H       10.9620     1.2950     1.2740 H     1 <1>   0.0800 
 44 H       11.1740     2.3010    -0.1310 H     1 <1>   0.0800 
 45 H       12.8950     0.7310    -0.9970 H     1 <1>   0.0800 
 46 H       12.6830    -0.2760     0.4100 H     1 <1>   0.0800 
 47 H       13.6440     2.6020     0.4510 H     1 <1>   0.0800 
 48 H       14.6460     1.1890     0.6750 H     1 <1>   0.0800 
 49 H       13.4310     1.5920     1.8630 H     1 <1>   0.0800 
@<TRIPOS>BOND
  1   1   2  2   
  2   1   3  2   
  3   1   4  am  
  4   1   5  1   
  5   4   6  1   
  6   4   7  1   
  7   5  26  1   
  8   5  27  1   
  9   5  28  1   
 10   6   8  ar  
 11   6   9  ar  
 12   7  29  1   
 13   7  30  1   
 14   7  31  1   
 15   8  10  1   
 16   8  11  ar  
 17   9  12  ar  
 18   9  32  1   
 19  10  13  2   
 20  10  14  am  
 21  11  15  ar  
 22  11  33  1   
 23  12  15  ar  
 24  12  34  1   
 25  14  16  1   
 26  14  35  1   
 27  15  36  1   
 28  16  17  ar  
 29  16  18  ar  
 30  17  19  ar  
 31  17  37  1   
 32  18  20  ar  
 33  18  38  1   
 34  19  21  ar  
 35  19  39  1   
 36  20  21  ar  
 37  20  40  1   
 38  21  22  1   
 39  22  23  1   
 40  22  41  1   
 41  22  42  1   
 42  23  24  1   
 43  23  43  1   
 44  23  44  1   
 45  24  25  1   
 46  24  45  1   
 47  24  46  1   
 48  25  47  1   
 49  25  48  1   
 50  25  49  1   
@<TRIPOS>SUBSTRUCTURE
  1 ****  14 GROUP 4 **** **** 0

# MOE 2024.06 (io_trps.svl 2023.06)
