@<TRIPOS>MOLECULE
NONAME
46 46 1 0 0 
SMALL
USER_CHARGES


@<TRIPOS>ATOM
  1 O        7.3620    -2.6850     0.2100 O.3   1 <1>  -0.3630 
  2 C        8.4880    -1.9230     0.1600 C.ar  1 <1>   0.0830 
  3 C        7.3810    -4.0880     0.1870 C.3   1 <1>   0.1200 
  4 C        8.3690    -0.5240     0.1310 C.ar  1 <1>  -0.1440 
  5 C        9.7460    -2.5240     0.1390 C.ar  1 <1>  -0.1500 
  6 C        5.9270    -4.5560     0.2120 C.3   1 <1>  -0.1600 
  7 C        9.5540     0.2130     0.0780 C.ar  1 <1>  -0.1500 
  8 C        6.9880     0.1980     0.1550 C.3   1 <1>   0.1430 
  9 C       10.8940    -1.7620     0.0870 C.ar  1 <1>  -0.1500 
 10 C        5.8500    -6.0800     0.1750 C.3   1 <1>   0.3430 
 11 C       10.8010    -0.3860     0.0560 C.ar  1 <1>  -0.1430 
 12 C        7.1030     1.7360     0.1150 C.3   1 <1>  -0.2400 
 13 C        6.2230    -0.1350     1.4480 C.3   1 <1>  -0.2400 
 14 C        6.1480    -0.1940    -1.0740 C.3   1 <1>  -0.2400 
 15 N        4.4330    -6.5340     0.3010 N.4   1 <1>  -0.9590 
 16 C       12.0510     0.4740    -0.0020 C.3   1 <1>  -0.0970 
 17 C        4.3740    -7.9980     0.6030 C.3   1 <1>   0.2630 
 18 C        3.6240    -6.2250    -0.9230 C.3   1 <1>   0.2630 
 19 H        7.9190    -4.4310     1.0540 H     1 <1>   0.0800 
 20 H        7.8780    -4.4010    -0.7160 H     1 <1>   0.0800 
 21 H        9.8660    -3.5880     0.1640 H     1 <1>   0.1500 
 22 H        5.4280    -4.1350    -0.6420 H     1 <1>   0.0800 
 23 H        5.4700    -4.1890     1.1140 H     1 <1>   0.0800 
 24 H        9.5450     1.2850     0.0520 H     1 <1>   0.1500 
 25 H       11.8560    -2.2430     0.0700 H     1 <1>   0.1500 
 26 H        6.4270    -6.4760     0.9960 H     1 <1>   0.0800 
 27 H        6.2760    -6.4490    -0.7450 H     1 <1>   0.0800 
 28 H        7.5970     2.0570    -0.7840 H     1 <1>   0.0800 
 29 H        7.6500     2.0980     0.9680 H     1 <1>   0.0800 
 30 H        6.1290     2.1920     0.1340 H     1 <1>   0.0800 
 31 H        6.8330     0.1010     2.3020 H     1 <1>   0.0800 
 32 H        5.9620    -1.1730     1.4990 H     1 <1>   0.0800 
 33 H        5.3130     0.4340     1.5090 H     1 <1>   0.0800 
 34 H        6.7060    -0.0010    -1.9720 H     1 <1>   0.0800 
 35 H        5.2360     0.3740    -1.1080 H     1 <1>   0.0800 
 36 H        5.8840    -1.2320    -1.0590 H     1 <1>   0.0800 
 37 H        4.0160    -6.0270     1.0970 H     1 <1>   0.4500 
 38 H       12.0800     1.0110    -0.9340 H     1 <1>   0.0800 
 39 H       12.9380    -0.1280     0.0750 H     1 <1>   0.0800 
 40 H       12.0470     1.1820     0.8070 H     1 <1>   0.0800 
 41 H        4.8050    -8.5660    -0.2050 H     1 <1>   0.0800 
 42 H        3.3510    -8.3120     0.7360 H     1 <1>   0.0800 
 43 H        4.9180    -8.2170     1.5080 H     1 <1>   0.0800 
 44 H        4.0490    -6.7110    -1.7860 H     1 <1>   0.0800 
 45 H        3.6010    -5.1620    -1.1020 H     1 <1>   0.0800 
 46 H        2.6100    -6.5690    -0.7980 H     1 <1>   0.0800 
@<TRIPOS>BOND
  1   1   2  1   
  2   1   3  1   
  3   2   4  ar  
  4   2   5  ar  
  5   3   6  1   
  6   3  19  1   
  7   3  20  1   
  8   4   7  ar  
  9   4   8  1   
 10   5   9  ar  
 11   5  21  1   
 12   6  10  1   
 13   6  22  1   
 14   6  23  1   
 15   7  11  ar  
 16   7  24  1   
 17   8  12  1   
 18   8  13  1   
 19   8  14  1   
 20   9  11  ar  
 21   9  25  1   
 22  10  15  1   
 23  10  26  1   
 24  10  27  1   
 25  11  16  1   
 26  12  28  1   
 27  12  29  1   
 28  12  30  1   
 29  13  31  1   
 30  13  32  1   
 31  13  33  1   
 32  14  34  1   
 33  14  35  1   
 34  14  36  1   
 35  15  17  1   
 36  15  18  1   
 37  15  37  1   
 38  16  38  1   
 39  16  39  1   
 40  16  40  1   
 41  17  41  1   
 42  17  42  1   
 43  17  43  1   
 44  18  44  1   
 45  18  45  1   
 46  18  46  1   
@<TRIPOS>SUBSTRUCTURE
  1 ****   1 GROUP 4 **** **** 0

# MOE 2024.06 (io_trps.svl 2023.06)
