@<TRIPOS>MOLECULE
NONAME
38 38 1 0 0 
SMALL
USER_CHARGES


@<TRIPOS>ATOM
  1 O       -0.2390     0.5760    -0.3270 O.3   1 <1>  -0.3630 
  2 C       -1.5620     0.4110    -0.0770 C.ar  1 <1>   0.0830 
  3 C        0.3580     1.8540    -0.2960 C.3   1 <1>   0.1200 
  4 C       -2.0600    -0.8780    -0.1760 C.ar  1 <1>  -0.1500 
  5 C       -2.4230     1.4500     0.2660 C.ar  1 <1>  -0.1500 
  6 C        1.8480     1.6970    -0.6270 C.3   1 <1>   0.2000 
  7 C       -3.3990    -1.1340     0.0640 C.ar  1 <1>  -0.1500 
  8 C       -3.7610     1.1900     0.5050 C.ar  1 <1>  -0.1500 
  9 O        2.3980     0.7150     0.2000 O.3   1 <1>  -0.6800 
 10 C        2.6450     3.0030    -0.4320 C.3   1 <1>   0.3430 
 11 C       -4.2560    -0.1010     0.4070 C.ar  1 <1>  -0.1440 
 12 N        4.0870     2.6820    -0.2210 N.4   1 <1>  -0.9060 
 13 C       -5.7250    -0.3800     0.6680 C.3   1 <1>  -0.0970 
 14 C        4.8710     3.7010     0.4810 C.3   1 <1>   0.4230 
 15 C        5.0720     4.9020    -0.4370 C.3   1 <1>  -0.2400 
 16 C        6.2060     3.0720     0.8540 C.3   1 <1>  -0.2400 
 17 H        0.2260     2.2650     0.6900 H     1 <1>   0.0800 
 18 H       -0.1330     2.4750    -1.0250 H     1 <1>   0.0800 
 19 H       -1.3990    -1.6820    -0.4420 H     1 <1>   0.1500 
 20 H       -2.0810     2.4620     0.3540 H     1 <1>   0.1500 
 21 H        1.9460     1.3610    -1.6450 H     1 <1>   0.0800 
 22 H       -3.7700    -2.1400    -0.0190 H     1 <1>   0.1500 
 23 H       -4.4210     1.9980     0.7680 H     1 <1>   0.1500 
 24 H        1.7570    -0.0350     0.2550 H     1 <1>   0.4000 
 25 H        2.2610     3.5060     0.4390 H     1 <1>   0.0800 
 26 H        2.5150     3.6540    -1.2810 H     1 <1>   0.0800 
 27 H        4.5430     2.4260    -1.1010 H     1 <1>   0.4500 
 28 H        4.0660     1.8080     0.3380 H     1 <1>   0.4500 
 29 H       -5.8550    -1.3750     1.0540 H     1 <1>   0.0800 
 30 H       -6.2810    -0.2870    -0.2470 H     1 <1>   0.0800 
 31 H       -6.1180     0.3150     1.3880 H     1 <1>   0.0800 
 32 H        4.3580     4.0070     1.3810 H     1 <1>   0.0800 
 33 H        5.5670     4.6170    -1.3490 H     1 <1>   0.0800 
 34 H        5.6870     5.6330     0.0590 H     1 <1>   0.0800 
 35 H        4.1350     5.3750    -0.6690 H     1 <1>   0.0800 
 36 H        6.7500     2.7570    -0.0190 H     1 <1>   0.0800 
 37 H        6.0600     2.2300     1.5080 H     1 <1>   0.0800 
 38 H        6.8100     3.7910     1.3800 H     1 <1>   0.0800 
@<TRIPOS>BOND
  1   1   2  1   
  2   1   3  1   
  3   2   4  ar  
  4   2   5  ar  
  5   3   6  1   
  6   3  17  1   
  7   3  18  1   
  8   4   7  ar  
  9   4  19  1   
 10   5   8  ar  
 11   5  20  1   
 12   6   9  1   
 13   6  10  1   
 14   6  21  1   
 15   7  11  ar  
 16   7  22  1   
 17   8  11  ar  
 18   8  23  1   
 19   9  24  1   
 20  10  12  1   
 21  10  25  1   
 22  10  26  1   
 23  11  13  1   
 24  12  14  1   
 25  12  27  1   
 26  12  28  1   
 27  13  29  1   
 28  13  30  1   
 29  13  31  1   
 30  14  15  1   
 31  14  16  1   
 32  14  32  1   
 33  15  33  1   
 34  15  34  1   
 35  15  35  1   
 36  16  36  1   
 37  16  37  1   
 38  16  38  1   
@<TRIPOS>SUBSTRUCTURE
  1 ****   3 GROUP 4 **** **** 0

# MOE 2024.06 (io_trps.svl 2023.06)
