@<TRIPOS>MOLECULE
NONAME
35 35 1 0 0 
SMALL
USER_CHARGES


@<TRIPOS>ATOM
  1 O        0.9750     3.4850    -2.3690 O.2   1 <1>  -0.5700 
  2 C        0.2520     2.9400    -1.5690 C.2   1 <1>   0.5690 
  3 N        0.7010     1.9610    -0.7400 N.am  1 <1>  -0.7300 
  4 C       -1.2080     3.3740    -1.4980 C.3   1 <1>   0.1810 
  5 C        2.0920     1.4620    -0.6560 C.3   1 <1>   0.1400 
  6 O       -1.9150     2.6700    -0.4830 O.3   1 <1>  -0.3620 
  7 C        2.6050     1.5290     0.7920 C.3   1 <1>  -0.0800 
  8 C       -3.2320     2.9030    -0.2590 C.ar  1 <1>   0.0820 
  9 C        2.6420     2.9700     1.3230 C.3   1 <1>  -0.2400 
 10 C        4.0080     0.9150     0.8800 C.3   1 <1>  -0.2400 
 11 C       -3.8350     2.1610     0.7450 C.ar  1 <1>  -0.1500 
 12 C       -3.9880     3.8290    -0.9730 C.ar  1 <1>  -0.1500 
 13 C       -5.1760     2.3300     1.0450 C.ar  1 <1>  -0.1440 
 14 C       -5.3290     3.9990    -0.6770 C.ar  1 <1>  -0.1500 
 15 C       -5.9210     3.2520     0.3280 C.ar  1 <1>  -0.1500 
 16 C       -5.8330     1.5140     2.1440 C.3   1 <1>  -0.0970 
 17 H        0.0300     1.5580    -0.0810 H     1 <1>   0.3700 
 18 H       -1.6800     3.1750    -2.4420 H     1 <1>   0.0800 
 19 H       -1.2520     4.4240    -1.2760 H     1 <1>   0.0800 
 20 H        2.7290     2.0500    -1.2960 H     1 <1>   0.0800 
 21 H        2.1150     0.4450    -1.0060 H     1 <1>   0.0800 
 22 H        1.9480     0.9450     1.4140 H     1 <1>   0.0800 
 23 H        3.2670     3.5860     0.6990 H     1 <1>   0.0800 
 24 H        3.0290     2.9920     2.3270 H     1 <1>   0.0800 
 25 H        1.6540     3.3950     1.3370 H     1 <1>   0.0800 
 26 H        4.7030     1.4690     0.2730 H     1 <1>   0.0800 
 27 H        3.9940    -0.1060     0.5410 H     1 <1>   0.0800 
 28 H        4.3580     0.9270     1.8980 H     1 <1>   0.0800 
 29 H       -3.2410     1.4490     1.2890 H     1 <1>   0.1500 
 30 H       -3.5590     4.4230    -1.7570 H     1 <1>   0.1500 
 31 H       -5.9160     4.7130    -1.2280 H     1 <1>   0.1500 
 32 H       -6.9640     3.3920     0.5490 H     1 <1>   0.1500 
 33 H       -5.0920     1.0830     2.7930 H     1 <1>   0.0800 
 34 H       -6.4160     0.7220     1.7100 H     1 <1>   0.0800 
 35 H       -6.4790     2.1390     2.7340 H     1 <1>   0.0800 
@<TRIPOS>BOND
  1   1   2  2   
  2   2   3  am  
  3   2   4  1   
  4   3   5  1   
  5   3  17  1   
  6   4   6  1   
  7   4  18  1   
  8   4  19  1   
  9   5   7  1   
 10   5  20  1   
 11   5  21  1   
 12   6   8  1   
 13   7   9  1   
 14   7  10  1   
 15   7  22  1   
 16   8  11  ar  
 17   8  12  ar  
 18   9  23  1   
 19   9  24  1   
 20   9  25  1   
 21  10  26  1   
 22  10  27  1   
 23  10  28  1   
 24  11  13  ar  
 25  11  29  1   
 26  12  14  ar  
 27  12  30  1   
 28  13  15  ar  
 29  13  16  1   
 30  14  15  ar  
 31  14  31  1   
 32  15  32  1   
 33  16  33  1   
 34  16  34  1   
 35  16  35  1   
@<TRIPOS>SUBSTRUCTURE
  1 ****   6 GROUP 4 **** **** 0

# MOE 2024.06 (io_trps.svl 2023.06)
