@<TRIPOS>MOLECULE
NONAME
40 41 1 0 0 
SMALL
USER_CHARGES


@<TRIPOS>ATOM
  1 S        0.0470     0.7400     0.4170 S.o2  1 <1>   1.3330 
  2 O        0.6720     1.4930     1.4800 O.2   1 <1>  -0.6500 
  3 O       -0.5990    -0.5100     0.7460 O.2   1 <1>  -0.6500 
  4 N       -1.1190     1.7420    -0.2870 N.am  1 <1>  -0.8490 
  5 C        1.2230     0.3900    -0.8760 C.3   1 <1>  -0.1350 
  6 C       -2.4140     1.5500     0.3750 C.3   1 <1>   0.3390 
  7 C       -0.7230     3.1830    -0.2990 C.3   1 <1>   0.2570 
  8 C       -3.5160     2.3930    -0.2600 C.ar  1 <1>  -0.1440 
  9 C        0.5620     3.5250    -1.0760 C.2   1 <1>   0.5690 
 10 C       -3.7620     2.3010    -1.6250 C.ar  1 <1>  -0.1500 
 11 C       -4.2790     3.2520     0.5230 C.ar  1 <1>  -0.1500 
 12 O        0.6050     3.2420    -2.2530 O.2   1 <1>  -0.5700 
 13 N        1.6350     4.1260    -0.4680 N.am  1 <1>  -0.6600 
 14 C       -4.7600     3.0610    -2.2120 C.ar  1 <1>  -0.1500 
 15 C       -5.2810     4.0180    -0.0510 C.ar  1 <1>  -0.1500 
 16 C        2.8690     4.4630    -1.2120 C.3   1 <1>   0.1400 
 17 C        1.7550     4.5230     0.9550 C.3   1 <1>   0.1400 
 18 C       -5.5020     3.9060    -1.4110 C.ar  1 <1>   0.1900 
 19 C        3.8730     4.8770    -0.1420 C.3   1 <1>  -0.1600 
 20 C        3.0150     5.3780     1.0150 C.3   1 <1>  -0.1600 
 21 F       -6.4460     4.6260    -1.9560 F     1 <1>  -0.1900 
 22 H        1.8890    -0.3870    -0.5600 H     1 <1>   0.0800 
 23 H        1.8080     1.2540    -1.1120 H     1 <1>   0.0800 
 24 H        0.7110     0.0660    -1.7610 H     1 <1>   0.0800 
 25 H       -2.3230     1.7820     1.4230 H     1 <1>   0.0800 
 26 H       -2.7130     0.5180     0.2910 H     1 <1>   0.0800 
 27 H       -0.6410     3.5330     0.7120 H     1 <1>   0.0800 
 28 H       -1.4970     3.7590    -0.7710 H     1 <1>   0.0800 
 29 H       -3.1670     1.6380    -2.2330 H     1 <1>   0.1500 
 30 H       -4.1010     3.3300     1.5820 H     1 <1>   0.1500 
 31 H       -4.9590     3.0010    -3.2660 H     1 <1>   0.1500 
 32 H       -5.8810     4.6870     0.5380 H     1 <1>   0.1500 
 33 H        2.6630     5.2840    -1.8770 H     1 <1>   0.0800 
 34 H        3.2190     3.6180    -1.7820 H     1 <1>   0.0800 
 35 H        1.8820     3.6440     1.5640 H     1 <1>   0.0800 
 36 H        0.8930     5.0780     1.2850 H     1 <1>   0.0800 
 37 H        4.5560     5.6250    -0.5030 H     1 <1>   0.0800 
 38 H        4.4320     4.0100     0.1650 H     1 <1>   0.0800 
 39 H        3.5130     5.2890     1.9640 H     1 <1>   0.0800 
 40 H        2.7490     6.4080     0.8540 H     1 <1>   0.0800 
@<TRIPOS>BOND
  1   1   2  2   
  2   1   3  2   
  3   1   4  am  
  4   1   5  1   
  5   4   6  1   
  6   4   7  1   
  7   5  22  1   
  8   5  23  1   
  9   5  24  1   
 10   6   8  1   
 11   6  25  1   
 12   6  26  1   
 13   7   9  1   
 14   7  27  1   
 15   7  28  1   
 16   8  10  ar  
 17   8  11  ar  
 18   9  12  2   
 19   9  13  am  
 20  10  14  ar  
 21  10  29  1   
 22  11  15  ar  
 23  11  30  1   
 24  13  16  1   
 25  13  17  1   
 26  14  18  ar  
 27  14  31  1   
 28  15  18  ar  
 29  15  32  1   
 30  16  19  1   
 31  16  33  1   
 32  16  34  1   
 33  17  20  1   
 34  17  35  1   
 35  17  36  1   
 36  18  21  1   
 37  19  20  1   
 38  19  37  1   
 39  19  38  1   
 40  20  39  1   
 41  20  40  1   
@<TRIPOS>SUBSTRUCTURE
  1 ****   7 GROUP 4 **** **** 0

# MOE 2024.06 (io_trps.svl 2023.06)
