@<TRIPOS>MOLECULE
NONAME
33 34 1 0 0 
SMALL
USER_CHARGES


@<TRIPOS>ATOM
  1 O       -0.8310    -1.0880     1.7550 O.2   1 <1>  -0.5700 
  2 C       -1.1950    -1.5890     0.7070 C.2   1 <1>   0.5440 
  3 N       -0.2710    -2.2710    -0.0570 N.am  1 <1>  -0.6600 
  4 C       -2.5840    -1.4640     0.3080 C.ar  1 <1>   0.0860 
  5 C        1.1980    -2.1800     0.2060 C.3   1 <1>   0.1400 
  6 C       -0.6250    -3.3480    -1.0310 C.3   1 <1>   0.1400 
  7 C       -2.9480    -1.1090    -0.9930 C.ar  1 <1>  -0.1500 
  8 C       -3.6140    -1.6850     1.2220 C.ar  1 <1>  -0.1500 
  9 C        1.7810    -3.5680     0.5120 C.3   1 <1>   0.1200 
 10 C        0.0750    -4.6680    -0.6610 C.3   1 <1>   0.1200 
 11 C       -4.2740    -1.0000    -1.3640 C.ar  1 <1>  -0.1500 
 12 C       -4.9450    -1.5770     0.8610 C.ar  1 <1>  -0.1500 
 13 O        1.4520    -4.4750    -0.5030 O.3   1 <1>  -0.5600 
 14 C       -5.2840    -1.2340    -0.4450 C.ar  1 <1>   0.0830 
 15 O       -6.5540    -1.1060    -0.8890 O.3   1 <1>  -0.3630 
 16 C       -7.6600    -1.2430    -0.0240 C.3   1 <1>   0.3200 
 17 C       -8.9070    -1.0170    -0.8090 C.1   1 <1>  -0.2000 
 18 C       -9.9020    -0.8370    -1.4340 C.1   1 <1>  -0.1770 
 19 H        1.3990    -1.5200     1.0320 H     1 <1>   0.0800 
 20 H        1.6870    -1.7760    -0.6620 H     1 <1>   0.0800 
 21 H       -0.3160    -3.0490    -2.0170 H     1 <1>   0.0800 
 22 H       -1.6870    -3.5130    -1.0470 H     1 <1>   0.0800 
 23 H       -2.1750    -0.9110    -1.7150 H     1 <1>   0.1500 
 24 H       -3.3530    -1.9420     2.2350 H     1 <1>   0.1500 
 25 H        1.3980    -3.9390     1.4480 H     1 <1>   0.0800 
 26 H        2.8530    -3.5160     0.5730 H     1 <1>   0.0800 
 27 H       -0.0670    -5.3950    -1.4410 H     1 <1>   0.0800 
 28 H       -0.3240    -5.0620     0.2570 H     1 <1>   0.0800 
 29 H       -4.5400    -0.7280    -2.3710 H     1 <1>   0.1500 
 30 H       -5.6950    -1.7600     1.6060 H     1 <1>   0.1500 
 31 H       -7.5730    -0.5110     0.7590 H     1 <1>   0.0800 
 32 H       -7.6520    -2.2370     0.3850 H     1 <1>   0.0800 
 33 H      -10.7980    -0.6730    -2.0080 H     1 <1>   0.1770 
@<TRIPOS>BOND
  1   1   2  2   
  2   2   3  am  
  3   2   4  1   
  4   3   5  1   
  5   3   6  1   
  6   4   7  ar  
  7   4   8  ar  
  8   5   9  1   
  9   5  19  1   
 10   5  20  1   
 11   6  10  1   
 12   6  21  1   
 13   6  22  1   
 14   7  11  ar  
 15   7  23  1   
 16   8  12  ar  
 17   8  24  1   
 18   9  13  1   
 19   9  25  1   
 20   9  26  1   
 21  10  13  1   
 22  10  27  1   
 23  10  28  1   
 24  11  14  ar  
 25  11  29  1   
 26  12  14  ar  
 27  12  30  1   
 28  14  15  1   
 29  15  16  1   
 30  16  17  1   
 31  16  31  1   
 32  16  32  1   
 33  17  18  3   
 34  18  33  1   
@<TRIPOS>SUBSTRUCTURE
  1 ****   4 GROUP 4 **** **** 0

# MOE 2024.06 (io_trps.svl 2023.06)
