@<TRIPOS>MOLECULE
NONAME
45 46 1 0 0 
SMALL
USER_CHARGES


@<TRIPOS>ATOM
  1 O       -1.5440     1.0170    -1.0470 O.2   1 <1>  -0.5700 
  2 C       -1.3740     1.3690     0.1040 C.2   1 <1>   0.6900 
  3 N       -2.3560     1.1500     1.0220 N.am  1 <1>  -0.6600 
  4 N       -0.2650     2.0250     0.4960 N.am  1 <1>  -0.7300 
  5 C       -3.1460     2.3340     1.4490 C.3   1 <1>   0.1400 
  6 C       -3.1860    -0.0770     0.8570 C.3   1 <1>   0.1400 
  7 C        0.9030     2.2980    -0.3560 C.3   1 <1>   0.2200 
  8 C       -4.2810     2.5970     0.4370 C.3   1 <1>   0.3430 
  9 C       -4.3220     0.1810    -0.1530 C.3   1 <1>   0.3430 
 10 C        2.0530     1.3780     0.0670 C.3   1 <1>  -0.1600 
 11 C        1.2890     3.7740    -0.2080 C.3   1 <1>  -0.1600 
 12 N       -5.1580     1.3860     0.2210 N.4   1 <1>  -0.9590 
 13 C        3.3330     1.6930    -0.7220 C.3   1 <1>  -0.1600 
 14 C        2.5670     4.0940    -0.9970 C.3   1 <1>  -0.1600 
 15 C       -6.1880     1.6910    -0.8240 C.3   1 <1>   0.3430 
 16 C        3.7220     3.1710    -0.5820 C.3   1 <1>  -0.1600 
 17 C       -7.2810     0.6220    -0.9080 C.3   1 <1>   0.0400 
 18 C       -8.3070     1.0580    -1.8930 C.1   1 <1>  -0.2000 
 19 C       -9.1240     1.4080    -2.6810 C.1   1 <1>  -0.1770 
 20 H       -0.0970     2.1010     1.4970 H     1 <1>   0.3700 
 21 H       -2.5060     3.2000     1.4980 H     1 <1>   0.0800 
 22 H       -3.5500     2.1670     2.4330 H     1 <1>   0.0800 
 23 H       -3.5880    -0.3750     1.8090 H     1 <1>   0.0800 
 24 H       -2.5660    -0.8810     0.4950 H     1 <1>   0.0800 
 25 H        0.6570     2.1020    -1.3870 H     1 <1>   0.0800 
 26 H       -3.8300     2.8830    -0.5010 H     1 <1>   0.0800 
 27 H       -4.8770     3.4260     0.7820 H     1 <1>   0.0800 
 28 H       -4.9410    -0.6980    -0.2140 H     1 <1>   0.0800 
 29 H       -3.8750     0.3380    -1.1220 H     1 <1>   0.0800 
 30 H        1.7730     0.3550    -0.1090 H     1 <1>   0.0800 
 31 H        2.2510     1.5040     1.1170 H     1 <1>   0.0800 
 32 H        1.4550     4.0010     0.8300 H     1 <1>   0.0800 
 33 H        0.4860     4.3900    -0.5710 H     1 <1>   0.0800 
 34 H       -5.6330     1.1840     1.1110 H     1 <1>   0.4500 
 35 H        3.1750     1.4630    -1.7620 H     1 <1>   0.0800 
 36 H        4.1380     1.0730    -0.3670 H     1 <1>   0.0800 
 37 H        2.8470     5.1200    -0.8310 H     1 <1>   0.0800 
 38 H        2.3760     3.9710    -2.0500 H     1 <1>   0.0800 
 39 H       -5.7140     1.7870    -1.7880 H     1 <1>   0.0800 
 40 H       -6.6600     2.6330    -0.5970 H     1 <1>   0.0800 
 41 H        4.5840     3.3760    -1.1930 H     1 <1>   0.0800 
 42 H        3.9900     3.3740     0.4410 H     1 <1>   0.0800 
 43 H       -7.7560     0.4940     0.0480 H     1 <1>   0.0800 
 44 H       -6.8760    -0.3180    -1.2350 H     1 <1>   0.0800 
 45 H       -9.8710     1.7150    -3.3950 H     1 <1>   0.1770 
@<TRIPOS>BOND
  1   1   2  2   
  2   2   3  am  
  3   2   4  am  
  4   3   5  1   
  5   3   6  1   
  6   4   7  1   
  7   4  20  1   
  8   5   8  1   
  9   5  21  1   
 10   5  22  1   
 11   6   9  1   
 12   6  23  1   
 13   6  24  1   
 14   7  10  1   
 15   7  11  1   
 16   7  25  1   
 17   8  12  1   
 18   8  26  1   
 19   8  27  1   
 20   9  12  1   
 21   9  28  1   
 22   9  29  1   
 23  10  13  1   
 24  10  30  1   
 25  10  31  1   
 26  11  14  1   
 27  11  32  1   
 28  11  33  1   
 29  12  15  1   
 30  12  34  1   
 31  13  16  1   
 32  13  35  1   
 33  13  36  1   
 34  14  16  1   
 35  14  37  1   
 36  14  38  1   
 37  15  17  1   
 38  15  39  1   
 39  15  40  1   
 40  16  41  1   
 41  16  42  1   
 42  17  18  1   
 43  17  43  1   
 44  17  44  1   
 45  18  19  3   
 46  19  45  1   
@<TRIPOS>SUBSTRUCTURE
  1 ****   2 GROUP 4 **** **** 0

# MOE 2024.06 (io_trps.svl 2023.06)
