@<TRIPOS>MOLECULE
NONAME
32 32 1 0 0 
SMALL
USER_CHARGES


@<TRIPOS>ATOM
  1 F       -0.5200     0.7900    -1.3770 F     1 <1>  -0.3400 
  2 C       -0.2800     1.5780    -0.3290 C.3   1 <1>   1.0200 
  3 F        0.7660     2.3240    -0.6860 F     1 <1>  -0.3400 
  4 F        0.1770     0.7790     0.6340 F     1 <1>  -0.3400 
  5 C       -1.5120     2.4320     0.0770 C.3   1 <1>   0.7410 
  6 F       -1.2660     3.1640     1.1740 F     1 <1>  -0.3400 
  7 F       -1.7740     3.3650    -0.8560 F     1 <1>  -0.3400 
  8 C       -2.7710     1.5780     0.2970 C.2   1 <1>   0.5690 
  9 O       -2.6670     0.4800     0.7930 O.2   1 <1>  -0.5700 
 10 N       -4.0010     2.0920    -0.0630 N.am  1 <1>  -0.5470 
 11 C       -5.2940     1.5450     0.0160 C.ar  1 <1>   0.1170 
 12 C       -6.3820     2.4080     0.0370 C.ar  1 <1>  -0.1500 
 13 C       -5.5450     0.1770     0.0550 C.ar  1 <1>  -0.1500 
 14 C       -7.6760     1.9250     0.1020 C.ar  1 <1>  -0.1500 
 15 C       -6.8390    -0.3060     0.1230 C.ar  1 <1>  -0.1500 
 16 C       -7.9270     0.5580     0.1510 C.ar  1 <1>   0.1170 
 17 N       -9.2210     0.0100     0.2090 N.am  1 <1>  -0.5470 
 18 C      -10.4170     0.5430     0.6460 C.2   1 <1>   0.5690 
 19 O      -10.4810     1.6650     1.0960 O.2   1 <1>  -0.5700 
 20 C      -11.6890    -0.3170     0.5760 C.3   1 <1>   0.7410 
 21 F      -11.8390    -0.9950     1.7240 F     1 <1>  -0.3400 
 22 F      -11.5040    -1.2950    -0.3300 F     1 <1>  -0.3400 
 23 C      -12.9520     0.5190     0.2350 C.3   1 <1>   1.0200 
 24 F      -14.0230    -0.2410     0.0040 F     1 <1>  -0.3400 
 25 F      -13.3270     1.3640     1.1940 F     1 <1>  -0.3400 
 26 F      -12.8040     1.2550    -0.8670 F     1 <1>  -0.3400 
 27 H       -3.9810     3.0530    -0.4140 H     1 <1>   0.3700 
 28 H       -6.2240     3.4710     0.0060 H     1 <1>   0.1500 
 29 H       -4.7300    -0.5230     0.0300 H     1 <1>   0.1500 
 30 H       -8.4920     2.6250     0.1110 H     1 <1>   0.1500 
 31 H       -6.9970    -1.3690     0.1580 H     1 <1>   0.1500 
 32 H       -9.2690    -0.9670    -0.0920 H     1 <1>   0.3700 
@<TRIPOS>BOND
  1   1   2  1   
  2   2   3  1   
  3   2   4  1   
  4   2   5  1   
  5   5   6  1   
  6   5   7  1   
  7   5   8  1   
  8   8   9  2   
  9   8  10  am  
 10  10  11  1   
 11  10  27  1   
 12  11  12  ar  
 13  11  13  ar  
 14  12  14  ar  
 15  12  28  1   
 16  13  15  ar  
 17  13  29  1   
 18  14  16  ar  
 19  14  30  1   
 20  15  16  ar  
 21  15  31  1   
 22  16  17  1   
 23  17  18  am  
 24  17  32  1   
 25  18  19  2   
 26  18  20  1   
 27  20  21  1   
 28  20  22  1   
 29  20  23  1   
 30  23  24  1   
 31  23  25  1   
 32  23  26  1   
@<TRIPOS>SUBSTRUCTURE
  1 ****  12 GROUP 4 **** **** 0

# MOE 2024.06 (io_trps.svl 2023.06)
