@<TRIPOS>MOLECULE
NONAME
47 48 1 0 0 
SMALL
USER_CHARGES


@<TRIPOS>ATOM
  1 O       -0.5630    -0.6570     0.3990 O.2   1 <1>  -0.5700 
  2 C       -0.5350    -1.8520     0.1710 C.2   1 <1>   0.7800 
  3 O        0.4860    -2.5820     0.6230 O.3   1 <1>  -0.4300 
  4 N       -1.5150    -2.4930    -0.5440 N.am  1 <1>  -0.6600 
  5 C        1.5290    -1.9880     1.3610 C.3   1 <1>   0.1200 
  6 C       -1.4790    -3.9390    -0.8630 C.3   1 <1>   0.1400 
  7 C       -2.6750    -1.7620    -1.1040 C.3   1 <1>   0.1400 
  8 C        2.5340    -3.0770     1.7230 C.3   1 <1>  -0.2400 
  9 C       -2.7740    -4.6040    -0.3920 C.3   1 <1>  -0.1600 
 10 C       -3.9760    -2.4180    -0.6370 C.3   1 <1>  -0.1600 
 11 C       -4.0300    -3.9220    -0.9720 C.3   1 <1>   0.1900 
 12 N       -5.2910    -4.5080    -0.4300 N.3   1 <1>  -0.8100 
 13 C       -6.4980    -4.0560    -1.1770 C.3   1 <1>   0.1100 
 14 C       -5.2990    -5.9980    -0.3540 C.3   1 <1>   0.1100 
 15 C       -7.8190    -4.5160    -0.5120 C.3   1 <1>   0.3430 
 16 C       -6.6600    -6.5890     0.0890 C.3   1 <1>   0.3430 
 17 N       -7.5690    -5.5110     0.5840 N.4   1 <1>  -0.9590 
 18 C       -8.7910    -6.0330     1.2420 C.3   1 <1>   0.3430 
 19 C       -9.4720    -4.9180     2.0250 C.3   1 <1>  -0.2400 
 20 H        1.1070    -1.5400     2.2460 H     1 <1>   0.0800 
 21 H        1.9850    -1.2260     0.7520 H     1 <1>   0.0800 
 22 H       -0.6390    -4.4170    -0.3890 H     1 <1>   0.0800 
 23 H       -1.3700    -4.0570    -1.9280 H     1 <1>   0.0800 
 24 H       -2.6140    -1.7820    -2.1790 H     1 <1>   0.0800 
 25 H       -2.6600    -0.7310    -0.7900 H     1 <1>   0.0800 
 26 H        2.0600    -3.8330     2.3230 H     1 <1>   0.0800 
 27 H        3.3440    -2.6500     2.2860 H     1 <1>   0.0800 
 28 H        2.9340    -3.5220     0.8300 H     1 <1>   0.0800 
 29 H       -2.8030    -4.5670     0.6830 H     1 <1>   0.0800 
 30 H       -2.7230    -5.6300    -0.7020 H     1 <1>   0.0800 
 31 H       -4.7760    -1.8860    -1.1100 H     1 <1>   0.0800 
 32 H       -4.0620    -2.2830     0.4260 H     1 <1>   0.0800 
 33 H       -4.0140    -4.0430    -2.0430 H     1 <1>   0.0800 
 34 H       -6.4600    -4.4340    -2.1850 H     1 <1>   0.0800 
 35 H       -6.5330    -2.9850    -1.2420 H     1 <1>   0.0800 
 36 H       -4.5660    -6.3200     0.3660 H     1 <1>   0.0800 
 37 H       -5.0260    -6.4180    -1.3080 H     1 <1>   0.0800 
 38 H       -8.4640    -4.9410    -1.2620 H     1 <1>   0.0800 
 39 H       -8.3150    -3.6510    -0.1060 H     1 <1>   0.0800 
 40 H       -6.4880    -7.3180     0.8640 H     1 <1>   0.0800 
 41 H       -7.1150    -7.0960    -0.7450 H     1 <1>   0.0800 
 42 H       -6.9920    -4.9920     1.2660 H     1 <1>   0.4500 
 43 H       -8.5230    -6.8240     1.9250 H     1 <1>   0.0800 
 44 H       -9.4680    -6.4370     0.5060 H     1 <1>   0.0800 
 45 H       -8.7970    -4.4880     2.7440 H     1 <1>   0.0800 
 46 H      -10.3110    -5.3260     2.5610 H     1 <1>   0.0800 
 47 H       -9.8460    -4.1500     1.3730 H     1 <1>   0.0800 
@<TRIPOS>BOND
  1   1   2  2   
  2   2   3  1   
  3   2   4  am  
  4   3   5  1   
  5   4   6  1   
  6   4   7  1   
  7   5   8  1   
  8   5  20  1   
  9   5  21  1   
 10   6   9  1   
 11   6  22  1   
 12   6  23  1   
 13   7  10  1   
 14   7  24  1   
 15   7  25  1   
 16   8  26  1   
 17   8  27  1   
 18   8  28  1   
 19   9  11  1   
 20   9  29  1   
 21   9  30  1   
 22  10  11  1   
 23  10  31  1   
 24  10  32  1   
 25  11  12  1   
 26  11  33  1   
 27  12  13  1   
 28  12  14  1   
 29  13  15  1   
 30  13  34  1   
 31  13  35  1   
 32  14  16  1   
 33  14  36  1   
 34  14  37  1   
 35  15  17  1   
 36  15  38  1   
 37  15  39  1   
 38  16  17  1   
 39  16  40  1   
 40  16  41  1   
 41  17  18  1   
 42  17  42  1   
 43  18  19  1   
 44  18  43  1   
 45  18  44  1   
 46  19  45  1   
 47  19  46  1   
 48  19  47  1   
@<TRIPOS>SUBSTRUCTURE
  1 ****  11 GROUP 4 **** **** 0

# MOE 2024.06 (io_trps.svl 2023.06)
