@<TRIPOS>MOLECULE
NONAME
49 53 1 0 0 
SMALL
USER_CHARGES


@<TRIPOS>ATOM
  1 O       -0.2110    -1.9830     2.4470 O.2   1 <1>  -0.5700 
  2 C       -0.6340    -1.9740     1.3070 C.2   1 <1>   0.4930 
  3 N        0.2470    -2.2290     0.2370 N.pl3 1 <1>   0.2940 
  4 C       -2.0380    -1.7600     1.0500 C.ar  1 <1>   0.0860 
  5 C        1.6100    -2.2220     0.2780 C.2   1 <1>   0.0360 
  6 C       -0.0130    -2.6050    -1.0470 C.2   1 <1>  -0.3020 
  7 C       -2.4990    -0.7830     0.1620 C.ar  1 <1>   0.0830 
  8 C       -2.9920    -2.5380     1.7010 C.ar  1 <1>  -0.1500 
  9 N        2.1940    -2.5400    -0.8300 N.2   1 <1>  -0.5650 
 10 C        1.1690    -2.7820    -1.6700 C.2   1 <1>   0.0770 
 11 O       -1.5710     0.0030    -0.4360 O.3   1 <1>  -0.3630 
 12 C       -3.8630    -0.6350    -0.0740 C.ar  1 <1>  -0.1500 
 13 C       -4.3430    -2.3820     1.4650 C.ar  1 <1>  -0.1500 
 14 C       -1.9040     1.0520    -1.3190 C.3   1 <1>   0.0400 
 15 C       -4.8080    -1.4270     0.5650 C.ar  1 <1>  -0.1430 
 16 C       -6.3110    -1.2190     0.2610 C.3   1 <1>   0.1440 
 17 C       -6.7260     0.2270     0.6270 C.3   1 <1>  -0.1600 
 18 C       -7.2330    -2.1830     1.0520 C.3   1 <1>  -0.1600 
 19 C       -6.5800    -1.4490    -1.2460 C.3   1 <1>  -0.1600 
 20 C       -8.2070     0.4840     0.2860 C.3   1 <1>  -0.0800 
 21 C       -8.7180    -1.9440     0.7220 C.3   1 <1>  -0.0800 
 22 C       -8.0600    -1.1970    -1.5920 C.3   1 <1>  -0.0800 
 23 C       -9.0870    -0.4950     1.0830 C.3   1 <1>  -0.1600 
 24 C       -8.4270     0.2520    -1.2200 C.3   1 <1>  -0.1600 
 25 C       -8.9410    -2.1660    -0.7850 C.3   1 <1>  -0.1600 
 26 H        2.1270    -1.9670     1.1880 H     1 <1>   0.1500 
 27 H       -1.0100    -2.7180    -1.4300 H     1 <1>   0.1500 
 28 H       -2.6610    -3.2800     2.4090 H     1 <1>   0.1500 
 29 H        1.3470    -3.0770    -2.6920 H     1 <1>   0.1500 
 30 H       -4.2020     0.1120    -0.7640 H     1 <1>   0.1500 
 31 H       -5.0170    -3.0230     2.0030 H     1 <1>   0.1500 
 32 H       -0.9900     1.5230    -1.6370 H     1 <1>   0.0800 
 33 H       -2.5200     1.7650    -0.8000 H     1 <1>   0.0800 
 34 H       -2.4180     0.6440    -2.1710 H     1 <1>   0.0800 
 35 H       -6.1240     0.9390     0.0930 H     1 <1>   0.0800 
 36 H       -6.5620     0.3920     1.6770 H     1 <1>   0.0800 
 37 H       -7.0870    -2.0410     2.1090 H     1 <1>   0.0800 
 38 H       -6.9850    -3.2020     0.8130 H     1 <1>   0.0800 
 39 H       -6.3130    -2.4580    -1.5070 H     1 <1>   0.0800 
 40 H       -5.9730    -0.7920    -1.8410 H     1 <1>   0.0800 
 41 H       -8.4690     1.4970     0.5410 H     1 <1>   0.0800 
 42 H       -9.3320    -2.6260     1.2840 H     1 <1>   0.0800 
 43 H       -8.2200    -1.3550    -2.6450 H     1 <1>   0.0800 
 44 H       -8.9490    -0.3340     2.1380 H     1 <1>   0.0800 
 45 H      -10.1250    -0.3160     0.8600 H     1 <1>   0.0800 
 46 H       -7.8240     0.9390    -1.7880 H     1 <1>   0.0800 
 47 H       -9.4570     0.4400    -1.4700 H     1 <1>   0.0800 
 48 H       -9.9770    -2.0050    -1.0270 H     1 <1>   0.0800 
 49 H       -8.7000    -3.1820    -1.0440 H     1 <1>   0.0800 
@<TRIPOS>BOND
  1   1   2  2   
  2   2   3  1   
  3   2   4  1   
  4   3   5  1   
  5   3   6  1   
  6   4   7  ar  
  7   4   8  ar  
  8   5   9  2   
  9   5  26  1   
 10   6  10  2   
 11   6  27  1   
 12   7  11  1   
 13   7  12  ar  
 14   8  13  ar  
 15   8  28  1   
 16   9  10  1   
 17  10  29  1   
 18  11  14  1   
 19  12  15  ar  
 20  12  30  1   
 21  13  15  ar  
 22  13  31  1   
 23  14  32  1   
 24  14  33  1   
 25  14  34  1   
 26  15  16  1   
 27  16  17  1   
 28  16  18  1   
 29  16  19  1   
 30  17  20  1   
 31  17  35  1   
 32  17  36  1   
 33  18  21  1   
 34  18  37  1   
 35  18  38  1   
 36  19  22  1   
 37  19  39  1   
 38  19  40  1   
 39  20  23  1   
 40  20  24  1   
 41  20  41  1   
 42  21  23  1   
 43  21  25  1   
 44  21  42  1   
 45  22  24  1   
 46  22  25  1   
 47  22  43  1   
 48  23  44  1   
 49  23  45  1   
 50  24  46  1   
 51  24  47  1   
 52  25  48  1   
 53  25  49  1   
@<TRIPOS>SUBSTRUCTURE
  1 ****  12 GROUP 4 **** **** 0

# MOE 2024.06 (io_trps.svl 2023.06)
