@<TRIPOS>MOLECULE
NONAME
40 44 1 0 0 
SMALL
USER_CHARGES


@<TRIPOS>ATOM
  1 S        0.0260    -0.5000    -1.0220 S.3   1 <1>  -0.2860 
  2 C       -1.4470     0.4190    -0.6860 C.2   1 <1>   0.2420 
  3 C       -0.8260    -2.1260    -0.8580 C.3   1 <1>   0.1500 
  4 N       -1.6590     1.6690    -0.5120 N.2   1 <1>  -0.3380 
  5 N       -2.5140    -0.3440    -0.5910 N.pl3 1 <1>   0.0480 
  6 C       -2.3420    -1.7970    -0.8330 C.3   1 <1>   0.0960 
  7 C       -0.3260    -2.7640     0.4400 C.3   1 <1>  -0.2400 
  8 N       -2.9760     1.7570    -0.2760 N.2   1 <1>  -0.3380 
  9 C       -3.4760     0.5570    -0.3250 C.2   1 <1>   0.0070 
 10 C       -4.9610     0.2170    -0.1070 C.3   1 <1>   0.1800 
 11 C       -5.5390    -0.5520    -1.3190 C.3   1 <1>  -0.1600 
 12 C       -5.8000     1.5080     0.0780 C.3   1 <1>  -0.1600 
 13 C       -5.1340    -0.6440     1.1650 C.3   1 <1>  -0.1600 
 14 C       -7.0240    -0.8970    -1.0950 C.3   1 <1>  -0.0800 
 15 C       -7.2870     1.1810     0.3070 C.3   1 <1>  -0.0800 
 16 C       -6.6170    -0.9920     1.3970 C.3   1 <1>  -0.0800 
 17 C       -7.8240     0.4040    -0.9080 C.3   1 <1>  -0.1600 
 18 C       -7.1550    -1.7600     0.1750 C.3   1 <1>  -0.1600 
 19 C       -7.4210     0.3100     1.5690 C.3   1 <1>  -0.1600 
 20 H       -0.5620    -2.7250    -1.7130 H     1 <1>   0.0800 
 21 H       -2.8450    -2.3620    -0.0720 H     1 <1>   0.0800 
 22 H       -2.7710    -2.0330    -1.7890 H     1 <1>   0.0800 
 23 H       -0.5480    -2.1310     1.2820 H     1 <1>   0.0800 
 24 H        0.7380    -2.9100     0.3900 H     1 <1>   0.0800 
 25 H       -0.7940    -3.7210     0.5920 H     1 <1>   0.0800 
 26 H       -5.4370     0.0510    -2.2050 H     1 <1>   0.0800 
 27 H       -4.9990    -1.4640    -1.4800 H     1 <1>   0.0800 
 28 H       -5.6980     2.1320    -0.7930 H     1 <1>   0.0800 
 29 H       -5.4230     2.0660     0.9170 H     1 <1>   0.0800 
 30 H       -4.7520    -0.1040     2.0140 H     1 <1>   0.0800 
 31 H       -4.5720    -1.5540     1.0820 H     1 <1>   0.0800 
 32 H       -7.4060    -1.4370    -1.9440 H     1 <1>   0.0800 
 33 H       -7.8440     2.0940     0.4330 H     1 <1>   0.0800 
 34 H       -6.7160    -1.5980     2.2810 H     1 <1>   0.0800 
 35 H       -8.8650     0.1750    -0.7620 H     1 <1>   0.0800 
 36 H       -7.7450     1.0120    -1.7920 H     1 <1>   0.0800 
 37 H       -6.6110    -2.6800     0.0510 H     1 <1>   0.0800 
 38 H       -8.1890    -2.0140     0.3340 H     1 <1>   0.0800 
 39 H       -7.0590     0.8520     2.4250 H     1 <1>   0.0800 
 40 H       -8.4570     0.0790     1.7440 H     1 <1>   0.0800 
@<TRIPOS>BOND
  1   1   2  1   
  2   1   3  1   
  3   2   4  2   
  4   2   5  1   
  5   3   6  1   
  6   3   7  1   
  7   3  20  1   
  8   4   8  1   
  9   5   6  1   
 10   5   9  1   
 11   6  21  1   
 12   6  22  1   
 13   7  23  1   
 14   7  24  1   
 15   7  25  1   
 16   8   9  2   
 17   9  10  1   
 18  10  11  1   
 19  10  12  1   
 20  10  13  1   
 21  11  14  1   
 22  11  26  1   
 23  11  27  1   
 24  12  15  1   
 25  12  28  1   
 26  12  29  1   
 27  13  16  1   
 28  13  30  1   
 29  13  31  1   
 30  14  17  1   
 31  14  18  1   
 32  14  32  1   
 33  15  17  1   
 34  15  19  1   
 35  15  33  1   
 36  16  18  1   
 37  16  19  1   
 38  16  34  1   
 39  17  35  1   
 40  17  36  1   
 41  18  37  1   
 42  18  38  1   
 43  19  39  1   
 44  19  40  1   
@<TRIPOS>SUBSTRUCTURE
  1 ****  10 GROUP 4 **** **** 0

# MOE 2024.06 (io_trps.svl 2023.06)
