@<TRIPOS>MOLECULE
NONAME
34 34 1 0 0 
SMALL
USER_CHARGES


@<TRIPOS>ATOM
  1 BR       0.5640     0.3020    -0.0140 Br    1 <1>  -0.1110 
  2 C        0.3040    -1.6110    -0.0050 C.ar  1 <1>   0.1110 
  3 C        1.4140    -2.4510    -0.0020 C.ar  1 <1>   0.0830 
  4 C       -0.9920    -2.0870    -0.0020 C.ar  1 <1>  -0.1500 
  5 O        2.6480    -1.8790    -0.0050 O.3   1 <1>  -0.3630 
  6 C        1.2000    -3.8290     0.0040 C.ar  1 <1>  -0.1500 
  7 C       -1.1730    -3.4560     0.0040 C.ar  1 <1>   0.1770 
  8 C        3.8270    -2.6430    -0.0030 C.3   1 <1>   0.1200 
  9 C       -0.0950    -4.3270     0.0070 C.ar  1 <1>  -0.1500 
 10 CL      -2.7930    -4.1040     0.0080 Cl    1 <1>  -0.1770 
 11 C        4.9940    -1.6520    -0.0080 C.3   1 <1>   0.3430 
 12 N        6.3200    -2.3410    -0.0060 N.4   1 <1>  -0.9060 
 13 C        7.4430    -1.3720    -0.0100 C.3   1 <1>   0.3430 
 14 C        8.7610    -2.1420    -0.0080 C.3   1 <1>  -0.1600 
 15 C        9.9550    -1.1790    -0.0130 C.3   1 <1>  -0.1600 
 16 C       11.2780    -1.9490    -0.0110 C.3   1 <1>  -0.2400 
 17 H       -1.8330    -1.4180    -0.0040 H     1 <1>   0.1500 
 18 H        2.0140    -4.5290     0.0070 H     1 <1>   0.1500 
 19 H        3.8300    -3.2540    -0.8880 H     1 <1>   0.0800 
 20 H        3.8320    -3.2470     0.8880 H     1 <1>   0.0800 
 21 H       -0.2780    -5.3880     0.0120 H     1 <1>   0.1500 
 22 H        4.9120    -1.0220     0.8640 H     1 <1>   0.0800 
 23 H        4.9110    -1.0290    -0.8850 H     1 <1>   0.0800 
 24 H        6.4080    -2.9480    -0.8310 H     1 <1>   0.4500 
 25 H        6.4090    -2.9410     0.8250 H     1 <1>   0.4500 
 26 H        7.3930    -0.7400     0.8620 H     1 <1>   0.0800 
 27 H        7.3920    -0.7470    -0.8880 H     1 <1>   0.0800 
 28 H        8.8190    -2.7690    -0.8820 H     1 <1>   0.0800 
 29 H        8.8200    -2.7620     0.8710 H     1 <1>   0.0800 
 30 H        9.9220    -0.5430     0.8560 H     1 <1>   0.0800 
 31 H        9.9210    -0.5500    -0.8880 H     1 <1>   0.0800 
 32 H       11.3600    -2.5660     0.8670 H     1 <1>   0.0800 
 33 H       12.1050    -1.2590    -0.0140 H     1 <1>   0.0800 
 34 H       11.3590    -2.5740    -0.8830 H     1 <1>   0.0800 
@<TRIPOS>BOND
  1   1   2  1   
  2   2   3  ar  
  3   2   4  ar  
  4   3   5  1   
  5   3   6  ar  
  6   4   7  ar  
  7   4  17  1   
  8   5   8  1   
  9   6   9  ar  
 10   6  18  1   
 11   7   9  ar  
 12   7  10  1   
 13   8  11  1   
 14   8  19  1   
 15   8  20  1   
 16   9  21  1   
 17  11  12  1   
 18  11  22  1   
 19  11  23  1   
 20  12  13  1   
 21  12  24  1   
 22  12  25  1   
 23  13  14  1   
 24  13  26  1   
 25  13  27  1   
 26  14  15  1   
 27  14  28  1   
 28  14  29  1   
 29  15  16  1   
 30  15  30  1   
 31  15  31  1   
 32  16  32  1   
 33  16  33  1   
 34  16  34  1   
@<TRIPOS>SUBSTRUCTURE
  1 ****   8 GROUP 4 **** **** 0

# MOE 2024.06 (io_trps.svl 2023.06)
