@<TRIPOS>MOLECULE
NONAME
34 36 1 0 0 
SMALL
USER_CHARGES


@<TRIPOS>ATOM
  1 O        1.4470     1.2310    -0.9140 O.2   1 <1>  -0.5700 
  2 C        1.1610     2.2560    -0.3480 C.2   1 <1>   0.5690 
  3 N        1.7720     2.7370     0.7620 N.am  1 <1>  -0.4200 
  4 C        0.0390     3.1800    -0.7890 C.3   1 <1>  -0.0190 
  5 C        1.1990     3.8860     1.1980 C.2   1 <1>   0.5690 
  6 C        2.9960     2.1470     1.3450 C.3   1 <1>   0.2840 
  7 C        0.0760     4.3120     0.2680 C.3   1 <1>  -0.0190 
  8 C       -1.3230     2.4650    -0.8730 C.3   1 <1>  -0.1600 
  9 O        1.5020     4.4910     2.1940 O.2   1 <1>  -0.5700 
 10 C        4.2050     2.4190     0.4570 C.ar  1 <1>   0.1660 
 11 C       -1.2660     4.5120     0.9980 C.3   1 <1>  -0.1600 
 12 C       -2.4720     3.4750    -1.0270 C.3   1 <1>  -0.1600 
 13 N        4.8330     3.5740     0.6360 N.ar  1 <1>  -0.6200 
 14 C        4.5900     1.4720    -0.4820 C.ar  1 <1>  -0.1500 
 15 C       -2.4260     4.6270    -0.0020 C.3   1 <1>  -0.1600 
 16 C        5.8800     3.7890    -0.1440 C.ar  1 <1>   0.1600 
 17 C        5.6830     1.7090    -1.2870 C.ar  1 <1>  -0.1500 
 18 C        6.3410     2.9060    -1.1040 C.ar  1 <1>  -0.1500 
 19 H        0.2910     3.5830    -1.7540 H     1 <1>   0.0800 
 20 H        2.8550     1.0870     1.4540 H     1 <1>   0.0800 
 21 H        3.1720     2.5650     2.3210 H     1 <1>   0.0800 
 22 H        0.3650     5.2330    -0.2060 H     1 <1>   0.0800 
 23 H       -1.4810     1.8840     0.0200 H     1 <1>   0.0800 
 24 H       -1.3220     1.7810    -1.7040 H     1 <1>   0.0800 
 25 H       -1.2160     5.3990     1.6070 H     1 <1>   0.0800 
 26 H       -1.4470     3.6800     1.6590 H     1 <1>   0.0800 
 27 H       -3.4090     2.9520    -0.9360 H     1 <1>   0.0800 
 28 H       -2.4370     3.8920    -2.0190 H     1 <1>   0.0800 
 29 H        4.0340     0.5570    -0.5900 H     1 <1>   0.1500 
 30 H       -2.3330     5.5590    -0.5330 H     1 <1>   0.0800 
 31 H       -3.3560     4.6620     0.5400 H     1 <1>   0.0800 
 32 H        6.4000     4.7230    -0.0090 H     1 <1>   0.1500 
 33 H        6.0040     0.9940    -2.0250 H     1 <1>   0.1500 
 34 H        7.2000     3.1550    -1.6990 H     1 <1>   0.1500 
@<TRIPOS>BOND
  1   1   2  2   
  2   2   3  am  
  3   2   4  1   
  4   3   5  am  
  5   3   6  1   
  6   4   7  1   
  7   4   8  1   
  8   4  19  1   
  9   5   7  1   
 10   5   9  2   
 11   6  10  1   
 12   6  20  1   
 13   6  21  1   
 14   7  11  1   
 15   7  22  1   
 16   8  12  1   
 17   8  23  1   
 18   8  24  1   
 19  10  13  ar  
 20  10  14  ar  
 21  11  15  1   
 22  11  25  1   
 23  11  26  1   
 24  12  15  1   
 25  12  27  1   
 26  12  28  1   
 27  13  16  ar  
 28  14  17  ar  
 29  14  29  1   
 30  15  30  1   
 31  15  31  1   
 32  16  18  ar  
 33  16  32  1   
 34  17  18  ar  
 35  17  33  1   
 36  18  34  1   
@<TRIPOS>SUBSTRUCTURE
  1 ****   3 GROUP 4 **** **** 0

# MOE 2024.06 (io_trps.svl 2023.06)
