@<TRIPOS>MOLECULE
NONAME
49 51 1 0 0 
SMALL
USER_CHARGES


@<TRIPOS>ATOM
  1 S       -0.8290    -1.9180    -0.1320 S.o2  1 <1>   1.4470 
  2 O       -1.6830    -2.3400     0.9530 O.2   1 <1>  -0.6500 
  3 O       -0.3010    -2.8620    -1.0870 O.2   1 <1>  -0.6500 
  4 N       -1.7130    -0.8080    -1.0950 N.am  1 <1>  -0.7570 
  5 C        0.5100    -0.8620     0.4800 C.ar  1 <1>  -0.0090 
  6 C       -2.1960     0.4020    -0.6230 C.ar  1 <1>   0.1990 
  7 C        1.6420    -0.6350    -0.2850 C.ar  1 <1>  -0.1500 
  8 C        0.4160    -0.2110     1.7040 C.ar  1 <1>  -0.1500 
  9 C       -1.7530     1.6110    -1.1640 C.ar  1 <1>  -0.1440 
 10 C       -3.1280     0.4220     0.4080 C.ar  1 <1>  -0.1500 
 11 C        2.6710     0.2130     0.1210 C.ar  1 <1>   0.0860 
 12 C        1.4190     0.6330     2.1430 C.ar  1 <1>  -0.1500 
 13 C       -2.2420     2.8050    -0.6600 C.ar  1 <1>  -0.1500 
 14 C       -0.7290     1.6510    -2.2940 C.3   1 <1>  -0.0970 
 15 C       -3.6120     1.6170     0.9050 C.ar  1 <1>  -0.1500 
 16 C        2.5470     0.8540     1.3590 C.ar  1 <1>   0.0830 
 17 C        3.7990     0.4080    -0.7650 C.2   1 <1>   0.5440 
 18 C       -3.1670     2.8120     0.3710 C.ar  1 <1>  -0.1500 
 19 O        3.5440     1.6830     1.7490 O.3   1 <1>  -0.3630 
 20 O        3.5890     0.8700    -1.8720 O.2   1 <1>  -0.5700 
 21 N        5.0820     0.0270    -0.4320 N.am  1 <1>  -0.6600 
 22 C        3.4530     2.5050     2.8910 C.3   1 <1>   0.0400 
 23 C        6.2490     0.2640    -1.3330 C.3   1 <1>   0.1400 
 24 C        5.4490    -0.6970     0.8200 C.3   1 <1>   0.1400 
 25 C        7.0420    -1.0370    -1.5370 C.3   1 <1>   0.1200 
 26 C        6.2890    -1.9430     0.4950 C.3   1 <1>   0.1200 
 27 O        7.3880    -1.6080    -0.3050 O.3   1 <1>  -0.5600 
 28 H       -1.3380    -0.8130    -2.0360 H     1 <1>   0.4200 
 29 H        1.7390    -1.1220    -1.2410 H     1 <1>   0.1500 
 30 H       -0.4580    -0.3650     2.3160 H     1 <1>   0.1500 
 31 H       -3.4810    -0.5080     0.8190 H     1 <1>   0.1500 
 32 H        1.2990     1.1120     3.0970 H     1 <1>   0.1500 
 33 H       -1.9070     3.7450    -1.0650 H     1 <1>   0.1500 
 34 H       -1.0930     1.1030    -3.1450 H     1 <1>   0.0800 
 35 H        0.2030     1.2240    -1.9700 H     1 <1>   0.0800 
 36 H       -0.5400     2.6620    -2.6060 H     1 <1>   0.0800 
 37 H       -4.3340     1.6170     1.7030 H     1 <1>   0.1500 
 38 H       -3.5410     3.7460     0.7530 H     1 <1>   0.1500 
 39 H        4.3400     3.1110     2.9370 H     1 <1>   0.0800 
 40 H        3.3890     1.8840     3.7670 H     1 <1>   0.0800 
 41 H        2.5860     3.1360     2.8000 H     1 <1>   0.0800 
 42 H        6.8910     1.0050    -0.8910 H     1 <1>   0.0800 
 43 H        5.9260     0.6350    -2.2890 H     1 <1>   0.0800 
 44 H        4.5710    -1.0000     1.3600 H     1 <1>   0.0800 
 45 H        6.0180    -0.0390     1.4530 H     1 <1>   0.0800 
 46 H        7.9510    -0.8370    -2.0730 H     1 <1>   0.0800 
 47 H        6.4590    -1.7480    -2.0960 H     1 <1>   0.0800 
 48 H        5.6960    -2.6750    -0.0260 H     1 <1>   0.0800 
 49 H        6.6660    -2.3840     1.4010 H     1 <1>   0.0800 
@<TRIPOS>BOND
  1   1   2  2   
  2   1   3  2   
  3   1   4  am  
  4   1   5  1   
  5   4   6  1   
  6   4  28  1   
  7   5   7  ar  
  8   5   8  ar  
  9   6   9  ar  
 10   6  10  ar  
 11   7  11  ar  
 12   7  29  1   
 13   8  12  ar  
 14   8  30  1   
 15   9  13  ar  
 16   9  14  1   
 17  10  15  ar  
 18  10  31  1   
 19  11  16  ar  
 20  11  17  1   
 21  12  16  ar  
 22  12  32  1   
 23  13  18  ar  
 24  13  33  1   
 25  14  34  1   
 26  14  35  1   
 27  14  36  1   
 28  15  18  ar  
 29  15  37  1   
 30  16  19  1   
 31  17  20  2   
 32  17  21  am  
 33  18  38  1   
 34  19  22  1   
 35  21  23  1   
 36  21  24  1   
 37  22  39  1   
 38  22  40  1   
 39  22  41  1   
 40  23  25  1   
 41  23  42  1   
 42  23  43  1   
 43  24  26  1   
 44  24  44  1   
 45  24  45  1   
 46  25  27  1   
 47  25  46  1   
 48  25  47  1   
 49  26  27  1   
 50  26  48  1   
 51  26  49  1   
@<TRIPOS>SUBSTRUCTURE
  1 ****   7 GROUP 4 **** **** 0

# MOE 2024.06 (io_trps.svl 2023.06)
