@<TRIPOS>MOLECULE
NONAME
48 50 1 0 0 
SMALL
USER_CHARGES


@<TRIPOS>ATOM
  1 O       -0.1010    -1.2380     1.5570 O.2   1 <1>  -0.5700 
  2 C       -0.2480    -1.7890     0.4960 C.2   1 <1>   0.6590 
  3 O        0.7740    -2.0280    -0.3150 O.3   1 <1>  -0.4300 
  4 C       -1.6110    -2.2530    -0.0160 C.3   1 <1>  -0.0190 
  5 C        2.0880    -1.6570     0.0300 C.3   1 <1>   0.1200 
  6 C       -2.7850    -1.7130     0.8260 C.3   1 <1>  -0.1600 
  7 C       -1.6840    -3.7910    -0.0880 C.3   1 <1>  -0.1600 
  8 C        3.0140    -2.0880    -1.1020 C.3   1 <1>  -0.2400 
  9 C       -4.1310    -2.2140     0.3020 C.3   1 <1>   0.2090 
 10 C       -3.0430    -4.2630    -0.6060 C.3   1 <1>   0.2090 
 11 N       -4.1170    -3.6980     0.2430 N.pl3 1 <1>  -0.8380 
 12 C       -5.3230    -4.3650     0.2580 C.ar  1 <1>   0.4100 
 13 N       -6.3510    -3.7930    -0.2980 N.ar  1 <1>  -0.6200 
 14 C       -5.3900    -5.6320     0.8590 C.ar  1 <1>  -0.1500 
 15 C       -7.5410    -4.4550    -0.3100 C.ar  1 <1>   0.3100 
 16 C       -6.5480    -6.3420     0.8650 C.ar  1 <1>  -0.1440 
 17 C       -8.6950    -3.8640    -0.9090 C.ar  1 <1>   0.0820 
 18 C       -7.6770    -5.7550     0.2480 C.ar  1 <1>   0.0000 
 19 C       -6.6060    -7.7150     1.5200 C.3   1 <1>  -0.0970 
 20 O       -8.7210    -2.6170    -1.4570 O.3   1 <1>  -0.3630 
 21 C       -9.8830    -4.5470    -0.9770 C.ar  1 <1>  -0.1500 
 22 C       -8.9240    -6.4110     0.1620 C.ar  1 <1>  -0.1500 
 23 C       -8.1060    -1.5290    -0.8000 C.3   1 <1>   0.0400 
 24 C      -10.0030    -5.8260    -0.4390 C.ar  1 <1>  -0.1500 
 25 H       -1.7150    -1.8660    -1.0140 H     1 <1>   0.0800 
 26 H        2.3490    -2.1480     0.9530 H     1 <1>   0.0800 
 27 H        2.1150    -0.5900     0.1690 H     1 <1>   0.0800 
 28 H       -2.7790    -0.6380     0.8140 H     1 <1>   0.0800 
 29 H       -2.6780    -2.0300     1.8490 H     1 <1>   0.0800 
 30 H       -1.5230    -4.2090     0.8910 H     1 <1>   0.0800 
 31 H       -0.9130    -4.1640    -0.7380 H     1 <1>   0.0800 
 32 H        2.9680    -3.1540    -1.2350 H     1 <1>   0.0800 
 33 H        4.0270    -1.8160    -0.8640 H     1 <1>   0.0800 
 34 H        2.7350    -1.5970    -2.0170 H     1 <1>   0.0800 
 35 H       -4.3220    -1.8220    -0.6830 H     1 <1>   0.0800 
 36 H       -4.9210    -1.8870     0.9570 H     1 <1>   0.0800 
 37 H       -3.0860    -5.3390    -0.5920 H     1 <1>   0.0800 
 38 H       -3.1890    -3.9350    -1.6220 H     1 <1>   0.0800 
 39 H       -4.4920    -6.0030     1.3140 H     1 <1>   0.1500 
 40 H       -5.6540    -7.9750     1.9480 H     1 <1>   0.0800 
 41 H       -6.8630    -8.4620     0.7910 H     1 <1>   0.0800 
 42 H       -7.3400    -7.7180     2.3050 H     1 <1>   0.0800 
 43 H      -10.7340    -4.0900    -1.4470 H     1 <1>   0.1500 
 44 H       -9.0320    -7.3960     0.5760 H     1 <1>   0.1500 
 45 H       -8.6100    -0.6290    -1.0990 H     1 <1>   0.0800 
 46 H       -7.0740    -1.4860    -1.0980 H     1 <1>   0.0800 
 47 H       -8.1880    -1.6660     0.2640 H     1 <1>   0.0800 
 48 H      -10.9480    -6.3380    -0.5040 H     1 <1>   0.1500 
@<TRIPOS>BOND
  1   1   2  2   
  2   2   3  1   
  3   2   4  1   
  4   3   5  1   
  5   4   6  1   
  6   4   7  1   
  7   4  25  1   
  8   5   8  1   
  9   5  26  1   
 10   5  27  1   
 11   6   9  1   
 12   6  28  1   
 13   6  29  1   
 14   7  10  1   
 15   7  30  1   
 16   7  31  1   
 17   8  32  1   
 18   8  33  1   
 19   8  34  1   
 20   9  11  1   
 21   9  35  1   
 22   9  36  1   
 23  10  11  1   
 24  10  37  1   
 25  10  38  1   
 26  11  12  1   
 27  12  13  ar  
 28  12  14  ar  
 29  13  15  ar  
 30  14  16  ar  
 31  14  39  1   
 32  15  17  ar  
 33  15  18  ar  
 34  16  18  ar  
 35  16  19  1   
 36  17  20  1   
 37  17  21  ar  
 38  18  22  ar  
 39  19  40  1   
 40  19  41  1   
 41  19  42  1   
 42  20  23  1   
 43  21  24  ar  
 44  21  43  1   
 45  22  24  ar  
 46  22  44  1   
 47  23  45  1   
 48  23  46  1   
 49  23  47  1   
 50  24  48  1   
@<TRIPOS>SUBSTRUCTURE
  1 ****  11 GROUP 4 **** **** 0

# MOE 2024.06 (io_trps.svl 2023.06)
