@<TRIPOS>MOLECULE
NONAME
49 51 1 0 0 
SMALL
USER_CHARGES


@<TRIPOS>ATOM
  1 S        0.0760     0.5860    -0.4330 S.o2  1 <1>   1.4470 
  2 O        0.5320     1.4540    -1.4930 O.2   1 <1>  -0.6500 
  3 O        0.4580     0.8410     0.9360 O.2   1 <1>  -0.6500 
  4 N        0.6730    -0.9140    -0.8790 N.am  1 <1>  -0.9140 
  5 C       -1.7170     0.3490    -0.5340 C.ar  1 <1>  -0.0090 
  6 C        1.9880    -1.2020    -0.3520 C.3   1 <1>   0.2760 
  7 C       -2.3280    -0.6760     0.1780 C.ar  1 <1>  -0.1500 
  8 C       -2.5180     1.1850    -1.3200 C.ar  1 <1>  -0.1500 
  9 C        2.7630    -1.9820    -1.4200 C.3   1 <1>  -0.1600 
 10 C        1.8480    -2.0360     0.9290 C.3   1 <1>  -0.1600 
 11 C       -3.7010    -0.8550     0.0950 C.ar  1 <1>   0.1170 
 12 C       -3.8900     1.0130    -1.4050 C.ar  1 <1>  -0.1500 
 13 C        4.1390    -2.4240    -0.9000 C.3   1 <1>  -0.1600 
 14 C        3.2180    -2.4830     1.4590 C.3   1 <1>  -0.1600 
 15 N       -4.5430    -1.7880     0.6870 N.am  1 <1>  -0.4770 
 16 C       -4.4770    -0.0190    -0.6890 C.ar  1 <1>   0.1170 
 17 C        4.0060    -3.2480     0.3870 C.3   1 <1>  -0.1600 
 18 C       -5.8150    -1.5120     0.2660 C.2   1 <1>   0.6900 
 19 C       -4.1600    -2.8640     1.6200 C.3   1 <1>   0.1400 
 20 N       -5.7980    -0.4340    -0.5760 N.am  1 <1>  -0.4770 
 21 O       -6.8150    -2.1350     0.5920 O.2   1 <1>  -0.5700 
 22 C       -3.5560    -4.0300     0.8410 C.3   1 <1>  -0.2400 
 23 C       -6.9750     0.1480    -1.2460 C.3   1 <1>   0.1400 
 24 C       -7.4340     1.3930    -0.4890 C.3   1 <1>  -0.2400 
 25 H        0.7960    -0.8050    -1.8830 H     1 <1>   0.4200 
 26 H        2.5230    -0.2890    -0.1380 H     1 <1>   0.0800 
 27 H       -1.7400    -1.3330     0.7920 H     1 <1>   0.1500 
 28 H       -2.0520     1.9850    -1.8740 H     1 <1>   0.1500 
 29 H        2.9020    -1.3640    -2.2890 H     1 <1>   0.0800 
 30 H        2.2020    -2.8560    -1.7030 H     1 <1>   0.0800 
 31 H        1.2500    -2.9070     0.7220 H     1 <1>   0.0800 
 32 H        1.3530    -1.4600     1.6900 H     1 <1>   0.0800 
 33 H       -4.4960     1.6610    -2.0120 H     1 <1>   0.1500 
 34 H        4.7450    -1.5550    -0.7050 H     1 <1>   0.0800 
 35 H        4.6380    -3.0110    -1.6520 H     1 <1>   0.0800 
 36 H        3.0840    -3.1090     2.3240 H     1 <1>   0.0800 
 37 H        3.7800    -1.6160     1.7650 H     1 <1>   0.0800 
 38 H        4.9850    -3.4900     0.7640 H     1 <1>   0.0800 
 39 H        3.5000    -4.1730     0.1680 H     1 <1>   0.0800 
 40 H       -5.0340    -3.1960     2.1550 H     1 <1>   0.0800 
 41 H       -3.4510    -2.4800     2.3320 H     1 <1>   0.0800 
 42 H       -4.2750    -4.4150     0.1400 H     1 <1>   0.0800 
 43 H       -3.2860    -4.8190     1.5190 H     1 <1>   0.0800 
 44 H       -2.6740    -3.7160     0.3110 H     1 <1>   0.0800 
 45 H       -7.7680    -0.5820    -1.2640 H     1 <1>   0.0800 
 46 H       -6.7200     0.3970    -2.2610 H     1 <1>   0.0800 
 47 H       -7.6970     1.1310     0.5200 H     1 <1>   0.0800 
 48 H       -8.3000     1.8110    -0.9700 H     1 <1>   0.0800 
 49 H       -6.6560     2.1340    -0.4750 H     1 <1>   0.0800 
@<TRIPOS>BOND
  1   1   2  2   
  2   1   3  2   
  3   1   4  am  
  4   1   5  1   
  5   4   6  1   
  6   4  25  1   
  7   5   7  ar  
  8   5   8  ar  
  9   6   9  1   
 10   6  10  1   
 11   6  26  1   
 12   7  11  ar  
 13   7  27  1   
 14   8  12  ar  
 15   8  28  1   
 16   9  13  1   
 17   9  29  1   
 18   9  30  1   
 19  10  14  1   
 20  10  31  1   
 21  10  32  1   
 22  11  15  1   
 23  11  16  ar  
 24  12  16  ar  
 25  12  33  1   
 26  13  17  1   
 27  13  34  1   
 28  13  35  1   
 29  14  17  1   
 30  14  36  1   
 31  14  37  1   
 32  15  18  am  
 33  15  19  1   
 34  16  20  1   
 35  17  38  1   
 36  17  39  1   
 37  18  20  am  
 38  18  21  2   
 39  19  22  1   
 40  19  40  1   
 41  19  41  1   
 42  20  23  1   
 43  22  42  1   
 44  22  43  1   
 45  22  44  1   
 46  23  24  1   
 47  23  45  1   
 48  23  46  1   
 49  24  47  1   
 50  24  48  1   
 51  24  49  1   
@<TRIPOS>SUBSTRUCTURE
  1 ****   7 GROUP 4 **** **** 0

# MOE 2024.06 (io_trps.svl 2023.06)
