@<TRIPOS>MOLECULE
NONAME
49 52 1 0 0 
SMALL
USER_CHARGES


@<TRIPOS>ATOM
  1 S        0.3840    -1.6790     0.8610 S.3   1 <1>  -0.0800 
  2 C       -1.0610    -1.0050     0.0950 C.2   1 <1>   0.4420 
  3 C        1.3350    -0.3730     0.1950 C.ar  1 <1>   0.0400 
  4 N       -0.8500     0.0630    -0.5750 N.2   1 <1>  -0.5650 
  5 N       -2.2820    -1.6130     0.2360 N.am  1 <1>  -0.4940 
  6 C        0.4860     0.4370    -0.5340 C.ar  1 <1>   0.2270 
  7 C        2.6890    -0.1380     0.3340 C.ar  1 <1>  -0.1500 
  8 C       -2.7210    -2.6860     0.9530 C.2   1 <1>   0.5690 
  9 C        1.0290     1.5510    -1.1610 C.ar  1 <1>  -0.1500 
 10 C        3.2130     0.9780    -0.2980 C.ar  1 <1>  -0.1500 
 11 O       -2.0230    -3.3640     1.6650 O.2   1 <1>  -0.5700 
 12 C       -4.2080    -3.0220     0.8250 C.3   1 <1>   0.1710 
 13 C        2.3850     1.8160    -1.0420 C.ar  1 <1>  -0.1500 
 14 N       -5.0370    -1.8720     0.3620 N.3   1 <1>  -0.8100 
 15 C       -6.3550    -2.3360    -0.1370 C.3   1 <1>   0.1100 
 16 C       -5.2480    -0.8860     1.4570 C.3   1 <1>   0.1100 
 17 C       -7.2480    -1.1680    -0.6000 C.3   1 <1>   0.2090 
 18 C       -6.1230     0.3010     1.0140 C.3   1 <1>   0.2090 
 19 N       -7.4370    -0.1800     0.5000 N.pl3 1 <1>  -0.8380 
 20 C       -8.3920     0.8180     0.2570 C.ar  1 <1>   0.1000 
 21 C       -8.2710     1.8140    -0.7310 C.ar  1 <1>   0.0830 
 22 C       -9.5260     0.8070     1.0550 C.ar  1 <1>  -0.1500 
 23 O       -7.1500     1.8220    -1.5170 O.3   1 <1>  -0.3620 
 24 C       -9.2840     2.7580    -0.8830 C.ar  1 <1>  -0.1500 
 25 C      -10.5280     1.7480     0.8980 C.ar  1 <1>  -0.1500 
 26 C       -6.9500     2.8030    -2.5100 C.3   1 <1>   0.0400 
 27 C      -10.4070     2.7240    -0.0720 C.ar  1 <1>  -0.1500 
 28 H       -3.0460    -1.1430    -0.2560 H     1 <1>   0.3700 
 29 H        3.3050    -0.8020     0.9140 H     1 <1>   0.1500 
 30 H        0.3830     2.1930    -1.7330 H     1 <1>   0.1500 
 31 H        4.2630     1.1990    -0.2160 H     1 <1>   0.1500 
 32 H       -4.5700    -3.3830     1.7710 H     1 <1>   0.0800 
 33 H       -4.2860    -3.8250     0.1140 H     1 <1>   0.0800 
 34 H        2.8050     2.6800    -1.5280 H     1 <1>   0.1500 
 35 H       -6.8730    -2.8730     0.6400 H     1 <1>   0.0800 
 36 H       -6.2080    -3.0040    -0.9670 H     1 <1>   0.0800 
 37 H       -4.3000    -0.5040     1.7930 H     1 <1>   0.0800 
 38 H       -5.7280    -1.3650     2.2930 H     1 <1>   0.0800 
 39 H       -8.2090    -1.5450    -0.9040 H     1 <1>   0.0800 
 40 H       -6.7920    -0.6890    -1.4480 H     1 <1>   0.0800 
 41 H       -5.6100     0.8540     0.2480 H     1 <1>   0.0800 
 42 H       -6.2910     0.9590     1.8490 H     1 <1>   0.0800 
 43 H       -9.6140     0.0460     1.8080 H     1 <1>   0.1500 
 44 H       -9.2250     3.5290    -1.6250 H     1 <1>   0.1500 
 45 H      -11.3980     1.7170     1.5310 H     1 <1>   0.1500 
 46 H       -6.0040     2.6100    -2.9830 H     1 <1>   0.0800 
 47 H       -6.9340     3.7730    -2.0450 H     1 <1>   0.0800 
 48 H       -7.7410     2.7330    -3.2350 H     1 <1>   0.0800 
 49 H      -11.1840     3.4570    -0.1970 H     1 <1>   0.1500 
@<TRIPOS>BOND
  1   1   2  1   
  2   1   3  1   
  3   2   4  2   
  4   2   5  1   
  5   3   6  ar  
  6   3   7  ar  
  7   4   6  1   
  8   5   8  am  
  9   5  28  1   
 10   6   9  ar  
 11   7  10  ar  
 12   7  29  1   
 13   8  11  2   
 14   8  12  1   
 15   9  13  ar  
 16   9  30  1   
 17  10  13  ar  
 18  10  31  1   
 19  12  14  1   
 20  12  32  1   
 21  12  33  1   
 22  13  34  1   
 23  14  15  1   
 24  14  16  1   
 25  15  17  1   
 26  15  35  1   
 27  15  36  1   
 28  16  18  1   
 29  16  37  1   
 30  16  38  1   
 31  17  19  1   
 32  17  39  1   
 33  17  40  1   
 34  18  19  1   
 35  18  41  1   
 36  18  42  1   
 37  19  20  1   
 38  20  21  ar  
 39  20  22  ar  
 40  21  23  1   
 41  21  24  ar  
 42  22  25  ar  
 43  22  43  1   
 44  23  26  1   
 45  24  27  ar  
 46  24  44  1   
 47  25  27  ar  
 48  25  45  1   
 49  26  46  1   
 50  26  47  1   
 51  26  48  1   
 52  27  49  1   
@<TRIPOS>SUBSTRUCTURE
  1 ****  16 GROUP 4 **** **** 0

# MOE 2024.06 (io_trps.svl 2023.06)
