@<TRIPOS>MOLECULE
NONAME
42 44 1 0 0 
SMALL
USER_CHARGES


@<TRIPOS>ATOM
  1 N        1.1900     0.4210    -1.3720 N.ar  1 <1>  -0.6200 
  2 C        1.4540     0.8710    -0.1530 C.ar  1 <1>   0.4100 
  3 C        0.0630     0.8610    -1.9110 C.ar  1 <1>   0.1600 
  4 N        2.6250     0.4230     0.4170 N.pl3 1 <1>  -0.8380 
  5 C        0.6310     1.7470     0.5450 C.ar  1 <1>  -0.1500 
  6 C       -0.8190     1.7320    -1.2960 C.ar  1 <1>  -0.1500 
  7 C        3.8550     0.9640    -0.2350 C.3   1 <1>   0.2090 
  8 C        2.6610    -1.0540     0.6430 C.3   1 <1>   0.2090 
  9 C       -0.5360     2.1960    -0.0270 C.ar  1 <1>  -0.1500 
 10 C        5.1350     0.5120     0.4960 C.3   1 <1>   0.3430 
 11 C        3.9500    -1.4880     1.3690 C.3   1 <1>   0.3430 
 12 N        5.1900    -0.9850     0.6820 N.4   1 <1>  -0.9590 
 13 C        6.4340    -1.4150     1.3710 C.3   1 <1>   0.4860 
 14 C        7.6200    -1.0240     0.5100 C.ar  1 <1>  -0.1430 
 15 C        7.9480    -1.7170    -0.6540 C.ar  1 <1>  -0.1430 
 16 C        8.3870     0.0660     0.9000 C.ar  1 <1>  -0.1500 
 17 C        9.0250    -1.2890    -1.4150 C.ar  1 <1>  -0.1500 
 18 C        7.1780    -2.9430    -1.1340 C.3   1 <1>  -0.0970 
 19 C        9.4610     0.4800     0.1350 C.ar  1 <1>  -0.1500 
 20 C        9.7770    -0.1960    -1.0260 C.ar  1 <1>  -0.1500 
 21 H       -0.1720     0.5080    -2.9010 H     1 <1>   0.1500 
 22 H        0.9200     2.0620     1.5290 H     1 <1>   0.1500 
 23 H       -1.7150     2.0430    -1.8030 H     1 <1>   0.1500 
 24 H        3.8080     2.0400    -0.2370 H     1 <1>   0.0800 
 25 H        3.8910     0.6390    -1.2610 H     1 <1>   0.0800 
 26 H        2.5900    -1.5650    -0.3030 H     1 <1>   0.0800 
 27 H        1.8060    -1.3390     1.2320 H     1 <1>   0.0800 
 28 H       -1.1970     2.8740     0.4850 H     1 <1>   0.1500 
 29 H        5.1630     0.9980     1.4570 H     1 <1>   0.0800 
 30 H        5.9910     0.8440    -0.0680 H     1 <1>   0.0800 
 31 H        3.9710    -2.5640     1.4270 H     1 <1>   0.0800 
 32 H        3.9120    -1.1020     2.3740 H     1 <1>   0.0800 
 33 H        5.2290    -1.3860    -0.2630 H     1 <1>   0.4500 
 34 H        6.4330    -2.4830     1.5140 H     1 <1>   0.0800 
 35 H        6.5090    -0.9420     2.3370 H     1 <1>   0.0800 
 36 H        8.1630     0.6070     1.8040 H     1 <1>   0.1500 
 37 H        9.2940    -1.8060    -2.3210 H     1 <1>   0.1500 
 38 H        6.9360    -3.5950    -0.3150 H     1 <1>   0.0800 
 39 H        7.7740    -3.5100    -1.8270 H     1 <1>   0.0800 
 40 H        6.2770    -2.6470    -1.6400 H     1 <1>   0.0800 
 41 H       10.0550     1.3260     0.4410 H     1 <1>   0.1500 
 42 H       10.6130     0.1230    -1.6260 H     1 <1>   0.1500 
@<TRIPOS>BOND
  1   1   2  ar  
  2   1   3  ar  
  3   2   4  1   
  4   2   5  ar  
  5   3   6  ar  
  6   3  21  1   
  7   4   7  1   
  8   4   8  1   
  9   5   9  ar  
 10   5  22  1   
 11   6   9  ar  
 12   6  23  1   
 13   7  10  1   
 14   7  24  1   
 15   7  25  1   
 16   8  11  1   
 17   8  26  1   
 18   8  27  1   
 19   9  28  1   
 20  10  12  1   
 21  10  29  1   
 22  10  30  1   
 23  11  12  1   
 24  11  31  1   
 25  11  32  1   
 26  12  13  1   
 27  12  33  1   
 28  13  14  1   
 29  13  34  1   
 30  13  35  1   
 31  14  15  ar  
 32  14  16  ar  
 33  15  17  ar  
 34  15  18  1   
 35  16  19  ar  
 36  16  36  1   
 37  17  20  ar  
 38  17  37  1   
 39  18  38  1   
 40  18  39  1   
 41  18  40  1   
 42  19  20  ar  
 43  19  41  1   
 44  20  42  1   
@<TRIPOS>SUBSTRUCTURE
  1 ****  10 GROUP 4 **** **** 0

# MOE 2024.06 (io_trps.svl 2023.06)
