@<TRIPOS>MOLECULE
NONAME
41 44 1 0 0 
SMALL
USER_CHARGES


@<TRIPOS>ATOM
  1 O       -0.7700     0.4730     0.3860 O.2   1 <1>  -0.5700 
  2 C       -1.9720     0.4600     0.4450 C.2   1 <1>   0.5690 
  3 N       -2.6930     1.4080    -0.2050 N.am  1 <1>  -0.5470 
  4 C       -2.6510    -0.6110     1.2650 C.3   1 <1>  -0.1790 
  5 C       -4.0810     1.5840    -0.3090 C.ar  1 <1>   0.1170 
  6 C       -4.6480     2.7920     0.0400 C.ar  1 <1>  -0.1500 
  7 C       -4.8990     0.5430    -0.7820 C.ar  1 <1>  -0.1500 
  8 C       -6.0250     2.9630    -0.0690 C.ar  1 <1>   0.2270 
  9 C       -6.2620     0.7000    -0.8920 C.ar  1 <1>  -0.1500 
 10 N       -6.7830     4.0570     0.2220 N.2   1 <1>  -0.5650 
 11 C       -6.8190     1.9280    -0.5280 C.ar  1 <1>  -0.1520 
 12 C       -7.9880     3.6870    -0.0500 C.2   1 <1>   0.0060 
 13 N       -8.0870     2.4160    -0.5120 N.pl3 1 <1>   0.0480 
 14 C       -9.2330     4.5540     0.0930 C.3   1 <1>   0.2900 
 15 C       -9.3500     1.7430    -0.8650 C.3   1 <1>   0.0960 
 16 N      -10.4770     3.7450     0.0630 N.3   1 <1>  -0.8100 
 17 C      -10.4630     2.7830    -1.0590 C.3   1 <1>   0.1100 
 18 C      -11.6610     4.6260     0.0140 C.3   1 <1>   0.2900 
 19 C      -12.9390     3.8780     0.3620 C.2   1 <1>  -0.0400 
 20 O      -14.0940     4.4100     0.0070 O.3   1 <1>  -0.2800 
 21 C      -13.1410     2.7090     1.0090 C.2   1 <1>  -0.1500 
 22 C      -15.0500     3.5980     0.4130 C.2   1 <1>  -0.0100 
 23 C      -14.5280     2.5230     1.0410 C.2   1 <1>  -0.1500 
 24 H       -2.1110     2.1350    -0.6200 H     1 <1>   0.3700 
 25 H       -3.5000    -0.2040     1.7810 H     1 <1>   0.0800 
 26 H       -1.9600    -1.0000     1.9900 H     1 <1>   0.0800 
 27 H       -2.9680    -1.4110     0.6230 H     1 <1>   0.0800 
 28 H       -4.0580     3.6110     0.4020 H     1 <1>   0.1500 
 29 H       -4.4410    -0.3860    -1.0670 H     1 <1>   0.1500 
 30 H       -6.8890    -0.0960    -1.2520 H     1 <1>   0.1500 
 31 H       -9.2390     5.2690    -0.7120 H     1 <1>   0.0800 
 32 H       -9.1750     5.0920     1.0240 H     1 <1>   0.0800 
 33 H       -9.6160     1.0760    -0.0660 H     1 <1>   0.0800 
 34 H       -9.2120     1.1740    -1.7650 H     1 <1>   0.0800 
 35 H      -11.4070     2.2680    -1.1190 H     1 <1>   0.0800 
 36 H      -10.3120     3.3060    -1.9890 H     1 <1>   0.0800 
 37 H      -11.7560     5.0540    -0.9700 H     1 <1>   0.0800 
 38 H      -11.5490     5.4300     0.7210 H     1 <1>   0.0800 
 39 H      -12.4030     2.0460     1.4260 H     1 <1>   0.1500 
 40 H      -16.0740     3.8610     0.2140 H     1 <1>   0.1500 
 41 H      -15.0370     1.6860     1.4850 H     1 <1>   0.1500 
@<TRIPOS>BOND
  1   1   2  2   
  2   2   3  am  
  3   2   4  1   
  4   3   5  1   
  5   3  24  1   
  6   4  25  1   
  7   4  26  1   
  8   4  27  1   
  9   5   6  ar  
 10   5   7  ar  
 11   6   8  ar  
 12   6  28  1   
 13   7   9  ar  
 14   7  29  1   
 15   8  10  1   
 16   8  11  ar  
 17   9  11  ar  
 18   9  30  1   
 19  10  12  2   
 20  11  13  1   
 21  12  13  1   
 22  12  14  1   
 23  13  15  1   
 24  14  16  1   
 25  14  31  1   
 26  14  32  1   
 27  15  17  1   
 28  15  33  1   
 29  15  34  1   
 30  16  17  1   
 31  16  18  1   
 32  17  35  1   
 33  17  36  1   
 34  18  19  1   
 35  18  37  1   
 36  18  38  1   
 37  19  20  1   
 38  19  21  2   
 39  20  22  1   
 40  21  23  1   
 41  21  39  1   
 42  22  23  2   
 43  22  40  1   
 44  23  41  1   
@<TRIPOS>SUBSTRUCTURE
  1 ****  13 GROUP 4 **** **** 0

# MOE 2024.06 (io_trps.svl 2023.06)
