@<TRIPOS>MOLECULE
NONAME
40 42 1 0 0 
SMALL
USER_CHARGES


@<TRIPOS>ATOM
  1 CL       1.1060    -1.2760     1.7610 Cl    1 <1>  -0.1770 
  2 C        2.4420    -0.5130     0.9390 C.ar  1 <1>   0.1770 
  3 C        2.2170     0.6260     0.1900 C.ar  1 <1>  -0.1500 
  4 C        3.7060    -1.0570     1.0460 C.ar  1 <1>  -0.1500 
  5 C        3.2800     1.2290    -0.4610 C.ar  1 <1>  -0.1500 
  6 C        4.7650    -0.4490     0.3920 C.ar  1 <1>  -0.1500 
  7 C        4.5640     0.7010    -0.3660 C.ar  1 <1>  -0.1430 
  8 C        5.7040     1.4150    -1.1020 C.3   1 <1>   0.3440 
  9 O        6.4490     0.4770    -1.8410 O.3   1 <1>  -0.4300 
 10 C        6.6310     2.2450    -0.2100 C.3   1 <1>  -0.0190 
 11 C        7.5400    -0.1750    -1.4480 C.2   1 <1>   0.6590 
 12 C        7.5100     1.2790     0.5680 C.2   1 <1>   0.4480 
 13 C        5.8580     3.2400     0.6830 C.3   1 <1>  -0.2400 
 14 O        7.8760    -1.1420    -2.0770 O.2   1 <1>  -0.5700 
 15 C        8.3880     0.3460    -0.2710 C.3   1 <1>   0.1220 
 16 O        7.5140     1.2710     1.7640 O.2   1 <1>  -0.5700 
 17 C        8.9070    -0.8530     0.5920 C.3   1 <1>  -0.1600 
 18 C        9.5840     1.1800    -0.8260 C.3   1 <1>  -0.1600 
 19 C       10.2190    -0.5250     1.3180 C.3   1 <1>  -0.1600 
 20 C       10.8510     0.3380    -1.0230 C.3   1 <1>  -0.1600 
 21 C       11.3510    -0.2350     0.3150 C.3   1 <1>  -0.1600 
 22 H        1.2230     1.0300     0.1200 H     1 <1>   0.1500 
 23 H        3.8570    -1.9440     1.6340 H     1 <1>   0.1500 
 24 H        3.0950     2.1150    -1.0420 H     1 <1>   0.1500 
 25 H        5.7390    -0.8920     0.4880 H     1 <1>   0.1500 
 26 H        5.2670     2.0760    -1.8300 H     1 <1>   0.0800 
 27 H        7.2640     2.8310    -0.8510 H     1 <1>   0.0800 
 28 H        5.2280     2.7170     1.3830 H     1 <1>   0.0800 
 29 H        5.2460     3.8930     0.0870 H     1 <1>   0.0800 
 30 H        6.5490     3.8410     1.2480 H     1 <1>   0.0800 
 31 H        9.0980    -1.7120    -0.0300 H     1 <1>   0.0800 
 32 H        8.1600    -1.1530     1.3060 H     1 <1>   0.0800 
 33 H        9.8250     1.9700    -0.1350 H     1 <1>   0.0800 
 34 H        9.3150     1.6420    -1.7610 H     1 <1>   0.0800 
 35 H       10.5040    -1.3460     1.9540 H     1 <1>   0.0800 
 36 H       10.0670     0.3340     1.9490 H     1 <1>   0.0800 
 37 H       11.6280     0.9340    -1.4720 H     1 <1>   0.0800 
 38 H       10.6330    -0.4720    -1.7010 H     1 <1>   0.0800 
 39 H       11.8940    -1.1440     0.1140 H     1 <1>   0.0800 
 40 H       12.0410     0.4560     0.7690 H     1 <1>   0.0800 
@<TRIPOS>BOND
  1   1   2  1   
  2   2   3  ar  
  3   2   4  ar  
  4   3   5  ar  
  5   3  22  1   
  6   4   6  ar  
  7   4  23  1   
  8   5   7  ar  
  9   5  24  1   
 10   6   7  ar  
 11   6  25  1   
 12   7   8  1   
 13   8   9  1   
 14   8  10  1   
 15   8  26  1   
 16   9  11  1   
 17  10  12  1   
 18  10  13  1   
 19  10  27  1   
 20  11  14  2   
 21  11  15  1   
 22  12  15  1   
 23  12  16  2   
 24  13  28  1   
 25  13  29  1   
 26  13  30  1   
 27  15  17  1   
 28  15  18  1   
 29  17  19  1   
 30  17  31  1   
 31  17  32  1   
 32  18  20  1   
 33  18  33  1   
 34  18  34  1   
 35  19  21  1   
 36  19  35  1   
 37  19  36  1   
 38  20  21  1   
 39  20  37  1   
 40  20  38  1   
 41  21  39  1   
 42  21  40  1   
@<TRIPOS>SUBSTRUCTURE
  1 ****  12 GROUP 4 **** **** 0

# MOE 2024.06 (io_trps.svl 2023.06)
