@<TRIPOS>MOLECULE
NONAME
37 39 1 0 0 
SMALL
USER_CHARGES


@<TRIPOS>ATOM
  1 S       -0.1380     0.2440     1.5020 S.3   1 <1>  -0.3320 
  2 C       -1.5050     1.1550     0.7700 C.ar  1 <1>   0.4120 
  3 C        1.4020     0.8610     0.6810 C.3   1 <1>  -0.0100 
  4 N       -2.4450     0.3560     0.2980 N.ar  1 <1>  -0.6200 
  5 C       -1.5200     2.5470     0.7430 C.ar  1 <1>   0.0730 
  6 C       -3.4770     0.9620    -0.2590 C.ar  1 <1>   0.2780 
  7 C       -0.4680     3.3200     1.3260 C.1   1 <1>   0.4840 
  8 C       -2.6100     3.1710     0.1380 C.ar  1 <1>   0.0000 
  9 C       -3.5930     2.3340    -0.3650 C.ar  1 <1>  -0.1500 
 10 C       -4.5700     0.0590    -0.8090 C.3   1 <1>  -0.0680 
 11 N        0.3740     3.9390     1.7830 N.1   1 <1>  -0.5570 
 12 C       -2.7500     4.6030     0.0200 C.ar  1 <1>   0.0000 
 13 C       -6.0280     0.3960    -0.6900 C.3   1 <1>  -0.2000 
 14 C       -5.4440    -0.7090     0.1350 C.3   1 <1>  -0.2000 
 15 C       -2.9640     5.4070     1.1370 C.ar  1 <1>  -0.1500 
 16 C       -2.6780     5.2200    -1.2260 C.ar  1 <1>  -0.1500 
 17 C       -3.0950     6.7780     1.0200 C.ar  1 <1>  -0.1500 
 18 C       -2.8120     6.5900    -1.3500 C.ar  1 <1>  -0.1500 
 19 C       -3.0190     7.3810    -0.2320 C.ar  1 <1>   0.0820 
 20 O       -3.1360     8.7140    -0.4370 O.3   1 <1>  -0.3630 
 21 C       -3.2950     9.6160     0.6350 C.3   1 <1>   0.0400 
 22 H        2.0950     0.0400     0.6380 H     1 <1>   0.0800 
 23 H        1.8050     1.6610     1.2760 H     1 <1>   0.0800 
 24 H        1.1470     1.1960    -0.3080 H     1 <1>   0.0800 
 25 H       -4.4560     2.7620    -0.8410 H     1 <1>   0.1500 
 26 H       -4.2440    -0.4650    -1.6910 H     1 <1>   0.1000 
 27 H       -6.6840     0.1400    -1.5030 H     1 <1>   0.1000 
 28 H       -6.3360     1.2900    -0.1780 H     1 <1>   0.1000 
 29 H       -5.3000    -0.5600     1.1920 H     1 <1>   0.1000 
 30 H       -5.6790    -1.7310    -0.1080 H     1 <1>   0.1000 
 31 H       -3.0270     4.9530     2.1110 H     1 <1>   0.1500 
 32 H       -2.5150     4.6240    -2.1060 H     1 <1>   0.1500 
 33 H       -3.2560     7.3600     1.9080 H     1 <1>   0.1500 
 34 H       -2.7540     7.0600    -2.3150 H     1 <1>   0.1500 
 35 H       -3.3420    10.6110     0.2300 H     1 <1>   0.0800 
 36 H       -2.4480     9.5300     1.2930 H     1 <1>   0.0800 
 37 H       -4.2100     9.3880     1.1510 H     1 <1>   0.0800 
@<TRIPOS>BOND
  1   1   2  1   
  2   1   3  1   
  3   2   4  ar  
  4   2   5  ar  
  5   3  22  1   
  6   3  23  1   
  7   3  24  1   
  8   4   6  ar  
  9   5   7  1   
 10   5   8  ar  
 11   6   9  ar  
 12   6  10  1   
 13   7  11  3   
 14   8   9  ar  
 15   8  12  1   
 16   9  25  1   
 17  10  13  1   
 18  10  14  1   
 19  10  26  1   
 20  12  15  ar  
 21  12  16  ar  
 22  13  14  1   
 23  13  27  1   
 24  13  28  1   
 25  14  29  1   
 26  14  30  1   
 27  15  17  ar  
 28  15  31  1   
 29  16  18  ar  
 30  16  32  1   
 31  17  19  ar  
 32  17  33  1   
 33  18  19  ar  
 34  18  34  1   
 35  19  20  1   
 36  20  21  1   
 37  21  35  1   
 38  21  36  1   
 39  21  37  1   
@<TRIPOS>SUBSTRUCTURE
  1 ****   8 GROUP 4 **** **** 0

# MOE 2024.06 (io_trps.svl 2023.06)
