@<TRIPOS>MOLECULE
NONAME
47 49 1 0 0 
SMALL
USER_CHARGES


@<TRIPOS>ATOM
  1 S       -0.1820     0.1050     0.1920 S.o2  1 <1>   1.4470 
  2 O        0.0160     0.7260     1.4840 O.2   1 <1>  -0.6500 
  3 O       -0.3110     0.9350    -0.9850 O.2   1 <1>  -0.6500 
  4 N        1.1500    -0.9060    -0.0710 N.am  1 <1>  -0.8490 
  5 C       -1.5690    -1.0630     0.2580 C.ar  1 <1>  -0.0090 
  6 C        2.3380    -0.1280    -0.4740 C.3   1 <1>   0.1960 
  7 C        1.4840    -1.7180     1.1180 C.3   1 <1>   0.1960 
  8 C       -2.3590    -1.1860     1.3950 C.ar  1 <1>  -0.1500 
  9 C       -1.8670    -1.8740    -0.8320 C.ar  1 <1>  -0.1500 
 10 C        3.5510    -1.0290    -0.7730 C.3   1 <1>   0.2090 
 11 C        2.6650    -2.6710     0.8530 C.3   1 <1>   0.2090 
 12 C       -3.4060    -2.0900     1.4440 C.ar  1 <1>  -0.1500 
 13 C       -2.9140    -2.7800    -0.7940 C.ar  1 <1>  -0.1500 
 14 N        3.8690    -1.9260     0.3790 N.pl3 1 <1>  -0.8380 
 15 C       -3.6920    -2.8920     0.3530 C.ar  1 <1>   0.0830 
 16 C        5.0210    -2.6900     0.2370 C.ar  1 <1>   0.1000 
 17 O       -4.7330    -3.7500     0.4800 O.3   1 <1>  -0.3630 
 18 C        5.1180    -3.6890    -0.7240 C.ar  1 <1>  -0.1500 
 19 C        6.1050    -2.4580     1.0710 C.ar  1 <1>  -0.1500 
 20 C       -5.1460    -4.5710    -0.5900 C.3   1 <1>   0.0400 
 21 C        6.2690    -4.4440    -0.8540 C.ar  1 <1>   0.0830 
 22 C        7.2620    -3.2050     0.9510 C.ar  1 <1>  -0.1500 
 23 O        6.2660    -5.3960    -1.8220 O.3   1 <1>  -0.3630 
 24 C        7.3500    -4.1990    -0.0090 C.ar  1 <1>  -0.1500 
 25 C        7.3900    -6.2200    -2.0370 C.3   1 <1>   0.0400 
 26 H        2.6020     0.5670     0.3070 H     1 <1>   0.0800 
 27 H        2.1130     0.4410    -1.3600 H     1 <1>   0.0800 
 28 H        0.6300    -2.3040     1.4080 H     1 <1>   0.0800 
 29 H        1.7430    -1.0760     1.9440 H     1 <1>   0.0800 
 30 H       -2.1550    -0.5680     2.2540 H     1 <1>   0.1500 
 31 H       -1.2670    -1.7910    -1.7230 H     1 <1>   0.1500 
 32 H        4.4080    -0.4140    -0.9860 H     1 <1>   0.0800 
 33 H        3.3400    -1.6220    -1.6460 H     1 <1>   0.0800 
 34 H        2.3740    -3.3970     0.1150 H     1 <1>   0.0800 
 35 H        2.9110    -3.1950     1.7600 H     1 <1>   0.0800 
 36 H       -4.0120    -2.1770     2.3290 H     1 <1>   0.1500 
 37 H       -3.1060    -3.3840    -1.6600 H     1 <1>   0.1500 
 38 H        4.2910    -3.8840    -1.3780 H     1 <1>   0.1500 
 39 H        6.0270    -1.6840     1.8120 H     1 <1>   0.1500 
 40 H       -5.9950    -5.1440    -0.2630 H     1 <1>   0.0800 
 41 H       -4.3400    -5.2320    -0.8540 H     1 <1>   0.0800 
 42 H       -5.4240    -3.9480    -1.4220 H     1 <1>   0.0800 
 43 H        8.0940    -3.0130     1.6050 H     1 <1>   0.1500 
 44 H        8.2580    -4.7660    -0.0830 H     1 <1>   0.1500 
 45 H        7.1620    -6.8910    -2.8440 H     1 <1>   0.0800 
 46 H        7.5890    -6.7800    -1.1400 H     1 <1>   0.0800 
 47 H        8.2300    -5.6020    -2.3010 H     1 <1>   0.0800 
@<TRIPOS>BOND
  1   1   2  2   
  2   1   3  2   
  3   1   4  am  
  4   1   5  1   
  5   4   6  1   
  6   4   7  1   
  7   5   8  ar  
  8   5   9  ar  
  9   6  10  1   
 10   6  26  1   
 11   6  27  1   
 12   7  11  1   
 13   7  28  1   
 14   7  29  1   
 15   8  12  ar  
 16   8  30  1   
 17   9  13  ar  
 18   9  31  1   
 19  10  14  1   
 20  10  32  1   
 21  10  33  1   
 22  11  14  1   
 23  11  34  1   
 24  11  35  1   
 25  12  15  ar  
 26  12  36  1   
 27  13  15  ar  
 28  13  37  1   
 29  14  16  1   
 30  15  17  1   
 31  16  18  ar  
 32  16  19  ar  
 33  17  20  1   
 34  18  21  ar  
 35  18  38  1   
 36  19  22  ar  
 37  19  39  1   
 38  20  40  1   
 39  20  41  1   
 40  20  42  1   
 41  21  23  1   
 42  21  24  ar  
 43  22  24  ar  
 44  22  43  1   
 45  23  25  1   
 46  24  44  1   
 47  25  45  1   
 48  25  46  1   
 49  25  47  1   
@<TRIPOS>SUBSTRUCTURE
  1 ****   7 GROUP 4 **** **** 0

# MOE 2024.06 (io_trps.svl 2023.06)
