@<TRIPOS>MOLECULE
NONAME
43 45 1 0 0 
SMALL
USER_CHARGES


@<TRIPOS>ATOM
  1 BR       2.1390    -0.8670     1.0640 Br    1 <1>  -0.1110 
  2 C        0.8180    -2.1480     0.5000 C.ar  1 <1>   0.1110 
  3 C       -0.2670    -2.3850     1.3210 C.ar  1 <1>  -0.1500 
  4 C        0.9890    -2.7940    -0.7080 C.ar  1 <1>  -0.1500 
  5 C       -1.2230    -3.3050     0.9150 C.ar  1 <1>  -0.1440 
  6 C        0.0350    -3.7120    -1.1100 C.ar  1 <1>  -0.1500 
  7 C       -1.0740    -3.9720    -0.3020 C.ar  1 <1>   0.0830 
  8 C       -2.4260    -3.5840     1.7980 C.3   1 <1>   0.4870 
  9 O       -2.0480    -4.8560    -0.6520 O.3   1 <1>  -0.3630 
 10 N       -3.6550    -3.2430     1.0430 N.4   1 <1>  -0.9590 
 11 C       -1.8930    -5.7110    -1.7700 C.3   1 <1>   0.0400 
 12 C       -3.7390    -1.7780     0.7000 C.3   1 <1>   0.3430 
 13 C       -4.9070    -3.7270     1.7180 C.3   1 <1>   0.3430 
 14 C       -5.0020    -1.4420    -0.1170 C.3   1 <1>   0.2090 
 15 C       -6.1740    -3.3970     0.9020 C.3   1 <1>   0.2090 
 16 N       -6.2400    -1.9470     0.5490 N.pl3 1 <1>  -0.8380 
 17 C       -7.4040    -1.5810    -0.0900 C.ar  1 <1>   0.4100 
 18 N       -7.6060    -2.1130    -1.2870 N.ar  1 <1>  -0.6200 
 19 C       -8.2870    -0.6990     0.5260 C.ar  1 <1>  -0.1500 
 20 C       -8.7280    -1.7520    -1.8900 C.ar  1 <1>   0.1600 
 21 C       -9.4480    -0.3340    -0.1130 C.ar  1 <1>  -0.1500 
 22 C       -9.6660    -0.8830    -1.3610 C.ar  1 <1>  -0.1500 
 23 H       -0.3420    -1.8540     2.2540 H     1 <1>   0.1500 
 24 H        1.8500    -2.5820    -1.3170 H     1 <1>   0.1500 
 25 H        0.1760    -4.2100    -2.0520 H     1 <1>   0.1500 
 26 H       -2.3690    -3.0040     2.7040 H     1 <1>   0.0800 
 27 H       -2.4310    -4.6310     2.0560 H     1 <1>   0.0800 
 28 H       -3.5480    -3.7550     0.1500 H     1 <1>   0.4500 
 29 H       -2.7390    -6.3740    -1.8100 H     1 <1>   0.0800 
 30 H       -0.9890    -6.2830    -1.6530 H     1 <1>   0.0800 
 31 H       -1.8560    -5.1170    -2.6670 H     1 <1>   0.0800 
 32 H       -2.8700    -1.4830     0.1360 H     1 <1>   0.0800 
 33 H       -3.7600    -1.1960     1.6060 H     1 <1>   0.0800 
 34 H       -5.0010    -3.2600     2.6840 H     1 <1>   0.0800 
 35 H       -4.8560    -4.7930     1.8670 H     1 <1>   0.0800 
 36 H       -4.9200    -1.8740    -1.1010 H     1 <1>   0.0800 
 37 H       -5.0760    -0.3740    -0.2360 H     1 <1>   0.0800 
 38 H       -7.0470    -3.6600     1.4760 H     1 <1>   0.0800 
 39 H       -6.1870    -3.9880     0.0010 H     1 <1>   0.0800 
 40 H       -8.0460    -0.3150     1.4980 H     1 <1>   0.1500 
 41 H       -8.9110    -2.1720    -2.8650 H     1 <1>   0.1500 
 42 H      -10.1530     0.3460     0.3340 H     1 <1>   0.1500 
 43 H      -10.5540    -0.6400    -1.9160 H     1 <1>   0.1500 
@<TRIPOS>BOND
  1   1   2  1   
  2   2   3  ar  
  3   2   4  ar  
  4   3   5  ar  
  5   3  23  1   
  6   4   6  ar  
  7   4  24  1   
  8   5   7  ar  
  9   5   8  1   
 10   6   7  ar  
 11   6  25  1   
 12   7   9  1   
 13   8  10  1   
 14   8  26  1   
 15   8  27  1   
 16   9  11  1   
 17  10  12  1   
 18  10  13  1   
 19  10  28  1   
 20  11  29  1   
 21  11  30  1   
 22  11  31  1   
 23  12  14  1   
 24  12  32  1   
 25  12  33  1   
 26  13  15  1   
 27  13  34  1   
 28  13  35  1   
 29  14  16  1   
 30  14  36  1   
 31  14  37  1   
 32  15  16  1   
 33  15  38  1   
 34  15  39  1   
 35  16  17  1   
 36  17  18  ar  
 37  17  19  ar  
 38  18  20  ar  
 39  19  21  ar  
 40  19  40  1   
 41  20  22  ar  
 42  20  41  1   
 43  21  22  ar  
 44  21  42  1   
 45  22  43  1   
@<TRIPOS>SUBSTRUCTURE
  1 ****  12 GROUP 4 **** **** 0

# MOE 2024.06 (io_trps.svl 2023.06)
