@<TRIPOS>MOLECULE
NONAME
35 35 1 0 0 
SMALL
USER_CHARGES


@<TRIPOS>ATOM
  1 CL      -0.0300     0.1290    -0.0280 Cl    1 <1>  -0.1770 
  2 C        1.5850     0.8130    -0.0200 C.ar  1 <1>   0.1770 
  3 C        2.6820    -0.0370    -0.0890 C.ar  1 <1>  -0.1440 
  4 C        1.7350     2.1920     0.0550 C.ar  1 <1>  -0.1440 
  5 C        3.9550     0.5120    -0.0830 C.ar  1 <1>  -0.1500 
  6 C        2.4960    -1.5460    -0.1710 C.3   1 <1>  -0.0960 
  7 C        3.0150     2.7200     0.0600 C.ar  1 <1>  -0.1500 
  8 C        0.5260     3.1140     0.1300 C.3   1 <1>  -0.0960 
  9 C        4.1250     1.8930    -0.0080 C.ar  1 <1>   0.0820 
 10 O        5.3360     2.5050     0.0040 O.3   1 <1>  -0.3630 
 11 C        6.5320     1.7710    -0.0610 C.3   1 <1>   0.1200 
 12 C        7.6790     2.7830    -0.0260 C.3   1 <1>   0.3430 
 13 N        9.0170     2.1160    -0.0890 N.4   1 <1>  -0.9060 
 14 C       10.1210     3.1240    -0.0540 C.3   1 <1>   0.3430 
 15 C       11.5040     2.4620    -0.1180 C.3   1 <1>   0.1200 
 16 O       12.4440     3.4730    -0.0790 O.3   1 <1>  -0.6800 
 17 H        4.7970    -0.1510    -0.1360 H     1 <1>   0.1500 
 18 H        1.9300    -1.7980    -1.0500 H     1 <1>   0.0800 
 19 H        1.9640    -1.8970     0.6950 H     1 <1>   0.0800 
 20 H        3.4420    -2.0550    -0.2180 H     1 <1>   0.0800 
 21 H        3.1620     3.7830     0.1180 H     1 <1>   0.1500 
 22 H       -0.0570     2.8850     1.0050 H     1 <1>   0.0800 
 23 H       -0.0900     2.9830    -0.7410 H     1 <1>   0.0800 
 24 H        0.8280     4.1440     0.1830 H     1 <1>   0.0800 
 25 H        6.5310     1.2150    -0.9820 H     1 <1>   0.0800 
 26 H        6.5650     1.1150     0.7910 H     1 <1>   0.0800 
 27 H        7.6030     3.3570     0.8840 H     1 <1>   0.0800 
 28 H        7.5700     3.4550    -0.8620 H     1 <1>   0.0800 
 29 H        9.0880     1.5650    -0.9550 H     1 <1>   0.4500 
 30 H        9.1200     1.4710     0.7050 H     1 <1>   0.4500 
 31 H       10.0590     3.6990     0.8560 H     1 <1>   0.0800 
 32 H       10.0250     3.7980    -0.8900 H     1 <1>   0.0800 
 33 H       11.6370     1.9200    -1.0390 H     1 <1>   0.0800 
 34 H       11.6720     1.8200     0.7290 H     1 <1>   0.0800 
 35 H       13.3620     3.1250    -0.1170 H     1 <1>   0.4000 
@<TRIPOS>BOND
  1   1   2  1   
  2   2   3  ar  
  3   2   4  ar  
  4   3   5  ar  
  5   3   6  1   
  6   4   7  ar  
  7   4   8  1   
  8   5   9  ar  
  9   5  17  1   
 10   6  18  1   
 11   6  19  1   
 12   6  20  1   
 13   7   9  ar  
 14   7  21  1   
 15   8  22  1   
 16   8  23  1   
 17   8  24  1   
 18   9  10  1   
 19  10  11  1   
 20  11  12  1   
 21  11  25  1   
 22  11  26  1   
 23  12  13  1   
 24  12  27  1   
 25  12  28  1   
 26  13  14  1   
 27  13  29  1   
 28  13  30  1   
 29  14  15  1   
 30  14  31  1   
 31  14  32  1   
 32  15  16  1   
 33  15  33  1   
 34  15  34  1   
 35  16  35  1   
@<TRIPOS>SUBSTRUCTURE
  1 ****  10 GROUP 4 **** **** 0

# MOE 2024.06 (io_trps.svl 2023.06)
