@<TRIPOS>MOLECULE
NONAME
30 30 1 0 0 
SMALL
USER_CHARGES


@<TRIPOS>ATOM
  1 BR      -0.2040     0.9050     0.4080 Br    1 <1>  -0.1110 
  2 C        1.6640     1.3210     0.1880 C.ar  1 <1>   0.1110 
  3 C        2.1000     2.5990     0.4770 C.ar  1 <1>  -0.1500 
  4 C        2.5180     0.3320    -0.2490 C.ar  1 <1>  -0.1500 
  5 C        3.4440     2.9180     0.3200 C.ar  1 <1>  -0.1440 
  6 C        3.8550     0.6460    -0.3960 C.ar  1 <1>  -0.1500 
  7 C        4.3350     1.9260    -0.1200 C.ar  1 <1>   0.1170 
  8 C        3.9600     4.3310     0.6320 C.3   1 <1>  -0.0160 
  9 N        5.7050     2.2140    -0.2560 N.am  1 <1>  -0.5470 
 10 C        2.9030     5.4420     0.5860 C.3   1 <1>  -0.2400 
 11 C        6.6450     1.7330    -1.1250 C.2   1 <1>   0.5690 
 12 O        6.4060     0.8760    -1.9440 O.2   1 <1>  -0.5700 
 13 C        8.0650     2.2910    -1.1080 C.3   1 <1>  -0.0990 
 14 C        8.6210     2.7410     0.2600 C.3   1 <1>  -0.2660 
 15 C        8.0560     4.0680     0.6920 C.2   1 <1>   0.9060 
 16 O        8.6330     5.1000     0.3550 O.co2 1 <1>  -0.9000 
 17 O        6.9940     4.0650     1.3180 O.co2 1 <1>  -0.9000 
 18 H        1.3810     3.3170     0.8200 H     1 <1>   0.1500 
 19 H        2.1500    -0.6540    -0.4660 H     1 <1>   0.1500 
 20 H        4.5380    -0.1150    -0.7260 H     1 <1>   0.1500 
 21 H        4.7250     4.5950    -0.0780 H     1 <1>   0.0800 
 22 H        4.4210     4.3240     1.6040 H     1 <1>   0.0800 
 23 H        6.0520     2.9650     0.3750 H     1 <1>   0.3700 
 24 H        2.3840     5.4240    -0.3560 H     1 <1>   0.0800 
 25 H        3.3870     6.3960     0.6930 H     1 <1>   0.0800 
 26 H        2.1990     5.3320     1.3900 H     1 <1>   0.0800 
 27 H        8.1050     3.1190    -1.7920 H     1 <1>   0.0800 
 28 H        8.7130     1.5270    -1.4960 H     1 <1>   0.0800 
 29 H        9.6860     2.8580     0.1920 H     1 <1>   0.0800 
 30 H        8.4090     2.0090     1.0160 H     1 <1>   0.0800 
@<TRIPOS>BOND
  1   1   2  1   
  2   2   3  ar  
  3   2   4  ar  
  4   3   5  ar  
  5   3  18  1   
  6   4   6  ar  
  7   4  19  1   
  8   5   7  ar  
  9   5   8  1   
 10   6   7  ar  
 11   6  20  1   
 12   7   9  1   
 13   8  10  1   
 14   8  21  1   
 15   8  22  1   
 16   9  11  am  
 17   9  23  1   
 18  10  24  1   
 19  10  25  1   
 20  10  26  1   
 21  11  12  2   
 22  11  13  1   
 23  13  14  1   
 24  13  27  1   
 25  13  28  1   
 26  14  15  1   
 27  14  29  1   
 28  14  30  1   
 29  15  16  ar  
 30  15  17  ar  
@<TRIPOS>SUBSTRUCTURE
  1 ****   7 GROUP 4 **** **** 0

# MOE 2024.06 (io_trps.svl 2023.06)
