@<TRIPOS>MOLECULE
NONAME
37 37 1 0 0 
SMALL
USER_CHARGES


@<TRIPOS>ATOM
  1 CL       0.7660     0.5470    -0.7290 Cl    1 <1>  -0.1770 
  2 C        2.4290     0.9590    -0.3900 C.ar  1 <1>   0.1770 
  3 C        2.8670     0.9830     0.9200 C.ar  1 <1>  -0.1500 
  4 C        3.2790     1.2550    -1.4370 C.ar  1 <1>  -0.1500 
  5 C        4.1860     1.3090     1.1980 C.ar  1 <1>  -0.1440 
  6 C        4.5970     1.5810    -1.1670 C.ar  1 <1>  -0.1500 
  7 C        5.0570     1.6100     0.1510 C.ar  1 <1>   0.0830 
  8 C        4.6600     1.3320     2.6450 C.3   1 <1>  -0.0960 
  9 O        6.3400     1.9230     0.4760 O.3   1 <1>  -0.3630 
 10 C        7.2990     2.2410    -0.5010 C.3   1 <1>   0.1200 
 11 C        8.6080     2.5330     0.2350 C.3   1 <1>   0.3430 
 12 N        9.7150     2.8870    -0.7120 N.4   1 <1>  -0.9060 
 13 C       11.0170     3.1850    -0.1070 C.3   1 <1>   0.5030 
 14 C       11.5280     1.9610     0.6520 C.3   1 <1>  -0.2400 
 15 C       11.9590     3.5100    -1.2610 C.3   1 <1>  -0.2400 
 16 C       10.8930     4.3950     0.8180 C.3   1 <1>  -0.2400 
 17 H        2.1740     0.7460     1.7070 H     1 <1>   0.1500 
 18 H        2.9070     1.2280    -2.4450 H     1 <1>   0.1500 
 19 H        5.2370     1.8070    -1.9980 H     1 <1>   0.1500 
 20 H        3.8630     1.0770     3.3190 H     1 <1>   0.0800 
 21 H        5.0180     2.3140     2.8970 H     1 <1>   0.0800 
 22 H        5.4590     0.6250     2.7800 H     1 <1>   0.0800 
 23 H        6.9530     3.1080    -1.0360 H     1 <1>   0.0800 
 24 H        7.4010     1.3930    -1.1550 H     1 <1>   0.0800 
 25 H        8.8820     1.6590     0.8040 H     1 <1>   0.0800 
 26 H        8.4410     3.3480     0.9200 H     1 <1>   0.0800 
 27 H        9.4490     3.7090    -1.2630 H     1 <1>   0.4500 
 28 H        9.8650     2.1170    -1.3720 H     1 <1>   0.4500 
 29 H       11.5680     1.0960     0.0150 H     1 <1>   0.0800 
 30 H       10.9220     1.7440     1.5130 H     1 <1>   0.0800 
 31 H       12.5260     2.1490     1.0090 H     1 <1>   0.0800 
 32 H       11.6180     4.3680    -1.8140 H     1 <1>   0.0800 
 33 H       12.0610     2.6740    -1.9300 H     1 <1>   0.0800 
 34 H       12.9390     3.7400    -0.8790 H     1 <1>   0.0800 
 35 H       10.4850     5.2430     0.2980 H     1 <1>   0.0800 
 36 H       11.8670     4.6730     1.1820 H     1 <1>   0.0800 
 37 H       10.2860     4.1780     1.6790 H     1 <1>   0.0800 
@<TRIPOS>BOND
  1   1   2  1   
  2   2   3  ar  
  3   2   4  ar  
  4   3   5  ar  
  5   3  17  1   
  6   4   6  ar  
  7   4  18  1   
  8   5   7  ar  
  9   5   8  1   
 10   6   7  ar  
 11   6  19  1   
 12   7   9  1   
 13   8  20  1   
 14   8  21  1   
 15   8  22  1   
 16   9  10  1   
 17  10  11  1   
 18  10  23  1   
 19  10  24  1   
 20  11  12  1   
 21  11  25  1   
 22  11  26  1   
 23  12  13  1   
 24  12  27  1   
 25  12  28  1   
 26  13  14  1   
 27  13  15  1   
 28  13  16  1   
 29  14  29  1   
 30  14  30  1   
 31  14  31  1   
 32  15  32  1   
 33  15  33  1   
 34  15  34  1   
 35  16  35  1   
 36  16  36  1   
 37  16  37  1   
@<TRIPOS>SUBSTRUCTURE
  1 ****   9 GROUP 4 **** **** 0

# MOE 2024.06 (io_trps.svl 2023.06)
