@<TRIPOS>MOLECULE
NONAME
40 43 1 0 0 
SMALL
USER_CHARGES


@<TRIPOS>ATOM
  1 O       -0.5930    -0.5630     1.1880 O.2   1 <1>  -0.5700 
  2 C       -1.3680    -1.2060     0.5260 C.2   1 <1>   0.5690 
  3 N       -1.1380    -2.4140    -0.1160 N.am  1 <1>  -0.2370 
  4 C       -2.7740    -0.7810     0.2020 C.3   1 <1>  -0.0190 
  5 C        0.1270    -3.0260    -0.2720 C.ar  1 <1>   0.1170 
  6 C       -2.3520    -2.9250    -0.5460 C.2   1 <1>   0.5690 
  7 C       -3.7640     0.2410     0.8260 C.3   1 <1>   0.0580 
  8 C       -3.4390    -2.1570     0.1530 C.3   1 <1>  -0.0190 
  9 C        1.2580    -2.2580    -0.5170 C.ar  1 <1>  -0.1500 
 10 C        0.2750    -4.4050    -0.1720 C.ar  1 <1>  -0.1500 
 11 O       -2.5450    -3.8310    -1.3140 O.2   1 <1>  -0.5700 
 12 C       -4.7400    -0.4360     1.7960 C.2   1 <1>  -0.2880 
 13 C       -4.7110     0.5790    -0.3620 C.3   1 <1>  -0.1600 
 14 C       -4.9600    -1.9670    -0.0770 C.3   1 <1>   0.0580 
 15 C        2.5300    -2.8160    -0.6230 C.ar  1 <1>   0.0860 
 16 C        1.5200    -4.9910    -0.3030 C.ar  1 <1>  -0.1500 
 17 C       -5.3890    -1.5090     1.3200 C.2   1 <1>  -0.2880 
 18 C       -5.2560    -0.7480    -0.9990 C.3   1 <1>  -0.1600 
 19 C        3.7100    -1.9980    -0.8350 C.2   1 <1>   0.6340 
 20 C        2.6340    -4.2030    -0.5270 C.ar  1 <1>  -0.1500 
 21 O        4.5500    -2.2810    -1.6570 O.2   1 <1>  -0.5700 
 22 O        3.9250    -0.9020    -0.0990 O.3   1 <1>  -0.4300 
 23 C        3.3870    -0.6990     1.1940 C.3   1 <1>   0.0400 
 24 H       -2.6310    -0.4390    -0.8110 H     1 <1>   0.0800 
 25 H       -3.2830     1.1160     1.2310 H     1 <1>   0.0800 
 26 H       -3.3730    -2.5980     1.1370 H     1 <1>   0.0800 
 27 H        1.1580    -1.1930    -0.6290 H     1 <1>   0.1500 
 28 H       -0.5840    -5.0290     0.0060 H     1 <1>   0.1500 
 29 H       -4.8620     0.0210     2.7640 H     1 <1>   0.1500 
 30 H       -4.2040     1.1700    -1.1060 H     1 <1>   0.0800 
 31 H       -5.5360     1.1680     0.0020 H     1 <1>   0.0800 
 32 H       -5.4480    -2.8770    -0.3850 H     1 <1>   0.0800 
 33 H        1.6210    -6.0610    -0.2330 H     1 <1>   0.1500 
 34 H       -6.1460    -2.0900     1.8210 H     1 <1>   0.1500 
 35 H       -4.8070    -0.9140    -1.9630 H     1 <1>   0.0800 
 36 H       -6.3190    -0.6610    -1.1450 H     1 <1>   0.0800 
 37 H        3.6030    -4.6620    -0.6310 H     1 <1>   0.1500 
 38 H        3.9650     0.0680     1.6770 H     1 <1>   0.0800 
 39 H        3.4550    -1.6140     1.7560 H     1 <1>   0.0800 
 40 H        2.3640    -0.3780     1.1120 H     1 <1>   0.0800 
@<TRIPOS>BOND
  1   1   2  2   
  2   2   3  am  
  3   2   4  1   
  4   3   5  1   
  5   3   6  am  
  6   4   7  1   
  7   4   8  1   
  8   4  24  1   
  9   5   9  ar  
 10   5  10  ar  
 11   6   8  1   
 12   6  11  2   
 13   7  12  1   
 14   7  13  1   
 15   7  25  1   
 16   8  14  1   
 17   8  26  1   
 18   9  15  ar  
 19   9  27  1   
 20  10  16  ar  
 21  10  28  1   
 22  12  17  2   
 23  12  29  1   
 24  13  18  1   
 25  13  30  1   
 26  13  31  1   
 27  14  17  1   
 28  14  18  1   
 29  14  32  1   
 30  15  19  1   
 31  15  20  ar  
 32  16  20  ar  
 33  16  33  1   
 34  17  34  1   
 35  18  35  1   
 36  18  36  1   
 37  19  21  2   
 38  19  22  1   
 39  20  37  1   
 40  22  23  1   
 41  23  38  1   
 42  23  39  1   
 43  23  40  1   
@<TRIPOS>SUBSTRUCTURE
  1 ****   3 GROUP 4 **** **** 0

# MOE 2024.06 (io_trps.svl 2023.06)
