@<TRIPOS>MOLECULE
NONAME
31 31 1 0 0 
SMALL
USER_CHARGES


@<TRIPOS>ATOM
  1 CL       1.8030    -1.7340    -0.2010 Cl    1 <1>  -0.2900 
  2 C        2.0140    -0.0940     0.4120 C.3   1 <1>   0.6050 
  3 CL       2.0170     0.9280    -1.0250 Cl    1 <1>  -0.2900 
  4 S        3.5160     0.0870     1.4330 S.o2  1 <1>   1.0900 
  5 O        3.3500    -0.6940     2.6400 O.2   1 <1>  -0.6500 
  6 O        3.8490     1.4870     1.5850 O.2   1 <1>  -0.6500 
  7 C        4.8550    -0.6830     0.5130 C.3   1 <1>  -0.0550 
  8 C        5.2890     0.0710    -0.7550 C.3   1 <1>  -0.0990 
  9 C        6.5530    -0.5390    -1.3100 C.2   1 <1>   0.5690 
 10 O        6.4920    -1.6260    -1.8250 O.2   1 <1>  -0.5700 
 11 N        7.7150     0.1410    -1.1890 N.am  1 <1>  -0.7300 
 12 C        9.0310    -0.3790    -1.5890 C.3   1 <1>   0.2840 
 13 C       10.0610     0.2120    -0.6460 C.ar  1 <1>  -0.1440 
 14 C       10.7520     1.3640    -0.9910 C.ar  1 <1>  -0.1500 
 15 C       10.3100    -0.3900     0.5780 C.ar  1 <1>  -0.1500 
 16 C       11.6810     1.9080    -0.1210 C.ar  1 <1>  -0.1500 
 17 C       11.2400     0.1520     1.4480 C.ar  1 <1>  -0.1500 
 18 C       11.9260     1.3020     1.0990 C.ar  1 <1>  -0.1500 
 19 H        1.1300     0.1540     0.9680 H     1 <1>   0.0800 
 20 H        4.5950    -1.6920     0.2510 H     1 <1>   0.0800 
 21 H        5.7080    -0.7430     1.1630 H     1 <1>   0.0800 
 22 H        5.4580     1.1090    -0.5330 H     1 <1>   0.0800 
 23 H        4.5310     0.0030    -1.5130 H     1 <1>   0.0800 
 24 H        7.7580     1.0370    -0.7000 H     1 <1>   0.3700 
 25 H        9.2390    -0.0910    -2.6050 H     1 <1>   0.0800 
 26 H        9.0400    -1.4550    -1.5300 H     1 <1>   0.0800 
 27 H       10.5690     1.8450    -1.9360 H     1 <1>   0.1500 
 28 H        9.7780    -1.2830     0.8590 H     1 <1>   0.1500 
 29 H       12.2150     2.8020    -0.3920 H     1 <1>   0.1500 
 30 H       11.4280    -0.3200     2.3970 H     1 <1>   0.1500 
 31 H       12.6480     1.7240     1.7760 H     1 <1>   0.1500 
@<TRIPOS>BOND
  1   1   2  1   
  2   2   3  1   
  3   2   4  1   
  4   2  19  1   
  5   4   5  2   
  6   4   6  2   
  7   4   7  1   
  8   7   8  1   
  9   7  20  1   
 10   7  21  1   
 11   8   9  1   
 12   8  22  1   
 13   8  23  1   
 14   9  10  2   
 15   9  11  am  
 16  11  12  1   
 17  11  24  1   
 18  12  13  1   
 19  12  25  1   
 20  12  26  1   
 21  13  14  ar  
 22  13  15  ar  
 23  14  16  ar  
 24  14  27  1   
 25  15  17  ar  
 26  15  28  1   
 27  16  18  ar  
 28  16  29  1   
 29  17  18  ar  
 30  17  30  1   
 31  18  31  1   
@<TRIPOS>SUBSTRUCTURE
  1 ****   9 GROUP 4 **** **** 0

# MOE 2024.06 (io_trps.svl 2023.06)
