@<TRIPOS>MOLECULE
NONAME
46 48 1 0 0 
SMALL
USER_CHARGES


@<TRIPOS>ATOM
  1 F        0.0120    -0.3660     1.8760 F     1 <1>  -0.1900 
  2 C       -1.0740    -0.3620     1.1410 C.ar  1 <1>   0.1900 
  3 C       -1.2940    -1.4190     0.2580 C.ar  1 <1>   0.1170 
  4 C       -1.9460     0.7000     1.2830 C.ar  1 <1>  -0.1500 
  5 N       -0.3620    -2.4710     0.1710 N.am  1 <1>  -0.5470 
  6 C       -2.4620    -1.3690    -0.4990 C.ar  1 <1>  -0.1500 
  7 C       -3.0980     0.7230     0.5150 C.ar  1 <1>  -0.1500 
  8 C       -0.1830    -3.4940    -0.7160 C.2   1 <1>   0.5690 
  9 C       -3.3510    -0.3120    -0.3730 C.ar  1 <1>  -0.1500 
 10 O       -0.8820    -3.6900    -1.6810 O.2   1 <1>  -0.5700 
 11 C        0.9940    -4.4340    -0.4450 C.3   1 <1>   0.1710 
 12 N        2.0690    -3.8270     0.3970 N.3   1 <1>  -0.8100 
 13 C        2.9700    -4.8720     0.9330 C.3   1 <1>   0.1100 
 14 C        2.8690    -2.8480    -0.3840 C.3   1 <1>   0.1100 
 15 C        4.0990    -4.2890     1.8090 C.3   1 <1>   0.2090 
 16 C        3.9730    -2.1850     0.4630 C.3   1 <1>   0.2090 
 17 N        4.8520    -3.2040     1.1090 N.pl3 1 <1>  -0.8380 
 18 C        6.1200    -3.4270     0.5790 C.ar  1 <1>   0.1000 
 19 C        7.0930    -2.4460     0.7140 C.ar  1 <1>  -0.1500 
 20 C        6.4500    -4.6010    -0.0880 C.ar  1 <1>  -0.1500 
 21 C        8.3740    -2.6110     0.2000 C.ar  1 <1>  -0.1430 
 22 C        7.7180    -4.7870    -0.6020 C.ar  1 <1>  -0.1500 
 23 C        8.6770    -3.7980    -0.4600 C.ar  1 <1>  -0.1500 
 24 C        9.4360    -1.5130     0.3670 C.3   1 <1>   1.1630 
 25 F       10.2870    -1.4650    -0.6520 F     1 <1>  -0.3400 
 26 F       10.1720    -1.6930     1.4560 F     1 <1>  -0.3400 
 27 F        8.9130    -0.2960     0.4660 F     1 <1>  -0.3400 
 28 H       -1.7280     1.4900     1.9790 H     1 <1>   0.1500 
 29 H        0.3940    -2.4450     0.8660 H     1 <1>   0.3700 
 30 H       -2.6880    -2.1580    -1.1930 H     1 <1>   0.1500 
 31 H       -3.7940     1.5390     0.6060 H     1 <1>   0.1500 
 32 H       -4.2460    -0.2970    -0.9710 H     1 <1>   0.1500 
 33 H        1.4010    -4.7620    -1.3850 H     1 <1>   0.0800 
 34 H        0.5940    -5.2950     0.0590 H     1 <1>   0.0800 
 35 H        3.4100    -5.4220     0.1200 H     1 <1>   0.0800 
 36 H        2.3990    -5.5620     1.5300 H     1 <1>   0.0800 
 37 H        2.2270    -2.0750    -0.7690 H     1 <1>   0.0800 
 38 H        3.3330    -3.3400    -1.2220 H     1 <1>   0.0800 
 39 H        4.7780    -5.0730     2.0960 H     1 <1>   0.0800 
 40 H        3.6690    -3.8850     2.7080 H     1 <1>   0.0800 
 41 H        3.5180    -1.5780     1.2260 H     1 <1>   0.0800 
 42 H        4.5630    -1.5420    -0.1660 H     1 <1>   0.0800 
 43 H        6.8240    -1.5480     1.2410 H     1 <1>   0.1500 
 44 H        5.7110    -5.3680    -0.2080 H     1 <1>   0.1500 
 45 H        7.9630    -5.7010    -1.1150 H     1 <1>   0.1500 
 46 H        9.6610    -3.9630    -0.8660 H     1 <1>   0.1500 
@<TRIPOS>BOND
  1   1   2  1   
  2   2   3  ar  
  3   2   4  ar  
  4   3   5  1   
  5   3   6  ar  
  6   4   7  ar  
  7   4  28  1   
  8   5   8  am  
  9   5  29  1   
 10   6   9  ar  
 11   6  30  1   
 12   7   9  ar  
 13   7  31  1   
 14   8  10  2   
 15   8  11  1   
 16   9  32  1   
 17  11  12  1   
 18  11  33  1   
 19  11  34  1   
 20  12  13  1   
 21  12  14  1   
 22  13  15  1   
 23  13  35  1   
 24  13  36  1   
 25  14  16  1   
 26  14  37  1   
 27  14  38  1   
 28  15  17  1   
 29  15  39  1   
 30  15  40  1   
 31  16  17  1   
 32  16  41  1   
 33  16  42  1   
 34  17  18  1   
 35  18  19  ar  
 36  18  20  ar  
 37  19  21  ar  
 38  19  43  1   
 39  20  22  ar  
 40  20  44  1   
 41  21  23  ar  
 42  21  24  1   
 43  22  23  ar  
 44  22  45  1   
 45  23  46  1   
 46  24  25  1   
 47  24  26  1   
 48  24  27  1   
@<TRIPOS>SUBSTRUCTURE
  1 ****  16 GROUP 4 **** **** 0

# MOE 2024.06 (io_trps.svl 2023.06)
