@<TRIPOS>MOLECULE
NONAME
44 45 1 0 0 
SMALL
USER_CHARGES


@<TRIPOS>ATOM
  1 O       -5.1300     5.5970     1.8630 O.2   1 <1>  -0.5750 
  2 C       -5.7950     5.9350     0.9220 C.2   1 <1>   0.4420 
  3 C       -5.1830     6.4160    -0.4140 C.3   1 <1>   0.0520 
  4 C       -7.3190     5.8550     1.0330 C.3   1 <1>   0.4090 
  5 C       -5.7380     5.6050    -1.6010 C.3   1 <1>  -0.2480 
  6 C       -3.6520     6.2450    -0.4100 C.3   1 <1>  -0.2480 
  7 C       -5.4890     7.9080    -0.6410 C.3   1 <1>  -0.2480 
  8 N       -7.8610     4.4740     0.8130 N.pl3 1 <1>  -0.7680 
  9 C       -7.4660     3.3340     1.3850 C.cat 1 <1>   1.0690 
 10 C       -8.9210     4.1660    -0.0300 C.ar  1 <1>   0.3020 
 11 N       -6.4710     3.2250     2.2330 N.pl3 1 <1>  -0.8400 
 12 N       -8.2070     2.3080     0.9760 N.pl3 1 <1>  -0.7680 
 13 C       -9.1360     2.8030     0.0710 C.ar  1 <1>   0.3020 
 14 C       -9.7100     4.9460    -0.8710 C.ar  1 <1>  -0.1180 
 15 C       -8.1010     0.8800     1.3560 C.3   1 <1>   0.3470 
 16 C      -10.1410     2.1840    -0.6660 C.ar  1 <1>  -0.1180 
 17 C      -10.7080     4.3320    -1.6030 C.ar  1 <1>  -0.1580 
 18 C       -7.3130     0.0960     0.2980 C.3   1 <1>  -0.1680 
 19 C      -10.9230     2.9580    -1.5010 C.ar  1 <1>  -0.1580 
 20 C       -5.8610     0.5650     0.1200 C.3   1 <1>  -0.2480 
 21 H       -7.7660     6.5380     0.3370 H     1 <1>   0.0710 
 22 H       -7.6000     6.1760     2.0210 H     1 <1>   0.0710 
 23 H       -5.2520     5.9010    -2.5150 H     1 <1>   0.0710 
 24 H       -6.7930     5.7600    -1.7290 H     1 <1>   0.0710 
 25 H       -5.5580     4.5540    -1.4550 H     1 <1>   0.0710 
 26 H       -3.3870     5.2120    -0.2680 H     1 <1>   0.0710 
 27 H       -3.2100     6.8170     0.3880 H     1 <1>   0.0710 
 28 H       -3.2230     6.5790    -1.3390 H     1 <1>   0.0710 
 29 H       -6.5430     8.0890    -0.7410 H     1 <1>   0.0710 
 30 H       -5.0100     8.2550    -1.5400 H     1 <1>   0.0710 
 31 H       -5.1170     8.4940     0.1810 H     1 <1>   0.0710 
 32 H       -6.1540     2.3360     2.6010 H     1 <1>   0.4440 
 33 H       -5.8430     4.0210     2.4160 H     1 <1>   0.4440 
 34 H       -9.5510     6.0050    -0.9550 H     1 <1>   0.1420 
 35 H       -9.0900     0.4640     1.4500 H     1 <1>   0.0710 
 36 H       -7.6170     0.7850     2.3130 H     1 <1>   0.0710 
 37 H      -10.3040     1.1250    -0.5860 H     1 <1>   0.1420 
 38 H      -11.3330     4.9150    -2.2620 H     1 <1>   0.1420 
 39 H       -7.8270     0.1510    -0.6460 H     1 <1>   0.0710 
 40 H       -7.3010    -0.9400     0.5910 H     1 <1>   0.0710 
 41 H      -11.7080     2.5020    -2.0830 H     1 <1>   0.1420 
 42 H       -5.8220     1.5690    -0.2640 H     1 <1>   0.0710 
 43 H       -5.3610    -0.0760    -0.5870 H     1 <1>   0.0710 
 44 H       -5.3240     0.5180     1.0510 H     1 <1>   0.0710 
@<TRIPOS>BOND
  1   1   2  2   
  2   2   3  1   
  3   2   4  1   
  4   3   5  1   
  5   3   6  1   
  6   3   7  1   
  7   4   8  1   
  8   4  21  1   
  9   4  22  1   
 10   5  23  1   
 11   5  24  1   
 12   5  25  1   
 13   6  26  1   
 14   6  27  1   
 15   6  28  1   
 16   7  29  1   
 17   7  30  1   
 18   7  31  1   
 19   8   9  ar  
 20   8  10  1   
 21   9  11  ar  
 22   9  12  ar  
 23  10  13  ar  
 24  10  14  ar  
 25  11  32  1   
 26  11  33  1   
 27  12  13  1   
 28  12  15  1   
 29  13  16  ar  
 30  14  17  ar  
 31  14  34  1   
 32  15  18  1   
 33  15  35  1   
 34  15  36  1   
 35  16  19  ar  
 36  16  37  1   
 37  17  19  ar  
 38  17  38  1   
 39  18  20  1   
 40  18  39  1   
 41  18  40  1   
 42  19  41  1   
 43  20  42  1   
 44  20  43  1   
 45  20  44  1   
@<TRIPOS>SUBSTRUCTURE
  1 ****   8 GROUP 4 **** **** 0

# MOE 2024.06 (io_trps.svl 2023.06)
