@<TRIPOS>MOLECULE
NONAME
36 36 1 0 0 
SMALL
USER_CHARGES


@<TRIPOS>ATOM
  1 O        0.6300    -1.0800    -1.8490 O.2   1 <1>  -0.5700 
  2 C        1.1190    -1.5350    -0.8320 C.2   1 <1>   0.5440 
  3 N        2.1560    -0.8550    -0.2170 N.am  1 <1>  -0.6600 
  4 C        0.6010    -2.7810    -0.3060 C.ar  1 <1>   0.0860 
  5 C        2.5180     0.5260    -0.6440 C.3   1 <1>   0.1400 
  6 C        2.9400    -1.4100     0.9200 C.3   1 <1>   0.1400 
  7 C        0.7560    -3.9720    -1.0130 C.ar  1 <1>  -0.1500 
  8 C       -0.0680    -2.8340     0.9180 C.ar  1 <1>  -0.1500 
  9 C        3.7570     0.4960    -1.5350 C.3   1 <1>  -0.2400 
 10 C        3.8990    -2.4940     0.4290 C.3   1 <1>  -0.2400 
 11 C        0.2890    -5.1740    -0.5150 C.ar  1 <1>   0.0830 
 12 C       -0.5570    -4.0270     1.4190 C.ar  1 <1>  -0.1500 
 13 O        0.5320    -6.2890    -1.2450 O.3   1 <1>  -0.3630 
 14 C       -0.3970    -5.2030     0.7050 C.ar  1 <1>   0.0830 
 15 C        1.4390    -7.2130    -0.6850 C.3   1 <1>   0.0400 
 16 O       -0.9280    -6.3290     1.2350 O.3   1 <1>  -0.3630 
 17 C       -1.9320    -6.9830     0.4880 C.3   1 <1>   0.0400 
 18 H        2.6960     1.1400     0.2220 H     1 <1>   0.0800 
 19 H        1.7000     0.9670    -1.1890 H     1 <1>   0.0800 
 20 H        2.2760    -1.8190     1.6600 H     1 <1>   0.0800 
 21 H        3.5040    -0.6220     1.3900 H     1 <1>   0.0800 
 22 H        1.2560    -3.9530    -1.9640 H     1 <1>   0.1500 
 23 H       -0.2080    -1.9230     1.4730 H     1 <1>   0.1500 
 24 H        4.6150     0.1640    -0.9820 H     1 <1>   0.0800 
 25 H        3.9550     1.4840    -1.9080 H     1 <1>   0.0800 
 26 H        3.5880    -0.1570    -2.3720 H     1 <1>   0.0800 
 27 H        3.3570    -3.3270     0.0220 H     1 <1>   0.0800 
 28 H        4.4920    -2.8490     1.2520 H     1 <1>   0.0800 
 29 H        4.5600    -2.1030    -0.3220 H     1 <1>   0.0800 
 30 H       -1.0740    -4.0540     2.3620 H     1 <1>   0.1500 
 31 H        1.5860    -8.0100    -1.3910 H     1 <1>   0.0800 
 32 H        1.0320    -7.6040     0.2300 H     1 <1>   0.0800 
 33 H        2.3720    -6.7120    -0.4950 H     1 <1>   0.0800 
 34 H       -2.3730    -7.7400     1.1100 H     1 <1>   0.0800 
 35 H       -1.4940    -7.4350    -0.3820 H     1 <1>   0.0800 
 36 H       -2.6770    -6.2620     0.2000 H     1 <1>   0.0800 
@<TRIPOS>BOND
  1   1   2  2   
  2   2   3  am  
  3   2   4  1   
  4   3   5  1   
  5   3   6  1   
  6   4   7  ar  
  7   4   8  ar  
  8   5   9  1   
  9   5  18  1   
 10   5  19  1   
 11   6  10  1   
 12   6  20  1   
 13   6  21  1   
 14   7  11  ar  
 15   7  22  1   
 16   8  12  ar  
 17   8  23  1   
 18   9  24  1   
 19   9  25  1   
 20   9  26  1   
 21  10  27  1   
 22  10  28  1   
 23  10  29  1   
 24  11  13  1   
 25  11  14  ar  
 26  12  14  ar  
 27  12  30  1   
 28  13  15  1   
 29  14  16  1   
 30  15  31  1   
 31  15  32  1   
 32  15  33  1   
 33  16  17  1   
 34  17  34  1   
 35  17  35  1   
 36  17  36  1   
@<TRIPOS>SUBSTRUCTURE
  1 ****   4 GROUP 4 **** **** 0

# MOE 2024.06 (io_trps.svl 2023.06)
