@<TRIPOS>MOLECULE
NONAME
24 24 1 0 0 
SMALL
USER_CHARGES


@<TRIPOS>ATOM
  1 BR      -0.1430    -0.4410     1.8730 Br    1 <1>  -0.1110 
  2 C       -1.2880     0.6500     0.7650 C.ar  1 <1>   0.1110 
  3 C       -0.8330     1.8710     0.2830 C.ar  1 <1>   0.0820 
  4 C       -2.5560     0.1780     0.4800 C.ar  1 <1>  -0.1500 
  5 O        0.4050     2.3330     0.5630 O.3   1 <1>  -0.3630 
  6 C       -1.6850     2.6410    -0.4930 C.ar  1 <1>  -0.1500 
  7 C       -3.3940     0.9540    -0.3060 C.ar  1 <1>  -0.1500 
  8 C        1.4400     1.8680    -0.2680 C.3   1 <1>   0.1200 
  9 C       -2.9600     2.1810    -0.7880 C.ar  1 <1>  -0.1500 
 10 C        2.7600     2.4250     0.2640 C.3   1 <1>  -0.1600 
 11 C        3.9380     1.9410    -0.5830 C.3   1 <1>   0.0700 
 12 S        5.4850     2.6620     0.1170 S.3   1 <1>  -0.2660 
 13 C        6.7590     2.0020    -0.9760 C.1   1 <1>   0.5930 
 14 N        7.5370     1.5690    -1.6840 N.1   1 <1>  -0.5570 
 15 H       -2.8790    -0.7720     0.8650 H     1 <1>   0.1500 
 16 H       -1.3510     3.5950    -0.8590 H     1 <1>   0.1500 
 17 H       -4.3860     0.6050    -0.5400 H     1 <1>   0.1500 
 18 H        1.2480     2.2120    -1.2690 H     1 <1>   0.0800 
 19 H        1.4400     0.7920    -0.2460 H     1 <1>   0.0800 
 20 H       -3.6180     2.7810    -1.3920 H     1 <1>   0.1500 
 21 H        2.8950     2.0980     1.2800 H     1 <1>   0.0800 
 22 H        2.7240     3.5000     0.2440 H     1 <1>   0.0800 
 23 H        3.8610     2.2760    -1.6030 H     1 <1>   0.0800 
 24 H        4.0400     0.8700    -0.5490 H     1 <1>   0.0800 
@<TRIPOS>BOND
  1   1   2  1   
  2   2   3  ar  
  3   2   4  ar  
  4   3   5  1   
  5   3   6  ar  
  6   4   7  ar  
  7   4  15  1   
  8   5   8  1   
  9   6   9  ar  
 10   6  16  1   
 11   7   9  ar  
 12   7  17  1   
 13   8  10  1   
 14   8  18  1   
 15   8  19  1   
 16   9  20  1   
 17  10  11  1   
 18  10  21  1   
 19  10  22  1   
 20  11  12  1   
 21  11  23  1   
 22  11  24  1   
 23  12  13  1   
 24  13  14  3   
@<TRIPOS>SUBSTRUCTURE
  1 ****   8 GROUP 4 **** **** 0

# MOE 2024.06 (io_trps.svl 2023.06)
