@<TRIPOS>MOLECULE
NONAME
33 33 1 0 0 
SMALL
USER_CHARGES


@<TRIPOS>ATOM
  1 O        0.4090    -0.9940     0.7960 O.2   1 <1>  -0.5700 
  2 C       -0.1480    -1.4570    -0.1790 C.2   1 <1>   0.7800 
  3 O        0.5420    -2.0230    -1.1650 O.3   1 <1>  -0.4300 
  4 N       -1.4840    -1.4390    -0.3350 N.am  1 <1>  -0.7300 
  5 C        1.9470    -2.1440    -1.1230 C.3   1 <1>   0.1200 
  6 C       -2.4370    -1.0660     0.7080 C.3   1 <1>   0.3640 
  7 C        2.3120    -3.4140    -0.3560 C.3   1 <1>  -0.2400 
  8 C       -3.6700    -1.9510     0.5680 C.ar  1 <1>  -0.1440 
  9 C       -2.7750     0.4160     0.5640 C.3   1 <1>  -0.2400 
 10 C       -4.4610    -1.9180    -0.5750 C.ar  1 <1>  -0.1500 
 11 C       -4.0130    -2.8170     1.5960 C.ar  1 <1>  -0.1500 
 12 C       -5.5760    -2.7320    -0.6870 C.ar  1 <1>  -0.1500 
 13 C       -5.1260    -3.6310     1.4860 C.ar  1 <1>  -0.1500 
 14 C       -5.9150    -3.5960     0.3490 C.ar  1 <1>   0.0820 
 15 O       -6.9880    -4.4260     0.3220 O.3   1 <1>  -0.3630 
 16 C       -7.8560    -4.4660    -0.7890 C.3   1 <1>   0.0400 
 17 H       -1.8730    -1.9740    -1.1060 H     1 <1>   0.3700 
 18 H        2.3690    -1.2660    -0.6600 H     1 <1>   0.0800 
 19 H        2.2980    -2.2060    -2.1380 H     1 <1>   0.0800 
 20 H       -1.9840    -1.2260     1.6730 H     1 <1>   0.0800 
 21 H        1.9760    -3.3450     0.6630 H     1 <1>   0.0800 
 22 H        3.3800    -3.5400    -0.3520 H     1 <1>   0.0800 
 23 H        1.8670    -4.2730    -0.8260 H     1 <1>   0.0800 
 24 H       -3.1620     0.6320    -0.4140 H     1 <1>   0.0800 
 25 H       -1.8920     1.0070     0.7340 H     1 <1>   0.0800 
 26 H       -3.5120     0.6890     1.2960 H     1 <1>   0.0800 
 27 H       -4.2130    -1.2560    -1.3850 H     1 <1>   0.1500 
 28 H       -3.4150    -2.8650     2.4900 H     1 <1>   0.1500 
 29 H       -6.1640    -2.6790    -1.5830 H     1 <1>   0.1500 
 30 H       -5.3910    -4.3020     2.2840 H     1 <1>   0.1500 
 31 H       -8.6240    -5.1910    -0.5850 H     1 <1>   0.0800 
 32 H       -7.2960    -4.7610    -1.6580 H     1 <1>   0.0800 
 33 H       -8.2970    -3.4940    -0.9220 H     1 <1>   0.0800 
@<TRIPOS>BOND
  1   1   2  2   
  2   2   3  1   
  3   2   4  am  
  4   3   5  1   
  5   4   6  1   
  6   4  17  1   
  7   5   7  1   
  8   5  18  1   
  9   5  19  1   
 10   6   8  1   
 11   6   9  1   
 12   6  20  1   
 13   7  21  1   
 14   7  22  1   
 15   7  23  1   
 16   8  10  ar  
 17   8  11  ar  
 18   9  24  1   
 19   9  25  1   
 20   9  26  1   
 21  10  12  ar  
 22  10  27  1   
 23  11  13  ar  
 24  11  28  1   
 25  12  14  ar  
 26  12  29  1   
 27  13  14  ar  
 28  13  30  1   
 29  14  15  1   
 30  15  16  1   
 31  16  31  1   
 32  16  32  1   
 33  16  33  1   
@<TRIPOS>SUBSTRUCTURE
  1 ****   8 GROUP 4 **** **** 0

# MOE 2024.06 (io_trps.svl 2023.06)
