@<TRIPOS>MOLECULE
NONAME
35 36 1 0 0 
SMALL
USER_CHARGES


@<TRIPOS>ATOM
  1 O        0.1590    -0.6710    -0.5380 O.3   1 <1>  -0.3630 
  2 C       -1.0790    -1.0310    -0.1320 C.ar  1 <1>   0.0830 
  3 C        1.1420    -0.6350     0.4670 C.3   1 <1>   0.1200 
  4 C       -1.9760    -0.0550     0.2940 C.ar  1 <1>  -0.1440 
  5 C       -1.4450    -2.3760    -0.1540 C.ar  1 <1>  -0.1440 
  6 C        2.4730    -0.2660    -0.1860 C.3   1 <1>  -0.1600 
  7 C       -3.2320    -0.4400     0.7350 C.ar  1 <1>  -0.1500 
  8 C       -1.6120     1.4230     0.2800 C.3   1 <1>  -0.0960 
  9 C       -2.7060    -2.7380     0.2910 C.ar  1 <1>  -0.1500 
 10 C       -0.4940    -3.4500    -0.6620 C.3   1 <1>  -0.0970 
 11 C        3.5950    -0.2150     0.8560 C.3   1 <1>   0.0960 
 12 C       -3.5940    -1.7750     0.7370 C.ar  1 <1>  -0.1500 
 13 N        4.8770     0.1330     0.2160 N.pl3 1 <1>   0.0480 
 14 C        5.8300    -0.7090    -0.2450 C.2   1 <1>   0.0360 
 15 C        5.3600     1.3630    -0.0350 C.2   1 <1>  -0.3020 
 16 N        6.8580    -0.1130    -0.7560 N.2   1 <1>  -0.5650 
 17 C        6.5640     1.1940    -0.6250 C.2   1 <1>   0.0770 
 18 H        1.1910    -1.6070     0.9270 H     1 <1>   0.0800 
 19 H        0.8500     0.0970     1.1990 H     1 <1>   0.0800 
 20 H        2.3760     0.6970    -0.6560 H     1 <1>   0.0800 
 21 H        2.7110    -1.0020    -0.9340 H     1 <1>   0.0800 
 22 H       -3.9370     0.2970     1.0760 H     1 <1>   0.1500 
 23 H       -1.0210     1.6640     1.1440 H     1 <1>   0.0800 
 24 H       -2.4970     2.0330     0.2840 H     1 <1>   0.0800 
 25 H       -1.0480     1.6570    -0.6060 H     1 <1>   0.0800 
 26 H       -3.0060    -3.7710     0.2900 H     1 <1>   0.1500 
 27 H        0.2210    -3.6980     0.1000 H     1 <1>   0.0800 
 28 H        0.0300    -3.1000    -1.5330 H     1 <1>   0.0800 
 29 H       -1.0340    -4.3400    -0.9320 H     1 <1>   0.0800 
 30 H        3.7000    -1.1700     1.3380 H     1 <1>   0.0800 
 31 H        3.3750     0.5250     1.6050 H     1 <1>   0.0800 
 32 H       -4.5710    -2.0660     1.0820 H     1 <1>   0.1500 
 33 H        5.7250    -1.7770    -0.1830 H     1 <1>   0.1500 
 34 H        4.8390     2.2700     0.2110 H     1 <1>   0.1500 
 35 H        7.2450     1.9550    -0.9690 H     1 <1>   0.1500 
@<TRIPOS>BOND
  1   1   2  1   
  2   1   3  1   
  3   2   4  ar  
  4   2   5  ar  
  5   3   6  1   
  6   3  18  1   
  7   3  19  1   
  8   4   7  ar  
  9   4   8  1   
 10   5   9  ar  
 11   5  10  1   
 12   6  11  1   
 13   6  20  1   
 14   6  21  1   
 15   7  12  ar  
 16   7  22  1   
 17   8  23  1   
 18   8  24  1   
 19   8  25  1   
 20   9  12  ar  
 21   9  26  1   
 22  10  27  1   
 23  10  28  1   
 24  10  29  1   
 25  11  13  1   
 26  11  30  1   
 27  11  31  1   
 28  12  32  1   
 29  13  14  1   
 30  13  15  1   
 31  14  16  2   
 32  14  33  1   
 33  15  17  2   
 34  15  34  1   
 35  16  17  1   
 36  17  35  1   
@<TRIPOS>SUBSTRUCTURE
  1 ****   3 GROUP 4 **** **** 0

# MOE 2024.06 (io_trps.svl 2023.06)
