@<TRIPOS>MOLECULE
NONAME
48 49 1 0 0 
SMALL
USER_CHARGES


@<TRIPOS>ATOM
  1 O       -1.2500    -0.0830     0.5110 O.3   1 <1>  -0.5600 
  2 C       -2.2840     0.7880     0.1560 C.3   1 <1>   0.1200 
  3 C       -1.6020    -1.0720     1.4340 C.3   1 <1>   0.1200 
  4 C       -3.4540     0.0020    -0.4660 C.3   1 <1>   0.3430 
  5 C       -2.7390    -1.9460     0.8700 C.3   1 <1>   0.3430 
  6 N       -3.9160    -1.1150     0.4350 N.4   1 <1>  -0.9590 
  7 C       -4.9530    -1.9710    -0.2040 C.3   1 <1>   0.3430 
  8 C       -6.2760    -1.2120    -0.3290 C.3   1 <1>  -0.1600 
  9 C       -7.3700    -2.1390    -0.8750 C.3   1 <1>  -0.1600 
 10 C       -8.7270    -1.4300    -0.9520 C.3   1 <1>   0.1200 
 11 O       -9.6980    -2.3150    -1.4700 O.3   1 <1>  -0.3630 
 12 C      -10.1550    -3.3060    -0.6630 C.ar  1 <1>   0.0830 
 13 C       -9.7870    -4.6210    -0.9430 C.ar  1 <1>  -0.1430 
 14 C      -10.9880    -3.0240     0.4210 C.ar  1 <1>  -0.1430 
 15 C      -10.1940    -5.6350    -0.0930 C.ar  1 <1>  -0.1500 
 16 C       -8.9560    -4.9820    -2.1670 C.3   1 <1>  -0.0970 
 17 C      -11.3780    -4.0570     1.2580 C.ar  1 <1>  -0.1500 
 18 C      -11.5210    -1.6280     0.7150 C.3   1 <1>  -0.0970 
 19 C      -10.9780    -5.3600     1.0140 C.ar  1 <1>  -0.1430 
 20 C      -11.4140    -6.4810     1.9400 C.3   1 <1>  -0.0970 
 21 H       -1.8880     1.4910    -0.5570 H     1 <1>   0.0800 
 22 H       -2.5970     1.3300     1.0320 H     1 <1>   0.0800 
 23 H       -1.8920    -0.5990     2.3570 H     1 <1>   0.0800 
 24 H       -0.7280    -1.6730     1.6170 H     1 <1>   0.0800 
 25 H       -3.1240    -0.4030    -1.4090 H     1 <1>   0.0800 
 26 H       -4.2680     0.6800    -0.6640 H     1 <1>   0.0800 
 27 H       -3.0450    -2.6570     1.6200 H     1 <1>   0.0800 
 28 H       -2.3520    -2.4990     0.0290 H     1 <1>   0.0800 
 29 H       -4.3210    -0.6910     1.2790 H     1 <1>   0.4500 
 30 H       -5.1170    -2.8490     0.4010 H     1 <1>   0.0800 
 31 H       -4.6210    -2.2940    -1.1780 H     1 <1>   0.0800 
 32 H       -6.1680    -0.3760    -0.9970 H     1 <1>   0.0800 
 33 H       -6.5790    -0.8530     0.6400 H     1 <1>   0.0800 
 34 H       -7.4650    -2.9940    -0.2270 H     1 <1>   0.0800 
 35 H       -7.1030    -2.4790    -1.8610 H     1 <1>   0.0800 
 36 H       -8.6790    -0.5870    -1.6190 H     1 <1>   0.0800 
 37 H       -9.0390    -1.0930     0.0180 H     1 <1>   0.0800 
 38 H       -9.9040    -6.6510    -0.2950 H     1 <1>   0.1500 
 39 H       -9.1610    -4.3040    -2.9760 H     1 <1>   0.0800 
 40 H       -9.1950    -5.9750    -2.5010 H     1 <1>   0.0800 
 41 H       -7.9110    -4.9390    -1.9280 H     1 <1>   0.0800 
 42 H      -12.0070    -3.8480     2.1040 H     1 <1>   0.1500 
 43 H      -10.8910    -1.1330     1.4300 H     1 <1>   0.0800 
 44 H      -12.5160    -1.6880     1.1170 H     1 <1>   0.0800 
 45 H      -11.5670    -1.0410    -0.1850 H     1 <1>   0.0800 
 46 H      -10.6640    -7.2510     1.9760 H     1 <1>   0.0800 
 47 H      -12.3340    -6.9080     1.5830 H     1 <1>   0.0800 
 48 H      -11.5670    -6.1090     2.9370 H     1 <1>   0.0800 
@<TRIPOS>BOND
  1   1   2  1   
  2   1   3  1   
  3   2   4  1   
  4   2  21  1   
  5   2  22  1   
  6   3   5  1   
  7   3  23  1   
  8   3  24  1   
  9   4   6  1   
 10   4  25  1   
 11   4  26  1   
 12   5   6  1   
 13   5  27  1   
 14   5  28  1   
 15   6   7  1   
 16   6  29  1   
 17   7   8  1   
 18   7  30  1   
 19   7  31  1   
 20   8   9  1   
 21   8  32  1   
 22   8  33  1   
 23   9  10  1   
 24   9  34  1   
 25   9  35  1   
 26  10  11  1   
 27  10  36  1   
 28  10  37  1   
 29  11  12  1   
 30  12  13  ar  
 31  12  14  ar  
 32  13  15  ar  
 33  13  16  1   
 34  14  17  ar  
 35  14  18  1   
 36  15  19  ar  
 37  15  38  1   
 38  16  39  1   
 39  16  40  1   
 40  16  41  1   
 41  17  19  ar  
 42  17  42  1   
 43  18  43  1   
 44  18  44  1   
 45  18  45  1   
 46  19  20  1   
 47  20  46  1   
 48  20  47  1   
 49  20  48  1   
@<TRIPOS>SUBSTRUCTURE
  1 ****   9 GROUP 4 **** **** 0

# MOE 2024.06 (io_trps.svl 2023.06)
