@<TRIPOS>MOLECULE
NONAME
49 53 1 0 0 
SMALL
USER_CHARGES


@<TRIPOS>ATOM
  1 O       -0.6430     0.7480     0.8680 O.2   1 <1>  -0.5700 
  2 C       -0.5390     1.9130     0.5530 C.2   1 <1>   0.5690 
  3 N       -1.5670     2.5780    -0.0860 N.am  1 <1>  -0.6600 
  4 C        0.8080     2.6010     0.8660 C.3   1 <1>   0.2700 
  5 C       -1.4580     4.0230    -0.4990 C.3   1 <1>   0.2200 
  6 C       -2.7870     1.8390    -0.5270 C.3   1 <1>   0.2840 
  7 N        0.8380     4.0600     0.5380 N.pl3 1 <1>  -0.8380 
  8 C        0.0220     4.4510    -0.6370 C.3   1 <1>   0.2890 
  9 C       -2.2120     4.9440     0.4710 C.3   1 <1>  -0.1600 
 10 C       -3.9950     2.1860     0.3310 C.ar  1 <1>  -0.1440 
 11 C        1.9530     4.8780     0.5280 C.ar  1 <1>   0.1000 
 12 C        0.3170     5.9570    -0.7870 C.3   1 <1>   0.0630 
 13 C       -2.0620     6.4150     0.0550 C.3   1 <1>  -0.1600 
 14 C       -5.1410     2.7190    -0.2430 C.ar  1 <1>  -0.1500 
 15 C       -3.9600     1.9690     1.7000 C.ar  1 <1>  -0.1500 
 16 C        1.7320     6.0020    -0.2420 C.ar  1 <1>  -0.1440 
 17 C        3.1750     4.6940     1.1540 C.ar  1 <1>  -0.1500 
 18 C       -0.5900     6.8410     0.0920 C.3   1 <1>  -0.1600 
 19 C       -6.2350     3.0350     0.5450 C.ar  1 <1>  -0.1500 
 20 C       -5.0530     2.2850     2.4880 C.ar  1 <1>  -0.1500 
 21 C        2.7170     6.9560    -0.4140 C.ar  1 <1>  -0.1500 
 22 C        4.1680     5.6460     0.9870 C.ar  1 <1>  -0.1500 
 23 C       -6.1910     2.8190     1.9110 C.ar  1 <1>  -0.1500 
 24 C        3.9460     6.7760     0.2070 C.ar  1 <1>  -0.1440 
 25 C        5.0450     7.8090     0.0340 C.3   1 <1>  -0.0970 
 26 H        1.5820     2.1010     0.3140 H     1 <1>   0.0800 
 27 H        1.0100     2.4800     1.9140 H     1 <1>   0.0800 
 28 H       -1.9080     4.1330    -1.4690 H     1 <1>   0.0800 
 29 H       -2.6220     0.7770    -0.4690 H     1 <1>   0.0800 
 30 H       -2.9870     2.0720    -1.5570 H     1 <1>   0.0800 
 31 H        0.4310     3.9500    -1.4980 H     1 <1>   0.0800 
 32 H       -1.8210     4.8090     1.4660 H     1 <1>   0.0800 
 33 H       -3.2570     4.7000     0.4830 H     1 <1>   0.0800 
 34 H        0.2650     6.2520    -1.8190 H     1 <1>   0.0800 
 35 H       -2.6250     7.0330     0.7340 H     1 <1>   0.0800 
 36 H       -2.4630     6.5620    -0.9330 H     1 <1>   0.0800 
 37 H       -5.1900     2.8910    -1.3030 H     1 <1>   0.1500 
 38 H       -3.0750     1.5540     2.1520 H     1 <1>   0.1500 
 39 H        3.3400     3.8240     1.7580 H     1 <1>   0.1500 
 40 H       -0.4910     7.8690    -0.2100 H     1 <1>   0.0800 
 41 H       -0.2520     6.7740     1.1140 H     1 <1>   0.0800 
 42 H       -7.1210     3.4480     0.0960 H     1 <1>   0.1500 
 43 H       -5.0140     2.1150     3.5500 H     1 <1>   0.1500 
 44 H        2.5280     7.8250    -1.0180 H     1 <1>   0.1500 
 45 H        5.1190     5.5060     1.4690 H     1 <1>   0.1500 
 46 H       -7.0400     3.0650     2.5240 H     1 <1>   0.1500 
 47 H        4.6240     8.7800    -0.1530 H     1 <1>   0.0800 
 48 H        5.6720     7.5360    -0.7960 H     1 <1>   0.0800 
 49 H        5.6480     7.8670     0.9220 H     1 <1>   0.0800 
@<TRIPOS>BOND
  1   1   2  2   
  2   2   3  am  
  3   2   4  1   
  4   3   5  1   
  5   3   6  1   
  6   4   7  1   
  7   4  26  1   
  8   4  27  1   
  9   5   8  1   
 10   5   9  1   
 11   5  28  1   
 12   6  10  1   
 13   6  29  1   
 14   6  30  1   
 15   7   8  1   
 16   7  11  1   
 17   8  12  1   
 18   8  31  1   
 19   9  13  1   
 20   9  32  1   
 21   9  33  1   
 22  10  14  ar  
 23  10  15  ar  
 24  11  16  ar  
 25  11  17  ar  
 26  12  16  1   
 27  12  18  1   
 28  12  34  1   
 29  13  18  1   
 30  13  35  1   
 31  13  36  1   
 32  14  19  ar  
 33  14  37  1   
 34  15  20  ar  
 35  15  38  1   
 36  16  21  ar  
 37  17  22  ar  
 38  17  39  1   
 39  18  40  1   
 40  18  41  1   
 41  19  23  ar  
 42  19  42  1   
 43  20  23  ar  
 44  20  43  1   
 45  21  24  ar  
 46  21  44  1   
 47  22  24  ar  
 48  22  45  1   
 49  23  46  1   
 50  24  25  1   
 51  25  47  1   
 52  25  48  1   
 53  25  49  1   
@<TRIPOS>SUBSTRUCTURE
  1 ****   5 GROUP 4 **** **** 0

# MOE 2024.06 (io_trps.svl 2023.06)
