@<TRIPOS>MOLECULE
NONAME
47 49 1 0 0 
SMALL
USER_CHARGES


@<TRIPOS>ATOM
  1 CL      -0.3220    -1.3670    -2.1370 Cl    1 <1>  -0.1400 
  2 C       -0.1420    -2.0530    -0.5420 C.2   1 <1>   0.0020 
  3 C        0.9690    -1.9120     0.2040 C.2   1 <1>  -0.1780 
  4 C       -1.3890    -2.8180    -0.1350 C.3   1 <1>   0.4810 
  5 C        2.1880    -1.1950    -0.0930 C.ar  1 <1>   0.0280 
  6 N       -2.5650    -1.9030    -0.1520 N.4   1 <1>  -0.9590 
  7 C        3.4120    -1.7300     0.3010 C.ar  1 <1>  -0.1500 
  8 C        2.2000     0.0370    -0.7440 C.ar  1 <1>  -0.1500 
  9 C       -3.8470    -2.6370     0.0320 C.3   1 <1>   0.4860 
 10 C       -2.4530    -0.7850     0.8320 C.3   1 <1>   0.3430 
 11 C        4.6000    -1.0700     0.0480 C.ar  1 <1>  -0.1500 
 12 C        3.3860     0.7010    -1.0020 C.ar  1 <1>  -0.1500 
 13 C       -5.0180    -1.6710    -0.0270 C.ar  1 <1>  -0.1440 
 14 C       -3.5030     0.2860     0.5270 C.3   1 <1>  -0.0170 
 15 C        4.5900     0.1470    -0.6070 C.ar  1 <1>  -0.1500 
 16 C       -4.8690    -0.3120     0.2140 C.ar  1 <1>  -0.1440 
 17 C       -6.2750    -2.1710    -0.3220 C.ar  1 <1>  -0.1500 
 18 C       -5.9750     0.5210     0.1570 C.ar  1 <1>  -0.1500 
 19 C       -7.3890    -1.3520    -0.3820 C.ar  1 <1>   0.0820 
 20 C       -7.2430     0.0250    -0.1390 C.ar  1 <1>   0.0820 
 21 O       -8.5390    -2.0220    -0.6840 O.3   1 <1>  -0.3620 
 22 O       -8.3260     0.8550    -0.1950 O.3   1 <1>  -0.3620 
 23 C       -9.8090    -1.4110    -0.7470 C.3   1 <1>   0.0400 
 24 C       -8.2410     2.2460     0.0310 C.3   1 <1>   0.0400 
 25 H        1.0160    -2.3910     1.1670 H     1 <1>   0.1500 
 26 H       -1.2550    -3.2360     0.8490 H     1 <1>   0.0800 
 27 H       -1.5410    -3.6250    -0.8330 H     1 <1>   0.0800 
 28 H       -2.6060    -1.4750    -1.0880 H     1 <1>   0.4500 
 29 H        3.4410    -2.6770     0.8090 H     1 <1>   0.1500 
 30 H        1.2800     0.4940    -1.0520 H     1 <1>   0.1500 
 31 H       -3.9620    -3.3790    -0.7410 H     1 <1>   0.0800 
 32 H       -3.8540    -3.1360     0.9880 H     1 <1>   0.0800 
 33 H       -2.6100    -1.1630     1.8300 H     1 <1>   0.0800 
 34 H       -1.4720    -0.3380     0.7880 H     1 <1>   0.0800 
 35 H        5.5360    -1.5040     0.3580 H     1 <1>   0.1500 
 36 H        3.3760     1.6500    -1.5100 H     1 <1>   0.1500 
 37 H       -3.5800     0.9480     1.3710 H     1 <1>   0.0800 
 38 H       -3.1760     0.8710    -0.3140 H     1 <1>   0.0800 
 39 H        5.5140     0.6620    -0.8070 H     1 <1>   0.1500 
 40 H       -6.4210    -3.2200    -0.5120 H     1 <1>   0.1500 
 41 H       -5.8300     1.5680     0.3450 H     1 <1>   0.1500 
 42 H      -10.5360    -2.1710    -0.9710 H     1 <1>   0.0800 
 43 H       -9.8020    -0.6710    -1.5270 H     1 <1>   0.0800 
 44 H      -10.0290    -0.9640     0.2060 H     1 <1>   0.0800 
 45 H       -9.2270     2.6610    -0.0750 H     1 <1>   0.0800 
 46 H       -7.5830     2.6810    -0.7010 H     1 <1>   0.0800 
 47 H       -7.8810     2.4170     1.0300 H     1 <1>   0.0800 
@<TRIPOS>BOND
  1   1   2  1   
  2   2   3  2   
  3   2   4  1   
  4   3   5  1   
  5   3  25  1   
  6   4   6  1   
  7   4  26  1   
  8   4  27  1   
  9   5   7  ar  
 10   5   8  ar  
 11   6   9  1   
 12   6  10  1   
 13   6  28  1   
 14   7  11  ar  
 15   7  29  1   
 16   8  12  ar  
 17   8  30  1   
 18   9  13  1   
 19   9  31  1   
 20   9  32  1   
 21  10  14  1   
 22  10  33  1   
 23  10  34  1   
 24  11  15  ar  
 25  11  35  1   
 26  12  15  ar  
 27  12  36  1   
 28  13  16  ar  
 29  13  17  ar  
 30  14  16  1   
 31  14  37  1   
 32  14  38  1   
 33  15  39  1   
 34  16  18  ar  
 35  17  19  ar  
 36  17  40  1   
 37  18  20  ar  
 38  18  41  1   
 39  19  20  ar  
 40  19  21  1   
 41  20  22  1   
 42  21  23  1   
 43  22  24  1   
 44  23  42  1   
 45  23  43  1   
 46  23  44  1   
 47  24  45  1   
 48  24  46  1   
 49  24  47  1   
@<TRIPOS>SUBSTRUCTURE
  1 ****   6 GROUP 4 **** **** 0

# MOE 2024.06 (io_trps.svl 2023.06)
