@<TRIPOS>MOLECULE
NONAME
33 34 1 0 0 
SMALL
USER_CHARGES


@<TRIPOS>ATOM
  1 O        0.3420    -1.5430    -1.1680 O.2   1 <1>  -0.5700 
  2 C       -0.4240    -1.6500    -0.2430 C.2   1 <1>   0.6590 
  3 O       -0.2160    -1.0310     0.9160 O.3   1 <1>  -0.4300 
  4 C       -1.6550    -2.5370    -0.3290 C.3   1 <1>   0.1810 
  5 C        0.8850    -0.1690     1.1120 C.3   1 <1>   0.0400 
  6 O       -2.8430    -1.7720    -0.2290 O.3   1 <1>  -0.3630 
  7 C       -4.0670    -2.3690    -0.2460 C.ar  1 <1>   0.0830 
  8 C       -5.1910    -1.5720    -0.0580 C.ar  1 <1>   0.0830 
  9 C       -4.2630    -3.7370    -0.4400 C.ar  1 <1>  -0.1500 
 10 O       -5.1930    -0.2370     0.1430 O.3   1 <1>  -0.3630 
 11 C       -6.4540    -2.1030    -0.0600 C.ar  1 <1>  -0.1430 
 12 C       -5.5460    -4.2710    -0.4410 C.ar  1 <1>  -0.1500 
 13 C       -6.5190     0.2400     0.2950 C.3   1 <1>   0.2800 
 14 C       -6.6530    -3.4570    -0.2510 C.ar  1 <1>  -0.1500 
 15 C       -7.4410    -0.9980     0.1660 C.3   1 <1>  -0.0170 
 16 C       -6.7600     1.2630    -0.8170 C.3   1 <1>  -0.2400 
 17 C       -6.6090     0.8930     1.6750 C.3   1 <1>  -0.2400 
 18 H       -1.6400    -3.2460     0.4780 H     1 <1>   0.0800 
 19 H       -1.6610    -3.0460    -1.2750 H     1 <1>   0.0800 
 20 H        0.8390     0.2180     2.1140 H     1 <1>   0.0800 
 21 H        0.8240     0.6360     0.4000 H     1 <1>   0.0800 
 22 H        1.7940    -0.7260     0.9670 H     1 <1>   0.0800 
 23 H       -3.4370    -4.4030    -0.5940 H     1 <1>   0.1500 
 24 H       -5.6850    -5.3280    -0.5920 H     1 <1>   0.1500 
 25 H       -7.6460    -3.8700    -0.2520 H     1 <1>   0.1500 
 26 H       -8.0070    -1.1680     1.0640 H     1 <1>   0.0800 
 27 H       -8.1140    -0.9090    -0.6670 H     1 <1>   0.0800 
 28 H       -6.6370     0.7990    -1.7790 H     1 <1>   0.0800 
 29 H       -6.0600     2.0750    -0.7290 H     1 <1>   0.0800 
 30 H       -7.7560     1.6600    -0.7490 H     1 <1>   0.0800 
 31 H       -6.3820     0.1720     2.4400 H     1 <1>   0.0800 
 32 H       -7.5990     1.2740     1.8430 H     1 <1>   0.0800 
 33 H       -5.9110     1.7070     1.7450 H     1 <1>   0.0800 
@<TRIPOS>BOND
  1   1   2  2   
  2   2   3  1   
  3   2   4  1   
  4   3   5  1   
  5   4   6  1   
  6   4  18  1   
  7   4  19  1   
  8   5  20  1   
  9   5  21  1   
 10   5  22  1   
 11   6   7  1   
 12   7   8  ar  
 13   7   9  ar  
 14   8  10  1   
 15   8  11  ar  
 16   9  12  ar  
 17   9  23  1   
 18  10  13  1   
 19  11  14  ar  
 20  11  15  1   
 21  12  14  ar  
 22  12  24  1   
 23  13  15  1   
 24  13  16  1   
 25  13  17  1   
 26  14  25  1   
 27  15  26  1   
 28  15  27  1   
 29  16  28  1   
 30  16  29  1   
 31  16  30  1   
 32  17  31  1   
 33  17  32  1   
 34  17  33  1   
@<TRIPOS>SUBSTRUCTURE
  1 ****   7 GROUP 4 **** **** 0

# MOE 2024.06 (io_trps.svl 2023.06)
