@<TRIPOS>MOLECULE
NONAME
42 43 1 0 0 
SMALL
USER_CHARGES


@<TRIPOS>ATOM
  1 O       -1.0960    -1.1100     1.6710 O.2   1 <1>  -0.5700 
  2 C       -0.6130    -1.6950     0.7370 C.2   1 <1>   0.5690 
  3 N        0.7000    -1.5630     0.4760 N.am  1 <1>  -0.8000 
  4 C       -1.4740    -2.5900    -0.1540 C.3   1 <1>  -0.0190 
  5 C       -2.7940    -1.9020    -0.5550 C.3   1 <1>  -0.1600 
  6 C       -1.7670    -3.9360     0.5330 C.3   1 <1>  -0.1600 
  7 C       -3.6690    -2.8200    -1.4110 C.3   1 <1>   0.1400 
  8 C       -2.6610    -4.8320    -0.3310 C.3   1 <1>   0.1400 
  9 N       -3.9070    -4.0980    -0.6830 N.am  1 <1>  -0.6600 
 10 C       -5.1390    -4.5850    -0.3170 C.2   1 <1>   0.5690 
 11 O       -5.2600    -5.6720     0.2000 O.2   1 <1>  -0.5700 
 12 C       -6.3950    -3.7510    -0.5590 C.3   1 <1>  -0.0990 
 13 C       -7.6880    -4.3500     0.0290 C.3   1 <1>  -0.1600 
 14 C       -8.9250    -3.4870    -0.2670 C.3   1 <1>  -0.0800 
 15 C       -8.8920    -2.1000     0.3760 C.3   1 <1>  -0.1600 
 16 C      -10.2090    -4.1010     0.2840 C.3   1 <1>  -0.1600 
 17 C      -10.3560    -1.6650     0.4780 C.3   1 <1>  -0.1600 
 18 C      -11.1990    -2.9390     0.3490 C.3   1 <1>  -0.1600 
 19 H        1.2630    -0.9670     1.0840 H     1 <1>   0.3700 
 20 H        1.1900    -2.0320    -0.2840 H     1 <1>   0.3700 
 21 H       -0.9210    -2.7890    -1.0540 H     1 <1>   0.0800 
 22 H       -2.5790    -1.0000    -1.1010 H     1 <1>   0.0800 
 23 H       -3.3430    -1.6250     0.3290 H     1 <1>   0.0800 
 24 H       -2.2600    -3.7630     1.4750 H     1 <1>   0.0800 
 25 H       -0.8450    -4.4490     0.7390 H     1 <1>   0.0800 
 26 H       -3.1690    -3.0380    -2.3390 H     1 <1>   0.0800 
 27 H       -4.5900    -2.3200    -1.6460 H     1 <1>   0.0800 
 28 H       -2.8870    -5.7360     0.2100 H     1 <1>   0.0800 
 29 H       -2.1480    -5.1080    -1.2360 H     1 <1>   0.0800 
 30 H       -6.5180    -3.6350    -1.6200 H     1 <1>   0.0800 
 31 H       -6.2330    -2.7840    -0.1230 H     1 <1>   0.0800 
 32 H       -7.5700    -4.4670     1.0930 H     1 <1>   0.0800 
 33 H       -7.8390    -5.3300    -0.3890 H     1 <1>   0.0800 
 34 H       -9.0380    -3.3710    -1.3330 H     1 <1>   0.0800 
 35 H       -8.3100    -1.4020    -0.2000 H     1 <1>   0.0800 
 36 H       -8.4770    -2.1710     1.3670 H     1 <1>   0.0800 
 37 H      -10.0360    -4.4720     1.2800 H     1 <1>   0.0800 
 38 H      -10.5690    -4.9050    -0.3330 H     1 <1>   0.0800 
 39 H      -10.5990    -0.9880    -0.3220 H     1 <1>   0.0800 
 40 H      -10.5390    -1.1730     1.4180 H     1 <1>   0.0800 
 41 H      -11.8780    -3.0530     1.1760 H     1 <1>   0.0800 
 42 H      -11.7680    -2.9000    -0.5650 H     1 <1>   0.0800 
@<TRIPOS>BOND
  1   1   2  2   
  2   2   3  am  
  3   2   4  1   
  4   3  19  1   
  5   3  20  1   
  6   4   5  1   
  7   4   6  1   
  8   4  21  1   
  9   5   7  1   
 10   5  22  1   
 11   5  23  1   
 12   6   8  1   
 13   6  24  1   
 14   6  25  1   
 15   7   9  1   
 16   7  26  1   
 17   7  27  1   
 18   8   9  1   
 19   8  28  1   
 20   8  29  1   
 21   9  10  am  
 22  10  11  2   
 23  10  12  1   
 24  12  13  1   
 25  12  30  1   
 26  12  31  1   
 27  13  14  1   
 28  13  32  1   
 29  13  33  1   
 30  14  15  1   
 31  14  16  1   
 32  14  34  1   
 33  15  17  1   
 34  15  35  1   
 35  15  36  1   
 36  16  18  1   
 37  16  37  1   
 38  16  38  1   
 39  17  18  1   
 40  17  39  1   
 41  17  40  1   
 42  18  41  1   
 43  18  42  1   
@<TRIPOS>SUBSTRUCTURE
  1 ****  10 GROUP 4 **** **** 0

# MOE 2024.06 (io_trps.svl 2023.06)
