@<TRIPOS>MOLECULE
NONAME
40 40 1 0 0 
SMALL
USER_CHARGES


@<TRIPOS>ATOM
  1 O        0.2070    -0.2560     0.0220 O.3   1 <1>  -0.3630 
  2 C       -1.0490    -0.7710     0.0270 C.ar  1 <1>   0.0830 
  3 C        1.3390    -1.0860     0.0320 C.3   1 <1>   0.1200 
  4 C       -1.3300    -2.1350     0.0440 C.ar  1 <1>  -0.1500 
  5 C       -2.0930     0.1390     0.0130 C.ar  1 <1>  -0.1500 
  6 C        2.5630    -0.1710     0.0210 C.3   1 <1>  -0.1600 
  7 C       -2.6430    -2.5790     0.0480 C.ar  1 <1>  -0.1440 
  8 C       -3.4040    -0.3010     0.0160 C.ar  1 <1>  -0.1500 
  9 C        3.8530    -0.9820     0.0300 C.3   1 <1>   0.3430 
 10 C       -3.6770    -1.6570     0.0320 C.ar  1 <1>  -0.1500 
 11 C       -2.9530    -4.0660     0.0650 C.3   1 <1>  -0.0960 
 12 N        5.0030    -0.0470     0.0180 N.4   1 <1>  -0.9060 
 13 C        6.3110    -0.7440     0.0270 C.3   1 <1>   0.3430 
 14 C        7.4260     0.2980     0.0140 C.3   1 <1>  -0.1600 
 15 C        8.8030    -0.3780     0.0210 C.3   1 <1>  -0.1600 
 16 C        9.9240     0.6650     0.0090 C.3   1 <1>  -0.2400 
 17 H        1.3050    -1.7090    -0.8460 H     1 <1>   0.0800 
 18 H        1.3050    -1.6880     0.9250 H     1 <1>   0.0800 
 19 H       -0.5440    -2.8640     0.0530 H     1 <1>   0.1500 
 20 H       -1.8750     1.1910     0.0000 H     1 <1>   0.1500 
 21 H        2.5220     0.4590     0.8920 H     1 <1>   0.0800 
 22 H        2.5210     0.4380    -0.8650 H     1 <1>   0.0800 
 23 H       -4.2110     0.4110     0.0040 H     1 <1>   0.1500 
 24 H        3.8870    -1.6210    -0.8380 H     1 <1>   0.0800 
 25 H        3.8880    -1.6000     0.9140 H     1 <1>   0.0800 
 26 H       -4.7000    -1.9910     0.0330 H     1 <1>   0.1500 
 27 H       -2.1670    -4.6110     0.5560 H     1 <1>   0.0800 
 28 H       -3.0510    -4.4280    -0.9430 H     1 <1>   0.0800 
 29 H       -3.8720    -4.2510     0.5910 H     1 <1>   0.0800 
 30 H        4.9470     0.5760     0.8340 H     1 <1>   0.4500 
 31 H        4.9460     0.5560    -0.8120 H     1 <1>   0.4500 
 32 H        6.4000    -1.3790    -0.8420 H     1 <1>   0.0800 
 33 H        6.4010    -1.3570     0.9100 H     1 <1>   0.0800 
 34 H        7.3460     0.9290     0.8820 H     1 <1>   0.0800 
 35 H        7.3460     0.9080    -0.8700 H     1 <1>   0.0800 
 36 H        8.9100    -1.0130    -0.8430 H     1 <1>   0.0800 
 37 H        8.9100    -0.9920     0.9010 H     1 <1>   0.0800 
 38 H        9.8660     1.2780    -0.8740 H     1 <1>   0.0800 
 39 H       10.8820     0.1740     0.0140 H     1 <1>   0.0800 
 40 H        9.8660     1.2990     0.8760 H     1 <1>   0.0800 
@<TRIPOS>BOND
  1   1   2  1   
  2   1   3  1   
  3   2   4  ar  
  4   2   5  ar  
  5   3   6  1   
  6   3  17  1   
  7   3  18  1   
  8   4   7  ar  
  9   4  19  1   
 10   5   8  ar  
 11   5  20  1   
 12   6   9  1   
 13   6  21  1   
 14   6  22  1   
 15   7  10  ar  
 16   7  11  1   
 17   8  10  ar  
 18   8  23  1   
 19   9  12  1   
 20   9  24  1   
 21   9  25  1   
 22  10  26  1   
 23  11  27  1   
 24  11  28  1   
 25  11  29  1   
 26  12  13  1   
 27  12  30  1   
 28  12  31  1   
 29  13  14  1   
 30  13  32  1   
 31  13  33  1   
 32  14  15  1   
 33  14  34  1   
 34  14  35  1   
 35  15  16  1   
 36  15  36  1   
 37  15  37  1   
 38  16  38  1   
 39  16  39  1   
 40  16  40  1   
@<TRIPOS>SUBSTRUCTURE
  1 ****   3 GROUP 4 **** **** 0

# MOE 2024.06 (io_trps.svl 2023.06)
