@<TRIPOS>MOLECULE
NONAME
42 43 1 0 0 
SMALL
USER_CHARGES


@<TRIPOS>ATOM
  1 CL      -0.8180     0.1680     2.8310 Cl    1 <1>  -0.1770 
  2 C       -1.3880     1.4360     1.7730 C.ar  1 <1>   0.1770 
  3 C       -2.6000     1.2880     1.1260 C.ar  1 <1>  -0.1500 
  4 C       -0.6070     2.5630     1.6010 C.ar  1 <1>  -0.1500 
  5 C       -3.0760     2.2860     0.2790 C.ar  1 <1>   0.1170 
  6 C       -1.0570     3.5620     0.7570 C.ar  1 <1>  -0.1500 
  7 N       -4.3060     2.1660    -0.4090 N.am  1 <1>  -0.5470 
  8 C       -2.2750     3.4270     0.1090 C.ar  1 <1>   0.0820 
  9 C       -5.3920     1.3520    -0.2190 C.2   1 <1>   0.5690 
 10 O       -2.6420     4.4310    -0.7210 O.3   1 <1>  -0.3630 
 11 O       -5.4340     0.5370     0.6760 O.2   1 <1>  -0.5700 
 12 C       -6.5640     1.4540    -1.2140 C.3   1 <1>  -0.0190 
 13 C       -3.6420     5.3120    -0.2500 C.3   1 <1>   0.0400 
 14 C       -7.3830     2.7620    -1.0880 C.3   1 <1>  -0.1860 
 15 C       -7.5320     0.2540    -1.1480 C.3   1 <1>  -0.0220 
 16 C       -6.5480     4.0010    -1.3590 C.2   1 <1>   0.9060 
 17 C       -8.0900     2.8180     0.2760 C.3   1 <1>  -0.0220 
 18 C       -8.5910     0.3710    -0.0500 C.2   1 <1>  -0.2760 
 19 O       -6.7920     5.0620    -0.7770 O.co2 1 <1>  -0.9000 
 20 O       -5.5970     3.9020    -2.1420 O.co2 1 <1>  -0.9000 
 21 C       -8.8270     1.5200     0.6030 C.2   1 <1>  -0.2760 
 22 C       -9.2920    -0.9640     0.1770 C.3   1 <1>  -0.1020 
 23 C       -9.8110     1.7330     1.7470 C.3   1 <1>  -0.1020 
 24 H       -3.1580     0.3880     1.2890 H     1 <1>   0.1500 
 25 H        0.3330     2.6510     2.1140 H     1 <1>   0.1500 
 26 H       -0.4720     4.4480     0.5930 H     1 <1>   0.1500 
 27 H       -4.4700     2.9060    -1.1260 H     1 <1>   0.3700 
 28 H       -6.1200     1.4320    -2.1930 H     1 <1>   0.0800 
 29 H       -4.0800     5.8100    -1.0970 H     1 <1>   0.0800 
 30 H       -3.1920     6.0270     0.4130 H     1 <1>   0.0800 
 31 H       -4.4060     4.7590     0.2660 H     1 <1>   0.0800 
 32 H       -8.1400     2.7530    -1.8470 H     1 <1>   0.0800 
 33 H       -6.9600    -0.6470    -1.0140 H     1 <1>   0.0800 
 34 H       -8.0420     0.1730    -2.0910 H     1 <1>   0.0800 
 35 H       -8.7850     3.6410     0.2560 H     1 <1>   0.0800 
 36 H       -7.3700     3.0210     1.0500 H     1 <1>   0.0800 
 37 H       -9.6780    -1.3350    -0.7550 H     1 <1>   0.0800 
 38 H      -10.1120    -0.8920     0.8620 H     1 <1>   0.0800 
 39 H       -8.5880    -1.6770     0.5680 H     1 <1>   0.0800 
 40 H       -9.2950     2.1610     2.5880 H     1 <1>   0.0800 
 41 H      -10.2690     0.8240     2.0780 H     1 <1>   0.0800 
 42 H      -10.5870     2.4110     1.4390 H     1 <1>   0.0800 
@<TRIPOS>BOND
  1   1   2  1   
  2   2   3  ar  
  3   2   4  ar  
  4   3   5  ar  
  5   3  24  1   
  6   4   6  ar  
  7   4  25  1   
  8   5   7  1   
  9   5   8  ar  
 10   6   8  ar  
 11   6  26  1   
 12   7   9  am  
 13   7  27  1   
 14   8  10  1   
 15   9  11  2   
 16   9  12  1   
 17  10  13  1   
 18  12  14  1   
 19  12  15  1   
 20  12  28  1   
 21  13  29  1   
 22  13  30  1   
 23  13  31  1   
 24  14  16  1   
 25  14  17  1   
 26  14  32  1   
 27  15  18  1   
 28  15  33  1   
 29  15  34  1   
 30  16  19  ar  
 31  16  20  ar  
 32  17  21  1   
 33  17  35  1   
 34  17  36  1   
 35  18  21  2   
 36  18  22  1   
 37  21  23  1   
 38  22  37  1   
 39  22  38  1   
 40  22  39  1   
 41  23  40  1   
 42  23  41  1   
 43  23  42  1   
@<TRIPOS>SUBSTRUCTURE
  1 ****   9 GROUP 4 **** **** 0

# MOE 2024.06 (io_trps.svl 2023.06)
