@<TRIPOS>MOLECULE
NONAME
44 46 1 0 0 
SMALL
USER_CHARGES


@<TRIPOS>ATOM
  1 CL       2.2230     1.9820    -3.4690 Cl    1 <1>  -0.1770 
  2 C        2.6300     1.7670    -1.7860 C.ar  1 <1>   0.1770 
  3 C        3.8070     1.1270    -1.4550 C.ar  1 <1>  -0.1500 
  4 C        1.7670     2.2420    -0.8160 C.ar  1 <1>  -0.1500 
  5 C        4.1410     0.9510    -0.1170 C.ar  1 <1>   0.1000 
  6 C        2.0950     2.0690     0.5190 C.ar  1 <1>  -0.1500 
  7 N        5.3150     0.3110     0.2600 N.pl3 1 <1>  -0.8380 
  8 C        3.2740     1.4280     0.8600 C.ar  1 <1>  -0.1500 
  9 C        6.5900     1.0240    -0.0480 C.3   1 <1>   0.2090 
 10 C        5.3650    -1.1630     0.0410 C.3   1 <1>   0.2090 
 11 C        7.7700     0.3860     0.7140 C.3   1 <1>   0.3430 
 12 C        6.5500    -1.7880     0.8070 C.3   1 <1>   0.3430 
 13 N        7.8640    -1.1100     0.5020 N.4   1 <1>  -0.9590 
 14 C        8.9840    -1.7020     1.2820 C.3   1 <1>   0.4860 
 15 C       10.2860    -1.1140     0.7750 C.ar  1 <1>  -0.1430 
 16 C       10.9400    -0.1350     1.5100 C.ar  1 <1>  -0.1500 
 17 C       10.8330    -1.5430    -0.4270 C.ar  1 <1>  -0.1500 
 18 C       12.1170     0.4170     1.0380 C.ar  1 <1>  -0.1500 
 19 C       12.0110    -0.9910    -0.8980 C.ar  1 <1>  -0.1500 
 20 C       12.6590    -0.0010    -0.1650 C.ar  1 <1>   0.0830 
 21 O       13.8130     0.5940    -0.5520 O.3   1 <1>  -0.3620 
 22 C       14.5020     0.1870    -1.7140 C.3   1 <1>   0.0400 
 23 H        4.4520     0.7710    -2.2330 H     1 <1>   0.1500 
 24 H        0.8570     2.7380    -1.1030 H     1 <1>   0.1500 
 25 H        1.4350     2.4330     1.2880 H     1 <1>   0.1500 
 26 H        3.5320     1.2930     1.8940 H     1 <1>   0.1500 
 27 H        6.4960     2.0580     0.2400 H     1 <1>   0.0800 
 28 H        6.7790     0.9930    -1.1070 H     1 <1>   0.0800 
 29 H        5.4550    -1.3710    -1.0110 H     1 <1>   0.0800 
 30 H        4.4440    -1.6020     0.3870 H     1 <1>   0.0800 
 31 H        7.6380     0.5930     1.7630 H     1 <1>   0.0800 
 32 H        8.6850     0.8600     0.3990 H     1 <1>   0.0800 
 33 H        6.6100    -2.8360     0.5640 H     1 <1>   0.0800 
 34 H        6.3400    -1.7060     1.8610 H     1 <1>   0.0800 
 35 H        8.0850    -1.2520    -0.4900 H     1 <1>   0.4500 
 36 H        9.0050    -2.7720     1.1520 H     1 <1>   0.0800 
 37 H        8.8650    -1.4870     2.3310 H     1 <1>   0.0800 
 38 H       10.5510     0.2090     2.4540 H     1 <1>   0.1500 
 39 H       10.3570    -2.3130    -1.0100 H     1 <1>   0.1500 
 40 H       12.6310     1.1770     1.6010 H     1 <1>   0.1500 
 41 H       12.4150    -1.3390    -1.8300 H     1 <1>   0.1500 
 42 H       15.3960     0.7790    -1.7950 H     1 <1>   0.0800 
 43 H       13.8750     0.3560    -2.5710 H     1 <1>   0.0800 
 44 H       14.7610    -0.8530    -1.6210 H     1 <1>   0.0800 
@<TRIPOS>BOND
  1   1   2  1   
  2   2   3  ar  
  3   2   4  ar  
  4   3   5  ar  
  5   3  23  1   
  6   4   6  ar  
  7   4  24  1   
  8   5   7  1   
  9   5   8  ar  
 10   6   8  ar  
 11   6  25  1   
 12   7   9  1   
 13   7  10  1   
 14   8  26  1   
 15   9  11  1   
 16   9  27  1   
 17   9  28  1   
 18  10  12  1   
 19  10  29  1   
 20  10  30  1   
 21  11  13  1   
 22  11  31  1   
 23  11  32  1   
 24  12  13  1   
 25  12  33  1   
 26  12  34  1   
 27  13  14  1   
 28  13  35  1   
 29  14  15  1   
 30  14  36  1   
 31  14  37  1   
 32  15  16  ar  
 33  15  17  ar  
 34  16  18  ar  
 35  16  38  1   
 36  17  19  ar  
 37  17  39  1   
 38  18  20  ar  
 39  18  40  1   
 40  19  20  ar  
 41  19  41  1   
 42  20  21  1   
 43  21  22  1   
 44  22  42  1   
 45  22  43  1   
 46  22  44  1   
@<TRIPOS>SUBSTRUCTURE
  1 ****  11 GROUP 4 **** **** 0

# MOE 2024.06 (io_trps.svl 2023.06)
