@<TRIPOS>MOLECULE
NONAME
24 25 1 0 0 
SMALL
USER_CHARGES


@<TRIPOS>ATOM
  1 CL       0.1820     0.9730     2.6420 Cl    1 <1>  -0.1770 
  2 C        0.2040     1.9620     1.2010 C.ar  1 <1>   0.1770 
  3 C        1.3100     1.9630     0.3620 C.ar  1 <1>  -0.1440 
  4 C       -0.9120     2.7320     0.9300 C.ar  1 <1>  -0.1500 
  5 C        1.2710     2.7630    -0.7750 C.ar  1 <1>  -0.1500 
  6 C        2.5250     1.1050     0.6840 C.3   1 <1>   0.5940 
  7 C       -0.9360     3.5230    -0.2050 C.ar  1 <1>  -0.1500 
  8 C        0.1570     3.5360    -1.0550 C.ar  1 <1>  -0.1500 
  9 S        3.9800     2.1640     0.8590 S.3   1 <1>  -0.4600 
 10 N        2.8760     0.2310    -0.4340 N.am  1 <1>  -0.7300 
 11 C        5.0060     1.3910    -0.4160 C.3   1 <1>   0.2110 
 12 C        4.0770     0.3530    -1.0300 C.2   1 <1>   0.5690 
 13 C        6.2460     0.8140     0.2730 C.3   1 <1>  -0.2400 
 14 O        4.3830    -0.3020    -1.9940 O.2   1 <1>  -0.5700 
 15 H       -1.7520     2.7100     1.6010 H     1 <1>   0.1500 
 16 H        2.1120     2.7880    -1.4480 H     1 <1>   0.1500 
 17 H        2.4260     0.5430     1.5960 H     1 <1>   0.0800 
 18 H       -1.8000     4.1270    -0.4260 H     1 <1>   0.1500 
 19 H        0.1410     4.1520    -1.9390 H     1 <1>   0.1500 
 20 H        2.1630    -0.3870    -0.8180 H     1 <1>   0.3700 
 21 H        5.2600     2.1460    -1.1370 H     1 <1>   0.0800 
 22 H        5.9600     0.0970     1.0210 H     1 <1>   0.0800 
 23 H        6.8110     1.6030     0.7380 H     1 <1>   0.0800 
 24 H        6.8690     0.3240    -0.4530 H     1 <1>   0.0800 
@<TRIPOS>BOND
  1   1   2  1   
  2   2   3  ar  
  3   2   4  ar  
  4   3   5  ar  
  5   3   6  1   
  6   4   7  ar  
  7   4  15  1   
  8   5   8  ar  
  9   5  16  1   
 10   6   9  1   
 11   6  10  1   
 12   6  17  1   
 13   7   8  ar  
 14   7  18  1   
 15   8  19  1   
 16   9  11  1   
 17  10  12  am  
 18  10  20  1   
 19  11  12  1   
 20  11  13  1   
 21  11  21  1   
 22  12  14  2   
 23  13  22  1   
 24  13  23  1   
 25  13  24  1   
@<TRIPOS>SUBSTRUCTURE
  1 ****   6 GROUP 4 **** **** 0

# MOE 2024.06 (io_trps.svl 2023.06)
