@<TRIPOS>MOLECULE
NONAME
43 44 1 0 0 
SMALL
USER_CHARGES


@<TRIPOS>ATOM
  1 O        0.0350    -0.0590     0.9190 O.2   1 <1>  -0.5700 
  2 C        0.0650    -1.0700     0.2460 C.2   1 <1>   0.6900 
  3 N        1.2260    -1.6570    -0.1540 N.am  1 <1>  -0.5470 
  4 N       -1.1010    -1.6530    -0.1330 N.am  1 <1>  -0.7300 
  5 C        2.5610    -1.2390    -0.0340 C.ar  1 <1>   0.1170 
  6 C       -2.4160    -1.1390     0.2720 C.3   1 <1>   0.2200 
  7 C        3.5850    -2.1890    -0.0150 C.ar  1 <1>  -0.1430 
  8 C        2.9020     0.1070     0.0430 C.ar  1 <1>  -0.1500 
  9 C       -3.4230    -2.2830     0.3410 C.3   1 <1>  -0.1600 
 10 C       -2.8720    -0.0730    -0.7220 C.3   1 <1>  -0.1600 
 11 C        4.9060    -1.7800     0.0790 C.ar  1 <1>  -0.1500 
 12 C        3.2840    -3.6820    -0.0900 C.3   1 <1>  -0.0970 
 13 C        4.2210     0.5060     0.1390 C.ar  1 <1>  -0.1500 
 14 C       -4.8050    -1.7420     0.7030 C.3   1 <1>   0.3430 
 15 C       -4.2560     0.4420    -0.3420 C.3   1 <1>   0.3430 
 16 C        5.2330    -0.4370     0.1550 C.ar  1 <1>  -0.1430 
 17 N       -5.2220    -0.6980    -0.2820 N.4   1 <1>  -0.9590 
 18 C        6.6840    -0.0040     0.2620 C.3   1 <1>  -0.0970 
 19 C       -6.5990    -0.2030     0.0240 C.3   1 <1>   0.2630 
 20 H        1.1240    -2.6130    -0.4700 H     1 <1>   0.3700 
 21 H       -1.0770    -2.3520    -0.8720 H     1 <1>   0.3700 
 22 H       -2.3270    -0.6920     1.2510 H     1 <1>   0.0800 
 23 H        2.1320     0.8570     0.0260 H     1 <1>   0.1500 
 24 H       -3.1150    -2.9810     1.0990 H     1 <1>   0.0800 
 25 H       -3.4750    -2.8030    -0.5990 H     1 <1>   0.0800 
 26 H       -2.8910    -0.4670    -1.7230 H     1 <1>   0.0800 
 27 H       -2.1790     0.7500    -0.6970 H     1 <1>   0.0800 
 28 H        5.6950    -2.5110     0.0960 H     1 <1>   0.1500 
 29 H        2.6060    -3.9610     0.6970 H     1 <1>   0.0800 
 30 H        4.1830    -4.2610     0.0250 H     1 <1>   0.0800 
 31 H        2.8480    -3.9230    -1.0420 H     1 <1>   0.0800 
 32 H        4.4540     1.5540     0.2010 H     1 <1>   0.1500 
 33 H       -4.7740    -1.3150     1.6940 H     1 <1>   0.0800 
 34 H       -5.5180    -2.5520     0.7080 H     1 <1>   0.0800 
 35 H       -4.5810     1.1670    -1.0710 H     1 <1>   0.0800 
 36 H       -4.2040     0.9290     0.6190 H     1 <1>   0.0800 
 37 H       -5.2380    -1.1370    -1.2140 H     1 <1>   0.4500 
 38 H        7.3170    -0.6790    -0.2850 H     1 <1>   0.0800 
 39 H        6.9860    -0.0020     1.2940 H     1 <1>   0.0800 
 40 H        6.8130     0.9840    -0.1400 H     1 <1>   0.0800 
 41 H       -6.6230     0.2680     0.9940 H     1 <1>   0.0800 
 42 H       -7.3010    -1.0210     0.0200 H     1 <1>   0.0800 
 43 H       -6.9110     0.5180    -0.7160 H     1 <1>   0.0800 
@<TRIPOS>BOND
  1   1   2  2   
  2   2   3  am  
  3   2   4  am  
  4   3   5  1   
  5   3  20  1   
  6   4   6  1   
  7   4  21  1   
  8   5   7  ar  
  9   5   8  ar  
 10   6   9  1   
 11   6  10  1   
 12   6  22  1   
 13   7  11  ar  
 14   7  12  1   
 15   8  13  ar  
 16   8  23  1   
 17   9  14  1   
 18   9  24  1   
 19   9  25  1   
 20  10  15  1   
 21  10  26  1   
 22  10  27  1   
 23  11  16  ar  
 24  11  28  1   
 25  12  29  1   
 26  12  30  1   
 27  12  31  1   
 28  13  16  ar  
 29  13  32  1   
 30  14  17  1   
 31  14  33  1   
 32  14  34  1   
 33  15  17  1   
 34  15  35  1   
 35  15  36  1   
 36  16  18  1   
 37  17  19  1   
 38  17  37  1   
 39  18  38  1   
 40  18  39  1   
 41  18  40  1   
 42  19  41  1   
 43  19  42  1   
 44  19  43  1   
@<TRIPOS>SUBSTRUCTURE
  1 ****   2 GROUP 4 **** **** 0

# MOE 2024.06 (io_trps.svl 2023.06)
