@<TRIPOS>MOLECULE
NONAME
48 50 1 0 0 
SMALL
USER_CHARGES


@<TRIPOS>ATOM
  1 S        0.1400     0.0740     0.7610 S.o2  1 <1>   1.4470 
  2 O        0.4150     0.0890     2.1820 O.2   1 <1>  -0.6500 
  3 O       -1.0540     0.7220     0.2630 O.2   1 <1>  -0.6500 
  4 N        1.4600     0.8270     0.0060 N.am  1 <1>  -0.8490 
  5 C        0.2100    -1.6230     0.1190 C.ar  1 <1>  -0.0090 
  6 C        2.7460     0.3020     0.4940 C.3   1 <1>   0.1960 
  7 C        1.4000     2.2820     0.1810 C.3   1 <1>   0.1960 
  8 C        0.6280    -2.6820     0.9170 C.ar  1 <1>  -0.1500 
  9 C       -0.1290    -1.8980    -1.2010 C.ar  1 <1>  -0.1500 
 10 C        3.9060     0.8810    -0.3280 C.3   1 <1>  -0.0190 
 11 C        2.5140     2.9600    -0.6250 C.3   1 <1>  -0.1600 
 12 C        0.7050    -3.9710     0.4180 C.ar  1 <1>  -0.1500 
 13 C       -0.0560    -3.1840    -1.7090 C.ar  1 <1>  -0.1500 
 14 C        5.2370     0.3040     0.1350 C.2   1 <1>   0.5690 
 15 C        3.9000     2.4180    -0.2470 C.3   1 <1>  -0.1600 
 16 C        0.3630    -4.2230    -0.8980 C.ar  1 <1>  -0.1500 
 17 O        5.3740     0.0130     1.2980 O.2   1 <1>  -0.5700 
 18 N        6.2250     0.1650    -0.8020 N.am  1 <1>  -0.5470 
 19 C        7.5260    -0.3540    -0.6950 C.ar  1 <1>   0.1170 
 20 C        7.9020    -1.2670     0.2850 C.ar  1 <1>  -0.1500 
 21 C        8.4790     0.0450    -1.6250 C.ar  1 <1>  -0.1500 
 22 C        9.1920    -1.7680     0.3420 C.ar  1 <1>   0.0820 
 23 C        9.7710    -0.4470    -1.5770 C.ar  1 <1>  -0.1500 
 24 O        9.4610    -2.6550     1.3340 O.3   1 <1>  -0.3630 
 25 C       10.1330    -1.3530    -0.5960 C.ar  1 <1>  -0.1500 
 26 C       10.7540    -3.1870     1.5130 C.3   1 <1>   0.0400 
 27 H        2.7620    -0.7710     0.4040 H     1 <1>   0.0800 
 28 H        2.8740     0.5490     1.5370 H     1 <1>   0.0800 
 29 H        1.4930     2.5290     1.2270 H     1 <1>   0.0800 
 30 H        0.4490     2.6520    -0.1670 H     1 <1>   0.0800 
 31 H        0.8980    -2.4970     1.9440 H     1 <1>   0.1500 
 32 H       -0.4550    -1.0920    -1.8370 H     1 <1>   0.1500 
 33 H        3.7520     0.5820    -1.3490 H     1 <1>   0.0800 
 34 H        2.4810     4.0210    -0.4500 H     1 <1>   0.0800 
 35 H        2.3290     2.7960    -1.6720 H     1 <1>   0.0800 
 36 H        1.0320    -4.7770     1.0530 H     1 <1>   0.1500 
 37 H       -0.3260    -3.3750    -2.7330 H     1 <1>   0.1500 
 38 H        4.6470     2.8300    -0.9030 H     1 <1>   0.0800 
 39 H        4.1380     2.7190     0.7600 H     1 <1>   0.0800 
 40 H        0.4200    -5.2240    -1.2890 H     1 <1>   0.1500 
 41 H        5.9990     0.5330    -1.7230 H     1 <1>   0.3700 
 42 H        7.1920    -1.6030     1.0160 H     1 <1>   0.1500 
 43 H        8.2160     0.7500    -2.3920 H     1 <1>   0.1500 
 44 H       10.4980    -0.1260    -2.3030 H     1 <1>   0.1500 
 45 H       11.1400    -1.7220    -0.5790 H     1 <1>   0.1500 
 46 H       10.7300    -3.8430     2.3640 H     1 <1>   0.0800 
 47 H       11.4410    -2.3790     1.6940 H     1 <1>   0.0800 
 48 H       11.0300    -3.7400     0.6320 H     1 <1>   0.0800 
@<TRIPOS>BOND
  1   1   2  2   
  2   1   3  2   
  3   1   4  am  
  4   1   5  1   
  5   4   6  1   
  6   4   7  1   
  7   5   8  ar  
  8   5   9  ar  
  9   6  10  1   
 10   6  27  1   
 11   6  28  1   
 12   7  11  1   
 13   7  29  1   
 14   7  30  1   
 15   8  12  ar  
 16   8  31  1   
 17   9  13  ar  
 18   9  32  1   
 19  10  14  1   
 20  10  15  1   
 21  10  33  1   
 22  11  15  1   
 23  11  34  1   
 24  11  35  1   
 25  12  16  ar  
 26  12  36  1   
 27  13  16  ar  
 28  13  37  1   
 29  14  17  2   
 30  14  18  am  
 31  15  38  1   
 32  15  39  1   
 33  16  40  1   
 34  18  19  1   
 35  18  41  1   
 36  19  20  ar  
 37  19  21  ar  
 38  20  22  ar  
 39  20  42  1   
 40  21  23  ar  
 41  21  43  1   
 42  22  24  1   
 43  22  25  ar  
 44  23  25  ar  
 45  23  44  1   
 46  24  26  1   
 47  25  45  1   
 48  26  46  1   
 49  26  47  1   
 50  26  48  1   
@<TRIPOS>SUBSTRUCTURE
  1 ****  14 GROUP 4 **** **** 0

# MOE 2024.06 (io_trps.svl 2023.06)
