@<TRIPOS>MOLECULE
NONAME
29 29 1 0 0 
SMALL
USER_CHARGES


@<TRIPOS>ATOM
  1 CL       2.0600     0.2620    -0.3370 Cl    1 <1>  -0.1770 
  2 C        1.1610     1.7460    -0.1050 C.ar  1 <1>   0.1770 
  3 C        1.8250     2.9580     0.0800 C.ar  1 <1>   0.0830 
  4 C       -0.2190     1.6820    -0.1000 C.ar  1 <1>  -0.1500 
  5 O        3.1750     3.0440     0.0810 O.3   1 <1>  -0.3630 
  6 C        1.0900     4.1160     0.2930 C.ar  1 <1>  -0.1500 
  7 C       -0.9320     2.8490     0.1030 C.ar  1 <1>   0.1770 
  8 C        3.8510     2.8820    -1.1640 C.3   1 <1>   0.2610 
  9 C       -0.2950     4.0630     0.3020 C.ar  1 <1>  -0.1500 
 10 CL      -2.6760     2.7910     0.1120 Cl    1 <1>  -0.1770 
 11 C        5.1390     2.0630    -0.9810 C.2   1 <1>   0.5690 
 12 C        4.1200     4.2850    -1.7230 C.3   1 <1>  -0.2400 
 13 O        5.7580     1.7230    -1.9630 O.2   1 <1>  -0.5700 
 14 N        5.5560     1.7360     0.2740 N.am  1 <1>  -0.7300 
 15 C        6.7570     0.9530     0.6100 C.3   1 <1>   0.1400 
 16 C        7.5140     1.6770     1.7160 C.3   1 <1>  -0.2400 
 17 H       -0.7280     0.7470    -0.2460 H     1 <1>   0.1500 
 18 H        1.6030     5.0480     0.4510 H     1 <1>   0.1500 
 19 H        3.2120     2.3420    -1.8390 H     1 <1>   0.0800 
 20 H       -0.8790     4.9520     0.4620 H     1 <1>   0.1500 
 21 H        4.7480     4.8380    -1.0480 H     1 <1>   0.0800 
 22 H        3.1960     4.8120    -1.8760 H     1 <1>   0.0800 
 23 H        4.6270     4.2030    -2.6680 H     1 <1>   0.0800 
 24 H        4.9600     2.0170     1.0570 H     1 <1>   0.3700 
 25 H        7.3840     0.8470    -0.2610 H     1 <1>   0.0800 
 26 H        6.4610    -0.0290     0.9400 H     1 <1>   0.0800 
 27 H        7.8090     2.6560     1.3820 H     1 <1>   0.0800 
 28 H        8.4010     1.1230     1.9670 H     1 <1>   0.0800 
 29 H        6.9050     1.7640     2.5970 H     1 <1>   0.0800 
@<TRIPOS>BOND
  1   1   2  1   
  2   2   3  ar  
  3   2   4  ar  
  4   3   5  1   
  5   3   6  ar  
  6   4   7  ar  
  7   4  17  1   
  8   5   8  1   
  9   6   9  ar  
 10   6  18  1   
 11   7   9  ar  
 12   7  10  1   
 13   8  11  1   
 14   8  12  1   
 15   8  19  1   
 16   9  20  1   
 17  11  13  2   
 18  11  14  am  
 19  12  21  1   
 20  12  22  1   
 21  12  23  1   
 22  14  15  1   
 23  14  24  1   
 24  15  16  1   
 25  15  25  1   
 26  15  26  1   
 27  16  27  1   
 28  16  28  1   
 29  16  29  1   
@<TRIPOS>SUBSTRUCTURE
  1 ****   5 GROUP 4 **** **** 0

# MOE 2024.06 (io_trps.svl 2023.06)
