@<TRIPOS>MOLECULE
NONAME
28 28 1 0 0 
SMALL
USER_CHARGES


@<TRIPOS>ATOM
  1 O        0.2420    -0.3580     0.1840 O.2   1 <1>  -0.5700 
  2 C        0.2170    -1.5650     0.0910 C.2   1 <1>   0.4950 
  3 C        1.3660    -2.3460     0.0390 C.2   1 <1>  -0.1360 
  4 C       -1.1400    -2.2380    -0.0050 C.3   1 <1>  -0.0990 
  5 C        1.2930    -3.6800     0.0020 C.2   1 <1>  -0.0380 
  6 C       -1.5510    -3.7880     0.0150 C.3   1 <1>   0.0000 
  7 N        2.4120    -4.4670    -0.0540 N.pl3 1 <1>  -0.8690 
  8 C       -0.0590    -4.3800     0.0460 C.3   1 <1>  -0.0220 
  9 C       -3.0990    -3.3350    -0.0050 C.3   1 <1>  -0.2400 
 10 C       -2.1130    -5.3000     0.0170 C.3   1 <1>  -0.2400 
 11 C        2.5360    -5.9770    -0.0430 C.3   1 <1>   0.1030 
 12 C        3.9770    -6.5150    -0.0160 C.2   1 <1>   0.9060 
 13 O        4.9270    -5.7150    -0.0350 O.co2 1 <1>  -0.9000 
 14 O        4.1480    -7.7410     0.0240 O.co2 1 <1>  -0.9000 
 15 H        2.3080    -1.8330     0.0330 H     1 <1>   0.1500 
 16 H       -1.4920    -1.8270    -0.9360 H     1 <1>   0.0800 
 17 H       -1.6490    -1.7450     0.8100 H     1 <1>   0.0800 
 18 H        3.3740    -4.0730    -0.0660 H     1 <1>   0.4000 
 19 H        0.0410    -4.9370     0.9640 H     1 <1>   0.0800 
 20 H        0.0360    -5.0520    -0.7930 H     1 <1>   0.0800 
 21 H       -3.3680    -2.3200    -0.2600 H     1 <1>   0.0800 
 22 H       -3.5230    -3.4660     0.9780 H     1 <1>   0.0800 
 23 H       -3.7150    -3.8700    -0.7120 H     1 <1>   0.0800 
 24 H       -1.4580    -6.1250     0.2550 H     1 <1>   0.0800 
 25 H       -2.4720    -5.5510    -0.9690 H     1 <1>   0.0800 
 26 H       -2.9070    -5.4780     0.7260 H     1 <1>   0.0800 
 27 H        2.0660    -6.3760    -0.9210 H     1 <1>   0.0800 
 28 H        2.0340    -6.3670     0.8210 H     1 <1>   0.0800 
@<TRIPOS>BOND
  1   1   2  2   
  2   2   3  1   
  3   2   4  1   
  4   3   5  2   
  5   3  15  1   
  6   4   6  1   
  7   4  16  1   
  8   4  17  1   
  9   5   7  1   
 10   5   8  1   
 11   6   8  1   
 12   6   9  1   
 13   6  10  1   
 14   7  11  1   
 15   7  18  1   
 16   8  19  1   
 17   8  20  1   
 18   9  21  1   
 19   9  22  1   
 20   9  23  1   
 21  10  24  1   
 22  10  25  1   
 23  10  26  1   
 24  11  12  1   
 25  11  27  1   
 26  11  28  1   
 27  12  13  ar  
 28  12  14  ar  
@<TRIPOS>SUBSTRUCTURE
  1 ****   5 GROUP 4 **** **** 0

# MOE 2024.06 (io_trps.svl 2023.06)
