@<TRIPOS>MOLECULE
NONAME
50 52 1 0 0 
SMALL
USER_CHARGES


@<TRIPOS>ATOM
  1 F        1.4580     0.0630     2.1470 F     1 <1>  -0.1900 
  2 C        2.3860     0.6880     1.4760 C.ar  1 <1>   0.1900 
  3 C        2.2240     2.0320     1.2060 C.ar  1 <1>  -0.1500 
  4 C        3.4970    -0.0160     1.0580 C.ar  1 <1>  -0.1500 
  5 C        3.2110     2.6930     0.4950 C.ar  1 <1>  -0.1500 
  6 C        4.4810     0.6530     0.3480 C.ar  1 <1>  -0.1500 
  7 C        4.3490     2.0100     0.0640 C.ar  1 <1>  -0.1430 
  8 C        5.4630     2.7030    -0.7010 C.3   1 <1>   0.5670 
  9 N        6.1300     3.5950     0.2640 N.4   1 <1>  -0.9060 
 10 C        4.9510     3.5070    -1.8940 C.3   1 <1>  -0.2400 
 11 C        7.4170     4.2020    -0.1540 C.3   1 <1>   0.4230 
 12 C        8.5080     3.1320    -0.2670 C.3   1 <1>  -0.1600 
 13 C        7.8150     5.2630     0.8750 C.3   1 <1>  -0.1600 
 14 C        9.8700     3.7580    -0.5770 C.3   1 <1>   0.3430 
 15 C        9.1820     5.8740     0.5530 C.3   1 <1>   0.3430 
 16 N       10.2000     4.7950     0.4460 N.4   1 <1>  -0.9590 
 17 C       11.5650     5.3620     0.2060 C.3   1 <1>   0.4860 
 18 C       12.5680     4.2380     0.3590 C.ar  1 <1>  -0.1430 
 19 C       12.8690     3.7340     1.6180 C.ar  1 <1>  -0.1500 
 20 C       13.1810     3.6920    -0.7600 C.ar  1 <1>  -0.1500 
 21 C       13.7580     2.6820     1.7510 C.ar  1 <1>  -0.1500 
 22 C       14.0700     2.6410    -0.6230 C.ar  1 <1>  -0.1500 
 23 C       14.3550     2.1340     0.6310 C.ar  1 <1>  -0.1500 
 24 H        1.3370     2.5390     1.5450 H     1 <1>   0.1500 
 25 H        3.5810    -1.0640     1.2860 H     1 <1>   0.1500 
 26 H        3.0630     3.7390     0.2860 H     1 <1>   0.1500 
 27 H        5.3420     0.0930     0.0220 H     1 <1>   0.1500 
 28 H        6.1520     1.9510    -1.0520 H     1 <1>   0.0800 
 29 H        6.2360     3.0460     1.1260 H     1 <1>   0.4500 
 30 H        5.4420     4.3200     0.4930 H     1 <1>   0.4500 
 31 H        4.3310     4.3300    -1.5880 H     1 <1>   0.0800 
 32 H        4.3550     2.8620    -2.5180 H     1 <1>   0.0800 
 33 H        5.7630     3.8710    -2.4940 H     1 <1>   0.0800 
 34 H        7.2920     4.6830    -1.1130 H     1 <1>   0.0800 
 35 H        8.2770     2.4470    -1.0630 H     1 <1>   0.0800 
 36 H        8.5890     2.5700     0.6470 H     1 <1>   0.0800 
 37 H        7.8510     4.8400     1.8640 H     1 <1>   0.0800 
 38 H        7.0880     6.0570     0.8770 H     1 <1>   0.0800 
 39 H        9.8550     4.2070    -1.5590 H     1 <1>   0.0800 
 40 H       10.6250     2.9860    -0.5770 H     1 <1>   0.0800 
 41 H        9.4600     6.5680     1.3330 H     1 <1>   0.0800 
 42 H        9.1290     6.4200    -0.3760 H     1 <1>   0.0800 
 43 H       10.2940     4.3140     1.3530 H     1 <1>   0.4500 
 44 H       11.7860     6.1320     0.9290 H     1 <1>   0.0800 
 45 H       11.6340     5.7880    -0.7820 H     1 <1>   0.0800 
 46 H       12.4310     4.1490     2.5090 H     1 <1>   0.1500 
 47 H       12.9850     4.0740    -1.7480 H     1 <1>   0.1500 
 48 H       13.9940     2.2890     2.7260 H     1 <1>   0.1500 
 49 H       14.5470     2.2160    -1.4910 H     1 <1>   0.1500 
 50 H       15.0490     1.3160     0.7360 H     1 <1>   0.1500 
@<TRIPOS>BOND
  1   1   2  1   
  2   2   3  ar  
  3   2   4  ar  
  4   3   5  ar  
  5   3  24  1   
  6   4   6  ar  
  7   4  25  1   
  8   5   7  ar  
  9   5  26  1   
 10   6   7  ar  
 11   6  27  1   
 12   7   8  1   
 13   8   9  1   
 14   8  10  1   
 15   8  28  1   
 16   9  11  1   
 17   9  29  1   
 18   9  30  1   
 19  10  31  1   
 20  10  32  1   
 21  10  33  1   
 22  11  12  1   
 23  11  13  1   
 24  11  34  1   
 25  12  14  1   
 26  12  35  1   
 27  12  36  1   
 28  13  15  1   
 29  13  37  1   
 30  13  38  1   
 31  14  16  1   
 32  14  39  1   
 33  14  40  1   
 34  15  16  1   
 35  15  41  1   
 36  15  42  1   
 37  16  17  1   
 38  16  43  1   
 39  17  18  1   
 40  17  44  1   
 41  17  45  1   
 42  18  19  ar  
 43  18  20  ar  
 44  19  21  ar  
 45  19  46  1   
 46  20  22  ar  
 47  20  47  1   
 48  21  23  ar  
 49  21  48  1   
 50  22  23  ar  
 51  22  49  1   
 52  23  50  1   
@<TRIPOS>SUBSTRUCTURE
  1 ****  12 GROUP 4 **** **** 0

# MOE 2024.06 (io_trps.svl 2023.06)
