@<TRIPOS>MOLECULE
NONAME
29 29 1 0 0 
SMALL
USER_CHARGES


@<TRIPOS>ATOM
  1 O       -0.1990    -0.0880    -0.5750 O.2   1 <1>  -0.5700 
  2 C        0.0090    -1.1650    -0.0560 C.2   1 <1>   0.6900 
  3 N        1.2610    -1.6690     0.0930 N.am  1 <1>  -0.5470 
  4 N       -1.0220    -1.9160     0.4020 N.am  1 <1>  -0.7300 
  5 C        2.5160    -1.1970    -0.2120 C.ar  1 <1>   0.4270 
  6 C       -2.4500    -1.5450     0.3090 C.3   1 <1>   0.1400 
  7 N        3.4610    -2.0950     0.0250 N.ar  1 <1>  -0.6200 
  8 C        2.7840     0.0780    -0.7080 C.ar  1 <1>  -0.1500 
  9 C       -3.2490    -2.7560    -0.1740 C.3   1 <1>  -0.1600 
 10 C        4.7040    -1.7290    -0.2380 C.ar  1 <1>   0.1670 
 11 C        4.0800     0.4520    -0.9790 C.ar  1 <1>  -0.1500 
 12 C       -4.7410    -2.4270    -0.2870 C.3   1 <1>  -0.2400 
 13 C        5.0600    -0.4860    -0.7340 C.ar  1 <1>  -0.1500 
 14 C        5.7680    -2.7690     0.0370 C.3   1 <1>  -0.0970 
 15 H        1.3140    -2.6100     0.4590 H     1 <1>   0.3700 
 16 H       -0.8260    -2.7820     0.8970 H     1 <1>   0.3700 
 17 H       -2.5740    -0.7250    -0.3790 H     1 <1>   0.0800 
 18 H       -2.7970    -1.2310     1.2790 H     1 <1>   0.0800 
 19 H        1.9880     0.7750    -0.8800 H     1 <1>   0.1500 
 20 H       -3.1210    -3.5720     0.5160 H     1 <1>   0.0800 
 21 H       -2.8820    -3.0580    -1.1400 H     1 <1>   0.0800 
 22 H        4.3150     1.4290    -1.3630 H     1 <1>   0.1500 
 23 H       -5.1380    -2.1350     0.6700 H     1 <1>   0.0800 
 24 H       -5.2830    -3.2900    -0.6330 H     1 <1>   0.0800 
 25 H       -4.8970    -1.6250    -0.9870 H     1 <1>   0.0800 
 26 H        6.0900    -0.2470    -0.9280 H     1 <1>   0.1500 
 27 H        5.5750    -3.6450    -0.5540 H     1 <1>   0.0800 
 28 H        5.7440    -3.0410     1.0770 H     1 <1>   0.0800 
 29 H        6.7470    -2.3970    -0.2020 H     1 <1>   0.0800 
@<TRIPOS>BOND
  1   1   2  2   
  2   2   3  am  
  3   2   4  am  
  4   3   5  1   
  5   3  15  1   
  6   4   6  1   
  7   4  16  1   
  8   5   7  ar  
  9   5   8  ar  
 10   6   9  1   
 11   6  17  1   
 12   6  18  1   
 13   7  10  ar  
 14   8  11  ar  
 15   8  19  1   
 16   9  12  1   
 17   9  20  1   
 18   9  21  1   
 19  10  13  ar  
 20  10  14  1   
 21  11  13  ar  
 22  11  22  1   
 23  12  23  1   
 24  12  24  1   
 25  12  25  1   
 26  13  26  1   
 27  14  27  1   
 28  14  28  1   
 29  14  29  1   
@<TRIPOS>SUBSTRUCTURE
  1 ****   3 GROUP 4 **** **** 0

# MOE 2024.06 (io_trps.svl 2023.06)
