@<TRIPOS>MOLECULE
NONAME
48 49 1 0 0 
SMALL
USER_CHARGES


@<TRIPOS>ATOM
  1 O       -0.1780     3.8870    -0.9820 O.2   1 <1>  -0.5700 
  2 C       -0.2430     3.0570    -0.0990 C.2   1 <1>   0.5690 
  3 N        0.9260     2.4410     0.3210 N.am  1 <1>  -0.6600 
  4 C       -1.6620     2.7220     0.4730 C.3   1 <1>   0.2040 
  5 C        2.2040     2.7330    -0.3950 C.3   1 <1>   0.1400 
  6 C        1.0370     1.3490     1.3340 C.3   1 <1>   0.1400 
  7 C       -1.9750     1.2260     0.2250 C.ar  1 <1>  -0.1440 
  8 C       -1.7540     3.1470     1.9620 C.3   1 <1>  -0.1600 
  9 C       -2.7860     3.5170    -0.2460 C.3   1 <1>  -0.1600 
 10 C        2.3400     1.8170    -1.6150 C.3   1 <1>  -0.1600 
 11 C        1.7430     1.8540     2.5990 C.3   1 <1>  -0.1600 
 12 C       -2.5190     0.3790     1.1890 C.ar  1 <1>  -0.1500 
 13 C       -1.7010     0.6900    -1.0300 C.ar  1 <1>  -0.1500 
 14 C       -1.6620     4.6670     2.1030 C.3   1 <1>   0.1200 
 15 C       -2.7540     5.0240     0.0600 C.3   1 <1>   0.1200 
 16 C        3.6490     2.0810    -2.3670 C.3   1 <1>  -0.2400 
 17 C        1.6550     0.8240     3.7300 C.3   1 <1>  -0.2400 
 18 C       -2.7690    -0.9530     0.9090 C.ar  1 <1>  -0.1500 
 19 C       -1.9490    -0.6410    -1.3130 C.ar  1 <1>  -0.1500 
 20 O       -2.7490     5.2260     1.4390 O.3   1 <1>  -0.5600 
 21 C       -2.4830    -1.4670    -0.3420 C.ar  1 <1>  -0.1500 
 22 H        3.0420     2.5900     0.2630 H     1 <1>   0.0800 
 23 H        2.2170     3.7620    -0.7130 H     1 <1>   0.0800 
 24 H        1.5890     0.5250     0.9150 H     1 <1>   0.0800 
 25 H        0.0700     0.9720     1.6000 H     1 <1>   0.0800 
 26 H       -0.9880     2.6870     2.5490 H     1 <1>   0.0800 
 27 H       -2.7020     2.8600     2.3770 H     1 <1>   0.0800 
 28 H       -3.7440     3.1360     0.0610 H     1 <1>   0.0800 
 29 H       -2.7160     3.3760    -1.3090 H     1 <1>   0.0800 
 30 H        1.5120     1.9930    -2.2800 H     1 <1>   0.0800 
 31 H        2.3140     0.7880    -1.3040 H     1 <1>   0.0800 
 32 H        1.2920     2.7740     2.9260 H     1 <1>   0.0800 
 33 H        2.7800     2.0450     2.3880 H     1 <1>   0.0800 
 34 H       -2.7610     0.7280     2.1750 H     1 <1>   0.1500 
 35 H       -1.2880     1.3100    -1.8080 H     1 <1>   0.1500 
 36 H       -0.7510     5.0630     1.6850 H     1 <1>   0.0800 
 37 H       -1.7290     4.9560     3.1380 H     1 <1>   0.0800 
 38 H       -3.6310     5.5030    -0.3370 H     1 <1>   0.0800 
 39 H       -1.8860     5.5040    -0.3580 H     1 <1>   0.0800 
 40 H        3.6840     3.1010    -2.7100 H     1 <1>   0.0800 
 41 H        3.7180     1.4320    -3.2220 H     1 <1>   0.0800 
 42 H        4.4950     1.8980    -1.7290 H     1 <1>   0.0800 
 43 H        0.6280     0.6310     3.9870 H     1 <1>   0.0800 
 44 H        2.1610     1.1930     4.6050 H     1 <1>   0.0800 
 45 H        2.1180    -0.1020     3.4340 H     1 <1>   0.0800 
 46 H       -3.1890    -1.5920     1.6660 H     1 <1>   0.1500 
 47 H       -1.7270    -1.0330    -2.2900 H     1 <1>   0.1500 
 48 H       -2.6780    -2.5020    -0.5600 H     1 <1>   0.1500 
@<TRIPOS>BOND
  1   1   2  2   
  2   2   3  am  
  3   2   4  1   
  4   3   5  1   
  5   3   6  1   
  6   4   7  1   
  7   4   8  1   
  8   4   9  1   
  9   5  10  1   
 10   5  22  1   
 11   5  23  1   
 12   6  11  1   
 13   6  24  1   
 14   6  25  1   
 15   7  12  ar  
 16   7  13  ar  
 17   8  14  1   
 18   8  26  1   
 19   8  27  1   
 20   9  15  1   
 21   9  28  1   
 22   9  29  1   
 23  10  16  1   
 24  10  30  1   
 25  10  31  1   
 26  11  17  1   
 27  11  32  1   
 28  11  33  1   
 29  12  18  ar  
 30  12  34  1   
 31  13  19  ar  
 32  13  35  1   
 33  14  20  1   
 34  14  36  1   
 35  14  37  1   
 36  15  20  1   
 37  15  38  1   
 38  15  39  1   
 39  16  40  1   
 40  16  41  1   
 41  16  42  1   
 42  17  43  1   
 43  17  44  1   
 44  17  45  1   
 45  18  21  ar  
 46  18  46  1   
 47  19  21  ar  
 48  19  47  1   
 49  21  48  1   
@<TRIPOS>SUBSTRUCTURE
  1 ****   2 GROUP 4 **** **** 0

# MOE 2024.06 (io_trps.svl 2023.06)
