@<TRIPOS>MOLECULE
NONAME
34 34 1 0 0 
SMALL
USER_CHARGES


@<TRIPOS>ATOM
  1 O       -0.2180     1.6860    -2.4720 O.2   1 <1>  -0.5700 
  2 C       -0.0640     2.0630    -1.3420 C.2   1 <1>   0.6590 
  3 O        1.1200     1.9040    -0.7560 O.3   1 <1>  -0.4300 
  4 C       -1.2140     2.7290    -0.5830 C.3   1 <1>  -0.0190 
  5 C        1.4320     2.1630     0.5940 C.3   1 <1>   0.1200 
  6 C       -2.5650     2.2330    -1.1210 C.3   1 <1>   0.1400 
  7 C       -1.1400     4.2690    -0.6740 C.3   1 <1>  -0.1600 
  8 C        2.9090     1.8470     0.7990 C.3   1 <1>  -0.2400 
  9 N       -3.6750     2.8800    -0.3600 N.am  1 <1>  -0.6600 
 10 C       -2.3350     4.9170     0.0450 C.3   1 <1>  -0.1600 
 11 C       -4.6250     2.2240     0.3870 C.2   1 <1>   0.5690 
 12 C       -3.6730     4.3670    -0.4630 C.3   1 <1>   0.1400 
 13 O       -5.4650     2.8240     1.0150 O.2   1 <1>  -0.5700 
 14 C       -4.6680     0.7040     0.4660 C.3   1 <1>  -0.0990 
 15 C       -3.6530     0.1240     1.4650 C.3   1 <1>  -0.2400 
 16 H       -1.1690     2.4330     0.4480 H     1 <1>   0.0800 
 17 H        0.8210     1.5320     1.2160 H     1 <1>   0.0800 
 18 H        1.2360     3.2000     0.8070 H     1 <1>   0.0800 
 19 H       -2.6060     1.1630    -1.0470 H     1 <1>   0.0800 
 20 H       -2.6610     2.4910    -2.1630 H     1 <1>   0.0800 
 21 H       -1.1500     4.5610    -1.7110 H     1 <1>   0.0800 
 22 H       -0.2240     4.6280    -0.2420 H     1 <1>   0.0800 
 23 H        3.1020     0.8130     0.5720 H     1 <1>   0.0800 
 24 H        3.1840     2.0310     1.8210 H     1 <1>   0.0800 
 25 H        3.5140     2.4700     0.1640 H     1 <1>   0.0800 
 26 H       -2.3130     5.9820    -0.1040 H     1 <1>   0.0800 
 27 H       -2.2690     4.7340     1.1030 H     1 <1>   0.0800 
 28 H       -4.4780     4.7940     0.1120 H     1 <1>   0.0800 
 29 H       -3.8180     4.6460    -1.4920 H     1 <1>   0.0800 
 30 H       -4.5200     0.2840    -0.5110 H     1 <1>   0.0800 
 31 H       -5.6570     0.4180     0.7790 H     1 <1>   0.0800 
 32 H       -2.6480     0.3710     1.1790 H     1 <1>   0.0800 
 33 H       -3.7480    -0.9470     1.5090 H     1 <1>   0.0800 
 34 H       -3.8390     0.5250     2.4470 H     1 <1>   0.0800 
@<TRIPOS>BOND
  1   1   2  2   
  2   2   3  1   
  3   2   4  1   
  4   3   5  1   
  5   4   6  1   
  6   4   7  1   
  7   4  16  1   
  8   5   8  1   
  9   5  17  1   
 10   5  18  1   
 11   6   9  1   
 12   6  19  1   
 13   6  20  1   
 14   7  10  1   
 15   7  21  1   
 16   7  22  1   
 17   8  23  1   
 18   8  24  1   
 19   8  25  1   
 20   9  11  am  
 21   9  12  1   
 22  10  12  1   
 23  10  26  1   
 24  10  27  1   
 25  11  13  2   
 26  11  14  1   
 27  12  28  1   
 28  12  29  1   
 29  14  15  1   
 30  14  30  1   
 31  14  31  1   
 32  15  32  1   
 33  15  33  1   
 34  15  34  1   
@<TRIPOS>SUBSTRUCTURE
  1 ****   4 GROUP 4 **** **** 0

# MOE 2024.06 (io_trps.svl 2023.06)
