@<TRIPOS>MOLECULE
NONAME
47 49 1 0 0 
SMALL
USER_CHARGES


@<TRIPOS>ATOM
  1 S        2.2020     2.2000    -0.0660 S.3   1 <1>  -0.3320 
  2 C        0.6240     3.0670    -0.1120 C.ar  1 <1>   0.1020 
  3 C        1.8100     0.3930     0.1330 C.3   1 <1>   0.1310 
  4 C        0.6710     4.4490    -0.1180 C.ar  1 <1>  -0.1500 
  5 C       -0.5890     2.3950    -0.1410 C.ar  1 <1>  -0.1500 
  6 C        3.0840    -0.4180     0.2990 C.2   1 <1>   0.5690 
  7 C       -0.5080     5.1730    -0.1510 C.ar  1 <1>  -0.1500 
  8 C       -1.7650     3.1250    -0.1730 C.ar  1 <1>  -0.1500 
  9 O        3.1270    -1.5160    -0.2000 O.2   1 <1>  -0.5700 
 10 N        4.1160     0.1330     1.0080 N.am  1 <1>  -0.5470 
 11 C       -1.7250     4.5100    -0.1770 C.ar  1 <1>  -0.1500 
 12 C        5.4100    -0.3200     1.3040 C.ar  1 <1>   0.1170 
 13 C        6.4070     0.6230     1.6010 C.ar  1 <1>   0.0860 
 14 C        5.7340    -1.6740     1.3210 C.ar  1 <1>  -0.1500 
 15 C        6.1050     2.0360     1.5730 C.2   1 <1>   0.5440 
 16 C        7.6900     0.1730     1.9120 C.ar  1 <1>  -0.1500 
 17 C        7.0120    -2.1000     1.6240 C.ar  1 <1>  -0.1500 
 18 O        5.2590     2.4720     2.3350 O.2   1 <1>  -0.5700 
 19 N        6.7070     2.8930     0.6750 N.am  1 <1>  -0.6600 
 20 C        7.9950    -1.1730     1.9230 C.ar  1 <1>  -0.1500 
 21 C        6.4130     4.3540     0.6760 C.3   1 <1>   0.1400 
 22 C        7.3910     2.4230    -0.5620 C.3   1 <1>   0.1400 
 23 C        5.5210     4.6930    -0.5230 C.3   1 <1>  -0.1600 
 24 C        6.5090     2.7330    -1.7750 C.3   1 <1>  -0.1600 
 25 C        6.1460     4.2240    -1.8460 C.3   1 <1>  -0.1600 
 26 H        1.2820     0.0810    -0.7480 H     1 <1>   0.0800 
 27 H        1.1890     0.2900     1.0030 H     1 <1>   0.0800 
 28 H        1.6220     4.9500    -0.0960 H     1 <1>   0.1500 
 29 H       -0.6390     1.3250    -0.1430 H     1 <1>   0.1500 
 30 H       -0.4790     6.2490    -0.1540 H     1 <1>   0.1500 
 31 H       -2.7140     2.6180    -0.1950 H     1 <1>   0.1500 
 32 H        3.9510     1.1080     1.3010 H     1 <1>   0.3700 
 33 H       -2.6410     5.0740    -0.2020 H     1 <1>   0.1500 
 34 H        4.9800    -2.4080     1.0990 H     1 <1>   0.1500 
 35 H        8.4510     0.8970     2.1480 H     1 <1>   0.1500 
 36 H        7.2420    -3.1520     1.6300 H     1 <1>   0.1500 
 37 H        8.9910    -1.5050     2.1640 H     1 <1>   0.1500 
 38 H        7.3390     4.8980     0.6100 H     1 <1>   0.0800 
 39 H        5.9230     4.6440     1.5890 H     1 <1>   0.0800 
 40 H        7.5850     1.3650    -0.5240 H     1 <1>   0.0800 
 41 H        8.3350     2.9310    -0.6550 H     1 <1>   0.0800 
 42 H        5.3560     5.7550    -0.5550 H     1 <1>   0.0800 
 43 H        4.5650     4.2180    -0.3840 H     1 <1>   0.0800 
 44 H        5.6090     2.1450    -1.7090 H     1 <1>   0.0800 
 45 H        7.0230     2.4430    -2.6740 H     1 <1>   0.0800 
 46 H        7.0350     4.7990    -2.0430 H     1 <1>   0.0800 
 47 H        5.4540     4.3920    -2.6540 H     1 <1>   0.0800 
@<TRIPOS>BOND
  1   1   2  1   
  2   1   3  1   
  3   2   4  ar  
  4   2   5  ar  
  5   3   6  1   
  6   3  26  1   
  7   3  27  1   
  8   4   7  ar  
  9   4  28  1   
 10   5   8  ar  
 11   5  29  1   
 12   6   9  2   
 13   6  10  am  
 14   7  11  ar  
 15   7  30  1   
 16   8  11  ar  
 17   8  31  1   
 18  10  12  1   
 19  10  32  1   
 20  11  33  1   
 21  12  13  ar  
 22  12  14  ar  
 23  13  15  1   
 24  13  16  ar  
 25  14  17  ar  
 26  14  34  1   
 27  15  18  2   
 28  15  19  am  
 29  16  20  ar  
 30  16  35  1   
 31  17  20  ar  
 32  17  36  1   
 33  19  21  1   
 34  19  22  1   
 35  20  37  1   
 36  21  23  1   
 37  21  38  1   
 38  21  39  1   
 39  22  24  1   
 40  22  40  1   
 41  22  41  1   
 42  23  25  1   
 43  23  42  1   
 44  23  43  1   
 45  24  25  1   
 46  24  44  1   
 47  24  45  1   
 48  25  46  1   
 49  25  47  1   
@<TRIPOS>SUBSTRUCTURE
  1 ****  10 GROUP 4 **** **** 0

# MOE 2024.06 (io_trps.svl 2023.06)
