@<TRIPOS>MOLECULE
NONAME
37 39 1 0 0 
SMALL
USER_CHARGES


@<TRIPOS>ATOM
  1 O       -0.0490     0.2570    -0.2360 O.2   1 <1>  -0.5700 
  2 C       -0.1140    -0.9160     0.0840 C.2   1 <1>   0.7160 
  3 N       -1.3440    -1.5590     0.1470 N.am  1 <1>  -0.6600 
  4 C        1.1120    -1.5650     0.4440 C.2   1 <1>  -0.0860 
  5 C       -2.6870    -0.9210    -0.0420 C.3   1 <1>   0.2200 
  6 C       -1.4430    -3.0370     0.0030 C.3   1 <1>   0.1400 
  7 C        1.8460    -2.5510    -0.1650 C.2   1 <1>  -0.0260 
  8 C        1.8650    -1.2400     1.5700 C.2   1 <1>   0.1390 
  9 C       -3.1110    -1.1480    -1.5010 C.3   1 <1>  -0.1600 
 10 C       -2.7870     0.5490     0.4070 C.3   1 <1>  -0.1600 
 11 C       -1.8580    -3.3590    -1.4380 C.3   1 <1>  -0.1600 
 12 N        1.6200    -3.2570    -1.3270 N.2   1 <1>  -0.5760 
 13 N        2.9530    -2.7450     0.6230 N.pl3 1 <1>   0.6010 
 14 N        2.9540    -1.9370     1.6990 N.2   1 <1>  -0.7070 
 15 C       -3.1660    -2.6510    -1.8320 C.3   1 <1>  -0.1600 
 16 C       -4.2340     1.0060     0.6470 C.3   1 <1>  -0.2400 
 17 C        2.5220    -4.1250    -1.6610 C.2   1 <1>   0.3760 
 18 C        3.8990    -3.6750     0.2560 C.2   1 <1>  -0.1810 
 19 C        3.6920    -4.3730    -0.8920 C.2   1 <1>  -0.1360 
 20 H       -3.3760    -1.4650     0.5830 H     1 <1>   0.0800 
 21 H       -2.1830    -3.4120     0.6890 H     1 <1>   0.0800 
 22 H       -0.5150    -3.5230     0.2380 H     1 <1>   0.0800 
 23 H        1.5710    -0.4750     2.2710 H     1 <1>   0.1500 
 24 H       -2.4080    -0.6540    -2.1490 H     1 <1>   0.0800 
 25 H       -4.0790    -0.7180    -1.6780 H     1 <1>   0.0800 
 26 H       -2.3440     1.1890    -0.3360 H     1 <1>   0.0800 
 27 H       -2.2410     0.6680     1.3270 H     1 <1>   0.0800 
 28 H       -1.9730    -4.4220    -1.5490 H     1 <1>   0.0800 
 29 H       -1.0690    -3.0460    -2.1010 H     1 <1>   0.0800 
 30 H       -3.3500    -2.7850    -2.8840 H     1 <1>   0.0800 
 31 H       -3.9830    -3.0990    -1.2930 H     1 <1>   0.0800 
 32 H       -4.8060     0.9690    -0.2630 H     1 <1>   0.0800 
 33 H       -4.2380     2.0210     1.0040 H     1 <1>   0.0800 
 34 H       -4.7090     0.3850     1.3850 H     1 <1>   0.0800 
 35 H        2.3880    -4.6940    -2.5640 H     1 <1>   0.0600 
 36 H        4.7450    -3.7820     0.9090 H     1 <1>   0.1500 
 37 H        4.3840    -5.1140    -1.2480 H     1 <1>   0.1500 
@<TRIPOS>BOND
  1   1   2  2   
  2   2   3  am  
  3   2   4  1   
  4   3   5  1   
  5   3   6  1   
  6   4   7  2   
  7   4   8  1   
  8   5   9  1   
  9   5  10  1   
 10   5  20  1   
 11   6  11  1   
 12   6  21  1   
 13   6  22  1   
 14   7  12  1   
 15   7  13  1   
 16   8  14  2   
 17   8  23  1   
 18   9  15  1   
 19   9  24  1   
 20   9  25  1   
 21  10  16  1   
 22  10  26  1   
 23  10  27  1   
 24  11  15  1   
 25  11  28  1   
 26  11  29  1   
 27  12  17  2   
 28  13  14  1   
 29  13  18  1   
 30  15  30  1   
 31  15  31  1   
 32  16  32  1   
 33  16  33  1   
 34  16  34  1   
 35  17  19  1   
 36  17  35  1   
 37  18  19  2   
 38  18  36  1   
 39  19  37  1   
@<TRIPOS>SUBSTRUCTURE
  1 ****   2 GROUP 4 **** **** 0

# MOE 2024.06 (io_trps.svl 2023.06)
