@<TRIPOS>MOLECULE
NONAME
33 34 1 0 0 
SMALL
USER_CHARGES


@<TRIPOS>ATOM
  1 O       -0.1940    -0.0810     0.3400 O.2   1 <1>  -0.5700 
  2 C       -0.0480    -1.1740    -0.1690 C.2   1 <1>   0.6900 
  3 N        1.1820    -1.6990    -0.4300 N.am  1 <1>  -0.5470 
  4 N       -1.1270    -1.9290    -0.4940 N.am  1 <1>  -0.7300 
  5 C        2.4660    -1.1420    -0.3090 C.ar  1 <1>   0.1170 
  6 C       -2.5290    -1.5350    -0.2490 C.3   1 <1>   0.1400 
  7 C        3.5490    -1.9990    -0.1530 C.ar  1 <1>  -0.1500 
  8 C        2.7030     0.2300    -0.3600 C.ar  1 <1>  -0.1500 
  9 C       -3.3270    -2.7660     0.1790 C.3   1 <1>  -0.1600 
 10 C        4.8350    -1.5020    -0.0480 C.ar  1 <1>   0.0830 
 11 C        3.9870     0.7370    -0.2470 C.ar  1 <1>  -0.1500 
 12 C       -4.7940    -2.4130     0.4480 C.3   1 <1>  -0.2400 
 13 O        5.8650    -2.3760     0.0880 O.3   1 <1>  -0.3620 
 14 C        5.0560    -0.1240    -0.0850 C.ar  1 <1>   0.0830 
 15 C        7.1700    -1.8630    -0.1110 C.3   1 <1>   0.1200 
 16 O        6.3080     0.3930     0.0390 O.3   1 <1>  -0.3630 
 17 C        7.3030    -0.4790     0.5390 C.3   1 <1>   0.1200 
 18 H        1.1650    -2.6910    -0.6330 H     1 <1>   0.3700 
 19 H       -1.0000    -2.7490    -1.0810 H     1 <1>   0.3700 
 20 H       -2.9420    -1.1160    -1.1510 H     1 <1>   0.0800 
 21 H       -2.5690    -0.7840     0.5240 H     1 <1>   0.0800 
 22 H        3.4020    -3.0610    -0.1130 H     1 <1>   0.1500 
 23 H        1.8810     0.9110    -0.4890 H     1 <1>   0.1500 
 24 H       -2.8940    -3.1730     1.0770 H     1 <1>   0.0800 
 25 H       -3.2830    -3.5130    -0.5950 H     1 <1>   0.0800 
 26 H        4.1600     1.7970    -0.2820 H     1 <1>   0.1500 
 27 H       -4.8660    -1.6800     1.2330 H     1 <1>   0.0800 
 28 H       -5.3350    -3.2920     0.7510 H     1 <1>   0.0800 
 29 H       -5.2560    -2.0160    -0.4400 H     1 <1>   0.0800 
 30 H        7.3450    -1.7960    -1.1710 H     1 <1>   0.0800 
 31 H        7.8680    -2.5580     0.3200 H     1 <1>   0.0800 
 32 H        8.2620    -0.0460     0.3230 H     1 <1>   0.0800 
 33 H        7.1790    -0.5530     1.6050 H     1 <1>   0.0800 
@<TRIPOS>BOND
  1   1   2  2   
  2   2   3  am  
  3   2   4  am  
  4   3   5  1   
  5   3  18  1   
  6   4   6  1   
  7   4  19  1   
  8   5   7  ar  
  9   5   8  ar  
 10   6   9  1   
 11   6  20  1   
 12   6  21  1   
 13   7  10  ar  
 14   7  22  1   
 15   8  11  ar  
 16   8  23  1   
 17   9  12  1   
 18   9  24  1   
 19   9  25  1   
 20  10  13  1   
 21  10  14  ar  
 22  11  14  ar  
 23  11  26  1   
 24  12  27  1   
 25  12  28  1   
 26  12  29  1   
 27  13  15  1   
 28  14  16  1   
 29  15  17  1   
 30  15  30  1   
 31  15  31  1   
 32  16  17  1   
 33  17  32  1   
 34  17  33  1   
@<TRIPOS>SUBSTRUCTURE
  1 ****   5 GROUP 4 **** **** 0

# MOE 2024.06 (io_trps.svl 2023.06)
