@<TRIPOS>MOLECULE
NONAME
40 41 1 0 0 
SMALL
USER_CHARGES


@<TRIPOS>ATOM
  1 CL       3.8320    -1.9500     2.8110 Cl    1 <1>  -0.1770 
  2 C        2.5390    -3.0990     2.5330 C.ar  1 <1>   0.1770 
  3 C        2.5970    -3.9820     1.4570 C.ar  1 <1>   0.0830 
  4 C        1.4640    -3.0960     3.3990 C.ar  1 <1>  -0.1500 
  5 O        3.6560    -3.9720     0.6110 O.3   1 <1>  -0.3630 
  6 C        1.5400    -4.8600     1.2330 C.ar  1 <1>  -0.1440 
  7 C        0.4200    -3.9790     3.1830 C.ar  1 <1>  -0.1500 
  8 C        4.8420    -4.6000     1.0570 C.3   1 <1>   0.1200 
  9 C        0.4590    -4.8480     2.1040 C.ar  1 <1>  -0.1500 
 10 C        1.5320    -5.8210     0.0490 C.3   1 <1>   0.1220 
 11 C        5.9590    -4.2900     0.0500 C.3   1 <1>   0.3430 
 12 C        1.0350    -5.1160    -1.2000 C.2   1 <1>  -0.2880 
 13 N        5.9200    -2.8500    -0.3490 N.4   1 <1>  -0.9590 
 14 C        0.0010    -5.5110    -1.9500 C.2   1 <1>  -0.3000 
 15 C        6.4950    -2.5710    -1.7080 C.3   1 <1>   0.3430 
 16 C        6.4650    -1.8980     0.6720 C.3   1 <1>   0.3430 
 17 C        6.5880    -1.0540    -1.9910 C.3   1 <1>   0.1200 
 18 C        6.1950    -0.4330     0.2550 C.3   1 <1>   0.1200 
 19 O        5.7970    -0.3310    -1.0890 O.3   1 <1>  -0.5600 
 20 H        1.4390    -2.4100     4.2270 H     1 <1>   0.1500 
 21 H       -0.4270    -3.9850     3.8480 H     1 <1>   0.1500 
 22 H        4.6680    -5.6600     1.1230 H     1 <1>   0.0800 
 23 H        5.0960    -4.2260     2.0320 H     1 <1>   0.0800 
 24 H       -0.3700    -5.5170     1.9430 H     1 <1>   0.1500 
 25 H        0.8990    -6.6640     0.2660 H     1 <1>   0.0800 
 26 H        2.5210    -6.2030    -0.1270 H     1 <1>   0.0800 
 27 H        5.8000    -4.9060    -0.8190 H     1 <1>   0.0800 
 28 H        6.9190    -4.5440     0.4670 H     1 <1>   0.0800 
 29 H        1.6090    -4.2340    -1.4310 H     1 <1>   0.1500 
 30 H        4.9150    -2.6020    -0.4190 H     1 <1>   0.4500 
 31 H       -0.3340    -4.9900    -2.8300 H     1 <1>   0.1500 
 32 H       -0.5990    -6.3830    -1.7510 H     1 <1>   0.1500 
 33 H        5.8730    -3.0270    -2.4610 H     1 <1>   0.0800 
 34 H        7.4780    -3.0020    -1.7940 H     1 <1>   0.0800 
 35 H        7.5280    -2.0410     0.7720 H     1 <1>   0.0800 
 36 H        6.0220    -2.0790     1.6360 H     1 <1>   0.0800 
 37 H        6.2410    -0.8380    -2.9860 H     1 <1>   0.0800 
 38 H        7.6050    -0.7100    -1.9060 H     1 <1>   0.0800 
 39 H        7.0730     0.1710     0.4020 H     1 <1>   0.0800 
 40 H        5.4020    -0.0220     0.8560 H     1 <1>   0.0800 
@<TRIPOS>BOND
  1   1   2  1   
  2   2   3  ar  
  3   2   4  ar  
  4   3   5  1   
  5   3   6  ar  
  6   4   7  ar  
  7   4  20  1   
  8   5   8  1   
  9   6   9  ar  
 10   6  10  1   
 11   7   9  ar  
 12   7  21  1   
 13   8  11  1   
 14   8  22  1   
 15   8  23  1   
 16   9  24  1   
 17  10  12  1   
 18  10  25  1   
 19  10  26  1   
 20  11  13  1   
 21  11  27  1   
 22  11  28  1   
 23  12  14  2   
 24  12  29  1   
 25  13  15  1   
 26  13  16  1   
 27  13  30  1   
 28  14  31  1   
 29  14  32  1   
 30  15  17  1   
 31  15  33  1   
 32  15  34  1   
 33  16  18  1   
 34  16  35  1   
 35  16  36  1   
 36  17  19  1   
 37  17  37  1   
 38  17  38  1   
 39  18  19  1   
 40  18  39  1   
 41  18  40  1   
@<TRIPOS>SUBSTRUCTURE
  1 ****   5 GROUP 4 **** **** 0

# MOE 2024.06 (io_trps.svl 2023.06)
