@<TRIPOS>MOLECULE
NONAME
36 37 1 0 0 
SMALL
USER_CHARGES


@<TRIPOS>ATOM
  1 O       -0.4700     0.3780     0.4530 O.2   1 <1>  -0.5700 
  2 C       -1.4740     1.0460     0.2930 C.2   1 <1>   0.7060 
  3 O       -2.5520     0.3680    -0.1290 O.3   1 <1>  -0.2320 
  4 C       -1.5710     2.4600     0.5250 C.2   1 <1>   0.0290 
  5 C       -3.7980     0.8820    -0.0790 C.ar  1 <1>   0.0830 
  6 C       -2.8530     2.8010     1.0600 C.2   1 <1>   0.4690 
  7 C       -0.5460     3.3550     0.2310 C.2   1 <1>  -0.0380 
  8 C       -4.0030     2.1150     0.5330 C.ar  1 <1>   0.0860 
  9 C       -4.8500     0.1640    -0.6220 C.ar  1 <1>  -0.1500 
 10 O       -3.0090     3.5940     1.9740 O.2   1 <1>  -0.5700 
 11 N       -0.5570     4.7150     0.2650 N.pl3 1 <1>  -0.8690 
 12 C        0.8140     2.8460    -0.2330 C.3   1 <1>  -0.1020 
 13 C       -5.3070     2.6050     0.6020 C.ar  1 <1>  -0.1500 
 14 C       -6.1350     0.6700    -0.5530 C.ar  1 <1>  -0.1500 
 15 C       -1.6520     5.6690     0.5480 C.3   1 <1>   0.2090 
 16 C       -6.3620     1.8920     0.0620 C.ar  1 <1>  -0.1500 
 17 C       -1.3110     7.0120    -0.0940 C.3   1 <1>  -0.1600 
 18 C       -2.4220     8.0420     0.1500 C.3   1 <1>  -0.1600 
 19 C       -2.0760     9.3880    -0.4930 C.3   1 <1>  -0.2400 
 20 H       -4.6630    -0.7870    -1.0900 H     1 <1>   0.1500 
 21 H        0.3170     5.2150     0.0650 H     1 <1>   0.4000 
 22 H        1.4440     3.6470    -0.5770 H     1 <1>   0.0800 
 23 H        0.7050     2.1520    -1.0470 H     1 <1>   0.0800 
 24 H        1.3160     2.3540     0.5810 H     1 <1>   0.0800 
 25 H       -5.4870     3.5510     1.0840 H     1 <1>   0.1500 
 26 H       -6.9580     0.1170    -0.9730 H     1 <1>   0.1500 
 27 H       -1.7580     5.7850     1.6150 H     1 <1>   0.0800 
 28 H       -2.5760     5.3000     0.1400 H     1 <1>   0.0800 
 29 H       -7.3640     2.2840     0.1200 H     1 <1>   0.1500 
 30 H       -1.1820     6.8710    -1.1530 H     1 <1>   0.0800 
 31 H       -0.3900     7.3790     0.3240 H     1 <1>   0.0800 
 32 H       -2.5610     8.1800     1.2090 H     1 <1>   0.0800 
 33 H       -3.3480     7.6800    -0.2640 H     1 <1>   0.0800 
 34 H       -1.1650     9.7820    -0.0770 H     1 <1>   0.0800 
 35 H       -2.8670    10.0950    -0.3120 H     1 <1>   0.0800 
 36 H       -1.9540     9.2790    -1.5560 H     1 <1>   0.0800 
@<TRIPOS>BOND
  1   1   2  2   
  2   2   3  1   
  3   2   4  1   
  4   3   5  1   
  5   4   6  1   
  6   4   7  2   
  7   5   8  ar  
  8   5   9  ar  
  9   6   8  1   
 10   6  10  2   
 11   7  11  1   
 12   7  12  1   
 13   8  13  ar  
 14   9  14  ar  
 15   9  20  1   
 16  11  15  1   
 17  11  21  1   
 18  12  22  1   
 19  12  23  1   
 20  12  24  1   
 21  13  16  ar  
 22  13  25  1   
 23  14  16  ar  
 24  14  26  1   
 25  15  17  1   
 26  15  27  1   
 27  15  28  1   
 28  16  29  1   
 29  17  18  1   
 30  17  30  1   
 31  17  31  1   
 32  18  19  1   
 33  18  32  1   
 34  18  33  1   
 35  19  34  1   
 36  19  35  1   
 37  19  36  1   
@<TRIPOS>SUBSTRUCTURE
  1 ****   6 GROUP 4 **** **** 0

# MOE 2024.06 (io_trps.svl 2023.06)
