@<TRIPOS>MOLECULE
NONAME
43 46 1 0 0 
SMALL
USER_CHARGES


@<TRIPOS>ATOM
  1 O      -11.9720     0.7760     1.3020 O.3   1 <1>  -0.6800 
  2 C      -10.8240     1.2380     0.7210 C.3   1 <1>   0.2800 
  3 C       -9.6340     0.7680     1.5700 C.3   1 <1>  -0.1600 
  4 C      -10.8690     2.7730     0.6780 C.3   1 <1>  -0.1600 
  5 C      -10.7030     0.6750    -0.7020 C.3   1 <1>  -0.1600 
  6 C       -8.3210     1.2910     0.9500 C.3   1 <1>  -0.0800 
  7 C       -9.5590     3.3020     0.0550 C.3   1 <1>  -0.0800 
  8 C       -9.3980     1.1930    -1.3410 C.3   1 <1>  -0.0800 
  9 C       -8.3740     2.8390     0.9340 C.3   1 <1>   0.4230 
 10 C       -8.2020     0.7260    -0.4870 C.3   1 <1>  -0.1600 
 11 C       -9.4390     2.7350    -1.3810 C.3   1 <1>  -0.1600 
 12 N       -7.1190     3.4100     0.3980 N.4   1 <1>  -0.9060 
 13 C       -5.9260     3.2240     1.2460 C.3   1 <1>   0.4860 
 14 C       -4.7810     3.8560     0.4940 C.ar  1 <1>  -0.1440 
 15 C       -4.4690     5.1940     0.6910 C.ar  1 <1>  -0.1500 
 16 C       -4.0400     3.1060    -0.4080 C.ar  1 <1>  -0.1500 
 17 C       -3.4330     5.7770    -0.0160 C.ar  1 <1>  -0.1500 
 18 C       -3.0040     3.6920    -1.1140 C.ar  1 <1>  -0.1500 
 19 C       -2.7010     5.0270    -0.9190 C.ar  1 <1>  -0.1500 
 20 H      -12.7410     0.9680     0.7330 H     1 <1>   0.4000 
 21 H       -9.7420     1.1310     2.5780 H     1 <1>   0.0800 
 22 H       -9.6210    -0.3080     1.6050 H     1 <1>   0.0800 
 23 H      -10.9880     3.1610     1.6750 H     1 <1>   0.0800 
 24 H      -11.7080     3.0990     0.0890 H     1 <1>   0.0800 
 25 H      -11.5440     0.9840    -1.2980 H     1 <1>   0.0800 
 26 H      -10.6890    -0.4010    -0.6690 H     1 <1>   0.0800 
 27 H       -7.5050     0.9410     1.5570 H     1 <1>   0.0800 
 28 H       -9.6030     4.3770     0.0280 H     1 <1>   0.0800 
 29 H       -9.3090     0.8020    -2.3420 H     1 <1>   0.0800 
 30 H       -8.5300     3.1970     1.9400 H     1 <1>   0.0800 
 31 H       -8.1930    -0.3510    -0.4490 H     1 <1>   0.0800 
 32 H       -7.2790     1.0280    -0.9490 H     1 <1>   0.0800 
 33 H      -10.2870     3.0520    -1.9660 H     1 <1>   0.0800 
 34 H       -8.5630     3.1130    -1.8780 H     1 <1>   0.0800 
 35 H       -7.2300     4.4140     0.2250 H     1 <1>   0.4500 
 36 H       -6.9320     2.9890    -0.5170 H     1 <1>   0.4500 
 37 H       -5.7270     2.1760     1.4040 H     1 <1>   0.0800 
 38 H       -6.0570     3.7070     2.2010 H     1 <1>   0.0800 
 39 H       -5.0190     5.8000     1.3920 H     1 <1>   0.1500 
 40 H       -4.2510     2.0620    -0.5740 H     1 <1>   0.1500 
 41 H       -3.1880     6.8160     0.1350 H     1 <1>   0.1500 
 42 H       -2.4270     3.1110    -1.8140 H     1 <1>   0.1500 
 43 H       -1.8940     5.4820    -1.4680 H     1 <1>   0.1500 
@<TRIPOS>BOND
  1   1   2  1   
  2   1  20  1   
  3   2   3  1   
  4   2   4  1   
  5   2   5  1   
  6   3   6  1   
  7   3  21  1   
  8   3  22  1   
  9   4   7  1   
 10   4  23  1   
 11   4  24  1   
 12   5   8  1   
 13   5  25  1   
 14   5  26  1   
 15   6   9  1   
 16   6  10  1   
 17   6  27  1   
 18   7   9  1   
 19   7  11  1   
 20   7  28  1   
 21   8  10  1   
 22   8  11  1   
 23   8  29  1   
 24   9  12  1   
 25   9  30  1   
 26  10  31  1   
 27  10  32  1   
 28  11  33  1   
 29  11  34  1   
 30  12  13  1   
 31  12  35  1   
 32  12  36  1   
 33  13  14  1   
 34  13  37  1   
 35  13  38  1   
 36  14  15  ar  
 37  14  16  ar  
 38  15  17  ar  
 39  15  39  1   
 40  16  18  ar  
 41  16  40  1   
 42  17  19  ar  
 43  17  41  1   
 44  18  19  ar  
 45  18  42  1   
 46  19  43  1   
@<TRIPOS>SUBSTRUCTURE
  1 ****  12 GROUP 4 **** **** 0

# MOE 2024.06 (io_trps.svl 2023.06)
