@<TRIPOS>MOLECULE
NONAME
43 44 1 0 0 
SMALL
USER_CHARGES


@<TRIPOS>ATOM
  1 O        0.1000    -0.5910    -1.7540 O.2   1 <1>  -0.5700 
  2 C        0.0520    -1.4720    -0.9190 C.2   1 <1>   0.5440 
  3 N        1.1810    -1.7720    -0.2120 N.am  1 <1>  -0.7300 
  4 C       -1.1790    -2.2010    -0.6890 C.ar  1 <1>   0.0860 
  5 C        2.5100    -1.1690    -0.3980 C.3   1 <1>   0.2200 
  6 C       -2.1770    -2.2240    -1.6630 C.ar  1 <1>   0.1600 
  7 C       -1.4340    -2.9040     0.4840 C.ar  1 <1>  -0.1500 
  8 C        3.6870    -2.1990    -0.4920 C.3   1 <1>  -0.0800 
  9 C        2.7200    -0.1330     0.7120 C.3   1 <1>  -0.1600 
 10 N       -3.3350    -2.8640    -1.5790 N.ar  1 <1>  -0.6200 
 11 C       -2.6330    -3.5750     0.5940 C.ar  1 <1>  -0.1500 
 12 C        3.5480    -3.6230     0.1760 C.3   1 <1>   0.0000 
 13 C        5.0240    -1.5010    -0.0990 C.3   1 <1>  -0.1600 
 14 C        3.9630     0.7340     0.4420 C.3   1 <1>  -0.1600 
 15 C       -3.5370    -3.5260    -0.4520 C.ar  1 <1>   0.1600 
 16 C        4.8830    -4.3950     0.0910 C.3   1 <1>  -0.2400 
 17 C        3.1640    -3.5530     1.6670 C.3   1 <1>  -0.2400 
 18 C        2.5280    -4.5170    -0.5660 C.3   1 <1>  -0.2400 
 19 C        5.0290     0.0040    -0.3920 C.3   1 <1>  -0.1600 
 20 H        1.1940    -2.5850     0.3990 H     1 <1>   0.3700 
 21 H        2.4940    -0.6230    -1.3280 H     1 <1>   0.0800 
 22 H       -1.9990    -1.6750    -2.5730 H     1 <1>   0.1500 
 23 H       -0.7240    -2.9220     1.2910 H     1 <1>   0.1500 
 24 H        3.7790    -2.3880    -1.5480 H     1 <1>   0.0800 
 25 H        2.8410    -0.6420     1.6510 H     1 <1>   0.0800 
 26 H        1.8580     0.5070     0.7830 H     1 <1>   0.0800 
 27 H       -2.8720    -4.1320     1.4830 H     1 <1>   0.1500 
 28 H        5.8390    -1.9540    -0.6370 H     1 <1>   0.0800 
 29 H        5.2160    -1.6280     0.9510 H     1 <1>   0.0800 
 30 H        4.3840     1.0360     1.3860 H     1 <1>   0.0800 
 31 H        3.6710     1.6280    -0.0830 H     1 <1>   0.0800 
 32 H       -4.4720    -4.0540    -0.3580 H     1 <1>   0.1500 
 33 H        5.6460    -3.9430     0.6990 H     1 <1>   0.0800 
 34 H        5.2320    -4.4330    -0.9260 H     1 <1>   0.0800 
 35 H        4.7670    -5.4060     0.4400 H     1 <1>   0.0800 
 36 H        3.8950    -2.9940     2.2220 H     1 <1>   0.0800 
 37 H        3.1190    -4.5420     2.0870 H     1 <1>   0.0800 
 38 H        2.2090    -3.0900     1.8180 H     1 <1>   0.0800 
 39 H        2.7400    -4.5290    -1.6200 H     1 <1>   0.0800 
 40 H        1.5130    -4.2060    -0.4340 H     1 <1>   0.0800 
 41 H        2.5830    -5.5300    -0.2090 H     1 <1>   0.0800 
 42 H        4.8350     0.1580    -1.4400 H     1 <1>   0.0800 
 43 H        5.9990     0.4200    -0.1770 H     1 <1>   0.0800 
@<TRIPOS>BOND
  1   1   2  2   
  2   2   3  am  
  3   2   4  1   
  4   3   5  1   
  5   3  20  1   
  6   4   6  ar  
  7   4   7  ar  
  8   5   8  1   
  9   5   9  1   
 10   5  21  1   
 11   6  10  ar  
 12   6  22  1   
 13   7  11  ar  
 14   7  23  1   
 15   8  12  1   
 16   8  13  1   
 17   8  24  1   
 18   9  14  1   
 19   9  25  1   
 20   9  26  1   
 21  10  15  ar  
 22  11  15  ar  
 23  11  27  1   
 24  12  16  1   
 25  12  17  1   
 26  12  18  1   
 27  13  19  1   
 28  13  28  1   
 29  13  29  1   
 30  14  19  1   
 31  14  30  1   
 32  14  31  1   
 33  15  32  1   
 34  16  33  1   
 35  16  34  1   
 36  16  35  1   
 37  17  36  1   
 38  17  37  1   
 39  17  38  1   
 40  18  39  1   
 41  18  40  1   
 42  18  41  1   
 43  19  42  1   
 44  19  43  1   
@<TRIPOS>SUBSTRUCTURE
  1 ****   3 GROUP 4 **** **** 0

# MOE 2024.06 (io_trps.svl 2023.06)
