@<TRIPOS>MOLECULE
NONAME
42 43 1 0 0 
SMALL
USER_CHARGES


@<TRIPOS>ATOM
  1 O       -0.6940     0.7300     1.3720 O.2   1 <1>  -0.5700 
  2 C       -1.6220     1.4470     1.0920 C.2   1 <1>   0.5690 
  3 N       -2.5920     1.1290     0.1970 N.am  1 <1>  -0.7300 
  4 C       -1.7360     2.7890     1.7910 C.3   1 <1>  -0.0990 
  5 C       -2.8890    -0.1150    -0.5490 C.3   1 <1>   0.3000 
  6 C       -1.6190     3.9820     0.8290 C.3   1 <1>  -0.2400 
  7 C       -1.6380    -0.6090    -1.3240 C.3   1 <1>  -0.1600 
  8 C       -3.4060    -1.1850     0.4490 C.3   1 <1>  -0.1600 
  9 C       -4.0090     0.2460    -1.5620 C.3   1 <1>  -0.0170 
 10 C       -1.7120    -2.1130    -1.6290 C.3   1 <1>  -0.1600 
 11 C       -2.3270    -2.1910     0.8750 C.3   1 <1>  -0.1600 
 12 C       -5.1430     1.0890    -0.9770 C.ar  1 <1>  -0.1440 
 13 C       -1.7520    -2.9490    -0.3360 C.3   1 <1>  -0.1600 
 14 C       -6.1890     0.4960    -0.2830 C.ar  1 <1>  -0.1500 
 15 C       -5.1320     2.4690    -1.1390 C.ar  1 <1>  -0.1500 
 16 C       -7.1990     1.2710     0.2560 C.ar  1 <1>  -0.1500 
 17 C       -6.1410     3.2490    -0.6020 C.ar  1 <1>  -0.1500 
 18 C       -7.1720     2.6440     0.0980 C.ar  1 <1>   0.0820 
 19 O       -8.1570     3.3850     0.6270 O.3   1 <1>  -0.5330 
 20 H       -3.3840     1.7730     0.1410 H     1 <1>   0.3700 
 21 H       -0.9560     2.8540     2.5300 H     1 <1>   0.0800 
 22 H       -2.6770     2.8260     2.3070 H     1 <1>   0.0800 
 23 H       -0.6790     3.9410     0.3060 H     1 <1>   0.0800 
 24 H       -1.6680     4.9050     1.3780 H     1 <1>   0.0800 
 25 H       -2.4170     3.9680     0.1070 H     1 <1>   0.0800 
 26 H       -0.7480    -0.4500    -0.7460 H     1 <1>   0.0800 
 27 H       -1.5150    -0.0580    -2.2390 H     1 <1>   0.0800 
 28 H       -4.1890    -1.7590    -0.0090 H     1 <1>   0.0800 
 29 H       -3.8270    -0.7100     1.3180 H     1 <1>   0.0800 
 30 H       -4.4160    -0.6520    -1.9900 H     1 <1>   0.0800 
 31 H       -3.5770     0.7940    -2.3800 H     1 <1>   0.0800 
 32 H       -0.8610    -2.4080    -2.2190 H     1 <1>   0.0800 
 33 H       -2.5950    -2.3130    -2.2110 H     1 <1>   0.0800 
 34 H       -2.7340    -2.8930     1.5820 H     1 <1>   0.0800 
 35 H       -1.5320    -1.6630     1.3720 H     1 <1>   0.0800 
 36 H       -0.7530    -3.2680    -0.0880 H     1 <1>   0.0800 
 37 H       -2.3360    -3.8350    -0.5170 H     1 <1>   0.0800 
 38 H       -6.2240    -0.5720    -0.1560 H     1 <1>   0.1500 
 39 H       -4.3350     2.9430    -1.6870 H     1 <1>   0.1500 
 40 H       -8.0100     0.8180     0.7980 H     1 <1>   0.1500 
 41 H       -6.1220     4.3150    -0.7320 H     1 <1>   0.1500 
 42 H       -8.0640     4.3360     0.4430 H     1 <1>   0.4500 
@<TRIPOS>BOND
  1   1   2  2   
  2   2   3  am  
  3   2   4  1   
  4   3   5  1   
  5   3  20  1   
  6   4   6  1   
  7   4  21  1   
  8   4  22  1   
  9   5   7  1   
 10   5   8  1   
 11   5   9  1   
 12   6  23  1   
 13   6  24  1   
 14   6  25  1   
 15   7  10  1   
 16   7  26  1   
 17   7  27  1   
 18   8  11  1   
 19   8  28  1   
 20   8  29  1   
 21   9  12  1   
 22   9  30  1   
 23   9  31  1   
 24  10  13  1   
 25  10  32  1   
 26  10  33  1   
 27  11  13  1   
 28  11  34  1   
 29  11  35  1   
 30  12  14  ar  
 31  12  15  ar  
 32  13  36  1   
 33  13  37  1   
 34  14  16  ar  
 35  14  38  1   
 36  15  17  ar  
 37  15  39  1   
 38  16  18  ar  
 39  16  40  1   
 40  17  18  ar  
 41  17  41  1   
 42  18  19  1   
 43  19  42  1   
@<TRIPOS>SUBSTRUCTURE
  1 ****   3 GROUP 4 **** **** 0

# MOE 2024.06 (io_trps.svl 2023.06)
