@<TRIPOS>MOLECULE
NONAME
49 51 1 0 0 
SMALL
USER_CHARGES


@<TRIPOS>ATOM
  1 O       -0.1360     0.3100     1.1600 O.2   1 <1>  -0.5700 
  2 C       -0.1410     1.4340     0.7010 C.2   1 <1>   0.5440 
  3 N        1.0070     1.9840     0.1780 N.am  1 <1>  -0.5470 
  4 C       -1.3620     2.2170     0.7280 C.ar  1 <1>   0.0860 
  5 C        2.2650     1.4220    -0.0920 C.ar  1 <1>   0.1170 
  6 C       -2.2550     2.1060     1.7930 C.ar  1 <1>  -0.1500 
  7 C       -1.7030     3.0990    -0.2980 C.ar  1 <1>  -0.1500 
  8 C        3.3690     2.2640    -0.1660 C.ar  1 <1>  -0.1500 
  9 C        2.4560     0.0620    -0.3150 C.ar  1 <1>  -0.1500 
 10 C       -3.4270     2.8380     1.8400 C.ar  1 <1>  -0.1500 
 11 C       -2.8740     3.8350    -0.2610 C.ar  1 <1>  -0.1500 
 12 C        4.6300     1.7700    -0.4510 C.ar  1 <1>  -0.1430 
 13 C        3.7110    -0.4470    -0.5980 C.ar  1 <1>  -0.1430 
 14 C       -3.7500     3.7060     0.8080 C.ar  1 <1>  -0.1430 
 15 C        4.7960     0.4120    -0.6670 C.ar  1 <1>  -0.1500 
 16 C        5.8320     2.6940    -0.5290 C.3   1 <1>  -0.0970 
 17 C        3.9040    -1.9340    -0.8340 C.3   1 <1>  -0.0970 
 18 C       -5.0490     4.4910     0.8490 C.3   1 <1>   0.4860 
 19 N       -6.0060     3.8920    -0.1190 N.4   1 <1>  -0.9590 
 20 C       -7.2810     4.6720    -0.2660 C.3   1 <1>   0.3430 
 21 C       -6.2960     2.4380     0.1310 C.3   1 <1>   0.3430 
 22 C       -8.2650     3.9750    -1.2350 C.3   1 <1>   0.1200 
 23 C       -7.2550     1.8670    -0.9400 C.3   1 <1>   0.1200 
 24 O       -7.6690     2.8610    -1.8410 O.3   1 <1>  -0.5600 
 25 H        0.9660     2.9900     0.0350 H     1 <1>   0.3700 
 26 H       -2.0130     1.4280     2.5970 H     1 <1>   0.1500 
 27 H       -1.0450     3.2020    -1.1450 H     1 <1>   0.1500 
 28 H        3.2390     3.3160     0.0040 H     1 <1>   0.1500 
 29 H        1.6150    -0.6040    -0.2680 H     1 <1>   0.1500 
 30 H       -4.0770     2.7180     2.6910 H     1 <1>   0.1500 
 31 H       -3.0910     4.5070    -1.0750 H     1 <1>   0.1500 
 32 H        5.7730     0.0210    -0.8890 H     1 <1>   0.1500 
 33 H        5.5780     3.6850    -0.2000 H     1 <1>   0.0800 
 34 H        6.1850     2.7470    -1.5430 H     1 <1>   0.0800 
 35 H        6.6230     2.3200     0.0950 H     1 <1>   0.0800 
 36 H        3.0690    -2.4900    -0.4480 H     1 <1>   0.0800 
 37 H        4.7960    -2.2750    -0.3410 H     1 <1>   0.0800 
 38 H        3.9910    -2.1260    -1.8880 H     1 <1>   0.0800 
 39 H       -4.8530     5.5190     0.5890 H     1 <1>   0.0800 
 40 H       -5.4610     4.4640     1.8440 H     1 <1>   0.0800 
 41 H       -5.5680     3.9010    -1.0510 H     1 <1>   0.4500 
 42 H       -7.0650     5.6600    -0.6410 H     1 <1>   0.0800 
 43 H       -7.7600     4.7860     0.6920 H     1 <1>   0.0800 
 44 H       -6.7400     2.3110     1.1040 H     1 <1>   0.0800 
 45 H       -5.3800     1.8680     0.1170 H     1 <1>   0.0800 
 46 H       -8.5640     4.6540    -2.0140 H     1 <1>   0.0800 
 47 H       -9.1500     3.6520    -0.7140 H     1 <1>   0.0800 
 48 H       -8.1270     1.4330    -0.4790 H     1 <1>   0.0800 
 49 H       -6.7600     1.0980    -1.5070 H     1 <1>   0.0800 
@<TRIPOS>BOND
  1   1   2  2   
  2   2   3  am  
  3   2   4  1   
  4   3   5  1   
  5   3  25  1   
  6   4   6  ar  
  7   4   7  ar  
  8   5   8  ar  
  9   5   9  ar  
 10   6  10  ar  
 11   6  26  1   
 12   7  11  ar  
 13   7  27  1   
 14   8  12  ar  
 15   8  28  1   
 16   9  13  ar  
 17   9  29  1   
 18  10  14  ar  
 19  10  30  1   
 20  11  14  ar  
 21  11  31  1   
 22  12  15  ar  
 23  12  16  1   
 24  13  15  ar  
 25  13  17  1   
 26  14  18  1   
 27  15  32  1   
 28  16  33  1   
 29  16  34  1   
 30  16  35  1   
 31  17  36  1   
 32  17  37  1   
 33  17  38  1   
 34  18  19  1   
 35  18  39  1   
 36  18  40  1   
 37  19  20  1   
 38  19  21  1   
 39  19  41  1   
 40  20  22  1   
 41  20  42  1   
 42  20  43  1   
 43  21  23  1   
 44  21  44  1   
 45  21  45  1   
 46  22  24  1   
 47  22  46  1   
 48  22  47  1   
 49  23  24  1   
 50  23  48  1   
 51  23  49  1   
@<TRIPOS>SUBSTRUCTURE
  1 ****   4 GROUP 4 **** **** 0

# MOE 2024.06 (io_trps.svl 2023.06)
