@<TRIPOS>MOLECULE
NONAME
51 53 1 0 0 
SMALL
USER_CHARGES


@<TRIPOS>ATOM
  1 O       -2.0040    -1.3050     2.6130 O.2   1 <1>  -0.5700 
  2 C       -2.4310    -0.6400     1.6980 C.2   1 <1>   0.5690 
  3 N       -2.6280     0.7020     1.7510 N.am  1 <1>  -0.5470 
  4 C       -2.8020    -1.1720     0.2980 C.3   1 <1>   0.4810 
  5 C       -3.0550     1.1850     0.5240 C.ar  1 <1>   0.1170 
  6 C       -1.5920    -1.8510    -0.3750 C.2   1 <1>  -0.1240 
  7 C       -4.0530    -2.0620     0.3170 C.2   1 <1>  -0.1240 
  8 C       -3.1730     0.1490    -0.3840 C.ar  1 <1>  -0.1440 
  9 C       -3.3440     2.4870     0.1530 C.ar  1 <1>  -0.1500 
 10 C       -1.7260    -3.1430    -0.8070 C.2   1 <1>   0.1770 
 11 C       -0.3960    -1.0760    -0.4720 C.2   1 <1>   0.7060 
 12 C       -3.9780    -3.3270    -0.1540 C.2   1 <1>  -0.0620 
 13 C       -5.2590    -1.4460     0.7990 C.2   1 <1>   0.7060 
 14 C       -3.5880     0.3900    -1.6810 C.ar  1 <1>  -0.1500 
 15 C       -3.7600     2.7340    -1.1450 C.ar  1 <1>  -0.1500 
 16 O       -2.8570    -3.8400    -0.6650 O.3   1 <1>  -0.1530 
 17 N       -0.7650    -3.8900    -1.4200 N.pl3 1 <1>  -0.9000 
 18 O       -0.2810     0.0660    -0.0610 O.2   1 <1>  -0.5700 
 19 O        0.7000    -1.6170    -1.0340 O.3   1 <1>  -0.4300 
 20 C       -5.1070    -4.3470    -0.1920 C.3   1 <1>  -0.1020 
 21 O       -6.3050    -1.5000     0.1850 O.2   1 <1>  -0.5700 
 22 O       -5.2340    -0.8050     1.9680 O.3   1 <1>  -0.4300 
 23 C       -3.8810     1.6930    -2.0570 C.ar  1 <1>  -0.1500 
 24 C        1.9410    -0.9330    -1.1240 C.3   1 <1>   0.1200 
 25 C       -6.3630    -0.1700     2.5300 C.3   1 <1>   0.1200 
 26 C        2.6310    -0.9190     0.2420 C.3   1 <1>   0.1200 
 27 C       -7.1630    -1.2000     3.3250 C.3   1 <1>  -0.2400 
 28 O        3.9330    -0.4540     0.0700 O.3   1 <1>  -0.5600 
 29 C        4.6460    -0.3360     1.2580 C.3   1 <1>   0.0400 
 30 H       -2.3490     1.2610     2.5550 H     1 <1>   0.3700 
 31 H       -3.2450     3.2870     0.8630 H     1 <1>   0.1500 
 32 H       -3.6860    -0.4170    -2.3890 H     1 <1>   0.1500 
 33 H       -3.9890     3.7400    -1.4520 H     1 <1>   0.1500 
 34 H        0.1790    -3.5220    -1.5960 H     1 <1>   0.4000 
 35 H       -0.9240    -4.8620    -1.7000 H     1 <1>   0.4000 
 36 H       -4.7860    -5.2590     0.2790 H     1 <1>   0.0800 
 37 H       -5.3680    -4.5600    -1.2120 H     1 <1>   0.0800 
 38 H       -5.9860    -4.0030     0.3200 H     1 <1>   0.0800 
 39 H       -4.2060     1.8980    -3.0620 H     1 <1>   0.1500 
 40 H        1.7680     0.0680    -1.4790 H     1 <1>   0.0800 
 41 H        2.5500    -1.4650    -1.8330 H     1 <1>   0.0800 
 42 H       -6.9530     0.2730     1.7450 H     1 <1>   0.0800 
 43 H       -6.0050     0.6090     3.1800 H     1 <1>   0.0800 
 44 H        2.6780    -1.9150     0.6470 H     1 <1>   0.0800 
 45 H        2.1140    -0.2590     0.9170 H     1 <1>   0.0800 
 46 H       -7.5350    -1.9680     2.6710 H     1 <1>   0.0800 
 47 H       -8.0020    -0.7200     3.7960 H     1 <1>   0.0800 
 48 H       -6.5460    -1.6410     4.0870 H     1 <1>   0.0800 
 49 H        5.6320     0.0240     1.0220 H     1 <1>   0.0800 
 50 H        4.7150    -1.3010     1.7290 H     1 <1>   0.0800 
 51 H        4.1490     0.3680     1.9030 H     1 <1>   0.0800 
@<TRIPOS>BOND
  1   1   2  2   
  2   2   3  am  
  3   2   4  1   
  4   3   5  1   
  5   3  30  1   
  6   4   6  1   
  7   4   7  1   
  8   4   8  1   
  9   5   8  ar  
 10   5   9  ar  
 11   6  10  2   
 12   6  11  1   
 13   7  12  2   
 14   7  13  1   
 15   8  14  ar  
 16   9  15  ar  
 17   9  31  1   
 18  10  16  1   
 19  10  17  1   
 20  11  18  2   
 21  11  19  1   
 22  12  16  1   
 23  12  20  1   
 24  13  21  2   
 25  13  22  1   
 26  14  23  ar  
 27  14  32  1   
 28  15  23  ar  
 29  15  33  1   
 30  17  34  1   
 31  17  35  1   
 32  19  24  1   
 33  20  36  1   
 34  20  37  1   
 35  20  38  1   
 36  22  25  1   
 37  23  39  1   
 38  24  26  1   
 39  24  40  1   
 40  24  41  1   
 41  25  27  1   
 42  25  42  1   
 43  25  43  1   
 44  26  28  1   
 45  26  44  1   
 46  26  45  1   
 47  27  46  1   
 48  27  47  1   
 49  27  48  1   
 50  28  29  1   
 51  29  49  1   
 52  29  50  1   
 53  29  51  1   
@<TRIPOS>SUBSTRUCTURE
  1 ****   4 GROUP 4 **** **** 0

# MOE 2024.06 (io_trps.svl 2023.06)
