@<TRIPOS>MOLECULE
NONAME
41 43 1 0 0 
SMALL
USER_CHARGES


@<TRIPOS>ATOM
  1 S        0.3500     0.7040    -1.3120 S.o2  1 <1>   1.4470 
  2 O        0.5290    -0.6750    -0.9190 O.2   1 <1>  -0.6500 
  3 O        0.7390     1.1450    -2.6330 O.2   1 <1>  -0.6500 
  4 N        1.2540     1.5760    -0.2020 N.am  1 <1>  -0.9140 
  5 C       -1.3440     1.2460    -0.9600 C.ar  1 <1>  -0.0090 
  6 C        2.6220     1.8170    -0.6140 C.3   1 <1>   0.2760 
  7 C       -1.7100     2.5790    -1.0960 C.ar  1 <1>  -0.1500 
  8 C       -2.3230     0.3520    -0.5400 C.ar  1 <1>  -0.1500 
  9 C        3.5120     0.5520    -0.6220 C.3   1 <1>  -0.0800 
 10 C        3.3300     2.7210     0.4070 C.3   1 <1>  -0.1600 
 11 C       -2.9990     3.0040    -0.8260 C.ar  1 <1>  -0.1500 
 12 C       -3.6130     0.7720    -0.2680 C.ar  1 <1>  -0.1500 
 13 C        4.8920     1.1750    -0.4730 C.3   1 <1>  -0.1600 
 14 C        3.4140    -0.2180     0.7130 C.3   1 <1>  -0.1600 
 15 C        4.5610     1.8970     0.8230 C.3   1 <1>  -0.0800 
 16 C       -3.9750     2.1080    -0.4090 C.ar  1 <1>   0.1170 
 17 C        4.0900     0.7350     1.7120 C.3   1 <1>  -0.1600 
 18 N       -5.2640     2.5950    -0.1410 N.am  1 <1>  -0.5470 
 19 C       -6.4620     1.9530     0.0020 C.2   1 <1>   0.5690 
 20 O       -6.6170     0.7640    -0.1070 O.2   1 <1>  -0.5700 
 21 C       -7.6660     2.8080     0.3070 C.3   1 <1>  -0.1790 
 22 H        1.3180     0.9590     0.6020 H     1 <1>   0.4200 
 23 H        2.6460     2.2960    -1.5810 H     1 <1>   0.0800 
 24 H       -0.9700     3.2920    -1.4200 H     1 <1>   0.1500 
 25 H       -2.0750    -0.6900    -0.4240 H     1 <1>   0.1500 
 26 H        3.3940    -0.0580    -1.5010 H     1 <1>   0.0800 
 27 H        2.7100     2.9720     1.2490 H     1 <1>   0.0800 
 28 H        3.6470     3.6270    -0.0790 H     1 <1>   0.0800 
 29 H       -3.2440     4.0430    -0.9460 H     1 <1>   0.1500 
 30 H       -4.3360     0.0480     0.0590 H     1 <1>   0.1500 
 31 H        5.1370     1.8490    -1.2780 H     1 <1>   0.0800 
 32 H        5.6730     0.4420    -0.3560 H     1 <1>   0.0800 
 33 H        3.9780    -1.1330     0.6420 H     1 <1>   0.0800 
 34 H        2.4080    -0.4680     0.9970 H     1 <1>   0.0800 
 35 H        5.3620     2.4810     1.2460 H     1 <1>   0.0800 
 36 H        4.9330     0.2500     2.1740 H     1 <1>   0.0800 
 37 H        3.4120     1.0670     2.4800 H     1 <1>   0.0800 
 38 H       -5.3220     3.6080    -0.0720 H     1 <1>   0.3700 
 39 H       -7.8470     3.4880    -0.5030 H     1 <1>   0.0800 
 40 H       -7.5050     3.3580     1.2150 H     1 <1>   0.0800 
 41 H       -8.5310     2.1820     0.4320 H     1 <1>   0.0800 
@<TRIPOS>BOND
  1   1   2  2   
  2   1   3  2   
  3   1   4  am  
  4   1   5  1   
  5   4   6  1   
  6   4  22  1   
  7   5   7  ar  
  8   5   8  ar  
  9   6   9  1   
 10   6  10  1   
 11   6  23  1   
 12   7  11  ar  
 13   7  24  1   
 14   8  12  ar  
 15   8  25  1   
 16   9  13  1   
 17   9  14  1   
 18   9  26  1   
 19  10  15  1   
 20  10  27  1   
 21  10  28  1   
 22  11  16  ar  
 23  11  29  1   
 24  12  16  ar  
 25  12  30  1   
 26  13  15  1   
 27  13  31  1   
 28  13  32  1   
 29  14  17  1   
 30  14  33  1   
 31  14  34  1   
 32  15  17  1   
 33  15  35  1   
 34  16  18  1   
 35  17  36  1   
 36  17  37  1   
 37  18  19  am  
 38  18  38  1   
 39  19  20  2   
 40  19  21  1   
 41  21  39  1   
 42  21  40  1   
 43  21  41  1   
@<TRIPOS>SUBSTRUCTURE
  1 ****   5 GROUP 4 **** **** 0

# MOE 2024.06 (io_trps.svl 2023.06)
