@<TRIPOS>MOLECULE
NONAME
46 48 1 0 0 
SMALL
USER_CHARGES


@<TRIPOS>ATOM
  1 F        0.7870    -2.1840    -2.2400 F     1 <1>  -0.3400 
  2 C       -0.4000    -1.8860    -1.7150 C.3   1 <1>   1.0200 
  3 F       -0.4080    -0.5660    -1.5760 F     1 <1>  -0.3400 
  4 F       -1.2760    -2.1370    -2.6840 F     1 <1>  -0.3400 
  5 C       -0.6940    -2.7040    -0.4170 C.3   1 <1>   0.4990 
  6 N       -2.0970    -2.6150     0.1510 N.am  1 <1>  -0.7300 
  7 C        0.4420    -2.3710     0.5630 C.2   1 <1>   0.5690 
  8 C       -0.4140    -4.2080    -0.6210 C.2   1 <1>  -0.1240 
  9 C       -2.7090    -1.5170     0.6390 C.2   1 <1>   0.6300 
 10 O        0.7270    -1.2810     1.0000 O.2   1 <1>  -0.5700 
 11 N        1.1570    -3.5040     0.8410 N.am  1 <1>  -0.4690 
 12 C        0.6460    -4.5720     0.1430 C.2   1 <1>  -0.0290 
 13 C       -1.2480    -4.9480    -1.5130 C.2   1 <1>   0.4950 
 14 O       -2.1220    -0.4860     0.8200 O.2   1 <1>  -0.5700 
 15 C       -4.2020    -1.5880     0.9360 C.3   1 <1>  -0.1000 
 16 C        2.3790    -3.4770     1.6920 C.3   1 <1>   0.2840 
 17 C        1.2720    -5.9490     0.3130 C.3   1 <1>  -0.1020 
 18 O       -2.4070    -4.6670    -1.6890 O.2   1 <1>  -0.5700 
 19 C       -0.7150    -6.1250    -2.3000 C.3   1 <1>  -0.1790 
 20 C       -4.8790    -2.8590     1.3670 C.3   1 <1>  -0.2000 
 21 C       -5.1480    -2.2950     0.0070 C.3   1 <1>  -0.2000 
 22 C        3.6240    -3.6780     0.8390 C.ar  1 <1>  -0.1440 
 23 C        4.4730    -4.7510     1.0690 C.ar  1 <1>  -0.1500 
 24 C        3.9240    -2.7830    -0.1780 C.ar  1 <1>  -0.1500 
 25 C        5.6000    -4.9320     0.2870 C.ar  1 <1>  -0.1500 
 26 C        5.0500    -2.9640    -0.9620 C.ar  1 <1>  -0.1500 
 27 C        5.8890    -4.0390    -0.7300 C.ar  1 <1>  -0.1500 
 28 H       -2.7010    -3.3750    -0.1850 H     1 <1>   0.3700 
 29 H       -4.5490    -0.6730     1.3840 H     1 <1>   0.1000 
 30 H        2.3060    -4.2440     2.4400 H     1 <1>   0.0800 
 31 H        2.4520    -2.5310     2.2020 H     1 <1>   0.0800 
 32 H        2.2120    -5.9910    -0.2080 H     1 <1>   0.0800 
 33 H        0.6350    -6.7240    -0.0630 H     1 <1>   0.0800 
 34 H        1.4430    -6.1550     1.3540 H     1 <1>   0.0800 
 35 H       -0.9830    -7.0420    -1.8090 H     1 <1>   0.0800 
 36 H        0.3520    -6.0650    -2.4050 H     1 <1>   0.0800 
 37 H       -1.1520    -6.1240    -3.2820 H     1 <1>   0.0800 
 38 H       -5.6510    -2.7980     2.1150 H     1 <1>   0.1000 
 39 H       -4.3040    -3.7650     1.4480 H     1 <1>   0.1000 
 40 H       -4.7590    -2.8120    -0.8550 H     1 <1>   0.1000 
 41 H       -6.1050    -1.8420    -0.1890 H     1 <1>   0.1000 
 42 H        4.2650    -5.4520     1.8580 H     1 <1>   0.1500 
 43 H        3.2800    -1.9390    -0.3640 H     1 <1>   0.1500 
 44 H        6.2550    -5.7670     0.4690 H     1 <1>   0.1500 
 45 H        5.2740    -2.2660    -1.7500 H     1 <1>   0.1500 
 46 H        6.7650    -4.1790    -1.3390 H     1 <1>   0.1500 
@<TRIPOS>BOND
  1   1   2  1   
  2   2   3  1   
  3   2   4  1   
  4   2   5  1   
  5   5   6  1   
  6   5   7  1   
  7   5   8  1   
  8   6   9  am  
  9   6  28  1   
 10   7  10  2   
 11   7  11  am  
 12   8  12  2   
 13   8  13  1   
 14   9  14  2   
 15   9  15  1   
 16  11  12  1   
 17  11  16  1   
 18  12  17  1   
 19  13  18  2   
 20  13  19  1   
 21  15  20  1   
 22  15  21  1   
 23  15  29  1   
 24  16  22  1   
 25  16  30  1   
 26  16  31  1   
 27  17  32  1   
 28  17  33  1   
 29  17  34  1   
 30  19  35  1   
 31  19  36  1   
 32  19  37  1   
 33  20  21  1   
 34  20  38  1   
 35  20  39  1   
 36  21  40  1   
 37  21  41  1   
 38  22  23  ar  
 39  22  24  ar  
 40  23  25  ar  
 41  23  42  1   
 42  24  26  ar  
 43  24  43  1   
 44  25  27  ar  
 45  25  44  1   
 46  26  27  ar  
 47  26  45  1   
 48  27  46  1   
@<TRIPOS>SUBSTRUCTURE
  1 ****   5 GROUP 4 **** **** 0

# MOE 2024.06 (io_trps.svl 2023.06)
