@<TRIPOS>MOLECULE
NONAME
30 30 1 0 0 
SMALL
USER_CHARGES


@<TRIPOS>ATOM
  1 O       -0.4410     0.0390     0.6250 O.2   1 <1>  -0.5700 
  2 C       -1.3830     0.7960     0.4440 C.2   1 <1>   0.7060 
  3 O       -2.5700     0.2120     0.2300 O.3   1 <1>  -0.2270 
  4 C       -1.2770     2.2190     0.4400 C.2   1 <1>   0.0290 
  5 C       -3.6720     0.9180    -0.0030 C.2   1 <1>  -0.0610 
  6 C       -2.4130     2.9750     0.1650 C.2   1 <1>   0.1000 
  7 C        0.0100     2.7430     0.7350 C.2   1 <1>   0.4950 
  8 C       -3.6260     2.2650    -0.0410 C.2   1 <1>  -0.1500 
  9 C       -4.9150     0.0770    -0.2080 C.3   1 <1>  -0.1020 
 10 N       -2.5140     4.3350     0.0440 N.pl3 1 <1>  -0.8690 
 11 O        0.2460     3.4700     1.6730 O.2   1 <1>  -0.5700 
 12 C        1.1890     2.4120    -0.1590 C.3   1 <1>  -0.1790 
 13 C       -1.4810     5.3820     0.2050 C.3   1 <1>   0.2090 
 14 C       -2.0160     6.6900    -0.3750 C.3   1 <1>  -0.1600 
 15 C       -0.9840     7.8180    -0.2550 C.3   1 <1>  -0.2400 
 16 H       -4.5120     2.8440    -0.2300 H     1 <1>   0.1500 
 17 H       -4.7780    -0.5790    -1.0500 H     1 <1>   0.0800 
 18 H       -5.7710     0.7010    -0.3910 H     1 <1>   0.0800 
 19 H       -5.1020    -0.5180     0.6680 H     1 <1>   0.0800 
 20 H       -3.4420     4.7420    -0.1100 H     1 <1>   0.4000 
 21 H        0.8610     1.9560    -1.0740 H     1 <1>   0.0800 
 22 H        1.8450     1.7340     0.3570 H     1 <1>   0.0800 
 23 H        1.7290     3.3110    -0.3900 H     1 <1>   0.0800 
 24 H       -0.5830     5.0970    -0.3150 H     1 <1>   0.0800 
 25 H       -1.2560     5.5070     1.2520 H     1 <1>   0.0800 
 26 H       -2.9090     6.9760     0.1530 H     1 <1>   0.0800 
 27 H       -2.2570     6.5450    -1.4140 H     1 <1>   0.0800 
 28 H       -0.7350     7.9910     0.7780 H     1 <1>   0.0800 
 29 H       -1.3830     8.7280    -0.6670 H     1 <1>   0.0800 
 30 H       -0.0850     7.5660    -0.7900 H     1 <1>   0.0800 
@<TRIPOS>BOND
  1   1   2  2   
  2   2   3  1   
  3   2   4  1   
  4   3   5  1   
  5   4   6  2   
  6   4   7  1   
  7   5   8  2   
  8   5   9  1   
  9   6   8  1   
 10   6  10  1   
 11   7  11  2   
 12   7  12  1   
 13   8  16  1   
 14   9  17  1   
 15   9  18  1   
 16   9  19  1   
 17  10  13  1   
 18  10  20  1   
 19  12  21  1   
 20  12  22  1   
 21  12  23  1   
 22  13  14  1   
 23  13  24  1   
 24  13  25  1   
 25  14  15  1   
 26  14  26  1   
 27  14  27  1   
 28  15  28  1   
 29  15  29  1   
 30  15  30  1   
@<TRIPOS>SUBSTRUCTURE
  1 ****   6 GROUP 4 **** **** 0

# MOE 2024.06 (io_trps.svl 2023.06)
