@<TRIPOS>MOLECULE
NONAME
38 39 1 0 0 
SMALL
USER_CHARGES


@<TRIPOS>ATOM
  1 CL      -2.0010     0.5850    -2.0380 Cl    1 <1>  -0.1770 
  2 C       -1.1640     1.7980    -1.0960 C.ar  1 <1>   0.1770 
  3 C       -1.5300     2.0390     0.2210 C.ar  1 <1>  -0.1440 
  4 C       -0.1440     2.5060    -1.7030 C.ar  1 <1>  -0.1500 
  5 C       -0.8530     3.0230     0.9260 C.ar  1 <1>  -0.1500 
  6 C       -2.6460     1.2580     0.8910 C.3   1 <1>   0.2840 
  7 C        0.5280     3.4820    -0.9870 C.ar  1 <1>  -0.1500 
  8 C        0.1700     3.7390     0.3260 C.ar  1 <1>  -0.1500 
  9 N       -3.9320     1.8910     0.5520 N.am  1 <1>  -0.7300 
 10 C       -4.8630     2.2830     1.4530 C.2   1 <1>   0.5690 
 11 O       -4.7220     2.1110     2.6380 O.2   1 <1>  -0.5700 
 12 C       -6.1190     2.9590     0.9430 C.3   1 <1>  -0.0990 
 13 C       -7.1030     1.9530     0.3210 C.3   1 <1>  -0.1600 
 14 C       -8.3550     2.6350    -0.2530 C.3   1 <1>  -0.0800 
 15 C       -9.2230     3.3330     0.7930 C.3   1 <1>  -0.1600 
 16 C       -9.3140     1.6420    -0.9030 C.3   1 <1>  -0.1600 
 17 C      -10.6240     3.4030     0.1790 C.3   1 <1>  -0.1600 
 18 C      -10.6530     2.3770    -0.9590 C.3   1 <1>  -0.1600 
 19 H        0.1190     2.2960    -2.7240 H     1 <1>   0.1500 
 20 H       -1.1250     3.2380     1.9470 H     1 <1>   0.1500 
 21 H       -2.5040     1.2550     1.9590 H     1 <1>   0.0800 
 22 H       -2.6500     0.2350     0.5570 H     1 <1>   0.0800 
 23 H        1.3240     4.0400    -1.4490 H     1 <1>   0.1500 
 24 H        0.6890     4.5000     0.8840 H     1 <1>   0.1500 
 25 H       -4.0750     2.0620    -0.4430 H     1 <1>   0.3700 
 26 H       -5.8420     3.7020     0.2180 H     1 <1>   0.0800 
 27 H       -6.5860     3.4630     1.7700 H     1 <1>   0.0800 
 28 H       -7.3910     1.2350     1.0700 H     1 <1>   0.0800 
 29 H       -6.6080     1.4170    -0.4700 H     1 <1>   0.0800 
 30 H       -8.0640     3.3580    -0.9980 H     1 <1>   0.0800 
 31 H       -8.8480     4.3120     1.0390 H     1 <1>   0.0800 
 32 H       -9.2620     2.7370     1.6890 H     1 <1>   0.0800 
 33 H       -9.4170     0.7710    -0.2770 H     1 <1>   0.0800 
 34 H       -8.9810     1.3370    -1.8800 H     1 <1>   0.0800 
 35 H      -10.8090     4.3870    -0.2150 H     1 <1>   0.0800 
 36 H      -11.3710     3.1800     0.9220 H     1 <1>   0.0800 
 37 H      -11.4770     1.6920    -0.8570 H     1 <1>   0.0800 
 38 H      -10.7420     2.8910    -1.9010 H     1 <1>   0.0800 
@<TRIPOS>BOND
  1   1   2  1   
  2   2   3  ar  
  3   2   4  ar  
  4   3   5  ar  
  5   3   6  1   
  6   4   7  ar  
  7   4  19  1   
  8   5   8  ar  
  9   5  20  1   
 10   6   9  1   
 11   6  21  1   
 12   6  22  1   
 13   7   8  ar  
 14   7  23  1   
 15   8  24  1   
 16   9  10  am  
 17   9  25  1   
 18  10  11  2   
 19  10  12  1   
 20  12  13  1   
 21  12  26  1   
 22  12  27  1   
 23  13  14  1   
 24  13  28  1   
 25  13  29  1   
 26  14  15  1   
 27  14  16  1   
 28  14  30  1   
 29  15  17  1   
 30  15  31  1   
 31  15  32  1   
 32  16  18  1   
 33  16  33  1   
 34  16  34  1   
 35  17  18  1   
 36  17  35  1   
 37  17  36  1   
 38  18  37  1   
 39  18  38  1   
@<TRIPOS>SUBSTRUCTURE
  1 ****   9 GROUP 4 **** **** 0

# MOE 2024.06 (io_trps.svl 2023.06)
