@<TRIPOS>MOLECULE
NONAME
43 45 1 0 0 
SMALL
USER_CHARGES


@<TRIPOS>ATOM
  1 CL       2.3770     2.7320     2.5980 Cl    1 <1>  -0.1770 
  2 C        1.1320     2.9860     1.4020 C.ar  1 <1>   0.1770 
  3 C        1.2650     2.4440     0.1230 C.ar  1 <1>   0.0860 
  4 C        0.0290     3.7310     1.7730 C.ar  1 <1>  -0.1500 
  5 C        2.4250     1.6740    -0.2610 C.2   1 <1>   0.5440 
  6 C        0.2260     2.6660    -0.7830 C.ar  1 <1>  -0.1500 
  7 C       -0.9740     3.9380     0.8470 C.ar  1 <1>   0.1770 
  8 O        2.3040     0.4710    -0.3910 O.2   1 <1>  -0.5700 
  9 N        3.6440     2.2670    -0.5250 N.am  1 <1>  -0.6600 
 10 C       -0.8870     3.4090    -0.4290 C.ar  1 <1>  -0.1500 
 11 CL      -2.3710     4.8770     1.2920 Cl    1 <1>  -0.1770 
 12 C        3.8360     3.7370    -0.6740 C.3   1 <1>   0.1400 
 13 C        4.8730     1.4500    -0.7260 C.3   1 <1>   0.1400 
 14 C        4.9440     4.2210     0.2630 C.3   1 <1>  -0.1600 
 15 C        5.9790     1.9310     0.2170 C.3   1 <1>  -0.1600 
 16 C        6.2540     3.4360     0.0470 C.3   1 <1>  -0.0190 
 17 C        7.3810     3.8990     0.9790 C.2   1 <1>   0.5690 
 18 O        7.0960     4.2840     2.0900 O.2   1 <1>  -0.5700 
 19 N        8.6840     3.8700     0.5580 N.am  1 <1>  -0.6600 
 20 C        9.7930     4.3040     1.4350 C.3   1 <1>   0.1400 
 21 C        9.1970     3.3870    -0.7430 C.3   1 <1>   0.1400 
 22 C       11.0270     4.2980     0.5400 C.3   1 <1>  -0.1600 
 23 C       10.7060     3.2810    -0.5510 C.3   1 <1>  -0.1600 
 24 H       -0.0490     4.1410     2.7630 H     1 <1>   0.1500 
 25 H        0.3000     2.2420    -1.7710 H     1 <1>   0.1500 
 26 H       -1.6850     3.5780    -1.1310 H     1 <1>   0.1500 
 27 H        2.9280     4.2720    -0.4590 H     1 <1>   0.0800 
 28 H        4.1080     3.9470    -1.6950 H     1 <1>   0.0800 
 29 H        5.1910     1.5430    -1.7500 H     1 <1>   0.0800 
 30 H        4.6750     0.4090    -0.5340 H     1 <1>   0.0800 
 31 H        4.6140     4.1070     1.2810 H     1 <1>   0.0800 
 32 H        5.1220     5.2690     0.0970 H     1 <1>   0.0800 
 33 H        6.8750     1.3700     0.0250 H     1 <1>   0.0800 
 34 H        5.6820     1.7310     1.2320 H     1 <1>   0.0800 
 35 H        6.5630     3.6130    -0.9660 H     1 <1>   0.0800 
 36 H        9.9010     3.5950     2.2380 H     1 <1>   0.0800 
 37 H        9.5990     5.2820     1.8430 H     1 <1>   0.0800 
 38 H        8.9700     4.1150    -1.5030 H     1 <1>   0.0800 
 39 H        8.7700     2.4340    -1.0050 H     1 <1>   0.0800 
 40 H       11.9170     4.0470     1.0890 H     1 <1>   0.0800 
 41 H       11.1470     5.2760     0.1070 H     1 <1>   0.0800 
 42 H       11.2420     3.4750    -1.4630 H     1 <1>   0.0800 
 43 H       10.9460     2.2900    -0.2070 H     1 <1>   0.0800 
@<TRIPOS>BOND
  1   1   2  1   
  2   2   3  ar  
  3   2   4  ar  
  4   3   5  1   
  5   3   6  ar  
  6   4   7  ar  
  7   4  24  1   
  8   5   8  2   
  9   5   9  am  
 10   6  10  ar  
 11   6  25  1   
 12   7  10  ar  
 13   7  11  1   
 14   9  12  1   
 15   9  13  1   
 16  10  26  1   
 17  12  14  1   
 18  12  27  1   
 19  12  28  1   
 20  13  15  1   
 21  13  29  1   
 22  13  30  1   
 23  14  16  1   
 24  14  31  1   
 25  14  32  1   
 26  15  16  1   
 27  15  33  1   
 28  15  34  1   
 29  16  17  1   
 30  16  35  1   
 31  17  18  2   
 32  17  19  am  
 33  19  20  1   
 34  19  21  1   
 35  20  22  1   
 36  20  36  1   
 37  20  37  1   
 38  21  23  1   
 39  21  38  1   
 40  21  39  1   
 41  22  23  1   
 42  22  40  1   
 43  22  41  1   
 44  23  42  1   
 45  23  43  1   
@<TRIPOS>SUBSTRUCTURE
  1 ****  14 GROUP 4 **** **** 0

# MOE 2024.06 (io_trps.svl 2023.06)
