@<TRIPOS>MOLECULE
NONAME
46 46 1 0 0 
SMALL
USER_CHARGES


@<TRIPOS>ATOM
  1 O        0.7120    -0.1210     0.1390 O.3   1 <1>  -0.3630 
  2 C       -0.5240    -0.6810     0.1340 C.ar  1 <1>   0.0830 
  3 C        1.8720    -0.9050     0.0160 C.3   1 <1>   0.1200 
  4 C       -1.5980     0.1840     0.2670 C.ar  1 <1>  -0.1500 
  5 C       -0.7560    -2.0480     0.0050 C.ar  1 <1>  -0.1500 
  6 C        3.0720     0.0430     0.0650 C.3   1 <1>  -0.1600 
  7 C       -2.8960    -0.2980     0.2750 C.ar  1 <1>  -0.1440 
  8 C       -2.0520    -2.5380     0.0080 C.ar  1 <1>  -0.1430 
  9 C        4.4040    -0.7090    -0.0610 C.3   1 <1>  -0.1600 
 10 C       -3.1150    -1.6590     0.1450 C.ar  1 <1>  -0.1500 
 11 C       -4.0720     0.6510     0.4200 C.3   1 <1>  -0.0970 
 12 C       -2.3110    -4.0270    -0.1310 C.3   1 <1>  -0.0970 
 13 C        5.5740     0.2710    -0.0070 C.3   1 <1>   0.3430 
 14 N        6.8480    -0.4830    -0.1300 N.4   1 <1>  -0.9060 
 15 C        8.0860     0.3010    -0.0980 C.3   1 <1>   0.5030 
 16 C        8.1060     1.2840    -1.2680 C.3   1 <1>  -0.2400 
 17 C        8.1990     1.0330     1.2380 C.3   1 <1>  -0.2400 
 18 C        9.2290    -0.6980    -0.2410 C.3   1 <1>  -0.2400 
 19 H        1.8270    -1.4280    -0.9240 H     1 <1>   0.0800 
 20 H        1.8950    -1.6040     0.8350 H     1 <1>   0.0800 
 21 H       -1.4040     1.2360     0.3640 H     1 <1>   0.1500 
 22 H        0.0550    -2.7410    -0.0980 H     1 <1>   0.1500 
 23 H        3.0420     0.5790     0.9990 H     1 <1>   0.0800 
 24 H        2.9760     0.7520    -0.7400 H     1 <1>   0.0800 
 25 H        4.4170    -1.2420    -0.9970 H     1 <1>   0.0800 
 26 H        4.4830    -1.4160     0.7480 H     1 <1>   0.0800 
 27 H       -4.1230    -2.0370     0.1500 H     1 <1>   0.1500 
 28 H       -3.7440     1.6120     0.7740 H     1 <1>   0.0800 
 29 H       -4.7820     0.2540     1.1230 H     1 <1>   0.0800 
 30 H       -4.5550     0.7780    -0.5310 H     1 <1>   0.0800 
 31 H       -1.5330    -4.4930    -0.7080 H     1 <1>   0.0800 
 32 H       -3.2490    -4.2000    -0.6260 H     1 <1>   0.0800 
 33 H       -2.3420    -4.4820     0.8430 H     1 <1>   0.0800 
 34 H        5.5490     0.8090     0.9270 H     1 <1>   0.0800 
 35 H        5.4830     0.9820    -0.8120 H     1 <1>   0.0800 
 36 H        6.8440    -1.0090    -1.0090 H     1 <1>   0.4500 
 37 H        6.9050    -1.1730     0.6250 H     1 <1>   0.4500 
 38 H        7.9760     0.7740    -2.2060 H     1 <1>   0.0800 
 39 H        9.0560     1.7890    -1.2990 H     1 <1>   0.0800 
 40 H        7.3490     2.0400    -1.1650 H     1 <1>   0.0800 
 41 H        7.4430     1.7900     1.3430 H     1 <1>   0.0800 
 42 H        9.1530     1.5290     1.2980 H     1 <1>   0.0800 
 43 H        8.1360     0.3480     2.0650 H     1 <1>   0.0800 
 44 H        9.1680    -1.2300    -1.1740 H     1 <1>   0.0800 
 45 H        9.2330    -1.4040     0.5710 H     1 <1>   0.0800 
 46 H       10.1720    -0.1800    -0.2240 H     1 <1>   0.0800 
@<TRIPOS>BOND
  1   1   2  1   
  2   1   3  1   
  3   2   4  ar  
  4   2   5  ar  
  5   3   6  1   
  6   3  19  1   
  7   3  20  1   
  8   4   7  ar  
  9   4  21  1   
 10   5   8  ar  
 11   5  22  1   
 12   6   9  1   
 13   6  23  1   
 14   6  24  1   
 15   7  10  ar  
 16   7  11  1   
 17   8  10  ar  
 18   8  12  1   
 19   9  13  1   
 20   9  25  1   
 21   9  26  1   
 22  10  27  1   
 23  11  28  1   
 24  11  29  1   
 25  11  30  1   
 26  12  31  1   
 27  12  32  1   
 28  12  33  1   
 29  13  14  1   
 30  13  34  1   
 31  13  35  1   
 32  14  15  1   
 33  14  36  1   
 34  14  37  1   
 35  15  16  1   
 36  15  17  1   
 37  15  18  1   
 38  16  38  1   
 39  16  39  1   
 40  16  40  1   
 41  17  41  1   
 42  17  42  1   
 43  17  43  1   
 44  18  44  1   
 45  18  45  1   
 46  18  46  1   
@<TRIPOS>SUBSTRUCTURE
  1 ****   3 GROUP 4 **** **** 0

# MOE 2024.06 (io_trps.svl 2023.06)
