@<TRIPOS>MOLECULE
NONAME
56 59 1 0 0 
SMALL
USER_CHARGES


@<TRIPOS>ATOM
  1 F       -0.7920     2.0880     2.1780 F     1 <1>  -0.1900 
  2 C       -1.6020     1.8910     1.1630 C.ar  1 <1>   0.1900 
  3 C       -1.2690     2.4100    -0.0950 C.ar  1 <1>   0.1000 
  4 C       -2.7570     1.1700     1.3950 C.ar  1 <1>  -0.1500 
  5 N       -0.1070     3.1470    -0.3680 N.pl3 1 <1>  -0.8380 
  6 C       -2.1640     2.1700    -1.1290 C.ar  1 <1>  -0.1500 
  7 C       -3.6280     0.9480     0.3410 C.ar  1 <1>  -0.1500 
  8 C        1.1620     2.3720    -0.2750 C.3   1 <1>   0.2090 
  9 C       -0.0480     4.4870     0.2780 C.3   1 <1>   0.2090 
 10 C       -3.3290     1.4480    -0.9160 C.ar  1 <1>  -0.1500 
 11 C        2.3550     3.2060    -0.7840 C.3   1 <1>   0.3430 
 12 C        1.1620     5.2940    -0.2380 C.3   1 <1>   0.3430 
 13 N        2.4860     4.5570    -0.0930 N.4   1 <1>  -0.9590 
 14 C        3.6650     5.3560    -0.5710 C.3   1 <1>   0.4230 
 15 C        4.9670     4.5600    -0.3860 C.3   1 <1>  -0.1600 
 16 C        3.7620     6.6870     0.1940 C.3   1 <1>  -0.1600 
 17 C        6.2010     5.3820    -0.7600 C.3   1 <1>   0.3430 
 18 C        5.0130     7.4830    -0.1850 C.3   1 <1>   0.3430 
 19 N        6.2250     6.6500     0.0220 N.4   1 <1>  -0.9590 
 20 C        7.4720     7.4290    -0.2620 C.3   1 <1>   0.4860 
 21 C        8.6540     6.6030     0.2000 C.ar  1 <1>  -0.1430 
 22 C        8.9250     6.4640     1.5550 C.ar  1 <1>  -0.1500 
 23 C        9.4710     5.9710    -0.7280 C.ar  1 <1>  -0.1500 
 24 C        9.9870     5.6840     1.9760 C.ar  1 <1>  -0.1500 
 25 C       10.5330     5.1920    -0.3040 C.ar  1 <1>  -0.1500 
 26 C       10.7890     5.0460     1.0470 C.ar  1 <1>  -0.1500 
 27 H       -2.9710     0.7900     2.3780 H     1 <1>   0.1500 
 28 H       -1.9440     2.5520    -2.1090 H     1 <1>   0.1500 
 29 H       -4.5350     0.3880     0.4980 H     1 <1>   0.1500 
 30 H        1.0710     1.4790    -0.8710 H     1 <1>   0.0800 
 31 H        1.3340     2.0690     0.7440 H     1 <1>   0.0800 
 32 H        0.0130     4.3780     1.3470 H     1 <1>   0.0800 
 33 H       -0.9560     5.0230     0.0550 H     1 <1>   0.0800 
 34 H       -4.0070     1.2750    -1.7340 H     1 <1>   0.1500 
 35 H        2.2260     3.3530    -1.8430 H     1 <1>   0.0800 
 36 H        3.2490     2.6240    -0.6370 H     1 <1>   0.0800 
 37 H        1.1910     6.2240     0.3030 H     1 <1>   0.0800 
 38 H        0.9860     5.5210    -1.2770 H     1 <1>   0.0800 
 39 H        2.5950     4.3560     0.9100 H     1 <1>   0.4500 
 40 H        3.5380     5.5700    -1.6210 H     1 <1>   0.0800 
 41 H        4.9710     3.6940    -1.0210 H     1 <1>   0.0800 
 42 H        5.0680     4.2310     0.6340 H     1 <1>   0.0800 
 43 H        3.7730     6.5110     1.2560 H     1 <1>   0.0800 
 44 H        2.9180     7.3110    -0.0340 H     1 <1>   0.0800 
 45 H        6.1900     5.6040    -1.8160 H     1 <1>   0.0800 
 46 H        7.0900     4.8030    -0.5520 H     1 <1>   0.0800 
 47 H        5.0710     8.3740     0.4220 H     1 <1>   0.0800 
 48 H        4.9530     7.7870    -1.2190 H     1 <1>   0.0800 
 49 H        6.3120     6.3990     1.0180 H     1 <1>   0.4500 
 50 H        7.4630     8.3640     0.2750 H     1 <1>   0.0800 
 51 H        7.5570     7.6400    -1.3160 H     1 <1>   0.0800 
 52 H        8.3270     6.9600     2.3010 H     1 <1>   0.1500 
 53 H        9.3010     6.0750    -1.7860 H     1 <1>   0.1500 
 54 H       10.1980     5.5740     3.0260 H     1 <1>   0.1500 
 55 H       11.1680     4.7010    -1.0230 H     1 <1>   0.1500 
 56 H       11.6180     4.4410     1.3760 H     1 <1>   0.1500 
@<TRIPOS>BOND
  1   1   2  1   
  2   2   3  ar  
  3   2   4  ar  
  4   3   5  1   
  5   3   6  ar  
  6   4   7  ar  
  7   4  27  1   
  8   5   8  1   
  9   5   9  1   
 10   6  10  ar  
 11   6  28  1   
 12   7  10  ar  
 13   7  29  1   
 14   8  11  1   
 15   8  30  1   
 16   8  31  1   
 17   9  12  1   
 18   9  32  1   
 19   9  33  1   
 20  10  34  1   
 21  11  13  1   
 22  11  35  1   
 23  11  36  1   
 24  12  13  1   
 25  12  37  1   
 26  12  38  1   
 27  13  14  1   
 28  13  39  1   
 29  14  15  1   
 30  14  16  1   
 31  14  40  1   
 32  15  17  1   
 33  15  41  1   
 34  15  42  1   
 35  16  18  1   
 36  16  43  1   
 37  16  44  1   
 38  17  19  1   
 39  17  45  1   
 40  17  46  1   
 41  18  19  1   
 42  18  47  1   
 43  18  48  1   
 44  19  20  1   
 45  19  49  1   
 46  20  21  1   
 47  20  50  1   
 48  20  51  1   
 49  21  22  ar  
 50  21  23  ar  
 51  22  24  ar  
 52  22  52  1   
 53  23  25  ar  
 54  23  53  1   
 55  24  26  ar  
 56  24  54  1   
 57  25  26  ar  
 58  25  55  1   
 59  26  56  1   
@<TRIPOS>SUBSTRUCTURE
  1 ****  13 GROUP 4 **** **** 0

# MOE 2024.06 (io_trps.svl 2023.06)
