@<TRIPOS>MOLECULE
NONAME
58 60 1 0 0 
SMALL
USER_CHARGES


@<TRIPOS>ATOM
  1 O        0.2600    -0.0130     0.2450 O.2   1 <1>  -0.5700 
  2 C        1.0350     0.7440    -0.2930 C.2   1 <1>   0.5690 
  3 N        0.7310     2.0490    -0.5940 N.am  1 <1>  -0.5470 
  4 C        2.4350     0.1770    -0.6400 C.3   1 <1>   0.4840 
  5 C       -0.4560     2.7710    -0.3760 C.ar  1 <1>   0.1170 
  6 N        2.5940    -1.2770    -0.3280 N.4   1 <1>  -0.9590 
  7 C        3.5600     0.8120     0.1720 C.3   1 <1>  -0.1600 
  8 C       -1.7090     2.1720    -0.3010 C.ar  1 <1>  -0.1500 
  9 C       -0.3730     4.1510    -0.2460 C.ar  1 <1>  -0.1500 
 10 C        4.0330    -1.5750    -0.1230 C.3   1 <1>   0.3430 
 11 C        1.8900    -2.1900    -1.2620 C.3   1 <1>   0.4860 
 12 C        4.6830    -0.2300     0.1900 C.3   1 <1>  -0.1600 
 13 C       -2.8600     2.9230    -0.0870 C.ar  1 <1>   0.0830 
 14 C       -1.5100     4.9120    -0.0500 C.ar  1 <1>  -0.1500 
 15 C        1.8800    -3.5660    -0.6330 C.ar  1 <1>  -0.1430 
 16 O       -4.0720     2.3090     0.0270 O.3   1 <1>  -0.3630 
 17 C       -2.7580     4.3180     0.0220 C.ar  1 <1>   0.0830 
 18 C        2.7880    -4.5310    -1.0430 C.ar  1 <1>  -0.1500 
 19 C        0.9690    -3.8640     0.3700 C.ar  1 <1>  -0.1500 
 20 C       -4.1660     1.0440     0.6460 C.3   1 <1>   0.0400 
 21 O       -3.8020     5.1760     0.2080 O.3   1 <1>  -0.3630 
 22 C        2.8090    -5.7830    -0.4530 C.ar  1 <1>   0.0830 
 23 C        0.9690    -5.1190     0.9550 C.ar  1 <1>  -0.1500 
 24 C       -5.0410     4.9320    -0.4230 C.3   1 <1>   0.0400 
 25 O        3.7690    -6.6350    -0.9000 O.3   1 <1>  -0.3630 
 26 C        1.8710    -6.0860     0.5430 C.ar  1 <1>   0.0830 
 27 C        4.4840    -7.4230     0.0300 C.3   1 <1>   0.0400 
 28 O        1.7880    -7.3030     1.1270 O.3   1 <1>  -0.3630 
 29 C        1.1050    -8.2840     0.3800 C.3   1 <1>   0.0400 
 30 H        1.4780     2.6320    -0.9730 H     1 <1>   0.3700 
 31 H        2.6270     0.3330    -1.6880 H     1 <1>   0.0800 
 32 H        2.1090    -1.4070     0.5740 H     1 <1>   0.4500 
 33 H        3.2170     0.9930     1.1780 H     1 <1>   0.0800 
 34 H        3.8820     1.7460    -0.2540 H     1 <1>   0.0800 
 35 H       -1.7880     1.1120    -0.4220 H     1 <1>   0.1500 
 36 H        0.5790     4.6460    -0.2940 H     1 <1>   0.1500 
 37 H        4.4660    -1.9910    -1.0190 H     1 <1>   0.0800 
 38 H        4.1650    -2.2760     0.6880 H     1 <1>   0.0800 
 39 H        2.3880    -2.2180    -2.2170 H     1 <1>   0.0800 
 40 H        0.8730    -1.8610    -1.4080 H     1 <1>   0.0800 
 41 H        5.1820    -0.2570     1.1440 H     1 <1>   0.0800 
 42 H        5.4170    -0.0110    -0.5670 H     1 <1>   0.0800 
 43 H       -1.4400     5.9810     0.0490 H     1 <1>   0.1500 
 44 H        3.5020    -4.3330    -1.8240 H     1 <1>   0.1500 
 45 H        0.2510    -3.1330     0.7050 H     1 <1>   0.1500 
 46 H       -5.1990     0.8650     0.8840 H     1 <1>   0.0800 
 47 H       -3.8160     0.2910    -0.0360 H     1 <1>   0.0800 
 48 H       -3.5790     1.0500     1.5480 H     1 <1>   0.0800 
 49 H        0.2630    -5.3610     1.7300 H     1 <1>   0.1500 
 50 H       -5.6000     4.2310     0.1700 H     1 <1>   0.0800 
 51 H       -5.5750     5.8620    -0.4830 H     1 <1>   0.0800 
 52 H       -4.8650     4.5410    -1.4090 H     1 <1>   0.0800 
 53 H        5.4220    -7.7000    -0.4160 H     1 <1>   0.0800 
 54 H        3.9170    -8.3080     0.2520 H     1 <1>   0.0800 
 55 H        4.6550    -6.8510     0.9240 H     1 <1>   0.0800 
 56 H        1.1290    -9.2060     0.9330 H     1 <1>   0.0800 
 57 H        1.5950    -8.4090    -0.5700 H     1 <1>   0.0800 
 58 H        0.0870    -7.9660     0.2370 H     1 <1>   0.0800 
@<TRIPOS>BOND
  1   1   2  2   
  2   2   3  am  
  3   2   4  1   
  4   3   5  1   
  5   3  30  1   
  6   4   6  1   
  7   4   7  1   
  8   4  31  1   
  9   5   8  ar  
 10   5   9  ar  
 11   6  10  1   
 12   6  11  1   
 13   6  32  1   
 14   7  12  1   
 15   7  33  1   
 16   7  34  1   
 17   8  13  ar  
 18   8  35  1   
 19   9  14  ar  
 20   9  36  1   
 21  10  12  1   
 22  10  37  1   
 23  10  38  1   
 24  11  15  1   
 25  11  39  1   
 26  11  40  1   
 27  12  41  1   
 28  12  42  1   
 29  13  16  1   
 30  13  17  ar  
 31  14  17  ar  
 32  14  43  1   
 33  15  18  ar  
 34  15  19  ar  
 35  16  20  1   
 36  17  21  1   
 37  18  22  ar  
 38  18  44  1   
 39  19  23  ar  
 40  19  45  1   
 41  20  46  1   
 42  20  47  1   
 43  20  48  1   
 44  21  24  1   
 45  22  25  1   
 46  22  26  ar  
 47  23  26  ar  
 48  23  49  1   
 49  24  50  1   
 50  24  51  1   
 51  24  52  1   
 52  25  27  1   
 53  26  28  1   
 54  27  53  1   
 55  27  54  1   
 56  27  55  1   
 57  28  29  1   
 58  29  56  1   
 59  29  57  1   
 60  29  58  1   
@<TRIPOS>SUBSTRUCTURE
  1 ****   1 GROUP 4 **** **** 0

# MOE 2024.06 (io_trps.svl 2023.06)
