@<TRIPOS>MOLECULE
NONAME
50 52 1 0 0 
SMALL
USER_CHARGES


@<TRIPOS>ATOM
  1 F       -4.1850    -0.6710    -1.3120 F     1 <1>  -0.1900 
  2 C       -4.1120     0.6230    -1.1580 C.ar  1 <1>   0.1900 
  3 C       -4.8550     1.4350    -1.9910 C.ar  1 <1>  -0.1500 
  4 C       -3.2960     1.1320    -0.1670 C.ar  1 <1>  -0.1500 
  5 C       -4.7820     2.8070    -1.8180 C.ar  1 <1>  -0.1500 
  6 C       -3.2300     2.5050     0.0000 C.ar  1 <1>  -0.1500 
  7 C       -3.9780     3.3470    -0.8180 C.ar  1 <1>  -0.1430 
  8 C       -3.9340     4.8500    -0.6090 C.3   1 <1>   0.4870 
  9 N       -5.2370     5.2540    -0.0260 N.4   1 <1>  -0.9590 
 10 C       -5.5410     6.7210    -0.0420 C.3   1 <1>   0.3430 
 11 C       -5.5220     4.6620     1.3230 C.3   1 <1>   0.3430 
 12 C       -7.0120     6.9720     0.3870 C.3   1 <1>   0.1100 
 13 C       -6.9870     4.9420     1.7330 C.3   1 <1>   0.1100 
 14 N       -7.7240     5.7050     0.6890 N.3   1 <1>  -0.8100 
 15 C       -9.1490     5.9330     1.0910 C.3   1 <1>   0.1710 
 16 C       -9.9640     4.6410     1.2250 C.2   1 <1>   0.5690 
 17 O      -10.7410     4.5220     2.1400 O.2   1 <1>  -0.5700 
 18 N       -9.7380     3.6510     0.3250 N.am  1 <1>  -0.7300 
 19 C      -10.2950     2.2930     0.3600 C.3   1 <1>   0.2200 
 20 C       -9.2270     1.3430     0.8870 C.3   1 <1>  -0.1600 
 21 C      -10.5010     1.8180    -1.0730 C.3   1 <1>  -0.1600 
 22 C       -8.2920     1.0750    -0.2980 C.3   1 <1>  -0.1600 
 23 C       -9.1250     1.3400    -1.5600 C.3   1 <1>  -0.1600 
 24 H       -5.4720     0.9960    -2.7560 H     1 <1>   0.1500 
 25 H       -2.7270     0.4620     0.4540 H     1 <1>   0.1500 
 26 H       -5.3560     3.4410    -2.4730 H     1 <1>   0.1500 
 27 H       -2.5920     2.9030     0.7720 H     1 <1>   0.1500 
 28 H       -3.7810     5.3390    -1.5570 H     1 <1>   0.0800 
 29 H       -3.1260     5.1160     0.0530 H     1 <1>   0.0800 
 30 H       -5.9810     4.8430    -0.6080 H     1 <1>   0.4500 
 31 H       -5.3940     7.1190    -1.0330 H     1 <1>   0.0800 
 32 H       -4.8780     7.2460     0.6270 H     1 <1>   0.0800 
 33 H       -4.8550     5.0740     2.0620 H     1 <1>   0.0800 
 34 H       -5.3690     3.5950     1.2990 H     1 <1>   0.0800 
 35 H       -7.5240     7.4890    -0.4070 H     1 <1>   0.0800 
 36 H       -7.0250     7.6150     1.2520 H     1 <1>   0.0800 
 37 H       -6.9970     5.4860     2.6630 H     1 <1>   0.0800 
 38 H       -7.4740     3.9980     1.9120 H     1 <1>   0.0800 
 39 H       -9.6370     6.5420     0.3510 H     1 <1>   0.0800 
 40 H       -9.1880     6.4580     2.0290 H     1 <1>   0.0800 
 41 H       -9.0230     3.8030    -0.3840 H     1 <1>   0.3700 
 42 H      -11.2010     2.2670     0.9460 H     1 <1>   0.0800 
 43 H       -9.7040     0.4210     1.1700 H     1 <1>   0.0800 
 44 H       -8.7160     1.7390     1.7460 H     1 <1>   0.0800 
 45 H      -10.9260     2.5830    -1.7000 H     1 <1>   0.0800 
 46 H      -11.1750     0.9790    -1.0570 H     1 <1>   0.0800 
 47 H       -7.9200     0.0640    -0.2760 H     1 <1>   0.0800 
 48 H       -7.4560     1.7520    -0.2660 H     1 <1>   0.0800 
 49 H       -8.6570     2.1040    -2.1550 H     1 <1>   0.0800 
 50 H       -9.2250     0.4490    -2.1560 H     1 <1>   0.0800 
@<TRIPOS>BOND
  1   1   2  1   
  2   2   3  ar  
  3   2   4  ar  
  4   3   5  ar  
  5   3  24  1   
  6   4   6  ar  
  7   4  25  1   
  8   5   7  ar  
  9   5  26  1   
 10   6   7  ar  
 11   6  27  1   
 12   7   8  1   
 13   8   9  1   
 14   8  28  1   
 15   8  29  1   
 16   9  10  1   
 17   9  11  1   
 18   9  30  1   
 19  10  12  1   
 20  10  31  1   
 21  10  32  1   
 22  11  13  1   
 23  11  33  1   
 24  11  34  1   
 25  12  14  1   
 26  12  35  1   
 27  12  36  1   
 28  13  14  1   
 29  13  37  1   
 30  13  38  1   
 31  14  15  1   
 32  15  16  1   
 33  15  39  1   
 34  15  40  1   
 35  16  17  2   
 36  16  18  am  
 37  18  19  1   
 38  18  41  1   
 39  19  20  1   
 40  19  21  1   
 41  19  42  1   
 42  20  22  1   
 43  20  43  1   
 44  20  44  1   
 45  21  23  1   
 46  21  45  1   
 47  21  46  1   
 48  22  23  1   
 49  22  47  1   
 50  22  48  1   
 51  23  49  1   
 52  23  50  1   
@<TRIPOS>SUBSTRUCTURE
  1 ****  11 GROUP 4 **** **** 0

# MOE 2024.06 (io_trps.svl 2023.06)
