@<TRIPOS>MOLECULE
NONAME
33 34 1 0 0 
SMALL
USER_CHARGES


@<TRIPOS>ATOM
  1 CL      -0.0870    -0.3220    -1.6570 Cl    1 <1>  -0.1770 
  2 C       -1.3630    -1.0030    -0.6750 C.ar  1 <1>   0.1770 
  3 C       -1.0910    -1.9670     0.3050 C.ar  1 <1>   0.0860 
  4 C       -2.6410    -0.5310    -0.9100 C.ar  1 <1>  -0.1500 
  5 C        0.2350    -2.4880     0.5680 C.2   1 <1>   0.5440 
  6 C       -2.1740    -2.4300     1.0620 C.ar  1 <1>  -0.1500 
  7 C       -3.6730    -1.0280    -0.1420 C.ar  1 <1>   0.1900 
  8 O        0.5930    -2.6780     1.7130 O.2   1 <1>  -0.5700 
  9 N        1.0930    -2.8040    -0.4460 N.am  1 <1>  -0.7300 
 10 C       -3.4620    -1.9710     0.8460 C.ar  1 <1>  -0.1500 
 11 F       -4.8830    -0.5940    -0.3520 F     1 <1>  -0.1900 
 12 C        2.4810    -3.2940    -0.2840 C.3   1 <1>   0.2200 
 13 C        3.4850    -2.1320    -0.4630 C.3   1 <1>   0.2000 
 14 C        2.6880    -4.4100    -1.3080 C.3   1 <1>  -0.2400 
 15 O        4.8020    -2.5940    -0.3690 O.3   1 <1>  -0.5600 
 16 C        3.3660    -1.0260     0.5810 C.3   1 <1>  -0.1600 
 17 C        5.6220    -1.7030     0.3240 C.3   1 <1>   0.1200 
 18 C        4.7750    -0.4760     0.6330 C.3   1 <1>  -0.1600 
 19 H       -2.8300     0.2080    -1.6670 H     1 <1>   0.1500 
 20 H       -1.9920    -3.1630     1.8320 H     1 <1>   0.1500 
 21 H        0.8340    -2.5720    -1.4060 H     1 <1>   0.3700 
 22 H       -4.2900    -2.3340     1.4300 H     1 <1>   0.1500 
 23 H        2.6020    -3.6980     0.7070 H     1 <1>   0.0800 
 24 H        3.3820    -1.7110    -1.4480 H     1 <1>   0.0800 
 25 H        2.6030    -4.0300    -2.3100 H     1 <1>   0.0800 
 26 H        1.9670    -5.1920    -1.1540 H     1 <1>   0.0800 
 27 H        3.6700    -4.8310    -1.1880 H     1 <1>   0.0800 
 28 H        3.0950    -1.4510     1.5320 H     1 <1>   0.0800 
 29 H        2.6360    -0.2870     0.3030 H     1 <1>   0.0800 
 30 H        6.4780    -1.4660    -0.2840 H     1 <1>   0.0800 
 31 H        5.9370    -2.1910     1.2300 H     1 <1>   0.0800 
 32 H        5.0180    -0.0470     1.5880 H     1 <1>   0.0800 
 33 H        4.9200     0.2610    -0.1380 H     1 <1>   0.0800 
@<TRIPOS>BOND
  1   1   2  1   
  2   2   3  ar  
  3   2   4  ar  
  4   3   5  1   
  5   3   6  ar  
  6   4   7  ar  
  7   4  19  1   
  8   5   8  2   
  9   5   9  am  
 10   6  10  ar  
 11   6  20  1   
 12   7  10  ar  
 13   7  11  1   
 14   9  12  1   
 15   9  21  1   
 16  10  22  1   
 17  12  13  1   
 18  12  14  1   
 19  12  23  1   
 20  13  15  1   
 21  13  16  1   
 22  13  24  1   
 23  14  25  1   
 24  14  26  1   
 25  14  27  1   
 26  15  17  1   
 27  16  18  1   
 28  16  28  1   
 29  16  29  1   
 30  17  18  1   
 31  17  30  1   
 32  17  31  1   
 33  18  32  1   
 34  18  33  1   
@<TRIPOS>SUBSTRUCTURE
  1 ****   5 GROUP 4 **** **** 0

# MOE 2024.06 (io_trps.svl 2023.06)
