@<TRIPOS>MOLECULE
NONAME
36 39 1 0 0 
SMALL
USER_CHARGES


@<TRIPOS>ATOM
  1 S       -0.2280    -0.7770    -0.4610 S.3   1 <1>  -0.0800 
  2 C        1.1580     0.2640    -0.1520 C.2   1 <1>   0.1660 
  3 C       -1.3340     0.5620    -0.1780 C.2   1 <1>  -0.1400 
  4 N        2.4420    -0.1890    -0.2150 N.2   1 <1>  -0.5760 
  5 C        0.7560     1.5350     0.1480 C.2   1 <1>  -0.0010 
  6 C       -0.6710     1.6850     0.1350 C.2   1 <1>  -0.1810 
  7 C       -2.8270     0.3690    -0.2960 C.3   1 <1>   0.5230 
  8 C        3.3310     0.7160     0.0420 C.2   1 <1>   0.6000 
  9 C        1.7790     2.4850     0.4160 C.2   1 <1>   0.1870 
 10 C       -1.4110     2.9750     0.4400 C.3   1 <1>   0.0210 
 11 N       -3.4520     1.7320    -0.4050 N.4   1 <1>  -0.9590 
 12 S        5.0650     0.2790     0.0020 S.3   1 <1>  -0.3710 
 13 N        3.0550     2.0480     0.3560 N.pl3 1 <1>   0.2940 
 14 N        1.7230     3.7510     0.7200 N.2   1 <1>  -0.3380 
 15 C       -2.9170     2.6960     0.6290 C.3   1 <1>   0.3430 
 16 C       -4.9430     1.6510    -0.3650 C.3   1 <1>   0.2630 
 17 C        5.1120    -1.5340    -0.3630 C.3   1 <1>   0.0700 
 18 C        3.7470     3.1530     0.6510 C.2   1 <1>   0.0370 
 19 N        2.9780     4.1660     0.8680 N.2   1 <1>  -0.3380 
 20 C        4.8990    -2.2920     0.9460 C.3   1 <1>  -0.2400 
 21 H       -3.1920    -0.1510     0.5750 H     1 <1>   0.0800 
 22 H       -3.0510    -0.2160    -1.1730 H     1 <1>   0.0800 
 23 H       -1.2600     3.6770    -0.3610 H     1 <1>   0.0800 
 24 H       -1.0230     3.4190     1.3410 H     1 <1>   0.0800 
 25 H       -3.1570     2.0950    -1.3230 H     1 <1>   0.4500 
 26 H       -3.4530     3.6300     0.5790 H     1 <1>   0.0800 
 27 H       -3.0680     2.2780     1.6110 H     1 <1>   0.0800 
 28 H       -5.2740     1.2670     0.5860 H     1 <1>   0.0800 
 29 H       -5.3050     1.0000    -1.1450 H     1 <1>   0.0800 
 30 H       -5.3740     2.6290    -0.5100 H     1 <1>   0.0800 
 31 H        6.0800    -1.7460    -0.7820 H     1 <1>   0.0800 
 32 H        4.3460    -1.7530    -1.0880 H     1 <1>   0.0800 
 33 H        4.8210     3.1710     0.6950 H     1 <1>   0.1500 
 34 H        5.6580    -2.0240     1.6590 H     1 <1>   0.0800 
 35 H        4.9540    -3.3500     0.7670 H     1 <1>   0.0800 
 36 H        3.9320    -2.0670     1.3580 H     1 <1>   0.0800 
@<TRIPOS>BOND
  1   1   2  1   
  2   1   3  1   
  3   2   4  1   
  4   2   5  2   
  5   3   6  2   
  6   3   7  1   
  7   4   8  2   
  8   5   6  1   
  9   5   9  1   
 10   6  10  1   
 11   7  11  1   
 12   7  21  1   
 13   7  22  1   
 14   8  12  1   
 15   8  13  1   
 16   9  13  1   
 17   9  14  2   
 18  10  15  1   
 19  10  23  1   
 20  10  24  1   
 21  11  15  1   
 22  11  16  1   
 23  11  25  1   
 24  12  17  1   
 25  13  18  1   
 26  14  19  1   
 27  15  26  1   
 28  15  27  1   
 29  16  28  1   
 30  16  29  1   
 31  16  30  1   
 32  17  20  1   
 33  17  31  1   
 34  17  32  1   
 35  18  19  2   
 36  18  33  1   
 37  20  34  1   
 38  20  35  1   
 39  20  36  1   
@<TRIPOS>SUBSTRUCTURE
  1 ****   5 GROUP 4 **** **** 0

# MOE 2024.06 (io_trps.svl 2023.06)
