@<TRIPOS>MOLECULE
Structure2248
31 32 1 0 0 
SMALL
USER_CHARGES


@<TRIPOS>ATOM
  1 F        1.3430     0.7740     0.0850 F     1 <1>  -0.3400 
  2 C        1.2230    -0.1910     0.9870 C.3   1 <1>   1.1640 
  3 F        0.1210     0.0830     1.6750 F     1 <1>  -0.3400 
  4 F        2.2180    -0.0080     1.8470 F     1 <1>  -0.3400 
  5 C        1.2160    -1.5940     0.3290 C.ar  1 <1>  -0.1440 
  6 C        0.1080    -2.2330    -0.2690 C.ar  1 <1>  -0.1440 
  7 C        2.4440    -2.2620     0.3280 C.ar  1 <1>  -0.1500 
  8 C        0.2910    -3.5050    -0.8080 C.ar  1 <1>  -0.1500 
  9 C       -1.3350    -1.7040    -0.4100 C.3   1 <1>   0.0640 
 10 C        2.5960    -3.5190    -0.2180 C.ar  1 <1>  -0.1500 
 11 C        1.5120    -4.1450    -0.7870 C.ar  1 <1>  -0.1500 
 12 C       -1.4920    -0.2900    -1.0000 C.3   1 <1>  -0.1600 
 13 C       -2.1530    -1.9050     0.8790 C.3   1 <1>  -0.1600 
 14 C       -2.9640     0.0960    -1.1280 C.3   1 <1>   0.3430 
 15 C       -3.5980    -1.4320     0.7180 C.3   1 <1>   0.3430 
 16 N       -3.6160    -0.0360     0.2030 N.4   1 <1>  -0.9060 
 17 H        3.3230    -1.8100     0.7580 H     1 <1>   0.1500 
 18 H       -0.5250    -4.0390    -1.2650 H     1 <1>   0.1500 
 19 H       -1.8170    -2.3330    -1.1400 H     1 <1>   0.0800 
 20 H        3.5550    -4.0080    -0.2000 H     1 <1>   0.1500 
 21 H        1.6200    -5.1280    -1.2130 H     1 <1>   0.1500 
 22 H       -1.0320    -0.2610    -1.9730 H     1 <1>   0.0800 
 23 H       -1.0220     0.4610    -0.4050 H     1 <1>   0.0800 
 24 H       -1.7130    -1.4000     1.7140 H     1 <1>   0.0800 
 25 H       -2.1600    -2.9530     1.1250 H     1 <1>   0.0800 
 26 H       -3.4500    -0.5510    -1.8420 H     1 <1>   0.0800 
 27 H       -3.0410     1.1120    -1.4820 H     1 <1>   0.0800 
 28 H       -4.1030    -1.4850     1.6700 H     1 <1>   0.0800 
 29 H       -4.1130    -2.0800     0.0270 H     1 <1>   0.0800 
 30 H       -4.5850     0.3040     0.1520 H     1 <1>   0.4500 
 31 H       -3.1220     0.5680     0.8740 H     1 <1>   0.4500 
@<TRIPOS>BOND
  1   1   2  1   
  2   2   3  1   
  3   2   4  1   
  4   2   5  1   
  5   5   6  ar  
  6   5   7  ar  
  7   6   8  ar  
  8   6   9  1   
  9   7  10  ar  
 10   7  17  1   
 11   8  11  ar  
 12   8  18  1   
 13   9  12  1   
 14   9  13  1   
 15   9  19  1   
 16  10  11  ar  
 17  10  20  1   
 18  11  21  1   
 19  12  14  1   
 20  12  22  1   
 21  12  23  1   
 22  13  15  1   
 23  13  24  1   
 24  13  25  1   
 25  14  16  1   
 26  14  26  1   
 27  14  27  1   
 28  15  16  1   
 29  15  28  1   
 30  15  29  1   
 31  16  30  1   
 32  16  31  1   
@<TRIPOS>SUBSTRUCTURE
  1 ****   6 GROUP 4 **** **** 0

# MOE 2024.06 (io_trps.svl 2023.06)
