@<TRIPOS>MOLECULE
NONAME
48 50 1 0 0 
SMALL
USER_CHARGES


@<TRIPOS>ATOM
  1 O       -0.5550     0.4580     0.4970 O.2   1 <1>  -0.5700 
  2 C       -0.9970     1.4100    -0.0990 C.2   1 <1>   0.5690 
  3 N       -2.2700     1.3800    -0.6150 N.am  1 <1>  -0.6600 
  4 C       -0.1400     2.6550    -0.2380 C.3   1 <1>  -0.0990 
  5 C       -3.0840     0.1280    -0.5640 C.3   1 <1>   0.1400 
  6 C       -3.0450     2.5780    -1.0550 C.3   1 <1>   0.1400 
  7 C        1.3120     2.4250     0.1710 C.3   1 <1>   0.1200 
  8 C       -4.2910     0.3220     0.3700 C.3   1 <1>   0.3430 
  9 C       -4.2720     2.7750    -0.1420 C.3   1 <1>   0.3430 
 10 O        1.9780     3.6330     0.0120 O.3   1 <1>  -0.5600 
 11 N       -5.1140     1.5250    -0.0170 N.4   1 <1>  -0.9590 
 12 C        3.3210     3.5810     0.3550 C.3   1 <1>   0.1200 
 13 C       -6.2490     1.7250     0.9260 C.3   1 <1>   0.4860 
 14 C        3.9060     4.9700     0.1290 C.3   1 <1>  -0.2400 
 15 C       -7.1260     2.8410     0.3940 C.ar  1 <1>  -0.1440 
 16 C       -7.0270     4.1160     0.9450 C.ar  1 <1>  -0.1500 
 17 C       -8.0210     2.5980    -0.6500 C.ar  1 <1>  -0.1500 
 18 C       -7.8160     5.1160     0.4150 C.ar  1 <1>   0.0820 
 19 C       -8.8110     3.6200    -1.1630 C.ar  1 <1>  -0.1500 
 20 O       -7.8690     6.4010     0.7760 O.3   1 <1>  -0.3620 
 21 C       -8.6830     4.8770    -0.6090 C.ar  1 <1>   0.0820 
 22 C       -8.8510     7.0180    -0.0570 C.3   1 <1>   0.4000 
 23 O       -9.3260     6.0010    -0.9370 O.3   1 <1>  -0.3620 
 24 H       -0.5490     3.4270     0.3850 H     1 <1>   0.0800 
 25 H       -0.1550     2.9740    -1.2630 H     1 <1>   0.0800 
 26 H       -2.4930    -0.7010    -0.2100 H     1 <1>   0.0800 
 27 H       -3.4200    -0.1210    -1.5560 H     1 <1>   0.0800 
 28 H       -3.3660     2.4410    -2.0740 H     1 <1>   0.0800 
 29 H       -2.4420     3.4670    -1.0240 H     1 <1>   0.0800 
 30 H        1.7740     1.6830    -0.4590 H     1 <1>   0.0800 
 31 H        1.3760     2.1230     1.2030 H     1 <1>   0.0800 
 32 H       -3.9180     0.4420     1.3740 H     1 <1>   0.0800 
 33 H       -4.9000    -0.5660     0.3460 H     1 <1>   0.0800 
 34 H       -4.8710     3.5820    -0.5340 H     1 <1>   0.0800 
 35 H       -3.9220     3.0720     0.8330 H     1 <1>   0.0800 
 36 H       -5.5280     1.3530    -0.9410 H     1 <1>   0.4500 
 37 H        3.8130     2.8550    -0.2700 H     1 <1>   0.0800 
 38 H        3.4070     3.2960     1.3900 H     1 <1>   0.0800 
 39 H       -5.8800     1.9830     1.9060 H     1 <1>   0.0800 
 40 H       -6.8320     0.8220     1.0070 H     1 <1>   0.0800 
 41 H        3.8040     5.2490    -0.9040 H     1 <1>   0.0800 
 42 H        4.9500     4.9710     0.3850 H     1 <1>   0.0800 
 43 H        3.3990     5.6880     0.7480 H     1 <1>   0.0800 
 44 H       -6.3650     4.3520     1.7600 H     1 <1>   0.1500 
 45 H       -8.1220     1.6140    -1.0760 H     1 <1>   0.1500 
 46 H       -9.5090     3.4560    -1.9660 H     1 <1>   0.1500 
 47 H       -8.3980     7.8090    -0.6280 H     1 <1>   0.0800 
 48 H       -9.6640     7.3790     0.5490 H     1 <1>   0.0800 
@<TRIPOS>BOND
  1   1   2  2   
  2   2   3  am  
  3   2   4  1   
  4   3   5  1   
  5   3   6  1   
  6   4   7  1   
  7   4  24  1   
  8   4  25  1   
  9   5   8  1   
 10   5  26  1   
 11   5  27  1   
 12   6   9  1   
 13   6  28  1   
 14   6  29  1   
 15   7  10  1   
 16   7  30  1   
 17   7  31  1   
 18   8  11  1   
 19   8  32  1   
 20   8  33  1   
 21   9  11  1   
 22   9  34  1   
 23   9  35  1   
 24  10  12  1   
 25  11  13  1   
 26  11  36  1   
 27  12  14  1   
 28  12  37  1   
 29  12  38  1   
 30  13  15  1   
 31  13  39  1   
 32  13  40  1   
 33  14  41  1   
 34  14  42  1   
 35  14  43  1   
 36  15  16  ar  
 37  15  17  ar  
 38  16  18  ar  
 39  16  44  1   
 40  17  19  ar  
 41  17  45  1   
 42  18  20  1   
 43  18  21  ar  
 44  19  21  ar  
 45  19  46  1   
 46  20  22  1   
 47  21  23  1   
 48  22  23  1   
 49  22  47  1   
 50  22  48  1   
@<TRIPOS>SUBSTRUCTURE
  1 ****   9 GROUP 4 **** **** 0

# MOE 2024.06 (io_trps.svl 2023.06)
