@<TRIPOS>MOLECULE
NONAME
40 41 1 0 0 
SMALL
USER_CHARGES


@<TRIPOS>ATOM
  1 O       -2.3610     3.5270     0.8930 O.3   1 <1>  -0.5600 
  2 C       -2.5490     4.8360     0.4270 C.3   1 <1>   0.1200 
  3 C       -2.6650     2.5330    -0.0480 C.3   1 <1>   0.1200 
  4 C       -4.0010     5.0560    -0.0600 C.3   1 <1>   0.3430 
  5 C       -4.1370     2.6350    -0.5110 C.3   1 <1>   0.3430 
  6 N       -4.8330     3.8160     0.1120 N.4   1 <1>  -0.9590 
  7 C       -6.2430     4.0040    -0.3250 C.3   1 <1>   0.3430 
  8 C       -7.1100     2.8470     0.1680 C.3   1 <1>  -0.1600 
  9 C       -8.5820     3.0860    -0.1680 C.3   1 <1>   0.1200 
 10 O       -9.2960     1.9670     0.2920 O.3   1 <1>  -0.3630 
 11 C      -10.6370     1.8650     0.1200 C.ar  1 <1>   0.0820 
 12 C      -11.2370     0.7030     0.5780 C.ar  1 <1>  -0.1500 
 13 C      -11.4220     2.8460    -0.4800 C.ar  1 <1>  -0.1500 
 14 C      -12.6010     0.5140     0.4400 C.ar  1 <1>  -0.1500 
 15 C      -12.7860     2.6540    -0.6160 C.ar  1 <1>  -0.1500 
 16 C      -13.3840     1.4890    -0.1600 C.ar  1 <1>  -0.1440 
 17 C      -14.8810     1.2870    -0.3180 C.3   1 <1>   0.2640 
 18 O      -15.5150     2.1470     0.5550 O.3   1 <1>  -0.6800 
 19 H       -1.8470     5.0240    -0.3680 H     1 <1>   0.0800 
 20 H       -2.3250     5.5070     1.2380 H     1 <1>   0.0800 
 21 H       -2.4860     1.5770     0.4140 H     1 <1>   0.0800 
 22 H       -1.9930     2.6320    -0.8840 H     1 <1>   0.0800 
 23 H       -3.9800     5.3430    -1.0980 H     1 <1>   0.0800 
 24 H       -4.4350     5.8720     0.4940 H     1 <1>   0.0800 
 25 H       -4.6460     1.7230    -0.2430 H     1 <1>   0.0800 
 26 H       -4.1610     2.7140    -1.5850 H     1 <1>   0.0800 
 27 H       -4.8130     3.6260     1.1270 H     1 <1>   0.4500 
 28 H       -6.2920     4.0680    -1.4000 H     1 <1>   0.0800 
 29 H       -6.6260     4.9240     0.0860 H     1 <1>   0.0800 
 30 H       -7.0180     2.7540     1.2360 H     1 <1>   0.0800 
 31 H       -6.8070     1.9290    -0.3020 H     1 <1>   0.0800 
 32 H       -8.7330     3.1660    -1.2310 H     1 <1>   0.0800 
 33 H       -8.9630     3.9580     0.3350 H     1 <1>   0.0800 
 34 H      -10.6310    -0.0530     1.0430 H     1 <1>   0.1500 
 35 H      -10.9980     3.7610    -0.8450 H     1 <1>   0.1500 
 36 H      -13.0470    -0.3960     0.8030 H     1 <1>   0.1500 
 37 H      -13.3900     3.4170    -1.0780 H     1 <1>   0.1500 
 38 H      -15.1690     0.2800    -0.0690 H     1 <1>   0.0800 
 39 H      -15.2060     1.5170    -1.3180 H     1 <1>   0.0800 
 40 H      -14.9730     2.2220     1.3640 H     1 <1>   0.4000 
@<TRIPOS>BOND
  1   1   2  1   
  2   1   3  1   
  3   2   4  1   
  4   2  19  1   
  5   2  20  1   
  6   3   5  1   
  7   3  21  1   
  8   3  22  1   
  9   4   6  1   
 10   4  23  1   
 11   4  24  1   
 12   5   6  1   
 13   5  25  1   
 14   5  26  1   
 15   6   7  1   
 16   6  27  1   
 17   7   8  1   
 18   7  28  1   
 19   7  29  1   
 20   8   9  1   
 21   8  30  1   
 22   8  31  1   
 23   9  10  1   
 24   9  32  1   
 25   9  33  1   
 26  10  11  1   
 27  11  12  ar  
 28  11  13  ar  
 29  12  14  ar  
 30  12  34  1   
 31  13  15  ar  
 32  13  35  1   
 33  14  16  ar  
 34  14  36  1   
 35  15  16  ar  
 36  15  37  1   
 37  16  17  1   
 38  17  18  1   
 39  17  38  1   
 40  17  39  1   
 41  18  40  1   
@<TRIPOS>SUBSTRUCTURE
  1 ****   9 GROUP 4 **** **** 0

# MOE 2024.06 (io_trps.svl 2023.06)
