@<TRIPOS>MOLECULE
NONAME
33 33 1 0 0 
SMALL
USER_CHARGES


@<TRIPOS>ATOM
  1 CL      -0.6730     0.1550     0.7850 Cl    1 <1>  -0.1770 
  2 C       -2.1190     0.8900     0.1440 C.ar  1 <1>   0.1770 
  3 C       -3.3400     0.2830     0.3610 C.ar  1 <1>  -0.1500 
  4 C       -2.0160     2.0670    -0.5720 C.ar  1 <1>  -0.1500 
  5 C       -4.5100     0.8460    -0.1470 C.ar  1 <1>   0.0860 
  6 C       -3.1670     2.6480    -1.0740 C.ar  1 <1>  -0.1500 
  7 C       -5.7930     0.2050     0.0640 C.2   1 <1>   0.5440 
  8 C       -4.3950     2.0440    -0.8590 C.ar  1 <1>  -0.1500 
  9 O       -6.0270    -0.3860     1.1060 O.2   1 <1>  -0.5700 
 10 N       -6.7490     0.2300    -0.9120 N.am  1 <1>  -0.4300 
 11 N       -8.1720    -0.0820    -0.7030 N.am  1 <1>  -0.4300 
 12 C       -9.1500     0.8200    -0.4370 C.2   1 <1>   0.7800 
 13 O       -8.9790     2.0220    -0.5530 O.2   1 <1>  -0.5700 
 14 O      -10.3230     0.3070    -0.0600 O.3   1 <1>  -0.4300 
 15 C      -11.4870     1.0230     0.2960 C.3   1 <1>   0.2800 
 16 C      -12.5160    -0.0460     0.6640 C.3   1 <1>  -0.2400 
 17 C      -11.2140     1.9040     1.5210 C.3   1 <1>  -0.2400 
 18 C      -12.0020     1.8300    -0.9020 C.3   1 <1>  -0.2400 
 19 H       -3.3870    -0.6300     0.9280 H     1 <1>   0.1500 
 20 H       -1.0520     2.5190    -0.7260 H     1 <1>   0.1500 
 21 H       -3.1060     3.5710    -1.6270 H     1 <1>   0.1500 
 22 H       -5.2830     2.5200    -1.2420 H     1 <1>   0.1500 
 23 H       -6.5110     0.6190    -1.8290 H     1 <1>   0.3700 
 24 H       -8.4040    -1.0630    -0.5340 H     1 <1>   0.3700 
 25 H      -12.1610    -0.6380     1.4880 H     1 <1>   0.0800 
 26 H      -12.7040    -0.6890    -0.1770 H     1 <1>   0.0800 
 27 H      -13.4450     0.4130     0.9520 H     1 <1>   0.0800 
 28 H      -10.7860     1.3190     2.3150 H     1 <1>   0.0800 
 29 H      -12.1320     2.3360     1.8740 H     1 <1>   0.0800 
 30 H      -10.5480     2.7120     1.2800 H     1 <1>   0.0800 
 31 H      -12.1140     1.1940    -1.7610 H     1 <1>   0.0800 
 32 H      -11.3360     2.6380    -1.1430 H     1 <1>   0.0800 
 33 H      -12.9590     2.2590    -0.6690 H     1 <1>   0.0800 
@<TRIPOS>BOND
  1   1   2  1   
  2   2   3  ar  
  3   2   4  ar  
  4   3   5  ar  
  5   3  19  1   
  6   4   6  ar  
  7   4  20  1   
  8   5   7  1   
  9   5   8  ar  
 10   6   8  ar  
 11   6  21  1   
 12   7   9  2   
 13   7  10  am  
 14   8  22  1   
 15  10  11  1   
 16  10  23  1   
 17  11  12  am  
 18  11  24  1   
 19  12  13  2   
 20  12  14  1   
 21  14  15  1   
 22  15  16  1   
 23  15  17  1   
 24  15  18  1   
 25  16  25  1   
 26  16  26  1   
 27  16  27  1   
 28  17  28  1   
 29  17  29  1   
 30  17  30  1   
 31  18  31  1   
 32  18  32  1   
 33  18  33  1   
@<TRIPOS>SUBSTRUCTURE
  1 ****  10 GROUP 4 **** **** 0

# MOE 2024.06 (io_trps.svl 2023.06)
