@<TRIPOS>MOLECULE
NONAME
34 35 1 0 0 
SMALL
USER_CHARGES


@<TRIPOS>ATOM
  1 S       -0.5770    -0.0400     0.5270 S.3   1 <1>  -0.0800 
  2 C        0.6810     0.4100    -0.5830 C.2   1 <1>   0.4420 
  3 C       -1.7010     0.6810    -0.5730 C.2   1 <1>   0.1980 
  4 N        0.2210     1.0180    -1.6150 N.2   1 <1>  -0.3380 
  5 N        2.0080     0.1240    -0.3520 N.am  1 <1>  -0.4940 
  6 N       -1.1370     1.1740    -1.6010 N.2   1 <1>  -0.3380 
  7 C       -3.1720     0.6780    -0.2060 C.3   1 <1>   0.2500 
  8 C        2.6510    -0.4030     0.7290 C.2   1 <1>   0.5690 
  9 S       -3.8090    -1.0260    -0.1910 S.3   1 <1>  -0.4600 
 10 O        2.1030    -0.6980     1.7590 O.2   1 <1>  -0.5700 
 11 C        4.1500    -0.6200     0.6150 C.3   1 <1>  -0.0990 
 12 C       -5.5740    -0.8150     0.1720 C.3   1 <1>   0.2140 
 13 C        4.9420     0.6950     0.5260 C.3   1 <1>  -0.2400 
 14 C       -6.2270    -2.1870     0.1920 C.ar  1 <1>  -0.1440 
 15 C       -6.0020    -3.0460     1.2620 C.ar  1 <1>  -0.1500 
 16 C       -7.0510    -2.5850    -0.8540 C.ar  1 <1>  -0.1500 
 17 C       -6.5990    -4.2950     1.2950 C.ar  1 <1>  -0.1500 
 18 C       -7.6540    -3.8320    -0.8330 C.ar  1 <1>  -0.1500 
 19 C       -7.4170    -4.6630     0.2450 C.ar  1 <1>   0.1900 
 20 F       -7.9840    -5.8390     0.2700 F     1 <1>  -0.1900 
 21 H        2.6060     0.3880    -1.1300 H     1 <1>   0.3700 
 22 H       -3.7420     1.2270    -0.9340 H     1 <1>   0.0800 
 23 H       -3.3230     1.0910     0.7750 H     1 <1>   0.0800 
 24 H        4.3500    -1.2270    -0.2500 H     1 <1>   0.0800 
 25 H        4.4800    -1.1700     1.4790 H     1 <1>   0.0800 
 26 H       -5.9890    -0.1880    -0.5960 H     1 <1>   0.0800 
 27 H       -5.6530    -0.3320     1.1290 H     1 <1>   0.0800 
 28 H        4.6710     1.2520    -0.3530 H     1 <1>   0.0800 
 29 H        5.9970     0.4870     0.4880 H     1 <1>   0.0800 
 30 H        4.7460     1.3020     1.3940 H     1 <1>   0.0800 
 31 H       -5.3550    -2.7450     2.0680 H     1 <1>   0.1500 
 32 H       -7.2240    -1.9300    -1.6900 H     1 <1>   0.1500 
 33 H       -6.4340    -4.9710     2.1140 H     1 <1>   0.1500 
 34 H       -8.2940    -4.1570    -1.6330 H     1 <1>   0.1500 
@<TRIPOS>BOND
  1   1   2  1   
  2   1   3  1   
  3   2   4  2   
  4   2   5  1   
  5   3   6  2   
  6   3   7  1   
  7   4   6  1   
  8   5   8  am  
  9   5  21  1   
 10   7   9  1   
 11   7  22  1   
 12   7  23  1   
 13   8  10  2   
 14   8  11  1   
 15   9  12  1   
 16  11  13  1   
 17  11  24  1   
 18  11  25  1   
 19  12  14  1   
 20  12  26  1   
 21  12  27  1   
 22  13  28  1   
 23  13  29  1   
 24  13  30  1   
 25  14  15  ar  
 26  14  16  ar  
 27  15  17  ar  
 28  15  31  1   
 29  16  18  ar  
 30  16  32  1   
 31  17  19  ar  
 32  17  33  1   
 33  18  19  ar  
 34  18  34  1   
 35  19  20  1   
@<TRIPOS>SUBSTRUCTURE
  1 ****   9 GROUP 4 **** **** 0

# MOE 2024.06 (io_trps.svl 2023.06)
