@<TRIPOS>MOLECULE
NONAME
26 26 1 0 0 
SMALL
USER_CHARGES


@<TRIPOS>ATOM
  1 CL      -1.0830    -0.4580    -2.6410 Cl    1 <1>  -0.1770 
  2 C       -1.9790    -1.1250    -1.2950 C.ar  1 <1>   0.1770 
  3 C       -1.3460    -1.9520    -0.3790 C.ar  1 <1>  -0.1440 
  4 C       -3.3160    -0.8030    -1.1800 C.ar  1 <1>  -0.1500 
  5 C       -2.0960    -2.4570     0.6720 C.ar  1 <1>  -0.1500 
  6 C        0.1280    -2.3020    -0.5130 C.3   1 <1>  -0.0960 
  7 C       -4.0710    -1.3070    -0.1290 C.ar  1 <1>   0.1170 
  8 C       -3.4380    -2.1380     0.7930 C.ar  1 <1>  -0.1500 
  9 N       -5.4260    -0.9530    -0.0520 N.am  1 <1>  -0.5470 
 10 C       -6.4320    -1.2590     0.8230 C.2   1 <1>   0.5690 
 11 O       -6.3030    -1.9690     1.7910 O.2   1 <1>  -0.5700 
 12 C       -7.8040    -0.6520     0.5430 C.3   1 <1>   0.1810 
 13 O       -7.7900     0.1500    -0.6180 O.3   1 <1>  -0.5600 
 14 C       -9.0210     0.7270    -0.9160 C.3   1 <1>   0.0400 
 15 H       -3.7650    -0.1590    -1.9120 H     1 <1>   0.1500 
 16 H       -1.6420    -3.1030     1.4040 H     1 <1>   0.1500 
 17 H        0.7220    -1.4060    -0.4810 H     1 <1>   0.0800 
 18 H        0.3030    -2.8010    -1.4500 H     1 <1>   0.0800 
 19 H        0.4450    -2.9510     0.2840 H     1 <1>   0.0800 
 20 H       -3.9910    -2.5470     1.6190 H     1 <1>   0.1500 
 21 H       -5.7680    -0.3350    -0.7950 H     1 <1>   0.3700 
 22 H       -8.0960    -0.0430     1.3800 H     1 <1>   0.0800 
 23 H       -8.5170    -1.4450     0.4070 H     1 <1>   0.0800 
 24 H       -8.9090     1.3150    -1.8110 H     1 <1>   0.0800 
 25 H       -9.3240     1.3630    -0.1020 H     1 <1>   0.0800 
 26 H       -9.7480    -0.0490    -1.0820 H     1 <1>   0.0800 
@<TRIPOS>BOND
  1   1   2  1   
  2   2   3  ar  
  3   2   4  ar  
  4   3   5  ar  
  5   3   6  1   
  6   4   7  ar  
  7   4  15  1   
  8   5   8  ar  
  9   5  16  1   
 10   6  17  1   
 11   6  18  1   
 12   6  19  1   
 13   7   8  ar  
 14   7   9  1   
 15   8  20  1   
 16   9  10  am  
 17   9  21  1   
 18  10  11  2   
 19  10  12  1   
 20  12  13  1   
 21  12  22  1   
 22  12  23  1   
 23  13  14  1   
 24  14  24  1   
 25  14  25  1   
 26  14  26  1   
@<TRIPOS>SUBSTRUCTURE
  1 ****   7 GROUP 4 **** **** 0

# MOE 2024.06 (io_trps.svl 2023.06)
