@<TRIPOS>MOLECULE
NONAME
45 46 1 0 0 
SMALL
USER_CHARGES


@<TRIPOS>ATOM
  1 O       -1.3050    -0.6490     1.0720 O.3   1 <1>  -0.5600 
  2 C       -2.2140    -1.4680     1.7480 C.3   1 <1>   0.1200 
  3 C       -1.3560    -0.7360    -0.3210 C.3   1 <1>   0.1200 
  4 C       -3.6570    -1.1140     1.3390 C.3   1 <1>   0.3430 
  5 C       -2.7570    -0.3450    -0.8280 C.3   1 <1>   0.3430 
  6 N       -3.8370    -1.1520    -0.1580 N.4   1 <1>  -0.9590 
  7 C       -5.1880    -0.6900    -0.5830 C.3   1 <1>   0.3430 
  8 C       -6.2510    -1.7030    -0.1670 C.3   1 <1>  -0.1600 
  9 C       -7.6280    -1.2910    -0.6850 C.3   1 <1>   0.1200 
 10 O       -8.5350    -2.2680    -0.2480 O.3   1 <1>  -0.3630 
 11 C       -9.8620    -2.2170    -0.5380 C.ar  1 <1>   0.0820 
 12 C      -10.6870    -3.2460    -0.0730 C.ar  1 <1>  -0.1440 
 13 C      -10.4100    -1.1730    -1.2820 C.ar  1 <1>  -0.1500 
 14 C      -12.0440    -3.1970    -0.3670 C.ar  1 <1>  -0.1500 
 15 C      -10.1850    -4.4390     0.7530 C.3   1 <1>   0.0630 
 16 C      -11.7630    -1.1450    -1.5630 C.ar  1 <1>  -0.1500 
 17 C      -12.5810    -2.1590    -1.1060 C.ar  1 <1>  -0.1500 
 18 C       -9.6130    -4.0050     2.1070 C.3   1 <1>  -0.2400 
 19 C       -9.1880    -5.3050    -0.0270 C.3   1 <1>  -0.2400 
 20 H       -2.0770    -1.3060     2.8030 H     1 <1>   0.0800 
 21 H       -1.9860    -2.4970     1.5280 H     1 <1>   0.0800 
 22 H       -1.0970    -1.7390    -0.6170 H     1 <1>   0.0800 
 23 H       -0.6160    -0.0620    -0.7170 H     1 <1>   0.0800 
 24 H       -3.8790    -0.1260     1.7080 H     1 <1>   0.0800 
 25 H       -4.3350    -1.8050     1.8130 H     1 <1>   0.0800 
 26 H       -2.8000    -0.4840    -1.8960 H     1 <1>   0.0800 
 27 H       -2.9070     0.7030    -0.6250 H     1 <1>   0.0800 
 28 H       -3.7220    -2.1300    -0.4580 H     1 <1>   0.4500 
 29 H       -5.2110    -0.5850    -1.6570 H     1 <1>   0.0800 
 30 H       -5.4050     0.2720    -0.1470 H     1 <1>   0.0800 
 31 H       -6.3070    -1.7680     0.9050 H     1 <1>   0.0800 
 32 H       -6.0130    -2.6700    -0.5740 H     1 <1>   0.0800 
 33 H       -7.6530    -1.2670    -1.7610 H     1 <1>   0.0800 
 34 H       -7.9340    -0.3420    -0.2770 H     1 <1>   0.0800 
 35 H       -9.8080    -0.3680    -1.6540 H     1 <1>   0.1500 
 36 H      -12.7030    -3.9750    -0.0230 H     1 <1>   0.1500 
 37 H      -11.0290    -5.0720     0.9690 H     1 <1>   0.0800 
 38 H      -12.1800    -0.3360    -2.1380 H     1 <1>   0.1500 
 39 H      -13.6350    -2.1410    -1.3220 H     1 <1>   0.1500 
 40 H       -8.7100    -3.4390     1.9830 H     1 <1>   0.0800 
 41 H       -9.3950    -4.8680     2.7110 H     1 <1>   0.0800 
 42 H      -10.3310    -3.3960     2.6260 H     1 <1>   0.0800 
 43 H       -8.2710    -4.7760    -0.2060 H     1 <1>   0.0800 
 44 H       -9.6130    -5.5830    -0.9750 H     1 <1>   0.0800 
 45 H       -8.9640    -6.2000     0.5240 H     1 <1>   0.0800 
@<TRIPOS>BOND
  1   1   2  1   
  2   1   3  1   
  3   2   4  1   
  4   2  20  1   
  5   2  21  1   
  6   3   5  1   
  7   3  22  1   
  8   3  23  1   
  9   4   6  1   
 10   4  24  1   
 11   4  25  1   
 12   5   6  1   
 13   5  26  1   
 14   5  27  1   
 15   6   7  1   
 16   6  28  1   
 17   7   8  1   
 18   7  29  1   
 19   7  30  1   
 20   8   9  1   
 21   8  31  1   
 22   8  32  1   
 23   9  10  1   
 24   9  33  1   
 25   9  34  1   
 26  10  11  1   
 27  11  12  ar  
 28  11  13  ar  
 29  12  14  ar  
 30  12  15  1   
 31  13  16  ar  
 32  13  35  1   
 33  14  17  ar  
 34  14  36  1   
 35  15  18  1   
 36  15  19  1   
 37  15  37  1   
 38  16  17  ar  
 39  16  38  1   
 40  17  39  1   
 41  18  40  1   
 42  18  41  1   
 43  18  42  1   
 44  19  43  1   
 45  19  44  1   
 46  19  45  1   
@<TRIPOS>SUBSTRUCTURE
  1 ****   9 GROUP 4 **** **** 0

# MOE 2024.06 (io_trps.svl 2023.06)
