@<TRIPOS>MOLECULE
NONAME
36 38 1 0 0 
SMALL
USER_CHARGES


@<TRIPOS>ATOM
  1 BR       0.1170     1.5340    -1.8930 Br    1 <1>  -0.1110 
  2 C        1.7670     1.7490    -0.9340 C.ar  1 <1>   0.1110 
  3 C        2.8390     0.9420    -1.2660 C.ar  1 <1>  -0.1500 
  4 C        1.8340     2.7110     0.0640 C.ar  1 <1>  -0.1500 
  5 C        4.0220     1.1140    -0.5600 C.ar  1 <1>   0.0860 
  6 C        3.0200     2.8740     0.7620 C.ar  1 <1>  -0.1500 
  7 C        5.3020     0.4690    -0.6350 C.2   1 <1>   0.5440 
  8 C        4.1120     2.0710     0.4440 C.ar  1 <1>   0.0860 
  9 O        5.6280    -0.4330    -1.3790 O.2   1 <1>  -0.5700 
 10 N        6.1310     1.0200     0.3030 N.am  1 <1>  -0.4200 
 11 C        5.4450     1.9990     0.9690 C.2   1 <1>   0.5440 
 12 C        7.6120     0.9830     0.2190 C.3   1 <1>   0.2010 
 13 O        5.9240     2.6670     1.8620 O.2   1 <1>  -0.5700 
 14 C        8.1900     2.1450    -0.6000 C.2   1 <1>   0.5690 
 15 O        7.4750     2.6840    -1.4180 O.2   1 <1>  -0.5700 
 16 N        9.4890     2.5540    -0.4110 N.am  1 <1>  -0.6600 
 17 C        9.9980     3.7580    -1.1390 C.3   1 <1>   0.1400 
 18 C       10.4460     1.8700     0.5130 C.3   1 <1>   0.1400 
 19 C       11.0600     4.4830    -0.3070 C.3   1 <1>  -0.1600 
 20 C       11.8930     2.0930     0.0620 C.3   1 <1>  -0.1600 
 21 C       12.2660     3.5840     0.0160 C.3   1 <1>  -0.1600 
 22 H        2.7660     0.2040    -2.0450 H     1 <1>   0.1500 
 23 H        0.9720     3.3180     0.2860 H     1 <1>   0.1500 
 24 H        3.1120     3.6120     1.5420 H     1 <1>   0.1500 
 25 H        7.9170     0.0580    -0.2340 H     1 <1>   0.0800 
 26 H        8.0030     1.0240     1.2180 H     1 <1>   0.0800 
 27 H        9.1840     4.4340    -1.3430 H     1 <1>   0.0800 
 28 H       10.4170     3.4470    -2.0800 H     1 <1>   0.0800 
 29 H       10.2490     0.8120     0.5340 H     1 <1>   0.0800 
 30 H       10.3140     2.2640     1.5070 H     1 <1>   0.0800 
 31 H       10.5980     4.8130     0.6080 H     1 <1>   0.0800 
 32 H       11.3930     5.3600    -0.8330 H     1 <1>   0.0800 
 33 H       12.0100     1.6610    -0.9170 H     1 <1>   0.0800 
 34 H       12.5640     1.5750     0.7250 H     1 <1>   0.0800 
 35 H       12.6760     3.8870     0.9640 H     1 <1>   0.0800 
 36 H       13.0320     3.7240    -0.7280 H     1 <1>   0.0800 
@<TRIPOS>BOND
  1   1   2  1   
  2   2   3  ar  
  3   2   4  ar  
  4   3   5  ar  
  5   3  22  1   
  6   4   6  ar  
  7   4  23  1   
  8   5   7  1   
  9   5   8  ar  
 10   6   8  ar  
 11   6  24  1   
 12   7   9  2   
 13   7  10  am  
 14   8  11  1   
 15  10  11  am  
 16  10  12  1   
 17  11  13  2   
 18  12  14  1   
 19  12  25  1   
 20  12  26  1   
 21  14  15  2   
 22  14  16  am  
 23  16  17  1   
 24  16  18  1   
 25  17  19  1   
 26  17  27  1   
 27  17  28  1   
 28  18  20  1   
 29  18  29  1   
 30  18  30  1   
 31  19  21  1   
 32  19  31  1   
 33  19  32  1   
 34  20  21  1   
 35  20  33  1   
 36  20  34  1   
 37  21  35  1   
 38  21  36  1   
@<TRIPOS>SUBSTRUCTURE
  1 ****  10 GROUP 4 **** **** 0

# MOE 2024.06 (io_trps.svl 2023.06)
