@<TRIPOS>MOLECULE
NONAME
40 40 1 0 0 
SMALL
USER_CHARGES


@<TRIPOS>ATOM
  1 O        0.2110     1.7060    -1.7220 O.2   1 <1>  -0.5700 
  2 C        0.1990     2.1550    -0.6010 C.2   1 <1>   0.5690 
  3 N        1.2910     2.1410     0.2190 N.am  1 <1>  -0.5470 
  4 C       -1.0890     2.7830    -0.0590 C.3   1 <1>  -0.0190 
  5 C        2.5810     1.6590    -0.0510 C.ar  1 <1>   0.1170 
  6 C       -2.2430     1.7500    -0.0890 C.3   1 <1>  -0.1600 
  7 C       -1.3940     4.0740    -0.8550 C.3   1 <1>  -0.1600 
  8 C        3.6480     2.5580    -0.1060 C.ar  1 <1>  -0.1430 
  9 C        2.8260     0.2950    -0.2340 C.ar  1 <1>  -0.1430 
 10 C       -3.2020     1.8590     1.1070 C.3   1 <1>  -0.2400 
 11 C       -2.5840     4.8880    -0.3330 C.3   1 <1>  -0.2400 
 12 C        4.9320     2.0940    -0.3380 C.ar  1 <1>  -0.1500 
 13 C        3.4270     4.0550     0.0740 C.3   1 <1>  -0.0970 
 14 C        4.1170    -0.1460    -0.4700 C.ar  1 <1>  -0.1500 
 15 C        1.7050    -0.7360    -0.1800 C.3   1 <1>  -0.0970 
 16 C        5.1750     0.7450    -0.5230 C.ar  1 <1>  -0.1430 
 17 C        6.5850     0.2460    -0.7800 C.3   1 <1>  -0.0970 
 18 H        1.2020     2.6370     1.1010 H     1 <1>   0.3700 
 19 H       -0.9080     3.0560     0.9640 H     1 <1>   0.0800 
 20 H       -1.8240     0.7580    -0.0730 H     1 <1>   0.0800 
 21 H       -2.7890     1.8400    -1.0120 H     1 <1>   0.0800 
 22 H       -1.5670     3.8210    -1.8880 H     1 <1>   0.0800 
 23 H       -0.5190     4.7020    -0.8280 H     1 <1>   0.0800 
 24 H       -2.6700     1.7030     2.0290 H     1 <1>   0.0800 
 25 H       -3.9660     1.1060     1.0280 H     1 <1>   0.0800 
 26 H       -3.6820     2.8180     1.1450 H     1 <1>   0.0800 
 27 H       -3.5070     4.3670    -0.5120 H     1 <1>   0.0800 
 28 H       -2.6330     5.8310    -0.8500 H     1 <1>   0.0800 
 29 H       -2.4820     5.0820     0.7200 H     1 <1>   0.0800 
 30 H        5.7540     2.7860    -0.3790 H     1 <1>   0.1500 
 31 H        2.6930     4.4030    -0.6310 H     1 <1>   0.0800 
 32 H        4.3370     4.6020    -0.0930 H     1 <1>   0.0800 
 33 H        3.0850     4.2610     1.0720 H     1 <1>   0.0800 
 34 H        4.3050    -1.1940    -0.6150 H     1 <1>   0.1500 
 35 H        1.0510    -0.5380     0.6490 H     1 <1>   0.0800 
 36 H        2.1000    -1.7290    -0.0670 H     1 <1>   0.0800 
 37 H        1.1350    -0.6970    -1.0910 H     1 <1>   0.0800 
 38 H        7.1660     1.0010    -1.2780 H     1 <1>   0.0800 
 39 H        6.5640    -0.6300    -1.4030 H     1 <1>   0.0800 
 40 H        7.0590    -0.0010     0.1530 H     1 <1>   0.0800 
@<TRIPOS>BOND
  1   1   2  2   
  2   2   3  am  
  3   2   4  1   
  4   3   5  1   
  5   3  18  1   
  6   4   6  1   
  7   4   7  1   
  8   4  19  1   
  9   5   8  ar  
 10   5   9  ar  
 11   6  10  1   
 12   6  20  1   
 13   6  21  1   
 14   7  11  1   
 15   7  22  1   
 16   7  23  1   
 17   8  12  ar  
 18   8  13  1   
 19   9  14  ar  
 20   9  15  1   
 21  10  24  1   
 22  10  25  1   
 23  10  26  1   
 24  11  27  1   
 25  11  28  1   
 26  11  29  1   
 27  12  16  ar  
 28  12  30  1   
 29  13  31  1   
 30  13  32  1   
 31  13  33  1   
 32  14  16  ar  
 33  14  34  1   
 34  15  35  1   
 35  15  36  1   
 36  15  37  1   
 37  16  17  1   
 38  17  38  1   
 39  17  39  1   
 40  17  40  1   
@<TRIPOS>SUBSTRUCTURE
  1 ****   3 GROUP 4 **** **** 0

# MOE 2024.06 (io_trps.svl 2023.06)
