@<TRIPOS>MOLECULE
NONAME
44 45 1 0 0 
SMALL
USER_CHARGES


@<TRIPOS>ATOM
  1 S        0.1220     0.2780     0.9910 S.o2  1 <1>   1.4470 
  2 O       -0.1110     0.5710     2.3900 O.2   1 <1>  -0.6500 
  3 O       -0.3780    -0.9600     0.4340 O.2   1 <1>  -0.6500 
  4 N       -0.5670     1.5540     0.1090 N.am  1 <1>  -0.8490 
  5 C        1.8880     0.4180     0.6020 C.ar  1 <1>  -0.0090 
  6 C       -0.2100     2.8560     0.6880 C.3   1 <1>   0.1960 
  7 C       -2.0150     1.3630    -0.0280 C.3   1 <1>   0.1960 
  8 C        2.3290     0.4410    -0.7160 C.ar  1 <1>  -0.1500 
  9 C        2.8490     0.5080     1.6020 C.ar  1 <1>  -0.1500 
 10 C       -0.2340     3.9430    -0.3890 C.3   1 <1>  -0.1600 
 11 C       -2.6790     2.3570    -0.9900 C.3   1 <1>  -0.1600 
 12 C        3.6720     0.5550    -1.0240 C.ar  1 <1>  -0.1500 
 13 C        4.1940     0.6230     1.2990 C.ar  1 <1>  -0.1500 
 14 C       -1.5860     4.6520    -0.5700 C.3   1 <1>  -0.1600 
 15 C       -2.8300     3.7680    -0.4040 C.3   1 <1>  -0.1600 
 16 C        4.6290     0.6530    -0.0220 C.ar  1 <1>   0.1170 
 17 N        5.9770     0.7630    -0.3850 N.am  1 <1>  -0.5470 
 18 C        7.0750     1.1760     0.3040 C.2   1 <1>   0.7800 
 19 O        7.0650     1.5700     1.4520 O.2   1 <1>  -0.5700 
 20 O        8.2130     1.1330    -0.3820 O.3   1 <1>  -0.4300 
 21 C        9.4280     1.5380     0.2090 C.3   1 <1>   0.1200 
 22 C       10.5370     1.3710    -0.8250 C.3   1 <1>  -0.2400 
 23 H        0.7970     2.8110     1.0670 H     1 <1>   0.0800 
 24 H       -0.8540     3.1020     1.5170 H     1 <1>   0.0800 
 25 H       -2.4850     1.4120     0.9410 H     1 <1>   0.0800 
 26 H       -2.1990     0.3770    -0.4240 H     1 <1>   0.0800 
 27 H        1.6020     0.3690    -1.5090 H     1 <1>   0.1500 
 28 H        2.5410     0.4880     2.6350 H     1 <1>   0.1500 
 29 H        0.0820     3.5130    -1.3240 H     1 <1>   0.0800 
 30 H        0.4940     4.6920    -0.1310 H     1 <1>   0.0800 
 31 H       -3.6670     1.9830    -1.1920 H     1 <1>   0.0800 
 32 H       -2.1520     2.3770    -1.9280 H     1 <1>   0.0800 
 33 H        3.9770     0.5720    -2.0550 H     1 <1>   0.1500 
 34 H        4.9050     0.6850     2.1040 H     1 <1>   0.1500 
 35 H       -1.6000     5.0930    -1.5520 H     1 <1>   0.0800 
 36 H       -1.6560     5.4600     0.1380 H     1 <1>   0.0800 
 37 H       -3.0860     3.6950     0.6390 H     1 <1>   0.0800 
 38 H       -3.6530     4.2620    -0.8930 H     1 <1>   0.0800 
 39 H        6.2030     0.5320    -1.3480 H     1 <1>   0.3700 
 40 H        9.6090     0.9220     1.0740 H     1 <1>   0.0800 
 41 H        9.3330     2.5680     0.5120 H     1 <1>   0.0800 
 42 H       10.6120     0.3410    -1.1250 H     1 <1>   0.0800 
 43 H       11.4760     1.6730    -0.3990 H     1 <1>   0.0800 
 44 H       10.3370     1.9840    -1.6850 H     1 <1>   0.0800 
@<TRIPOS>BOND
  1   1   2  2   
  2   1   3  2   
  3   1   4  am  
  4   1   5  1   
  5   4   6  1   
  6   4   7  1   
  7   5   8  ar  
  8   5   9  ar  
  9   6  10  1   
 10   6  23  1   
 11   6  24  1   
 12   7  11  1   
 13   7  25  1   
 14   7  26  1   
 15   8  12  ar  
 16   8  27  1   
 17   9  13  ar  
 18   9  28  1   
 19  10  14  1   
 20  10  29  1   
 21  10  30  1   
 22  11  15  1   
 23  11  31  1   
 24  11  32  1   
 25  12  16  ar  
 26  12  33  1   
 27  13  16  ar  
 28  13  34  1   
 29  14  15  1   
 30  14  35  1   
 31  14  36  1   
 32  15  37  1   
 33  15  38  1   
 34  16  17  1   
 35  17  18  am  
 36  17  39  1   
 37  18  19  2   
 38  18  20  1   
 39  20  21  1   
 40  21  22  1   
 41  21  40  1   
 42  21  41  1   
 43  22  42  1   
 44  22  43  1   
 45  22  44  1   
@<TRIPOS>SUBSTRUCTURE
  1 ****   5 GROUP 4 **** **** 0

# MOE 2024.06 (io_trps.svl 2023.06)
