@<TRIPOS>MOLECULE
NONAME
43 44 1 0 0 
SMALL
USER_CHARGES


@<TRIPOS>ATOM
  1 CL      -0.2270     1.8710    -1.2330 Cl    1 <1>  -0.1770 
  2 C        1.2960     1.9460    -0.3770 C.ar  1 <1>   0.1770 
  3 C        1.4710     2.7690     0.7280 C.ar  1 <1>  -0.1440 
  4 C        2.3160     1.1450    -0.8550 C.ar  1 <1>  -0.1500 
  5 C        2.7160     2.7650     1.3420 C.ar  1 <1>  -0.1500 
  6 C        0.3800     3.6810     1.2900 C.3   1 <1>   0.5020 
  7 C        3.5620     1.1450    -0.2350 C.ar  1 <1>   0.0830 
  8 C        3.7610     1.9830     0.8760 C.ar  1 <1>   0.0830 
  9 N       -0.6570     2.8300     1.9020 N.am  1 <1>  -0.7300 
 10 C       -0.1790     4.6800     0.2670 C.2   1 <1>  -0.1240 
 11 O        4.5700     0.3410    -0.6810 O.3   1 <1>  -0.3630 
 12 O        4.9200     2.1210     1.5820 O.3   1 <1>  -0.3630 
 13 C       -1.9560     2.8820     1.5710 C.2   1 <1>   0.6900 
 14 C       -1.5200     4.6930     0.0220 C.2   1 <1>  -0.0290 
 15 C        0.8340     5.5030    -0.3240 C.2   1 <1>   0.7060 
 16 C        4.3820    -0.6010    -1.7150 C.3   1 <1>   0.0400 
 17 C        6.1830     1.8810     1.0020 C.3   1 <1>   0.0400 
 18 O       -2.7510     2.1160     2.0640 O.2   1 <1>  -0.5700 
 19 N       -2.3610     3.8120     0.6720 N.am  1 <1>  -0.5390 
 20 C       -2.2520     5.6190    -0.9380 C.3   1 <1>  -0.1020 
 21 O        0.7240     6.0580    -1.4000 O.2   1 <1>  -0.5700 
 22 O        1.9790     5.6680     0.3500 O.3   1 <1>  -0.4300 
 23 C        3.0650     6.3870    -0.1910 C.3   1 <1>   0.1200 
 24 C        4.2430     6.2490     0.7680 C.3   1 <1>  -0.2400 
 25 H        2.1050     0.5350    -1.7100 H     1 <1>   0.1500 
 26 H        2.9030     3.3870     2.1990 H     1 <1>   0.1500 
 27 H        0.8050     4.2600     2.0910 H     1 <1>   0.0800 
 28 H       -0.3490     2.0450     2.4690 H     1 <1>   0.3700 
 29 H        5.3040    -1.1380    -1.8490 H     1 <1>   0.0800 
 30 H        4.1300    -0.0810    -2.6220 H     1 <1>   0.0800 
 31 H        3.6020    -1.2840    -1.4300 H     1 <1>   0.0800 
 32 H        6.9300     2.3400     1.6230 H     1 <1>   0.0800 
 33 H        6.2060     2.3140     0.0170 H     1 <1>   0.0800 
 34 H        6.3500     0.8200     0.9580 H     1 <1>   0.0800 
 35 H       -3.3580     3.7720     0.4660 H     1 <1>   0.3700 
 36 H       -2.5210     5.0770    -1.8270 H     1 <1>   0.0800 
 37 H       -1.6580     6.4660    -1.2210 H     1 <1>   0.0800 
 38 H       -3.1480     5.9960    -0.4780 H     1 <1>   0.0800 
 39 H        2.7700     7.4160    -0.3040 H     1 <1>   0.0800 
 40 H        3.3060     5.9710    -1.1550 H     1 <1>   0.0800 
 41 H        3.9870     6.6470     1.7330 H     1 <1>   0.0800 
 42 H        5.0860     6.7960     0.3850 H     1 <1>   0.0800 
 43 H        4.5240     5.2150     0.8660 H     1 <1>   0.0800 
@<TRIPOS>BOND
  1   1   2  1   
  2   2   3  ar  
  3   2   4  ar  
  4   3   5  ar  
  5   3   6  1   
  6   4   7  ar  
  7   4  25  1   
  8   5   8  ar  
  9   5  26  1   
 10   6   9  1   
 11   6  10  1   
 12   6  27  1   
 13   7   8  ar  
 14   7  11  1   
 15   8  12  1   
 16   9  13  am  
 17   9  28  1   
 18  10  14  2   
 19  10  15  1   
 20  11  16  1   
 21  12  17  1   
 22  13  18  2   
 23  13  19  am  
 24  14  19  1   
 25  14  20  1   
 26  15  21  2   
 27  15  22  1   
 28  16  29  1   
 29  16  30  1   
 30  16  31  1   
 31  17  32  1   
 32  17  33  1   
 33  17  34  1   
 34  19  35  1   
 35  20  36  1   
 36  20  37  1   
 37  20  38  1   
 38  22  23  1   
 39  23  24  1   
 40  23  39  1   
 41  23  40  1   
 42  24  41  1   
 43  24  42  1   
 44  24  43  1   
@<TRIPOS>SUBSTRUCTURE
  1 ****   3 GROUP 4 **** **** 0

# MOE 2024.06 (io_trps.svl 2023.06)
