@<TRIPOS>MOLECULE
NONAME
45 46 1 0 0 
SMALL
USER_CHARGES


@<TRIPOS>ATOM
  1 CL       0.1820     0.4510    -0.0700 Cl    1 <1>  -0.1770 
  2 C       -1.4590     1.0670    -0.1010 C.ar  1 <1>   0.1770 
  3 C       -2.4720     0.3410    -0.7160 C.ar  1 <1>   0.0830 
  4 C       -1.7040     2.2860     0.5010 C.ar  1 <1>  -0.1500 
  5 O       -2.1520    -0.8540    -1.2880 O.3   1 <1>  -0.3630 
  6 C       -3.7600     0.8670    -0.7180 C.ar  1 <1>  -0.1500 
  7 C       -2.9950     2.8020     0.4950 C.ar  1 <1>   0.0830 
  8 C       -3.1330    -1.6490    -1.9210 C.3   1 <1>   0.0400 
  9 C       -4.0350     2.0920    -0.1180 C.ar  1 <1>   0.1170 
 10 O       -3.3160     4.0020     1.0710 O.3   1 <1>  -0.3630 
 11 N       -5.3190     2.6690    -0.0920 N.am  1 <1>  -0.5470 
 12 C       -2.3360     4.7780     1.7290 C.3   1 <1>   0.0400 
 13 C       -6.5410     2.2730    -0.5550 C.2   1 <1>   0.5690 
 14 O       -6.7320     1.2370    -1.1440 O.2   1 <1>  -0.5700 
 15 C       -7.7130     3.2110    -0.3040 C.3   1 <1>  -0.0190 
 16 C       -9.0290     2.4290    -0.1830 C.3   1 <1>   0.1960 
 17 C       -7.8290     4.2750    -1.4090 C.3   1 <1>  -0.1600 
 18 N      -10.1400     3.3440     0.1290 N.am  1 <1>  -0.8490 
 19 C       -9.0670     5.1480    -1.1670 C.3   1 <1>  -0.1600 
 20 S      -11.5760     2.5150     0.4730 S.o2  1 <1>   1.3330 
 21 C      -10.3310     4.3030    -0.9670 C.3   1 <1>   0.1960 
 22 O      -11.6310     1.3480    -0.3770 O.2   1 <1>  -0.6500 
 23 O      -12.6610     3.4690     0.4610 O.2   1 <1>  -0.6500 
 24 C      -11.3410     1.9990     2.1600 C.3   1 <1>  -0.1350 
 25 H       -0.8810     2.7970     0.9580 H     1 <1>   0.1500 
 26 H       -4.5570     0.3280    -1.1860 H     1 <1>   0.1500 
 27 H       -2.6540    -2.5360    -2.2930 H     1 <1>   0.0800 
 28 H       -3.5600    -1.0940    -2.7380 H     1 <1>   0.0800 
 29 H       -3.8870    -1.9140    -1.2010 H     1 <1>   0.0800 
 30 H       -5.2990     3.5760     0.3790 H     1 <1>   0.3700 
 31 H       -2.8100     5.6660     2.1070 H     1 <1>   0.0800 
 32 H       -1.5700     5.0470     1.0230 H     1 <1>   0.0800 
 33 H       -1.9270     4.2080     2.5440 H     1 <1>   0.0800 
 34 H       -7.5470     3.7010     0.6380 H     1 <1>   0.0800 
 35 H       -8.9280     1.6940     0.5980 H     1 <1>   0.0800 
 36 H       -9.2310     1.9040    -1.1040 H     1 <1>   0.0800 
 37 H       -7.9180     3.7860    -2.3650 H     1 <1>   0.0800 
 38 H       -6.9450     4.8900    -1.4300 H     1 <1>   0.0800 
 39 H       -9.2130     5.8080    -2.0040 H     1 <1>   0.0800 
 40 H       -8.9210     5.7570    -0.2920 H     1 <1>   0.0800 
 41 H      -11.1500     4.9650    -0.7350 H     1 <1>   0.0800 
 42 H      -10.5760     3.7750    -1.8750 H     1 <1>   0.0800 
 43 H      -10.5040     1.3340     2.2370 H     1 <1>   0.0800 
 44 H      -12.2170     1.4900     2.5110 H     1 <1>   0.0800 
 45 H      -11.1660     2.8540     2.7840 H     1 <1>   0.0800 
@<TRIPOS>BOND
  1   1   2  1   
  2   2   3  ar  
  3   2   4  ar  
  4   3   5  1   
  5   3   6  ar  
  6   4   7  ar  
  7   4  25  1   
  8   5   8  1   
  9   6   9  ar  
 10   6  26  1   
 11   7   9  ar  
 12   7  10  1   
 13   8  27  1   
 14   8  28  1   
 15   8  29  1   
 16   9  11  1   
 17  10  12  1   
 18  11  13  am  
 19  11  30  1   
 20  12  31  1   
 21  12  32  1   
 22  12  33  1   
 23  13  14  2   
 24  13  15  1   
 25  15  16  1   
 26  15  17  1   
 27  15  34  1   
 28  16  18  1   
 29  16  35  1   
 30  16  36  1   
 31  17  19  1   
 32  17  37  1   
 33  17  38  1   
 34  18  20  am  
 35  18  21  1   
 36  19  21  1   
 37  19  39  1   
 38  19  40  1   
 39  20  22  2   
 40  20  23  2   
 41  20  24  1   
 42  21  41  1   
 43  21  42  1   
 44  24  43  1   
 45  24  44  1   
 46  24  45  1   
@<TRIPOS>SUBSTRUCTURE
  1 ****  13 GROUP 4 **** **** 0

# MOE 2024.06 (io_trps.svl 2023.06)
