@<TRIPOS>MOLECULE
NONAME
41 43 1 0 0 
SMALL
USER_CHARGES


@<TRIPOS>ATOM
  1 S       -0.6160    -0.6840     0.6560 S.3   1 <1>  -0.2860 
  2 C        1.1350    -0.4180     0.9140 C.2   1 <1>   0.2420 
  3 C       -0.8560    -0.1140    -1.0950 C.3   1 <1>   0.1310 
  4 N        1.9420     0.0530     0.0310 N.2   1 <1>  -0.3380 
  5 N        1.7220    -0.7020     2.0680 N.pl3 1 <1>   0.0330 
  6 C       -2.2820    -0.3640    -1.5370 C.2   1 <1>   0.6590 
  7 N        3.1440     0.0890     0.6230 N.2   1 <1>  -0.3380 
  8 C        2.9900    -0.3610     1.8250 C.2   1 <1>   0.0360 
  9 O       -3.0360     0.5440    -1.7780 O.2   1 <1>  -0.5700 
 10 O       -2.6380    -1.6370    -1.6460 O.3   1 <1>  -0.4300 
 11 C       -3.9510    -2.0430    -1.9840 C.3   1 <1>   0.2000 
 12 C       -4.8250    -2.3540    -0.7340 C.3   1 <1>   0.0000 
 13 C       -3.9020    -3.3960    -2.7170 C.3   1 <1>  -0.1600 
 14 C       -4.5050    -3.8350    -0.4140 C.3   1 <1>   0.0000 
 15 C       -6.2650    -2.4410    -1.2970 C.3   1 <1>  -0.1600 
 16 C       -4.7170    -1.3570     0.4310 C.3   1 <1>  -0.2400 
 17 C       -4.8160    -4.2920    -1.8490 C.3   1 <1>  -0.0800 
 18 C       -5.4050    -4.4910     0.6680 C.3   1 <1>  -0.2400 
 19 C       -3.0560    -4.1420     0.0460 C.3   1 <1>  -0.2400 
 20 C       -6.2530    -3.7730    -2.0760 C.3   1 <1>  -0.1600 
 21 H       -0.1680    -0.6630    -1.7090 H     1 <1>   0.0800 
 22 H       -0.6250     0.9340    -1.1240 H     1 <1>   0.0800 
 23 H        1.2880    -1.0830     2.9090 H     1 <1>   0.2700 
 24 H        3.7770    -0.4550     2.5520 H     1 <1>   0.1500 
 25 H       -4.3960    -1.2860    -2.6080 H     1 <1>   0.0800 
 26 H       -2.9020    -3.7870    -2.7610 H     1 <1>   0.0800 
 27 H       -4.2780    -3.3060    -3.7200 H     1 <1>   0.0800 
 28 H       -6.4990    -1.6080    -1.9360 H     1 <1>   0.0800 
 29 H       -6.9950    -2.4680    -0.5080 H     1 <1>   0.0800 
 30 H       -3.7210    -1.3550     0.8340 H     1 <1>   0.0800 
 31 H       -5.4010    -1.6190     1.2170 H     1 <1>   0.0800 
 32 H       -4.9510    -0.3640     0.0900 H     1 <1>   0.0800 
 33 H       -4.6970    -5.3460    -2.0330 H     1 <1>   0.0800 
 34 H       -5.1690    -4.0860     1.6350 H     1 <1>   0.0800 
 35 H       -6.4570    -4.3530     0.5150 H     1 <1>   0.0800 
 36 H       -5.2250    -5.5500     0.6980 H     1 <1>   0.0800 
 37 H       -2.8660    -3.6720     0.9940 H     1 <1>   0.0800 
 38 H       -2.2950    -3.8160    -0.6310 H     1 <1>   0.0800 
 39 H       -2.9290    -5.2030     0.1690 H     1 <1>   0.0800 
 40 H       -6.4710    -3.6270    -3.1200 H     1 <1>   0.0800 
 41 H       -6.9770    -4.4590    -1.6740 H     1 <1>   0.0800 
@<TRIPOS>BOND
  1   1   2  1   
  2   1   3  1   
  3   2   4  2   
  4   2   5  1   
  5   3   6  1   
  6   3  21  1   
  7   3  22  1   
  8   4   7  1   
  9   5   8  1   
 10   5  23  1   
 11   6   9  2   
 12   6  10  1   
 13   7   8  2   
 14   8  24  1   
 15  10  11  1   
 16  11  12  1   
 17  11  13  1   
 18  11  25  1   
 19  12  14  1   
 20  12  15  1   
 21  12  16  1   
 22  13  17  1   
 23  13  26  1   
 24  13  27  1   
 25  14  17  1   
 26  14  18  1   
 27  14  19  1   
 28  15  20  1   
 29  15  28  1   
 30  15  29  1   
 31  16  30  1   
 32  16  31  1   
 33  16  32  1   
 34  17  20  1   
 35  17  33  1   
 36  18  34  1   
 37  18  35  1   
 38  18  36  1   
 39  19  37  1   
 40  19  38  1   
 41  19  39  1   
 42  20  40  1   
 43  20  41  1   
@<TRIPOS>SUBSTRUCTURE
  1 ****  10 GROUP 4 **** **** 0

# MOE 2024.06 (io_trps.svl 2023.06)
