@<TRIPOS>MOLECULE
NONAME
40 40 1 0 0 
SMALL
USER_CHARGES


@<TRIPOS>ATOM
  1 O        0.6450    -1.2050    -0.2470 O.3   1 <1>  -0.3630 
  2 C       -0.6160    -1.3750     0.2330 C.ar  1 <1>   0.0830 
  3 C        1.7150    -0.8570     0.5910 C.3   1 <1>   0.1200 
  4 C       -1.6100    -1.7190    -0.6790 C.ar  1 <1>  -0.1440 
  5 C       -0.9410    -1.2190     1.5790 C.ar  1 <1>  -0.1500 
  6 C        2.9580    -0.7560    -0.2910 C.3   1 <1>  -0.1600 
  7 C       -2.9110    -1.9030    -0.2380 C.ar  1 <1>  -0.1500 
  8 C       -1.2850    -1.8960    -2.1550 C.3   1 <1>  -0.0970 
  9 C       -2.2430    -1.4050     2.0080 C.ar  1 <1>  -0.1500 
 10 C        4.1820    -0.3790     0.5330 C.3   1 <1>   0.3430 
 11 C       -3.2280    -1.7470     1.1000 C.ar  1 <1>  -0.1500 
 12 N        5.3580    -0.2960    -0.3720 N.4   1 <1>  -0.9060 
 13 C        6.6420     0.0580     0.2370 C.3   1 <1>   0.5030 
 14 C        6.5490     1.4450     0.8710 C.3   1 <1>  -0.2400 
 15 C        7.0310    -0.9960     1.2720 C.3   1 <1>  -0.2400 
 16 C        7.6620     0.0730    -0.8970 C.3   1 <1>  -0.2400 
 17 H        1.8230    -1.6280     1.3360 H     1 <1>   0.0800 
 18 H        1.4840     0.0870     1.0550 H     1 <1>   0.0800 
 19 H       -0.2040    -0.9550     2.3110 H     1 <1>   0.1500 
 20 H        2.7790    -0.0070    -1.0430 H     1 <1>   0.0800 
 21 H        3.1150    -1.7100    -0.7640 H     1 <1>   0.0800 
 22 H       -3.6880    -2.1690    -0.9340 H     1 <1>   0.1500 
 23 H       -0.8860    -0.9800    -2.5520 H     1 <1>   0.0800 
 24 H       -2.1620    -2.1600    -2.7180 H     1 <1>   0.0800 
 25 H       -0.5530    -2.6740    -2.2760 H     1 <1>   0.0800 
 26 H       -2.4930    -1.2840     3.0480 H     1 <1>   0.1500 
 27 H        4.3500    -1.1260     1.2930 H     1 <1>   0.0800 
 28 H        4.0150     0.5710     1.0150 H     1 <1>   0.0800 
 29 H       -4.2420    -1.8920     1.4320 H     1 <1>   0.1500 
 30 H        5.1670     0.3930    -1.1070 H     1 <1>   0.4500 
 31 H        5.4810    -1.1960    -0.8460 H     1 <1>   0.4500 
 32 H        6.2270     2.1800     0.1540 H     1 <1>   0.0800 
 33 H        7.5180     1.7430     1.2320 H     1 <1>   0.0800 
 34 H        5.8820     1.4530     1.7140 H     1 <1>   0.0800 
 35 H        6.3640    -0.9910     2.1150 H     1 <1>   0.0800 
 36 H        8.0180    -0.7870     1.6470 H     1 <1>   0.0800 
 37 H        7.0490    -1.9800     0.8370 H     1 <1>   0.0800 
 38 H        7.4070     0.8070    -1.6420 H     1 <1>   0.0800 
 39 H        7.7430    -0.8930    -1.3620 H     1 <1>   0.0800 
 40 H        8.6340     0.3290    -0.5100 H     1 <1>   0.0800 
@<TRIPOS>BOND
  1   1   2  1   
  2   1   3  1   
  3   2   4  ar  
  4   2   5  ar  
  5   3   6  1   
  6   3  17  1   
  7   3  18  1   
  8   4   7  ar  
  9   4   8  1   
 10   5   9  ar  
 11   5  19  1   
 12   6  10  1   
 13   6  20  1   
 14   6  21  1   
 15   7  11  ar  
 16   7  22  1   
 17   8  23  1   
 18   8  24  1   
 19   8  25  1   
 20   9  11  ar  
 21   9  26  1   
 22  10  12  1   
 23  10  27  1   
 24  10  28  1   
 25  11  29  1   
 26  12  13  1   
 27  12  30  1   
 28  12  31  1   
 29  13  14  1   
 30  13  15  1   
 31  13  16  1   
 32  14  32  1   
 33  14  33  1   
 34  14  34  1   
 35  15  35  1   
 36  15  36  1   
 37  15  37  1   
 38  16  38  1   
 39  16  39  1   
 40  16  40  1   
@<TRIPOS>SUBSTRUCTURE
  1 ****   3 GROUP 4 **** **** 0

# MOE 2024.06 (io_trps.svl 2023.06)
