@<TRIPOS>MOLECULE
NONAME
48 51 1 0 0 
SMALL
USER_CHARGES


@<TRIPOS>ATOM
  1 O       -1.0670     1.9340    -2.5100 O.2   1 <1>  -0.5700 
  2 C       -1.3140     2.1530    -1.3480 C.2   1 <1>   0.5690 
  3 N       -2.1980     1.3710    -0.6760 N.am  1 <1>  -0.7300 
  4 C       -0.6370     3.3230    -0.6010 C.3   1 <1>   0.0610 
  5 C       -2.9730     0.2770    -1.2820 C.3   1 <1>   0.2840 
  6 C        0.2160     2.7870     0.5750 C.3   1 <1>  -0.1600 
  7 C       -1.7070     4.2910    -0.0330 C.3   1 <1>  -0.1600 
  8 C        0.2940     4.1370    -1.5370 C.3   1 <1>  -0.1600 
  9 C       -4.2980     0.1790    -0.5530 C.ar  1 <1>  -0.1440 
 10 C        0.8880     3.9390     1.3510 C.3   1 <1>   0.0000 
 11 C       -1.0550     5.4570     0.7360 C.3   1 <1>   0.0000 
 12 C        0.9620     5.2980    -0.7800 C.3   1 <1>  -0.0800 
 13 C       -4.5290    -0.8400     0.3590 C.ar  1 <1>   0.1600 
 14 C       -5.2950     1.1070    -0.7810 C.ar  1 <1>  -0.1500 
 15 C       -0.2090     4.8810     1.8900 C.3   1 <1>  -0.1600 
 16 C        1.7910     4.7300     0.3840 C.3   1 <1>  -0.1600 
 17 C        1.7210     3.3800     2.5100 C.3   1 <1>  -0.2400 
 18 C       -0.1280     6.2300    -0.2230 C.3   1 <1>  -0.1600 
 19 C       -2.1360     6.3930     1.2910 C.3   1 <1>  -0.2400 
 20 N       -5.6490    -1.0030     1.0460 N.ar  1 <1>  -0.6200 
 21 C       -6.4690     0.9510    -0.0770 C.ar  1 <1>  -0.1500 
 22 C       -6.5920    -0.1050     0.8110 C.ar  1 <1>   0.1600 
 23 H       -2.4260     1.5770     0.2960 H     1 <1>   0.3700 
 24 H       -2.4200    -0.6420    -1.1970 H     1 <1>   0.0800 
 25 H       -3.1390     0.4790    -2.3280 H     1 <1>   0.0800 
 26 H        0.9690     2.1210     0.1900 H     1 <1>   0.0800 
 27 H       -0.4030     2.2210     1.2480 H     1 <1>   0.0800 
 28 H       -2.3690     3.7600     0.6280 H     1 <1>   0.0800 
 29 H       -2.3000     4.6770    -0.8430 H     1 <1>   0.0800 
 30 H       -0.2740     4.5260    -2.3650 H     1 <1>   0.0800 
 31 H        1.0520     3.4910    -1.9450 H     1 <1>   0.0800 
 32 H        1.6020     5.8470    -1.4500 H     1 <1>   0.0800 
 33 H       -3.7510    -1.5630     0.5390 H     1 <1>   0.1500 
 34 H       -5.1620     1.9170    -1.4780 H     1 <1>   0.1500 
 35 H       -0.8440     4.3440     2.5730 H     1 <1>   0.0800 
 36 H        0.2480     5.6870     2.4390 H     1 <1>   0.0800 
 37 H        2.5640     4.0900    -0.0040 H     1 <1>   0.0800 
 38 H        2.2710     5.5380     0.9090 H     1 <1>   0.0800 
 39 H        1.0980     2.8280     3.1910 H     1 <1>   0.0800 
 40 H        2.1940     4.1790     3.0530 H     1 <1>   0.0800 
 41 H        2.4870     2.7210     2.1400 H     1 <1>   0.0800 
 42 H        0.3350     7.0510     0.2970 H     1 <1>   0.0800 
 43 H       -0.7000     6.6410    -1.0360 H     1 <1>   0.0800 
 44 H       -2.7860     5.8620     1.9630 H     1 <1>   0.0800 
 45 H       -2.7300     6.7970     0.4900 H     1 <1>   0.0800 
 46 H       -1.6870     7.2100     1.8260 H     1 <1>   0.0800 
 47 H       -7.2840     1.6390    -0.2110 H     1 <1>   0.1500 
 48 H       -7.5140    -0.2170     1.3550 H     1 <1>   0.1500 
@<TRIPOS>BOND
  1   1   2  2   
  2   2   3  am  
  3   2   4  1   
  4   3   5  1   
  5   3  23  1   
  6   4   6  1   
  7   4   7  1   
  8   4   8  1   
  9   5   9  1   
 10   5  24  1   
 11   5  25  1   
 12   6  10  1   
 13   6  26  1   
 14   6  27  1   
 15   7  11  1   
 16   7  28  1   
 17   7  29  1   
 18   8  12  1   
 19   8  30  1   
 20   8  31  1   
 21   9  13  ar  
 22   9  14  ar  
 23  10  15  1   
 24  10  16  1   
 25  10  17  1   
 26  11  15  1   
 27  11  18  1   
 28  11  19  1   
 29  12  16  1   
 30  12  18  1   
 31  12  32  1   
 32  13  20  ar  
 33  13  33  1   
 34  14  21  ar  
 35  14  34  1   
 36  15  35  1   
 37  15  36  1   
 38  16  37  1   
 39  16  38  1   
 40  17  39  1   
 41  17  40  1   
 42  17  41  1   
 43  18  42  1   
 44  18  43  1   
 45  19  44  1   
 46  19  45  1   
 47  19  46  1   
 48  20  22  ar  
 49  21  22  ar  
 50  21  47  1   
 51  22  48  1   
@<TRIPOS>SUBSTRUCTURE
  1 ****   4 GROUP 4 **** **** 0

# MOE 2024.06 (io_trps.svl 2023.06)
