@<TRIPOS>MOLECULE
NONAME
44 47 1 0 0 
SMALL
USER_CHARGES


@<TRIPOS>ATOM
  1 O       -0.3860    -0.6640    -1.1910 O.2   1 <1>  -0.5700 
  2 C       -1.3610    -1.1110    -0.6120 C.2   1 <1>   0.5440 
  3 N       -2.3810    -0.2530    -0.2140 N.am  1 <1>  -0.4200 
  4 C       -1.4420    -2.5270    -0.3500 C.ar  1 <1>   0.0860 
  5 C       -3.4930    -0.7580     0.4550 C.2   1 <1>   0.5440 
  6 C       -2.2470     1.2160    -0.5230 C.3   1 <1>   0.2200 
  7 C       -2.5640    -3.0470     0.3350 C.ar  1 <1>   0.0000 
  8 C       -0.4480    -3.4050    -0.7490 C.ar  1 <1>  -0.1500 
  9 O       -4.3960    -0.0160     0.7940 O.2   1 <1>  -0.5700 
 10 C       -3.5930    -2.1700     0.7580 C.ar  1 <1>   0.0860 
 11 C       -2.1830     2.0600     0.7550 C.3   1 <1>  -0.2400 
 12 C       -3.3430     1.6950    -1.4820 C.3   1 <1>  -0.2400 
 13 C       -2.6540    -4.4340     0.6060 C.ar  1 <1>   0.0000 
 14 C       -0.5390    -4.7650    -0.5050 C.ar  1 <1>  -0.1500 
 15 C       -4.6680    -2.6900     1.4550 C.ar  1 <1>  -0.1500 
 16 C       -1.6240    -5.3040     0.1520 C.ar  1 <1>   0.1000 
 17 C       -3.7660    -4.8940     1.3370 C.ar  1 <1>  -0.1500 
 18 C       -4.7550    -4.0460     1.7500 C.ar  1 <1>  -0.1500 
 19 N       -1.7050    -6.6730     0.3390 N.pl3 1 <1>  -0.8380 
 20 C       -2.6600    -7.4870    -0.4690 C.3   1 <1>   0.2090 
 21 C       -0.5780    -7.4680     0.9140 C.3   1 <1>   0.2090 
 22 C       -1.9090    -8.4120    -1.4440 C.3   1 <1>   0.1200 
 23 C        0.0380    -8.4110    -0.1370 C.3   1 <1>   0.1200 
 24 O       -0.9470    -9.1790    -0.7720 O.3   1 <1>  -0.5600 
 25 H       -1.3170     1.3910    -1.0330 H     1 <1>   0.0800 
 26 H        0.4180    -3.0290    -1.2680 H     1 <1>   0.1500 
 27 H       -3.1230     2.0640     1.2750 H     1 <1>   0.0800 
 28 H       -1.9420     3.0760     0.5030 H     1 <1>   0.0800 
 29 H       -1.4160     1.6830     1.4070 H     1 <1>   0.0800 
 30 H       -4.3100     1.6880    -1.0140 H     1 <1>   0.0800 
 31 H       -3.3650     1.0700    -2.3560 H     1 <1>   0.0800 
 32 H       -3.1340     2.7020    -1.7920 H     1 <1>   0.0800 
 33 H        0.2470    -5.4100    -0.8480 H     1 <1>   0.1500 
 34 H       -5.4610    -2.0400     1.7860 H     1 <1>   0.1500 
 35 H       -3.8270    -5.9400     1.5780 H     1 <1>   0.1500 
 36 H       -5.6010    -4.4150     2.3050 H     1 <1>   0.1500 
 37 H       -3.3140    -6.8370    -1.0240 H     1 <1>   0.0800 
 38 H       -3.2640    -8.0850     0.1910 H     1 <1>   0.0800 
 39 H       -0.9490    -8.0530     1.7370 H     1 <1>   0.0800 
 40 H        0.1790    -6.8060     1.2970 H     1 <1>   0.0800 
 41 H       -1.4170    -7.8310    -2.2050 H     1 <1>   0.0800 
 42 H       -2.5970    -9.0890    -1.9170 H     1 <1>   0.0800 
 43 H        0.7280    -9.0880     0.3340 H     1 <1>   0.0800 
 44 H        0.5660    -7.8470    -0.8850 H     1 <1>   0.0800 
@<TRIPOS>BOND
  1   1   2  2   
  2   2   3  am  
  3   2   4  1   
  4   3   5  am  
  5   3   6  1   
  6   4   7  ar  
  7   4   8  ar  
  8   5   9  2   
  9   5  10  1   
 10   6  11  1   
 11   6  12  1   
 12   6  25  1   
 13   7  10  ar  
 14   7  13  ar  
 15   8  14  ar  
 16   8  26  1   
 17  10  15  ar  
 18  11  27  1   
 19  11  28  1   
 20  11  29  1   
 21  12  30  1   
 22  12  31  1   
 23  12  32  1   
 24  13  16  ar  
 25  13  17  ar  
 26  14  16  ar  
 27  14  33  1   
 28  15  18  ar  
 29  15  34  1   
 30  16  19  1   
 31  17  18  ar  
 32  17  35  1   
 33  18  36  1   
 34  19  20  1   
 35  19  21  1   
 36  20  22  1   
 37  20  37  1   
 38  20  38  1   
 39  21  23  1   
 40  21  39  1   
 41  21  40  1   
 42  22  24  1   
 43  22  41  1   
 44  22  42  1   
 45  23  24  1   
 46  23  43  1   
 47  23  44  1   
@<TRIPOS>SUBSTRUCTURE
  1 ****   7 GROUP 4 **** **** 0

# MOE 2024.06 (io_trps.svl 2023.06)
