@<TRIPOS>MOLECULE
NONAME
47 48 1 0 0 
SMALL
USER_CHARGES


@<TRIPOS>ATOM
  1 O      -14.8560     1.8320    -0.3550 O.3   1 <1>  -0.3630 
  2 C      -13.5160     1.6000    -0.4140 C.ar  1 <1>   0.0830 
  3 C      -15.4380     2.7710     0.5220 C.3   1 <1>   0.2000 
  4 C      -12.5610     2.3150     0.3050 C.ar  1 <1>  -0.1500 
  5 C      -13.1060     0.5780    -1.2560 C.ar  1 <1>  -0.1500 
  6 C      -15.5160     2.1610     1.9240 C.3   1 <1>  -0.2400 
  7 C      -16.8310     3.0810    -0.0190 C.3   1 <1>  -0.2400 
  8 C      -11.2170     2.0060     0.1790 C.ar  1 <1>  -0.1500 
  9 C      -11.7640     0.2690    -1.3820 C.ar  1 <1>  -0.1500 
 10 C      -10.8110     0.9770    -0.6690 C.ar  1 <1>   0.0830 
 11 O       -9.5160     0.6110    -0.8510 O.3   1 <1>  -0.3630 
 12 C       -8.4660     1.3040    -0.2140 C.3   1 <1>   0.1200 
 13 C       -7.1490     0.6400    -0.6210 C.3   1 <1>   0.1100 
 14 N       -5.9800     1.3160    -0.0120 N.3   1 <1>  -0.8100 
 15 C       -5.6500     2.5860    -0.6970 C.3   1 <1>   0.1100 
 16 C       -4.8150     0.4090     0.0200 C.3   1 <1>   0.1100 
 17 C       -4.4340     3.2800    -0.0480 C.3   1 <1>   0.3430 
 18 C       -3.5920     1.0780     0.6800 C.3   1 <1>   0.3430 
 19 N       -3.2340     2.3740     0.0040 N.4   1 <1>  -0.9590 
 20 C       -2.0810     3.0370     0.6810 C.3   1 <1>   0.2630 
 21 H      -14.8500     3.6710     0.5110 H     1 <1>   0.0800 
 22 H      -12.8420     3.1110     0.9650 H     1 <1>   0.1500 
 23 H      -13.8460     0.0290    -1.8090 H     1 <1>   0.1500 
 24 H      -16.0980     1.2560     1.9020 H     1 <1>   0.0800 
 25 H      -15.9840     2.8530     2.5990 H     1 <1>   0.0800 
 26 H      -14.5340     1.9370     2.2970 H     1 <1>   0.0800 
 27 H      -17.4280     2.1870    -0.0520 H     1 <1>   0.0800 
 28 H      -16.7550     3.4930    -1.0090 H     1 <1>   0.0800 
 29 H      -17.3200     3.8000     0.6120 H     1 <1>   0.0800 
 30 H      -10.5070     2.5730     0.7480 H     1 <1>   0.1500 
 31 H      -11.4500    -0.5250    -2.0350 H     1 <1>   0.1500 
 32 H       -8.6070     1.2300     0.8500 H     1 <1>   0.0800 
 33 H       -8.5040     2.3280    -0.5370 H     1 <1>   0.0800 
 34 H       -7.0590     0.6380    -1.6950 H     1 <1>   0.0800 
 35 H       -7.1880    -0.3810    -0.2810 H     1 <1>   0.0800 
 36 H       -6.4910     3.2550    -0.6380 H     1 <1>   0.0800 
 37 H       -5.4470     2.4020    -1.7380 H     1 <1>   0.0800 
 38 H       -4.5620     0.0950    -0.9790 H     1 <1>   0.0800 
 39 H       -5.0690    -0.4720     0.5870 H     1 <1>   0.0800 
 40 H       -4.7080     3.5750     0.9520 H     1 <1>   0.0800 
 41 H       -4.1970     4.1720    -0.6050 H     1 <1>   0.0800 
 42 H       -2.7550     0.4000     0.6430 H     1 <1>   0.0800 
 43 H       -3.8260     1.2610     1.7150 H     1 <1>   0.0800 
 44 H       -2.9750     2.1510    -0.9670 H     1 <1>   0.4500 
 45 H       -2.3340     3.2770     1.7010 H     1 <1>   0.0800 
 46 H       -1.8180     3.9480     0.1680 H     1 <1>   0.0800 
 47 H       -1.2220     2.3860     0.6830 H     1 <1>   0.0800 
@<TRIPOS>BOND
  1   1   2  1   
  2   1   3  1   
  3   2   4  ar  
  4   2   5  ar  
  5   3   6  1   
  6   3   7  1   
  7   3  21  1   
  8   4   8  ar  
  9   4  22  1   
 10   5   9  ar  
 11   5  23  1   
 12   6  24  1   
 13   6  25  1   
 14   6  26  1   
 15   7  27  1   
 16   7  28  1   
 17   7  29  1   
 18   8  10  ar  
 19   8  30  1   
 20   9  10  ar  
 21   9  31  1   
 22  10  11  1   
 23  11  12  1   
 24  12  13  1   
 25  12  32  1   
 26  12  33  1   
 27  13  14  1   
 28  13  34  1   
 29  13  35  1   
 30  14  15  1   
 31  14  16  1   
 32  15  17  1   
 33  15  36  1   
 34  15  37  1   
 35  16  18  1   
 36  16  38  1   
 37  16  39  1   
 38  17  19  1   
 39  17  40  1   
 40  17  41  1   
 41  18  19  1   
 42  18  42  1   
 43  18  43  1   
 44  19  20  1   
 45  19  44  1   
 46  20  45  1   
 47  20  46  1   
 48  20  47  1   
@<TRIPOS>SUBSTRUCTURE
  1 ****  12 GROUP 4 **** **** 0

# MOE 2024.06 (io_trps.svl 2023.06)
