@<TRIPOS>MOLECULE
NONAME
46 48 1 0 0 
SMALL
USER_CHARGES


@<TRIPOS>ATOM
  1 O       -3.3130     8.5460     0.0670 O.3   1 <1>  -0.3630 
  2 C       -4.5190     7.9340    -0.0190 C.ar  1 <1>   0.0830 
  3 C       -2.1130     7.8190    -0.0660 C.3   1 <1>   0.1200 
  4 C       -4.6990     6.5990    -0.2970 C.ar  1 <1>  -0.1500 
  5 C       -5.6370     8.7500     0.1960 C.ar  1 <1>  -0.1500 
  6 C       -0.9470     8.7970     0.0920 C.3   1 <1>   0.1100 
  7 C       -5.9870     6.0340    -0.3670 C.ar  1 <1>   0.0000 
  8 C       -6.8980     8.2270     0.1340 C.ar  1 <1>  -0.1500 
  9 N        0.3630     8.1180    -0.0220 N.3   1 <1>  -0.8100 
 10 C       -7.1100     6.8620    -0.1460 C.ar  1 <1>   0.0000 
 11 C       -6.2010     4.6690    -0.6490 C.ar  1 <1>  -0.1500 
 12 C        1.4350     9.1010    -0.3130 C.3   1 <1>   0.1100 
 13 C        0.7020     7.3430     1.2000 C.3   1 <1>   0.1100 
 14 C       -8.3970     6.2930    -0.2160 C.ar  1 <1>  -0.1500 
 15 C       -7.4620     4.1430    -0.7100 C.ar  1 <1>  -0.1500 
 16 C        2.8310     8.4420    -0.4430 C.3   1 <1>   0.3430 
 17 C        2.1040     6.6870     1.1220 C.3   1 <1>   0.3430 
 18 C       -8.5730     4.9650    -0.4910 C.ar  1 <1>  -0.1500 
 19 N        2.7630     6.9630    -0.1990 N.4   1 <1>  -0.9590 
 20 C        4.0680     6.2870    -0.4010 C.3   1 <1>   0.3430 
 21 C        3.8560     4.7830    -0.5210 C.3   1 <1>  -0.2400 
 22 H       -2.0960     7.3720    -1.0450 H     1 <1>   0.0800 
 23 H       -2.0980     7.0660     0.7000 H     1 <1>   0.0800 
 24 H       -3.8690     5.9440    -0.4710 H     1 <1>   0.1500 
 25 H       -5.4750     9.7910     0.4100 H     1 <1>   0.1500 
 26 H       -1.0240     9.3010     1.0410 H     1 <1>   0.0800 
 27 H       -1.0370     9.5310    -0.6920 H     1 <1>   0.0800 
 28 H       -7.7550     8.8550     0.3000 H     1 <1>   0.1500 
 29 H       -5.3450     4.0410    -0.8180 H     1 <1>   0.1500 
 30 H        1.4690     9.8460     0.4660 H     1 <1>   0.0800 
 31 H        1.2100     9.6120    -1.2340 H     1 <1>   0.0800 
 32 H       -0.0270     6.5660     1.3490 H     1 <1>   0.0800 
 33 H        0.6660     7.9860     2.0640 H     1 <1>   0.0800 
 34 H       -9.2480     6.9280    -0.0470 H     1 <1>   0.1500 
 35 H       -7.6180     3.1000    -0.9260 H     1 <1>   0.1500 
 36 H        3.5050     8.9020     0.2610 H     1 <1>   0.0800 
 37 H        3.2120     8.6310    -1.4330 H     1 <1>   0.0800 
 38 H        1.9960     5.6250     1.2670 H     1 <1>   0.0800 
 39 H        2.7170     7.0650     1.9240 H     1 <1>   0.0800 
 40 H       -9.5590     4.5360    -0.5430 H     1 <1>   0.1500 
 41 H        2.0790     6.6290    -0.8960 H     1 <1>   0.4500 
 42 H        4.7320     6.5050     0.4210 H     1 <1>   0.0800 
 43 H        4.5240     6.6480    -1.3090 H     1 <1>   0.0800 
 44 H        3.4980     4.3600     0.4000 H     1 <1>   0.0800 
 45 H        4.7970     4.3140    -0.7490 H     1 <1>   0.0800 
 46 H        3.1720     4.5550    -1.3180 H     1 <1>   0.0800 
@<TRIPOS>BOND
  1   1   2  1   
  2   1   3  1   
  3   2   4  ar  
  4   2   5  ar  
  5   3   6  1   
  6   3  22  1   
  7   3  23  1   
  8   4   7  ar  
  9   4  24  1   
 10   5   8  ar  
 11   5  25  1   
 12   6   9  1   
 13   6  26  1   
 14   6  27  1   
 15   7  10  ar  
 16   7  11  ar  
 17   8  10  ar  
 18   8  28  1   
 19   9  12  1   
 20   9  13  1   
 21  10  14  ar  
 22  11  15  ar  
 23  11  29  1   
 24  12  16  1   
 25  12  30  1   
 26  12  31  1   
 27  13  17  1   
 28  13  32  1   
 29  13  33  1   
 30  14  18  ar  
 31  14  34  1   
 32  15  18  ar  
 33  15  35  1   
 34  16  19  1   
 35  16  36  1   
 36  16  37  1   
 37  17  19  1   
 38  17  38  1   
 39  17  39  1   
 40  18  40  1   
 41  19  20  1   
 42  19  41  1   
 43  20  21  1   
 44  20  42  1   
 45  20  43  1   
 46  21  44  1   
 47  21  45  1   
 48  21  46  1   
@<TRIPOS>SUBSTRUCTURE
  1 ****   3 GROUP 4 **** **** 0

# MOE 2024.06 (io_trps.svl 2023.06)
