@<TRIPOS>MOLECULE
NONAME
38 38 1 0 0 
SMALL
USER_CHARGES


@<TRIPOS>ATOM
  1 O        0.4070     1.3220    -1.3960 O.2   1 <1>  -0.5700 
  2 C        0.2290     1.9640    -0.3790 C.2   1 <1>   0.5440 
  3 N       -0.9720     1.8540     0.2640 N.am  1 <1>  -0.7300 
  4 C        1.2790     2.8140     0.1560 C.ar  1 <1>   0.0860 
  5 C       -2.1360     1.0750    -0.2200 C.3   1 <1>   0.1400 
  6 C        2.6210     2.5150    -0.0740 C.ar  1 <1>  -0.1500 
  7 C        0.9910     3.9530     0.9130 C.ar  1 <1>  -0.1500 
  8 C       -3.4410     1.8600    -0.0040 C.3   1 <1>  -0.0800 
  9 C        3.6420     3.3060     0.4400 C.ar  1 <1>   0.0830 
 10 C        1.9990     4.7470     1.4300 C.ar  1 <1>  -0.1500 
 11 C       -4.6440     1.0020    -0.4160 C.3   1 <1>  -0.2400 
 12 C       -3.4560     3.1770    -0.7960 C.3   1 <1>  -0.2400 
 13 O        4.9650     3.0660     0.2530 O.3   1 <1>  -0.3630 
 14 C        3.3210     4.4210     1.1950 C.ar  1 <1>  -0.1500 
 15 C        5.4550     1.9780    -0.5000 C.3   1 <1>   0.2000 
 16 C        5.4530     0.7260     0.3790 C.3   1 <1>  -0.2400 
 17 C        6.8730     2.3400    -0.9350 C.3   1 <1>  -0.2400 
 18 H       -1.0900     2.2940     1.1760 H     1 <1>   0.3700 
 19 H       -2.1760     0.1430     0.3180 H     1 <1>   0.0800 
 20 H       -2.0160     0.8500    -1.2670 H     1 <1>   0.0800 
 21 H        2.8380     1.6450    -0.6640 H     1 <1>   0.1500 
 22 H       -0.0320     4.2270     1.0930 H     1 <1>   0.1500 
 23 H       -3.5370     2.0820     1.0460 H     1 <1>   0.0800 
 24 H        1.7580     5.6200     2.0120 H     1 <1>   0.1500 
 25 H       -4.5920     0.7550    -1.4620 H     1 <1>   0.0800 
 26 H       -5.5620     1.5330    -0.2350 H     1 <1>   0.0800 
 27 H       -4.6660     0.0890     0.1520 H     1 <1>   0.0800 
 28 H       -3.3370     2.9840    -1.8480 H     1 <1>   0.0800 
 29 H       -2.6570     3.8220    -0.4790 H     1 <1>   0.0800 
 30 H       -4.3860     3.6960    -0.6450 H     1 <1>   0.0800 
 31 H        4.1140     5.0300     1.5910 H     1 <1>   0.1500 
 32 H        4.8420     1.8510    -1.3750 H     1 <1>   0.0800 
 33 H        6.0630     0.8820     1.2500 H     1 <1>   0.0800 
 34 H        5.8480    -0.1080    -0.1710 H     1 <1>   0.0800 
 35 H        4.4540     0.4800     0.6890 H     1 <1>   0.0800 
 36 H        7.4980     2.5060    -0.0760 H     1 <1>   0.0800 
 37 H        6.8540     3.2290    -1.5380 H     1 <1>   0.0800 
 38 H        7.2940     1.5420    -1.5190 H     1 <1>   0.0800 
@<TRIPOS>BOND
  1   1   2  2   
  2   2   3  am  
  3   2   4  1   
  4   3   5  1   
  5   3  18  1   
  6   4   6  ar  
  7   4   7  ar  
  8   5   8  1   
  9   5  19  1   
 10   5  20  1   
 11   6   9  ar  
 12   6  21  1   
 13   7  10  ar  
 14   7  22  1   
 15   8  11  1   
 16   8  12  1   
 17   8  23  1   
 18   9  13  1   
 19   9  14  ar  
 20  10  14  ar  
 21  10  24  1   
 22  11  25  1   
 23  11  26  1   
 24  11  27  1   
 25  12  28  1   
 26  12  29  1   
 27  12  30  1   
 28  13  15  1   
 29  14  31  1   
 30  15  16  1   
 31  15  17  1   
 32  15  32  1   
 33  16  33  1   
 34  16  34  1   
 35  16  35  1   
 36  17  36  1   
 37  17  37  1   
 38  17  38  1   
@<TRIPOS>SUBSTRUCTURE
  1 ****   4 GROUP 4 **** **** 0

# MOE 2024.06 (io_trps.svl 2023.06)
