@<TRIPOS>MOLECULE
NONAME
51 52 1 0 0 
SMALL
USER_CHARGES


@<TRIPOS>ATOM
  1 O        0.2440    -0.8540    -2.7830 O.2   1 <1>  -0.5700 
  2 C        0.0930    -1.6230    -1.8650 C.2   1 <1>   0.5690 
  3 N        1.0170    -1.8160    -0.8740 N.am  1 <1>  -0.5470 
  4 C       -1.2150    -2.4230    -1.7810 C.3   1 <1>   0.1710 
  5 C        2.2520    -1.2080    -0.5790 C.ar  1 <1>   0.1170 
  6 N       -2.3460    -1.7160    -1.1060 N.3   1 <1>  -0.8100 
  7 C        2.8130    -1.4540     0.6790 C.ar  1 <1>   0.0830 
  8 C        2.9360    -0.3910    -1.4720 C.ar  1 <1>  -0.1500 
  9 C       -3.6040    -2.4940    -1.1440 C.3   1 <1>   0.1100 
 10 C       -2.0370    -1.2560     0.2720 C.3   1 <1>   0.1100 
 11 O        2.1110    -2.2680     1.5280 O.3   1 <1>  -0.3630 
 12 C        4.0340    -0.8820     1.0200 C.ar  1 <1>  -0.1500 
 13 C        4.1500     0.1770    -1.1290 C.ar  1 <1>  -0.1500 
 14 C       -4.7970    -1.7060    -0.5450 C.3   1 <1>   0.3430 
 15 C       -3.2240    -0.4980     0.9180 C.3   1 <1>   0.3430 
 16 C        2.6700    -2.6770     2.7590 C.3   1 <1>   0.0400 
 17 C        4.7050    -0.0680     0.1230 C.ar  1 <1>   0.0830 
 18 N       -4.3670    -0.3570    -0.0470 N.4   1 <1>  -0.9590 
 19 O        5.8910     0.4490     0.5400 O.3   1 <1>  -0.3620 
 20 C       -5.5010     0.4700     0.4400 C.3   1 <1>   0.3430 
 21 C        6.6450     1.2990    -0.2950 C.3   1 <1>   0.0400 
 22 C       -5.0780     1.9350     0.5700 C.3   1 <1>  -0.1600 
 23 C       -6.2730     2.8180     0.9470 C.3   1 <1>  -0.2400 
 24 H        0.7680    -2.4870    -0.1470 H     1 <1>   0.3700 
 25 H       -1.0200    -3.3540    -1.2810 H     1 <1>   0.0800 
 26 H       -1.5060    -2.6520    -2.7910 H     1 <1>   0.0800 
 27 H        2.5280    -0.1930    -2.4460 H     1 <1>   0.1500 
 28 H       -3.4810    -3.4180    -0.6040 H     1 <1>   0.0800 
 29 H       -3.8370    -2.7450    -2.1660 H     1 <1>   0.0800 
 30 H       -1.1920    -0.5880     0.2470 H     1 <1>   0.0800 
 31 H       -1.7710    -2.0950     0.8920 H     1 <1>   0.0800 
 32 H        4.4930    -1.0450     1.9740 H     1 <1>   0.1500 
 33 H        4.6440     0.8010    -1.8490 H     1 <1>   0.1500 
 34 H       -5.2280    -2.2760     0.2610 H     1 <1>   0.0800 
 35 H       -5.5520    -1.5900    -1.3050 H     1 <1>   0.0800 
 36 H       -2.8800     0.4740     1.2300 H     1 <1>   0.0800 
 37 H       -3.5490    -1.0290     1.7980 H     1 <1>   0.0800 
 38 H        1.9820    -3.3500     3.2360 H     1 <1>   0.0800 
 39 H        2.8220    -1.8110     3.3800 H     1 <1>   0.0800 
 40 H        3.6020    -3.1810     2.5700 H     1 <1>   0.0800 
 41 H       -3.9360     0.0860    -0.8760 H     1 <1>   0.4500 
 42 H       -5.8490     0.1020     1.3920 H     1 <1>   0.0800 
 43 H       -6.3160     0.4090    -0.2630 H     1 <1>   0.0800 
 44 H        7.5330     1.5890     0.2380 H     1 <1>   0.0800 
 45 H        6.0590     2.1700    -0.5280 H     1 <1>   0.0800 
 46 H        6.9140     0.7630    -1.1880 H     1 <1>   0.0800 
 47 H       -4.6770     2.2820    -0.3670 H     1 <1>   0.0800 
 48 H       -4.3250     2.0420     1.3300 H     1 <1>   0.0800 
 49 H       -7.0420     2.7650     0.1950 H     1 <1>   0.0800 
 50 H       -5.9580     3.8450     1.0320 H     1 <1>   0.0800 
 51 H       -6.6910     2.5170     1.8930 H     1 <1>   0.0800 
@<TRIPOS>BOND
  1   1   2  2   
  2   2   3  am  
  3   2   4  1   
  4   3   5  1   
  5   3  24  1   
  6   4   6  1   
  7   4  25  1   
  8   4  26  1   
  9   5   7  ar  
 10   5   8  ar  
 11   6   9  1   
 12   6  10  1   
 13   7  11  1   
 14   7  12  ar  
 15   8  13  ar  
 16   8  27  1   
 17   9  14  1   
 18   9  28  1   
 19   9  29  1   
 20  10  15  1   
 21  10  30  1   
 22  10  31  1   
 23  11  16  1   
 24  12  17  ar  
 25  12  32  1   
 26  13  17  ar  
 27  13  33  1   
 28  14  18  1   
 29  14  34  1   
 30  14  35  1   
 31  15  18  1   
 32  15  36  1   
 33  15  37  1   
 34  16  38  1   
 35  16  39  1   
 36  16  40  1   
 37  17  19  1   
 38  18  20  1   
 39  18  41  1   
 40  19  21  1   
 41  20  22  1   
 42  20  42  1   
 43  20  43  1   
 44  21  44  1   
 45  21  45  1   
 46  21  46  1   
 47  22  23  1   
 48  22  47  1   
 49  22  48  1   
 50  23  49  1   
 51  23  50  1   
 52  23  51  1   
@<TRIPOS>SUBSTRUCTURE
  1 ****   3 GROUP 4 **** **** 0

# MOE 2024.06 (io_trps.svl 2023.06)
