@<TRIPOS>MOLECULE
Structure2629
29 30 1 0 0 
SMALL
USER_CHARGES


@<TRIPOS>ATOM
  1 F        0.2890    -0.3760    -0.5790 F     1 <1>  -0.1900 
  2 C        1.4630    -0.9060    -0.3440 C.ar  1 <1>   0.1900 
  3 C        1.5500    -2.2520    -0.0200 C.ar  1 <1>  -0.1440 
  4 C        2.5730    -0.0870    -0.4310 C.ar  1 <1>  -0.1500 
  5 C        2.8110    -2.7760     0.2220 C.ar  1 <1>  -0.1500 
  6 C        0.3090    -3.1270     0.0700 C.3   1 <1>  -0.0960 
  7 C        3.8250    -0.6270    -0.1870 C.ar  1 <1>  -0.1500 
  8 C        3.9450    -1.9780     0.1390 C.ar  1 <1>   0.0830 
  9 O        5.1320    -2.5880     0.3890 O.3   1 <1>  -0.3630 
 10 C        6.3480    -1.8870     0.3110 C.3   1 <1>   0.1200 
 11 C        7.4640    -2.8770     0.6420 C.3   1 <1>   0.0000 
 12 C        8.7940    -2.6070    -0.0880 C.3   1 <1>   0.4720 
 13 C        7.4030    -4.1730    -0.1900 C.3   1 <1>   0.4720 
 14 N        8.8960    -4.0870    -0.3000 N.4   1 <1>  -0.8440 
 15 H        2.4520     0.9510    -0.6840 H     1 <1>   0.1500 
 16 H        2.9230    -3.8140     0.4780 H     1 <1>   0.1500 
 17 H       -0.3650    -2.7310     0.8090 H     1 <1>   0.0800 
 18 H        0.5640    -4.1340     0.3450 H     1 <1>   0.0800 
 19 H       -0.1940    -3.1460    -0.8800 H     1 <1>   0.0800 
 20 H        4.6780     0.0200    -0.2540 H     1 <1>   0.1500 
 21 H        6.3270    -1.0770     1.0210 H     1 <1>   0.0800 
 22 H        6.4430    -1.5020    -0.6910 H     1 <1>   0.0800 
 23 H        7.5920    -3.0540     1.6960 H     1 <1>   0.0000 
 24 H        9.5800    -2.2280     0.5400 H     1 <1>   0.0000 
 25 H        8.6700    -2.0900    -1.0220 H     1 <1>   0.0000 
 26 H        6.9350    -4.0420    -1.1500 H     1 <1>   0.0000 
 27 H        7.0800    -5.0410     0.3560 H     1 <1>   0.0000 
 28 H        9.3650    -4.5660     0.4760 H     1 <1>   0.4500 
 29 H        9.2550    -4.3570    -1.2220 H     1 <1>   0.4500 
@<TRIPOS>BOND
  1   1   2  1   
  2   2   3  ar  
  3   2   4  ar  
  4   3   5  ar  
  5   3   6  1   
  6   4   7  ar  
  7   4  15  1   
  8   5   8  ar  
  9   5  16  1   
 10   6  17  1   
 11   6  18  1   
 12   6  19  1   
 13   7   8  ar  
 14   7  20  1   
 15   8   9  1   
 16   9  10  1   
 17  10  11  1   
 18  10  21  1   
 19  10  22  1   
 20  11  12  1   
 21  11  13  1   
 22  11  23  1   
 23  12  14  1   
 24  12  24  1   
 25  12  25  1   
 26  13  14  1   
 27  13  26  1   
 28  13  27  1   
 29  14  28  1   
 30  14  29  1   
@<TRIPOS>SUBSTRUCTURE
  1 ****   8 GROUP 4 **** **** 0

# MOE 2024.06 (io_trps.svl 2023.06)
