@<TRIPOS>MOLECULE
NONAME
45 46 1 0 0 
SMALL
USER_CHARGES


@<TRIPOS>ATOM
  1 O       -0.4680    -0.8380    -1.6260 O.2   1 <1>  -0.5700 
  2 C       -0.8660    -1.6480    -0.8250 C.2   1 <1>   0.5690 
  3 N       -0.1190    -2.4470    -0.0160 N.am  1 <1>  -0.6600 
  4 C       -2.3360    -1.8910    -0.6310 C.3   1 <1>  -0.0990 
  5 C        1.3680    -2.5780    -0.0350 C.3   1 <1>   0.3000 
  6 C       -0.9900    -3.3210     0.8070 C.3   1 <1>   0.1400 
  7 C       -2.3910    -2.7060     0.6720 C.3   1 <1>  -0.0190 
  8 C        1.8100    -3.0510    -1.4220 C.3   1 <1>  -0.2400 
  9 C        1.8540    -3.5990     1.0040 C.3   1 <1>  -0.2400 
 10 C        1.9960    -1.2210     0.2970 C.3   1 <1>  -0.2400 
 11 C       -3.5180    -3.7280     0.7370 C.2   1 <1>   0.5690 
 12 O       -3.2820    -4.8310     1.1640 O.2   1 <1>  -0.5700 
 13 N       -4.7630    -3.3210     0.3370 N.am  1 <1>  -0.5470 
 14 C       -6.0190    -3.9500     0.2650 C.ar  1 <1>   0.1170 
 15 C       -7.1910    -3.1770     0.1080 C.ar  1 <1>   0.0860 
 16 C       -6.1250    -5.3380     0.3360 C.ar  1 <1>  -0.1500 
 17 C       -7.1660    -1.7260     0.0060 C.2   1 <1>   0.6340 
 18 C       -8.4160    -3.8550     0.0490 C.ar  1 <1>  -0.1500 
 19 C       -7.3460    -5.9750     0.2730 C.ar  1 <1>  -0.1500 
 20 O       -6.1540    -1.0680    -0.1580 O.2   1 <1>  -0.5700 
 21 O       -8.3300    -1.0710     0.0950 O.3   1 <1>  -0.4300 
 22 C       -8.4990    -5.2290     0.1310 C.ar  1 <1>  -0.1500 
 23 C       -8.4100     0.3390     0.0050 C.3   1 <1>   0.0400 
 24 H       -2.6970    -2.4580    -1.4690 H     1 <1>   0.0800 
 25 H       -2.8710    -0.9620    -0.5520 H     1 <1>   0.0800 
 26 H       -0.6850    -3.3310     1.8390 H     1 <1>   0.0800 
 27 H       -0.9610    -4.3200     0.4060 H     1 <1>   0.0800 
 28 H       -2.5200    -2.0250     1.4940 H     1 <1>   0.0800 
 29 H        1.5600    -2.3240    -2.1720 H     1 <1>   0.0800 
 30 H        1.3340    -3.9830    -1.6670 H     1 <1>   0.0800 
 31 H        2.8750    -3.1950    -1.4460 H     1 <1>   0.0800 
 32 H        1.4490    -4.5740     0.8030 H     1 <1>   0.0800 
 33 H        1.5860    -3.2910     1.9970 H     1 <1>   0.0800 
 34 H        2.9260    -3.6780     0.9650 H     1 <1>   0.0800 
 35 H        1.6400    -0.8690     1.2480 H     1 <1>   0.0800 
 36 H        1.7570    -0.4930    -0.4560 H     1 <1>   0.0800 
 37 H        3.0660    -1.3060     0.3420 H     1 <1>   0.0800 
 38 H       -4.8150    -2.3220     0.0930 H     1 <1>   0.3700 
 39 H       -5.2450    -5.9450     0.4390 H     1 <1>   0.1500 
 40 H       -9.3300    -3.2980    -0.0660 H     1 <1>   0.1500 
 41 H       -7.4010    -7.0490     0.3350 H     1 <1>   0.1500 
 42 H       -9.4560    -5.7210     0.0830 H     1 <1>   0.1500 
 43 H       -9.4410     0.6290     0.1040 H     1 <1>   0.0800 
 44 H       -8.0270     0.6500    -0.9510 H     1 <1>   0.0800 
 45 H       -7.8260     0.7730     0.7990 H     1 <1>   0.0800 
@<TRIPOS>BOND
  1   1   2  2   
  2   2   3  am  
  3   2   4  1   
  4   3   5  1   
  5   3   6  1   
  6   4   7  1   
  7   4  24  1   
  8   4  25  1   
  9   5   8  1   
 10   5   9  1   
 11   5  10  1   
 12   6   7  1   
 13   6  26  1   
 14   6  27  1   
 15   7  11  1   
 16   7  28  1   
 17   8  29  1   
 18   8  30  1   
 19   8  31  1   
 20   9  32  1   
 21   9  33  1   
 22   9  34  1   
 23  10  35  1   
 24  10  36  1   
 25  10  37  1   
 26  11  12  2   
 27  11  13  am  
 28  13  14  1   
 29  13  38  1   
 30  14  15  ar  
 31  14  16  ar  
 32  15  17  1   
 33  15  18  ar  
 34  16  19  ar  
 35  16  39  1   
 36  17  20  2   
 37  17  21  1   
 38  18  22  ar  
 39  18  40  1   
 40  19  22  ar  
 41  19  41  1   
 42  21  23  1   
 43  22  42  1   
 44  23  43  1   
 45  23  44  1   
 46  23  45  1   
@<TRIPOS>SUBSTRUCTURE
  1 ****  11 GROUP 4 **** **** 0

# MOE 2024.06 (io_trps.svl 2023.06)
