@<TRIPOS>MOLECULE
NONAME
45 46 1 0 0 
SMALL
USER_CHARGES


@<TRIPOS>ATOM
  1 O       -1.0630    -2.0090    -2.5810 O.2   1 <1>  -0.5700 
  2 C       -1.1590    -1.7690    -1.4020 C.2   1 <1>   0.5690 
  3 N       -0.4330    -2.3390    -0.4150 N.am  1 <1>  -0.6600 
  4 C       -2.1210    -0.7590    -0.8410 C.3   1 <1>  -0.0990 
  5 C       -0.7720    -1.8250     0.9210 C.3   1 <1>   0.1400 
  6 C        0.6070    -3.3710    -0.6080 C.3   1 <1>   0.1400 
  7 C       -2.0210    -0.9640     0.6810 C.3   1 <1>  -0.1600 
  8 C        1.9880    -2.7200    -0.5670 C.3   1 <1>  -0.1600 
  9 C        3.0780    -3.7550    -0.8310 C.3   1 <1>   0.1400 
 10 N        4.3940    -3.0930    -0.7390 N.am  1 <1>  -0.7300 
 11 C        5.2280    -3.1340     0.3420 C.2   1 <1>   0.5440 
 12 O        4.9090    -3.7930     1.3120 O.2   1 <1>  -0.5700 
 13 C        6.4690    -2.3830     0.3120 C.ar  1 <1>   0.0860 
 14 C        6.4850    -1.0150     0.6090 C.ar  1 <1>  -0.1440 
 15 C        7.6760    -3.0020    -0.0350 C.ar  1 <1>  -0.1440 
 16 C        7.6670    -0.2960     0.5430 C.ar  1 <1>  -0.1500 
 17 C        5.2050    -0.2960     1.0190 C.3   1 <1>  -0.0970 
 18 C        8.8480    -2.2680    -0.0950 C.ar  1 <1>  -0.1500 
 19 C        7.7180    -4.4930    -0.3470 C.3   1 <1>  -0.0970 
 20 C        8.8510    -0.9150     0.1880 C.ar  1 <1>  -0.1440 
 21 C       10.1430    -0.1190     0.1210 C.3   1 <1>  -0.0970 
 22 H       -3.1140    -0.9400    -1.2080 H     1 <1>   0.0800 
 23 H       -1.7950     0.2250    -1.1240 H     1 <1>   0.0800 
 24 H        0.0420    -1.2270     1.2940 H     1 <1>   0.0800 
 25 H       -0.9770    -2.6340     1.6010 H     1 <1>   0.0800 
 26 H        0.4560    -3.8450    -1.5640 H     1 <1>   0.0800 
 27 H        0.5180    -4.1190     0.1600 H     1 <1>   0.0800 
 28 H       -2.8860    -1.5010     1.0310 H     1 <1>   0.0800 
 29 H       -1.9600    -0.0290     1.2100 H     1 <1>   0.0800 
 30 H        2.1480    -2.2840     0.4030 H     1 <1>   0.0800 
 31 H        2.0360    -1.9520    -1.3200 H     1 <1>   0.0800 
 32 H        2.9620    -4.1850    -1.8110 H     1 <1>   0.0800 
 33 H        3.0180    -4.5460    -0.1020 H     1 <1>   0.0800 
 34 H        4.6610    -2.5070    -1.5320 H     1 <1>   0.3700 
 35 H        7.6700     0.7550     0.7730 H     1 <1>   0.1500 
 36 H        5.4070     0.7170     1.3160 H     1 <1>   0.0800 
 37 H        4.5100    -0.2780     0.1990 H     1 <1>   0.0800 
 38 H        4.7480    -0.8040     1.8500 H     1 <1>   0.0800 
 39 H        9.7710    -2.7520    -0.3620 H     1 <1>   0.1500 
 40 H        7.0950    -4.7110    -1.1950 H     1 <1>   0.0800 
 41 H        7.3580    -5.0530     0.4990 H     1 <1>   0.0800 
 42 H        8.7190    -4.8170    -0.5660 H     1 <1>   0.0800 
 43 H        9.9420     0.9030    -0.1450 H     1 <1>   0.0800 
 44 H       10.8040    -0.5370    -0.6160 H     1 <1>   0.0800 
 45 H       10.6310    -0.1400     1.0780 H     1 <1>   0.0800 
@<TRIPOS>BOND
  1   1   2  2   
  2   2   3  am  
  3   2   4  1   
  4   3   5  1   
  5   3   6  1   
  6   4   7  1   
  7   4  22  1   
  8   4  23  1   
  9   5   7  1   
 10   5  24  1   
 11   5  25  1   
 12   6   8  1   
 13   6  26  1   
 14   6  27  1   
 15   7  28  1   
 16   7  29  1   
 17   8   9  1   
 18   8  30  1   
 19   8  31  1   
 20   9  10  1   
 21   9  32  1   
 22   9  33  1   
 23  10  11  am  
 24  10  34  1   
 25  11  12  2   
 26  11  13  1   
 27  13  14  ar  
 28  13  15  ar  
 29  14  16  ar  
 30  14  17  1   
 31  15  18  ar  
 32  15  19  1   
 33  16  20  ar  
 34  16  35  1   
 35  17  36  1   
 36  17  37  1   
 37  17  38  1   
 38  18  20  ar  
 39  18  39  1   
 40  19  40  1   
 41  19  41  1   
 42  19  42  1   
 43  20  21  1   
 44  21  43  1   
 45  21  44  1   
 46  21  45  1   
@<TRIPOS>SUBSTRUCTURE
  1 ****  10 GROUP 4 **** **** 0

# MOE 2024.06 (io_trps.svl 2023.06)
