@<TRIPOS>MOLECULE
NONAME
35 36 1 0 0 
SMALL
USER_CHARGES


@<TRIPOS>ATOM
  1 O        0.1150     0.2120     0.5030 O.2   1 <1>  -0.5700 
  2 C       -0.0990     1.3570     0.1590 C.2   1 <1>   0.6900 
  3 N       -1.3680     1.8390     0.0320 N.am  1 <1>  -0.5470 
  4 N        0.9120     2.2230    -0.1080 N.am  1 <1>  -0.7300 
  5 C       -2.6090     1.1850     0.1150 C.ar  1 <1>   0.1170 
  6 C        2.3590     1.9990    -0.0240 C.3   1 <1>   0.3000 
  7 C       -3.7200     1.9010     0.5150 C.ar  1 <1>  -0.1500 
  8 C       -2.7570    -0.1760    -0.2180 C.ar  1 <1>  -0.1500 
  9 C        2.7510     1.6280     1.4070 C.3   1 <1>  -0.2400 
 10 C        2.7760     0.9140    -1.0180 C.3   1 <1>  -0.2400 
 11 C        3.0230     3.3210    -0.4060 C.3   1 <1>  -0.2400 
 12 C       -4.9620     1.2700     0.5870 C.ar  1 <1>   0.2270 
 13 C       -3.9790    -0.8040    -0.1470 C.ar  1 <1>  -0.1500 
 14 N       -6.1770     1.7540     0.9450 N.2   1 <1>  -0.2270 
 15 C       -5.0850    -0.0540     0.2640 C.ar  1 <1>  -0.1520 
 16 N       -7.0300     0.8030     0.8610 N.2   1 <1>  -0.4180 
 17 N       -6.4000    -0.3080     0.4520 N.pl3 1 <1>   0.3140 
 18 C       -7.0850    -1.5910     0.2570 C.3   1 <1>   0.0160 
 19 H       -1.4170     2.8510     0.0070 H     1 <1>   0.3700 
 20 H        0.6770     3.0960    -0.5670 H     1 <1>   0.3700 
 21 H       -3.6610     2.9380     0.7790 H     1 <1>   0.1500 
 22 H       -1.8930    -0.7310    -0.5360 H     1 <1>   0.1500 
 23 H        2.3300     0.6790     1.6830 H     1 <1>   0.0800 
 24 H        2.4060     2.3760     2.0980 H     1 <1>   0.0800 
 25 H        3.8190     1.5510     1.4910 H     1 <1>   0.0800 
 26 H        3.8450     0.8040    -1.0190 H     1 <1>   0.0800 
 27 H        2.4570     1.1690    -2.0120 H     1 <1>   0.0800 
 28 H        2.3480    -0.0340    -0.7460 H     1 <1>   0.0800 
 29 H        4.0930     3.2220    -0.3580 H     1 <1>   0.0800 
 30 H        2.7300     4.1010     0.2740 H     1 <1>   0.0800 
 31 H        2.7600     3.6040    -1.4090 H     1 <1>   0.0800 
 32 H       -4.0840    -1.8440    -0.3990 H     1 <1>   0.1500 
 33 H       -6.9820    -1.8940    -0.7680 H     1 <1>   0.0800 
 34 H       -8.1270    -1.4770     0.4960 H     1 <1>   0.0800 
 35 H       -6.6450    -2.3270     0.9030 H     1 <1>   0.0800 
@<TRIPOS>BOND
  1   1   2  2   
  2   2   3  am  
  3   2   4  am  
  4   3   5  1   
  5   3  19  1   
  6   4   6  1   
  7   4  20  1   
  8   5   7  ar  
  9   5   8  ar  
 10   6   9  1   
 11   6  10  1   
 12   6  11  1   
 13   7  12  ar  
 14   7  21  1   
 15   8  13  ar  
 16   8  22  1   
 17   9  23  1   
 18   9  24  1   
 19   9  25  1   
 20  10  26  1   
 21  10  27  1   
 22  10  28  1   
 23  11  29  1   
 24  11  30  1   
 25  11  31  1   
 26  12  14  1   
 27  12  15  ar  
 28  13  15  ar  
 29  13  32  1   
 30  14  16  2   
 31  15  17  1   
 32  16  17  1   
 33  17  18  1   
 34  18  33  1   
 35  18  34  1   
 36  18  35  1   
@<TRIPOS>SUBSTRUCTURE
  1 ****   5 GROUP 4 **** **** 0

# MOE 2024.06 (io_trps.svl 2023.06)
