@<TRIPOS>MOLECULE
NONAME
48 49 1 0 0 
SMALL
USER_CHARGES


@<TRIPOS>ATOM
  1 O       -4.7650    -3.9120     0.1770 O.3   1 <1>  -0.3630 
  2 C       -6.0240    -4.2580     0.5440 C.ar  1 <1>   0.0830 
  3 C       -4.5590    -3.6520    -1.1940 C.3   1 <1>   0.2000 
  4 C       -6.5340    -5.5350     0.2960 C.ar  1 <1>   0.0830 
  5 C       -6.8110    -3.3150     1.1840 C.ar  1 <1>  -0.1500 
  6 C       -3.0850    -3.9150    -1.4920 C.3   1 <1>  -0.2400 
  7 C       -4.9330    -2.1970    -1.4810 C.3   1 <1>  -0.2400 
  8 O       -5.7770    -6.5060    -0.2710 O.3   1 <1>  -0.3630 
  9 C       -7.8410    -5.8350     0.6390 C.ar  1 <1>  -0.1500 
 10 C       -8.1130    -3.6270     1.5410 C.ar  1 <1>  -0.1500 
 11 C       -4.7350    -7.0050     0.5330 C.3   1 <1>   0.1200 
 12 C       -8.6290    -4.8820     1.2630 C.ar  1 <1>  -0.1500 
 13 C       -3.8380    -7.8700    -0.3520 C.3   1 <1>   0.3430 
 14 N       -2.5840    -8.2970     0.3500 N.4   1 <1>  -0.9590 
 15 C       -1.6130    -8.8920    -0.6250 C.3   1 <1>   0.3430 
 16 C       -2.8320    -9.2250     1.4900 C.3   1 <1>   0.3430 
 17 C       -0.4140    -9.5720     0.0730 C.3   1 <1>  -0.0800 
 18 C       -1.5540    -9.3560     2.3290 C.3   1 <1>  -0.1600 
 19 C       -0.2540    -9.1250     1.5360 C.3   1 <1>  -0.1600 
 20 C        0.8810    -9.3120    -0.7080 C.3   1 <1>  -0.2400 
 21 H       -5.1770    -4.3190    -1.7730 H     1 <1>   0.0800 
 22 H       -6.4070    -2.3420     1.3930 H     1 <1>   0.1500 
 23 H       -2.4640    -3.2670    -0.8990 H     1 <1>   0.0800 
 24 H       -2.8830    -3.7260    -2.5310 H     1 <1>   0.0800 
 25 H       -2.8420    -4.9380    -1.2790 H     1 <1>   0.0800 
 26 H       -4.3620    -1.5320    -0.8590 H     1 <1>   0.0800 
 27 H       -5.9820    -2.0410    -1.3030 H     1 <1>   0.0800 
 28 H       -4.7330    -1.9630    -2.5110 H     1 <1>   0.0800 
 29 H       -8.2400    -6.8100     0.4240 H     1 <1>   0.1500 
 30 H       -8.7250    -2.8900     2.0340 H     1 <1>   0.1500 
 31 H       -5.1810    -7.5750     1.3290 H     1 <1>   0.0800 
 32 H       -4.1800    -6.1770     0.9360 H     1 <1>   0.0800 
 33 H       -9.6450    -5.1160     1.5330 H     1 <1>   0.1500 
 34 H       -3.5750    -7.2910    -1.2220 H     1 <1>   0.0800 
 35 H       -4.3900    -8.7370    -0.6750 H     1 <1>   0.0800 
 36 H       -2.1270    -7.4630     0.7450 H     1 <1>   0.4500 
 37 H       -1.2450    -8.1120    -1.2720 H     1 <1>   0.0800 
 38 H       -2.1110    -9.6220    -1.2430 H     1 <1>   0.0800 
 39 H       -3.1120   -10.1930     1.1070 H     1 <1>   0.0800 
 40 H       -3.6330    -8.8640     2.1150 H     1 <1>   0.0800 
 41 H       -0.5900   -10.6350     0.0640 H     1 <1>   0.0800 
 42 H       -1.5410   -10.3450     2.7550 H     1 <1>   0.0800 
 43 H       -1.5940    -8.6650     3.1530 H     1 <1>   0.0800 
 44 H       -0.0020    -8.0780     1.5620 H     1 <1>   0.0800 
 45 H        0.5550    -9.6610     2.0050 H     1 <1>   0.0800 
 46 H        1.1150    -8.2610    -0.7300 H     1 <1>   0.0800 
 47 H        0.7930    -9.6660    -1.7200 H     1 <1>   0.0800 
 48 H        1.7040    -9.8310    -0.2460 H     1 <1>   0.0800 
@<TRIPOS>BOND
  1   1   2  1   
  2   1   3  1   
  3   2   4  ar  
  4   2   5  ar  
  5   3   6  1   
  6   3   7  1   
  7   3  21  1   
  8   4   8  1   
  9   4   9  ar  
 10   5  10  ar  
 11   5  22  1   
 12   6  23  1   
 13   6  24  1   
 14   6  25  1   
 15   7  26  1   
 16   7  27  1   
 17   7  28  1   
 18   8  11  1   
 19   9  12  ar  
 20   9  29  1   
 21  10  12  ar  
 22  10  30  1   
 23  11  13  1   
 24  11  31  1   
 25  11  32  1   
 26  12  33  1   
 27  13  14  1   
 28  13  34  1   
 29  13  35  1   
 30  14  15  1   
 31  14  16  1   
 32  14  36  1   
 33  15  17  1   
 34  15  37  1   
 35  15  38  1   
 36  16  18  1   
 37  16  39  1   
 38  16  40  1   
 39  17  19  1   
 40  17  20  1   
 41  17  41  1   
 42  18  19  1   
 43  18  42  1   
 44  18  43  1   
 45  19  44  1   
 46  19  45  1   
 47  20  46  1   
 48  20  47  1   
 49  20  48  1   
@<TRIPOS>SUBSTRUCTURE
  1 ****  11 GROUP 4 **** **** 0

# MOE 2024.06 (io_trps.svl 2023.06)
