@<TRIPOS>MOLECULE
NONAME
35 36 1 0 0 
SMALL
USER_CHARGES


@<TRIPOS>ATOM
  1 O        0.1450     0.2670     0.1340 O.2   1 <1>  -0.5700 
  2 C       -0.1190     1.4540     0.0830 C.2   1 <1>   0.6900 
  3 N        0.8910     2.3780     0.0960 N.am  1 <1>  -0.6600 
  4 N       -1.4040     1.9050     0.0210 N.am  1 <1>  -0.5470 
  5 C        2.3130     1.9880     0.1910 C.3   1 <1>   0.1400 
  6 C        0.7450     3.8390    -0.0740 C.3   1 <1>   0.1400 
  7 C       -2.6690     1.2930    -0.0310 C.ar  1 <1>   0.1170 
  8 C        3.0660     3.3060     0.3350 C.3   1 <1>  -0.1600 
  9 C        2.1620     4.3420    -0.3280 C.3   1 <1>  -0.1600 
 10 C       -3.7960     2.1220    -0.0220 C.ar  1 <1>   0.0830 
 11 C       -2.8520    -0.0840    -0.0950 C.ar  1 <1>  -0.1500 
 12 O       -3.5760     3.4720     0.0370 O.3   1 <1>  -0.3630 
 13 C       -5.0720     1.5670    -0.0730 C.ar  1 <1>  -0.1500 
 14 C       -4.1220    -0.6310    -0.1450 C.ar  1 <1>  -0.1500 
 15 C       -4.6450     4.3880     0.0730 C.3   1 <1>   0.1200 
 16 C       -5.2320     0.1930    -0.1330 C.ar  1 <1>  -0.1500 
 17 C       -4.0580     5.7930     0.1500 C.3   1 <1>  -0.2400 
 18 H       -1.4750     2.9170     0.0530 H     1 <1>   0.3700 
 19 H        2.5970     1.4810    -0.7150 H     1 <1>   0.0800 
 20 H        2.4750     1.3380     1.0350 H     1 <1>   0.0800 
 21 H        0.3540     4.2620     0.8360 H     1 <1>   0.0800 
 22 H        0.0940     4.0720    -0.9000 H     1 <1>   0.0800 
 23 H        4.0410     3.2590    -0.1170 H     1 <1>   0.0800 
 24 H        3.1760     3.5310     1.3820 H     1 <1>   0.0800 
 25 H        2.3130     5.3310     0.0660 H     1 <1>   0.0800 
 26 H        2.3420     4.3560    -1.3890 H     1 <1>   0.0800 
 27 H       -2.0030    -0.7420    -0.1060 H     1 <1>   0.1500 
 28 H       -5.9530     2.1790    -0.0660 H     1 <1>   0.1500 
 29 H       -4.2410    -1.6990    -0.1920 H     1 <1>   0.1500 
 30 H       -5.2450     4.1780     0.9430 H     1 <1>   0.0800 
 31 H       -5.2290     4.2680    -0.8230 H     1 <1>   0.0800 
 32 H       -6.2180    -0.2350    -0.1720 H     1 <1>   0.1500 
 33 H       -3.4640     5.8990     1.0400 H     1 <1>   0.0800 
 34 H       -4.8510     6.5180     0.1790 H     1 <1>   0.0800 
 35 H       -3.4490     5.9880    -0.7150 H     1 <1>   0.0800 
@<TRIPOS>BOND
  1   1   2  2   
  2   2   3  am  
  3   2   4  am  
  4   3   5  1   
  5   3   6  1   
  6   4   7  1   
  7   4  18  1   
  8   5   8  1   
  9   5  19  1   
 10   5  20  1   
 11   6   9  1   
 12   6  21  1   
 13   6  22  1   
 14   7  10  ar  
 15   7  11  ar  
 16   8   9  1   
 17   8  23  1   
 18   8  24  1   
 19   9  25  1   
 20   9  26  1   
 21  10  12  1   
 22  10  13  ar  
 23  11  14  ar  
 24  11  27  1   
 25  12  15  1   
 26  13  16  ar  
 27  13  28  1   
 28  14  16  ar  
 29  14  29  1   
 30  15  17  1   
 31  15  30  1   
 32  15  31  1   
 33  16  32  1   
 34  17  33  1   
 35  17  34  1   
 36  17  35  1   
@<TRIPOS>SUBSTRUCTURE
  1 ****   4 GROUP 4 **** **** 0

# MOE 2024.06 (io_trps.svl 2023.06)
