@<TRIPOS>MOLECULE
NONAME
40 41 1 0 0 
SMALL
USER_CHARGES


@<TRIPOS>ATOM
  1 O       -1.5290     0.2190    -0.0850 O.3   1 <1>  -0.2800 
  2 C       -1.8740     1.2910    -0.7780 C.2   1 <1>  -0.0400 
  3 C       -0.2380     0.3030     0.1610 C.2   1 <1>  -0.0400 
  4 C       -0.8030     2.0880    -0.9820 C.2   1 <1>  -0.1500 
  5 C       -3.3230     1.4410    -1.1800 C.3   1 <1>   0.5230 
  6 C        0.2710     1.4360    -0.3650 C.2   1 <1>  -0.1500 
  7 C        0.4410    -0.8050     0.9390 C.3   1 <1>  -0.0600 
  8 N       -4.1240     1.1480     0.0480 N.4   1 <1>  -0.9590 
  9 C       -5.1450     0.0680    -0.1360 C.3   1 <1>   0.4230 
 10 C       -4.6100     2.4420     0.6330 C.3   1 <1>   0.2630 
 11 C       -5.9910    -0.1050     1.1350 C.3   1 <1>  -0.1600 
 12 C       -4.4430    -1.2600    -0.4660 C.3   1 <1>  -0.1600 
 13 C       -6.9580    -1.2850     1.0220 C.3   1 <1>   0.3430 
 14 C       -5.4290    -2.4240    -0.5610 C.3   1 <1>   0.3430 
 15 N       -6.2090    -2.5310     0.7030 N.4   1 <1>  -0.9590 
 16 C       -7.1470    -3.7000     0.6360 C.3   1 <1>   0.2630 
 17 H       -0.7290     3.0300    -1.4990 H     1 <1>   0.1500 
 18 H       -3.5460     0.7410    -1.9660 H     1 <1>   0.0800 
 19 H       -3.5090     2.4390    -1.5420 H     1 <1>   0.0800 
 20 H        1.2870     1.7940    -0.3380 H     1 <1>   0.1500 
 21 H        0.3350    -1.7380     0.4170 H     1 <1>   0.0800 
 22 H        0.0020    -0.8940     1.9150 H     1 <1>   0.0800 
 23 H        1.4890    -0.5900     1.0500 H     1 <1>   0.0800 
 24 H       -3.3910     0.7800     0.6820 H     1 <1>   0.4500 
 25 H       -5.8000     0.3340    -0.9520 H     1 <1>   0.0800 
 26 H       -5.3690     2.8810     0.0040 H     1 <1>   0.0800 
 27 H       -3.7920     3.1400     0.7240 H     1 <1>   0.0800 
 28 H       -5.0220     2.2840     1.6160 H     1 <1>   0.0800 
 29 H       -6.5870     0.7730     1.3050 H     1 <1>   0.0800 
 30 H       -5.3580    -0.2560     1.9920 H     1 <1>   0.0800 
 31 H       -3.7080    -1.4930     0.2860 H     1 <1>   0.0800 
 32 H       -3.9360    -1.1970    -1.4110 H     1 <1>   0.0800 
 33 H       -7.6850    -1.0890     0.2490 H     1 <1>   0.0800 
 34 H       -7.4890    -1.4050     1.9550 H     1 <1>   0.0800 
 35 H       -4.8870    -3.3410    -0.7370 H     1 <1>   0.0800 
 36 H       -6.1000    -2.2690    -1.3920 H     1 <1>   0.0800 
 37 H       -5.5500    -2.7240     1.4760 H     1 <1>   0.4500 
 38 H       -7.8660    -3.5650    -0.1560 H     1 <1>   0.0800 
 39 H       -7.6790    -3.8090     1.5680 H     1 <1>   0.0800 
 40 H       -6.6000    -4.6110     0.4500 H     1 <1>   0.0800 
@<TRIPOS>BOND
  1   1   2  1   
  2   1   3  1   
  3   2   4  2   
  4   2   5  1   
  5   3   6  2   
  6   3   7  1   
  7   4   6  1   
  8   4  17  1   
  9   5   8  1   
 10   5  18  1   
 11   5  19  1   
 12   6  20  1   
 13   7  21  1   
 14   7  22  1   
 15   7  23  1   
 16   8   9  1   
 17   8  10  1   
 18   8  24  1   
 19   9  11  1   
 20   9  12  1   
 21   9  25  1   
 22  10  26  1   
 23  10  27  1   
 24  10  28  1   
 25  11  13  1   
 26  11  29  1   
 27  11  30  1   
 28  12  14  1   
 29  12  31  1   
 30  12  32  1   
 31  13  15  1   
 32  13  33  1   
 33  13  34  1   
 34  14  15  1   
 35  14  35  1   
 36  14  36  1   
 37  15  16  1   
 38  15  37  1   
 39  16  38  1   
 40  16  39  1   
 41  16  40  1   
@<TRIPOS>SUBSTRUCTURE
  1 ****   8 GROUP 4 **** **** 0

# MOE 2024.06 (io_trps.svl 2023.06)
