@<TRIPOS>MOLECULE
NONAME
39 40 1 0 0 
SMALL
USER_CHARGES


@<TRIPOS>ATOM
  1 F        0.2630    -1.0210    -0.2880 F     1 <1>  -0.1900 
  2 C        0.8590    -2.1860    -0.2360 C.ar  1 <1>   0.1900 
  3 C        0.0920    -3.3480    -0.2820 C.ar  1 <1>   0.0830 
  4 C        2.2370    -2.2070    -0.1390 C.ar  1 <1>  -0.1500 
  5 O       -1.2610    -3.2270    -0.3840 O.3   1 <1>  -0.2330 
  6 C        0.7410    -4.5810    -0.2380 C.ar  1 <1>  -0.1500 
  7 C        2.8430    -3.4480    -0.0920 C.ar  1 <1>   0.1900 
  8 C       -2.2040    -4.0000     0.1540 C.2   1 <1>   0.6590 
  9 C        2.1250    -4.6310    -0.1400 C.ar  1 <1>  -0.1500 
 10 F        4.1440    -3.5060     0.0000 F     1 <1>  -0.1900 
 11 O       -1.9500    -4.9770     0.8120 O.2   1 <1>  -0.5700 
 12 C       -3.6510    -3.5950    -0.1380 C.3   1 <1>  -0.0190 
 13 C       -3.8110    -2.0990    -0.5370 C.3   1 <1>  -0.0190 
 14 C       -4.5830    -3.9900     1.0300 C.3   1 <1>  -0.0220 
 15 C       -3.2950    -1.1200     0.5180 C.2   1 <1>   0.6590 
 16 C       -5.2700    -1.7840    -0.9330 C.3   1 <1>  -0.0220 
 17 C       -5.9660    -3.3780     0.8880 C.2   1 <1>  -0.2880 
 18 O       -2.9250    -1.4610     1.6120 O.2   1 <1>  -0.5700 
 19 O       -3.2270     0.1430     0.1280 O.3   1 <1>  -0.4300 
 20 C       -6.2710    -2.4130     0.0180 C.2   1 <1>  -0.2880 
 21 C       -2.6930     1.1320     0.9790 C.3   1 <1>   0.2580 
 22 C       -2.7590     2.4910     0.2950 C.2   1 <1>  -0.2880 
 23 C       -3.2380     2.7610    -0.9250 C.2   1 <1>  -0.3000 
 24 H        2.8120    -1.3010    -0.1020 H     1 <1>   0.1500 
 25 H        0.1830    -5.4990    -0.2810 H     1 <1>   0.1500 
 26 H        2.6420    -5.5740    -0.1000 H     1 <1>   0.1500 
 27 H       -3.9560    -4.1770    -0.9890 H     1 <1>   0.0800 
 28 H       -3.2140    -1.9210    -1.4130 H     1 <1>   0.0800 
 29 H       -4.1630    -3.6780     1.9710 H     1 <1>   0.0800 
 30 H       -4.6720    -5.0630     1.0590 H     1 <1>   0.0800 
 31 H       -5.4640    -2.1640    -1.9210 H     1 <1>   0.0800 
 32 H       -5.4220    -0.7190    -0.9620 H     1 <1>   0.0800 
 33 H       -6.6870    -3.8010     1.5690 H     1 <1>   0.1500 
 34 H       -7.2640    -2.0040    -0.0750 H     1 <1>   0.1500 
 35 H       -1.6730     0.8690     1.2010 H     1 <1>   0.0800 
 36 H       -3.2680     1.1400     1.8900 H     1 <1>   0.0800 
 37 H       -2.3570     3.2650     0.9260 H     1 <1>   0.1500 
 38 H       -3.2580     3.7460    -1.3570 H     1 <1>   0.1500 
 39 H       -3.6490     2.0240    -1.5930 H     1 <1>   0.1500 
@<TRIPOS>BOND
  1   1   2  1   
  2   2   3  ar  
  3   2   4  ar  
  4   3   5  1   
  5   3   6  ar  
  6   4   7  ar  
  7   4  24  1   
  8   5   8  1   
  9   6   9  ar  
 10   6  25  1   
 11   7   9  ar  
 12   7  10  1   
 13   8  11  2   
 14   8  12  1   
 15   9  26  1   
 16  12  13  1   
 17  12  14  1   
 18  12  27  1   
 19  13  15  1   
 20  13  16  1   
 21  13  28  1   
 22  14  17  1   
 23  14  29  1   
 24  14  30  1   
 25  15  18  2   
 26  15  19  1   
 27  16  20  1   
 28  16  31  1   
 29  16  32  1   
 30  17  20  2   
 31  17  33  1   
 32  19  21  1   
 33  20  34  1   
 34  21  22  1   
 35  21  35  1   
 36  21  36  1   
 37  22  23  2   
 38  22  37  1   
 39  23  38  1   
 40  23  39  1   
@<TRIPOS>SUBSTRUCTURE
  1 ****   5 GROUP 4 **** **** 0

# MOE 2024.06 (io_trps.svl 2023.06)
