@<TRIPOS>MOLECULE
NONAME
44 45 1 0 0 
SMALL
USER_CHARGES


@<TRIPOS>ATOM
  1 O        0.5070    -0.2920    -0.0970 O.3   1 <1>  -0.3630 
  2 C       -0.7590    -0.7040     0.1780 C.ar  1 <1>   0.0830 
  3 C        0.9500     1.0380     0.1010 C.3   1 <1>   0.1200 
  4 C       -1.1130    -2.0400    -0.0720 C.ar  1 <1>  -0.1440 
  5 C       -1.6920     0.1900     0.7050 C.ar  1 <1>  -0.1500 
  6 C        2.4090     1.1370    -0.3670 C.3   1 <1>   0.3430 
  7 C       -2.4230    -2.4170     0.2280 C.ar  1 <1>  -0.1500 
  8 C       -0.1100    -3.0830    -0.6530 C.3   1 <1>   0.1440 
  9 C       -2.9780    -0.2180     0.9890 C.ar  1 <1>  -0.1500 
 10 N        3.1620    -0.1010    -0.0030 N.4   1 <1>  -0.9590 
 11 C       -3.3420    -1.5250     0.7490 C.ar  1 <1>  -0.1500 
 12 C        0.4440    -2.6240    -2.0150 C.3   1 <1>  -0.2400 
 13 C        1.0400    -3.3220     0.3390 C.3   1 <1>  -0.2400 
 14 C       -0.7440    -4.4660    -0.9070 C.3   1 <1>  -0.2400 
 15 C        3.4630    -0.2450     1.4400 C.3   1 <1>   0.3430 
 16 C        4.4370    -0.2930    -0.7260 C.3   1 <1>   0.3430 
 17 C        4.5490    -1.3120     1.4890 C.3   1 <1>  -0.1600 
 18 C        5.1600    -1.3610     0.0840 C.3   1 <1>  -0.1600 
 19 H        0.8700     1.2710     1.1480 H     1 <1>   0.0800 
 20 H        0.3260     1.7030    -0.4710 H     1 <1>   0.0800 
 21 H       -1.4500     1.2150     0.9060 H     1 <1>   0.1500 
 22 H        2.8780     2.0100     0.0570 H     1 <1>   0.0800 
 23 H        2.4080     1.2500    -1.4390 H     1 <1>   0.0800 
 24 H       -2.7790    -3.4160     0.0700 H     1 <1>   0.1500 
 25 H       -3.6950     0.4750     1.3940 H     1 <1>   0.1500 
 26 H        2.5300    -0.8830    -0.2460 H     1 <1>   0.4500 
 27 H       -4.3440    -1.8530     0.9670 H     1 <1>   0.1500 
 28 H        1.0530    -1.7480    -1.9360 H     1 <1>   0.0800 
 29 H       -0.3730    -2.4050    -2.6800 H     1 <1>   0.0800 
 30 H        1.0440    -3.3960    -2.4620 H     1 <1>   0.0800 
 31 H        1.5880    -2.4260     0.5360 H     1 <1>   0.0800 
 32 H        1.7240    -4.0600    -0.0420 H     1 <1>   0.0800 
 33 H        0.6430    -3.6780     1.2730 H     1 <1>   0.0800 
 34 H       -1.5570    -4.3860    -1.6070 H     1 <1>   0.0800 
 35 H       -1.1100    -4.8940     0.0090 H     1 <1>   0.0800 
 36 H       -0.0230    -5.1490    -1.3190 H     1 <1>   0.0800 
 37 H        2.5890    -0.5380     2.0010 H     1 <1>   0.0800 
 38 H        3.8500     0.6830     1.8300 H     1 <1>   0.0800 
 39 H        5.0090     0.6210    -0.7110 H     1 <1>   0.0800 
 40 H        4.2770    -0.6050    -1.7460 H     1 <1>   0.0800 
 41 H        4.1140    -2.2630     1.7430 H     1 <1>   0.0800 
 42 H        5.2830    -1.0630     2.2360 H     1 <1>   0.0800 
 43 H        6.2200    -1.1700     0.1000 H     1 <1>   0.0800 
 44 H        4.9950    -2.3270    -0.3620 H     1 <1>   0.0800 
@<TRIPOS>BOND
  1   1   2  1   
  2   1   3  1   
  3   2   4  ar  
  4   2   5  ar  
  5   3   6  1   
  6   3  19  1   
  7   3  20  1   
  8   4   7  ar  
  9   4   8  1   
 10   5   9  ar  
 11   5  21  1   
 12   6  10  1   
 13   6  22  1   
 14   6  23  1   
 15   7  11  ar  
 16   7  24  1   
 17   8  12  1   
 18   8  13  1   
 19   8  14  1   
 20   9  11  ar  
 21   9  25  1   
 22  10  15  1   
 23  10  16  1   
 24  10  26  1   
 25  11  27  1   
 26  12  28  1   
 27  12  29  1   
 28  12  30  1   
 29  13  31  1   
 30  13  32  1   
 31  13  33  1   
 32  14  34  1   
 33  14  35  1   
 34  14  36  1   
 35  15  17  1   
 36  15  37  1   
 37  15  38  1   
 38  16  18  1   
 39  16  39  1   
 40  16  40  1   
 41  17  18  1   
 42  17  41  1   
 43  17  42  1   
 44  18  43  1   
 45  18  44  1   
@<TRIPOS>SUBSTRUCTURE
  1 ****   1 GROUP 4 **** **** 0

# MOE 2024.06 (io_trps.svl 2023.06)
