@<TRIPOS>MOLECULE
NONAME
27 28 1 0 0 
SMALL
USER_CHARGES


@<TRIPOS>ATOM
  1 S        0.1390    -0.1310    -0.1520 S.3   1 <1>  -0.3320 
  2 C        1.6310     0.8500    -0.0720 C.ar  1 <1>   0.7220 
  3 C       -1.2420     1.0970    -0.0930 C.3   1 <1>  -0.0100 
  4 N        2.7500     0.1530    -0.1010 N.ar  1 <1>  -0.6200 
  5 N        1.4580     2.1570     0.0080 N.ar  1 <1>  -0.6200 
  6 C        3.8460     0.8730    -0.0450 C.ar  1 <1>   0.1670 
  7 C        2.5680     2.8550     0.0660 C.ar  1 <1>   0.1670 
  8 C        3.8160     2.2550     0.0350 C.ar  1 <1>  -0.1430 
  9 C        5.1500     0.0870    -0.0890 C.3   1 <1>  -0.0160 
 10 C        2.3880     4.3590     0.1690 C.3   1 <1>  -0.0960 
 11 C        5.1060     3.0770     0.0950 C.3   1 <1>  -0.0160 
 12 C        6.3710     0.9150     0.3290 C.3   1 <1>  -0.1600 
 13 C        6.3410     2.2850    -0.3510 C.3   1 <1>  -0.1600 
 14 H       -2.1670     0.5540    -0.1400 H     1 <1>   0.0800 
 15 H       -1.1340     1.7530    -0.9390 H     1 <1>   0.0800 
 16 H       -1.1570     1.6430     0.8300 H     1 <1>   0.0800 
 17 H        5.2850    -0.2680    -1.0940 H     1 <1>   0.0800 
 18 H        5.0670    -0.7720     0.5530 H     1 <1>   0.0800 
 19 H        1.3970     4.5920     0.5160 H     1 <1>   0.0800 
 20 H        2.5250     4.8060    -0.7990 H     1 <1>   0.0800 
 21 H        3.0900     4.7830     0.8620 H     1 <1>   0.0800 
 22 H        5.2500     3.4060     1.1090 H     1 <1>   0.0800 
 23 H        5.0190     3.9490    -0.5290 H     1 <1>   0.0800 
 24 H        7.2710     0.3880     0.0620 H     1 <1>   0.0800 
 25 H        6.3650     1.0440     1.3980 H     1 <1>   0.0800 
 26 H        7.2310     2.8380    -0.1040 H     1 <1>   0.0800 
 27 H        6.3160     2.1540    -1.4200 H     1 <1>   0.0800 
@<TRIPOS>BOND
  1   1   2  1   
  2   1   3  1   
  3   2   4  ar  
  4   2   5  ar  
  5   3  14  1   
  6   3  15  1   
  7   3  16  1   
  8   4   6  ar  
  9   5   7  ar  
 10   6   8  ar  
 11   6   9  1   
 12   7   8  ar  
 13   7  10  1   
 14   8  11  1   
 15   9  12  1   
 16   9  17  1   
 17   9  18  1   
 18  10  19  1   
 19  10  20  1   
 20  10  21  1   
 21  11  13  1   
 22  11  22  1   
 23  11  23  1   
 24  12  13  1   
 25  12  24  1   
 26  12  25  1   
 27  13  26  1   
 28  13  27  1   
@<TRIPOS>SUBSTRUCTURE
  1 ****   8 GROUP 4 **** **** 0

# MOE 2024.06 (io_trps.svl 2023.06)
