@<TRIPOS>MOLECULE
NONAME
29 30 1 0 0 
SMALL
USER_CHARGES


@<TRIPOS>ATOM
  1 F       -1.7870     0.6360    -2.5890 F     1 <1>  -0.1900 
  2 C       -2.2150     1.0580    -1.4310 C.ar  1 <1>   0.1900 
  3 C       -3.3510     0.4820    -0.8960 C.ar  1 <1>  -0.1500 
  4 C       -1.5200     2.0630    -0.7880 C.ar  1 <1>  -0.1500 
  5 C       -3.8160     0.9330     0.3330 C.ar  1 <1>  -0.1440 
  6 C       -1.9830     2.5040     0.4390 C.ar  1 <1>  -0.1500 
  7 C       -3.1230     1.9410     0.9950 C.ar  1 <1>  -0.1500 
  8 C       -5.0700     0.3370     0.9440 C.3   1 <1>   0.4870 
  9 N       -6.2520     0.8070     0.1740 N.4   1 <1>  -0.9590 
 10 C       -6.3890     2.3030     0.1230 C.3   1 <1>   0.3430 
 11 C       -7.5420     0.1660     0.5990 C.3   1 <1>   0.3430 
 12 C       -7.6020     2.7250    -0.7400 C.3   1 <1>   0.1200 
 13 C       -8.7470     0.7440    -0.1790 C.3   1 <1>   0.1200 
 14 O       -8.3210     1.6090    -1.1960 O.3   1 <1>  -0.5600 
 15 H       -3.8410    -0.3020    -1.4450 H     1 <1>   0.1500 
 16 H       -0.6380     2.4850    -1.2390 H     1 <1>   0.1500 
 17 H       -1.4520     3.2830     0.9620 H     1 <1>   0.1500 
 18 H       -3.4560     2.3010     1.9550 H     1 <1>   0.1500 
 19 H       -5.1540     0.6380     1.9760 H     1 <1>   0.0800 
 20 H       -5.0070    -0.7390     0.9070 H     1 <1>   0.0800 
 21 H       -6.1200     0.5350    -0.8110 H     1 <1>   0.4500 
 22 H       -5.4960     2.7440    -0.2920 H     1 <1>   0.0800 
 23 H       -6.5120     2.6970     1.1170 H     1 <1>   0.0800 
 24 H       -7.7040     0.3180     1.6530 H     1 <1>   0.0800 
 25 H       -7.4960    -0.8980     0.4290 H     1 <1>   0.0800 
 26 H       -7.2670     3.2720    -1.6050 H     1 <1>   0.0800 
 27 H       -8.2660     3.3590    -0.1790 H     1 <1>   0.0800 
 28 H       -9.4050     1.2840     0.4800 H     1 <1>   0.0800 
 29 H       -9.3110    -0.0510    -0.6360 H     1 <1>   0.0800 
@<TRIPOS>BOND
  1   1   2  1   
  2   2   3  ar  
  3   2   4  ar  
  4   3   5  ar  
  5   3  15  1   
  6   4   6  ar  
  7   4  16  1   
  8   5   7  ar  
  9   5   8  1   
 10   6   7  ar  
 11   6  17  1   
 12   7  18  1   
 13   8   9  1   
 14   8  19  1   
 15   8  20  1   
 16   9  10  1   
 17   9  11  1   
 18   9  21  1   
 19  10  12  1   
 20  10  22  1   
 21  10  23  1   
 22  11  13  1   
 23  11  24  1   
 24  11  25  1   
 25  12  14  1   
 26  12  26  1   
 27  12  27  1   
 28  13  14  1   
 29  13  28  1   
 30  13  29  1   
@<TRIPOS>SUBSTRUCTURE
  1 ****   5 GROUP 4 **** **** 0

# MOE 2024.06 (io_trps.svl 2023.06)
