@<TRIPOS>MOLECULE
NONAME
35 36 1 0 0 
SMALL
USER_CHARGES


@<TRIPOS>ATOM
  1 O       -0.7240    -0.1530     1.3050 O.2   1 <1>  -0.5700 
  2 C       -1.0250     0.9830     0.9820 C.2   1 <1>   0.4690 
  3 C       -2.4200     1.2780     0.7120 C.ar  1 <1>   0.0860 
  4 C       -0.0580     2.0360     0.9210 C.2   1 <1>  -0.1360 
  5 C       -3.4390     0.6340     1.4160 C.ar  1 <1>  -0.1500 
  6 C       -2.8050     2.2070    -0.2590 C.ar  1 <1>  -0.1500 
  7 C        1.2890     2.0950     0.7280 C.2   1 <1>  -0.0500 
  8 C       -4.7710     0.9140     1.1780 C.ar  1 <1>  -0.1500 
  9 C       -4.1360     2.4930    -0.5030 C.ar  1 <1>  -0.1500 
 10 N        2.2140     1.1120     0.4410 N.pl3 1 <1>  -0.8380 
 11 C       -5.1340     1.8460     0.2200 C.ar  1 <1>   0.0830 
 12 C        3.6740     1.3290     0.6720 C.3   1 <1>   0.2090 
 13 C        1.8840    -0.2790    -0.0060 C.3   1 <1>   0.2090 
 14 O       -6.4560     2.0670     0.0470 O.3   1 <1>  -0.3620 
 15 C        4.5170     0.7560    -0.4800 C.3   1 <1>   0.1200 
 16 C        2.8670    -0.7870    -1.0800 C.3   1 <1>   0.1200 
 17 C       -6.9410     2.9780    -0.9140 C.3   1 <1>   0.0400 
 18 O        4.2030    -0.5890    -0.7070 O.3   1 <1>  -0.5600 
 19 H       -0.5210     2.9890     1.0840 H     1 <1>   0.1500 
 20 H       -3.1740    -0.0970     2.1610 H     1 <1>   0.1500 
 21 H       -2.0510     2.7100    -0.8380 H     1 <1>   0.1500 
 22 H        1.7300     3.0760     0.8120 H     1 <1>   0.1500 
 23 H       -5.5420     0.4100     1.7330 H     1 <1>   0.1500 
 24 H       -4.3820     3.2160    -1.2580 H     1 <1>   0.1500 
 25 H        3.8780     2.3790     0.7760 H     1 <1>   0.0800 
 26 H        3.9580     0.8420     1.5890 H     1 <1>   0.0800 
 27 H        1.8990    -0.9390     0.8430 H     1 <1>   0.0800 
 28 H        0.9000    -0.3010    -0.4340 H     1 <1>   0.0800 
 29 H        5.5630     0.8110    -0.2350 H     1 <1>   0.0800 
 30 H        4.3420     1.3100    -1.3850 H     1 <1>   0.0800 
 31 H        2.6930    -0.2730    -2.0080 H     1 <1>   0.0800 
 32 H        2.7220    -1.8400    -1.2380 H     1 <1>   0.0800 
 33 H       -8.0150     2.9730    -0.8660 H     1 <1>   0.0800 
 34 H       -6.6170     2.6610    -1.8900 H     1 <1>   0.0800 
 35 H       -6.5690     3.9600    -0.6830 H     1 <1>   0.0800 
@<TRIPOS>BOND
  1   1   2  2   
  2   2   3  1   
  3   2   4  1   
  4   3   5  ar  
  5   3   6  ar  
  6   4   7  2   
  7   4  19  1   
  8   5   8  ar  
  9   5  20  1   
 10   6   9  ar  
 11   6  21  1   
 12   7  10  1   
 13   7  22  1   
 14   8  11  ar  
 15   8  23  1   
 16   9  11  ar  
 17   9  24  1   
 18  10  12  1   
 19  10  13  1   
 20  11  14  1   
 21  12  15  1   
 22  12  25  1   
 23  12  26  1   
 24  13  16  1   
 25  13  27  1   
 26  13  28  1   
 27  14  17  1   
 28  15  18  1   
 29  15  29  1   
 30  15  30  1   
 31  16  18  1   
 32  16  31  1   
 33  16  32  1   
 34  17  33  1   
 35  17  34  1   
 36  17  35  1   
@<TRIPOS>SUBSTRUCTURE
  1 ****   2 GROUP 4 **** **** 0

# MOE 2024.06 (io_trps.svl 2023.06)
