@<TRIPOS>MOLECULE
NONAME
43 45 1 0 0 
SMALL
USER_CHARGES


@<TRIPOS>ATOM
  1 BR      -2.6460    -2.5880    -1.9570 Br    1 <1>  -0.1110 
  2 C       -2.7730    -0.7490    -1.3930 C.ar  1 <1>   0.1110 
  3 C       -2.9920    -0.4540    -0.0550 C.ar  1 <1>  -0.1440 
  4 C       -2.6450     0.2310    -2.3590 C.ar  1 <1>  -0.1500 
  5 C       -3.0760     0.8830     0.3120 C.ar  1 <1>  -0.1500 
  6 C       -3.1370    -1.5540     0.9760 C.3   1 <1>   0.4870 
  7 C       -2.7360     1.5570    -1.9750 C.ar  1 <1>  -0.1500 
  8 C       -2.9490     1.8790    -0.6440 C.ar  1 <1>  -0.1500 
  9 N       -4.4400    -2.2380     0.7850 N.4   1 <1>  -0.9590 
 10 C       -5.6410    -1.3390     0.8450 C.3   1 <1>   0.3430 
 11 C       -4.6300    -3.4540     1.6360 C.3   1 <1>   0.3430 
 12 C       -6.9400    -2.1190     0.5200 C.3   1 <1>   0.1100 
 13 C       -5.9140    -4.2160     1.2280 C.3   1 <1>   0.1100 
 14 N       -6.6700    -3.5270     0.1480 N.3   1 <1>  -0.8100 
 15 C       -7.9150    -4.2430    -0.1950 C.3   1 <1>   0.2530 
 16 C       -7.6000    -5.6330    -0.7300 C.ar  1 <1>  -0.1430 
 17 C       -7.8640    -6.7790     0.0060 C.ar  1 <1>   0.1900 
 18 C       -7.0300    -5.7870    -1.9860 C.ar  1 <1>  -0.1500 
 19 F       -8.3850    -6.6700     1.2000 F     1 <1>  -0.1900 
 20 C       -7.5870    -8.0480    -0.4670 C.ar  1 <1>  -0.1500 
 21 C       -6.7430    -7.0520    -2.4780 C.ar  1 <1>  -0.1500 
 22 C       -7.0210    -8.1810    -1.7230 C.ar  1 <1>  -0.1500 
 23 H       -2.4760    -0.0360    -3.3880 H     1 <1>   0.1500 
 24 H       -3.2340     1.1680     1.3390 H     1 <1>   0.1500 
 25 H       -3.0800    -1.1360     1.9680 H     1 <1>   0.0800 
 26 H       -2.3300    -2.2600     0.8580 H     1 <1>   0.0800 
 27 H       -2.6380     2.3390    -2.7100 H     1 <1>   0.1500 
 28 H       -3.0130     2.9150    -0.3540 H     1 <1>   0.1500 
 29 H       -4.4710    -2.6060    -0.1800 H     1 <1>   0.4500 
 30 H       -5.5330    -0.5380     0.1320 H     1 <1>   0.0800 
 31 H       -5.7270    -0.8970     1.8230 H     1 <1>   0.0800 
 32 H       -4.7000    -3.1730     2.6740 H     1 <1>   0.0800 
 33 H       -3.7870    -4.1160     1.5280 H     1 <1>   0.0800 
 34 H       -7.4430    -1.6240    -0.2940 H     1 <1>   0.0800 
 35 H       -7.5950    -2.0840     1.3740 H     1 <1>   0.0800 
 36 H       -6.5420    -4.3440     2.0940 H     1 <1>   0.0800 
 37 H       -5.6260    -5.1990     0.8940 H     1 <1>   0.0800 
 38 H       -8.4400    -3.6980    -0.9610 H     1 <1>   0.0800 
 39 H       -8.5590    -4.3010     0.6660 H     1 <1>   0.0800 
 40 H       -6.8060    -4.9200    -2.5840 H     1 <1>   0.1500 
 41 H       -7.8100    -8.9100     0.1360 H     1 <1>   0.1500 
 42 H       -6.3030    -7.1580    -3.4550 H     1 <1>   0.1500 
 43 H       -6.7970    -9.1590    -2.1130 H     1 <1>   0.1500 
@<TRIPOS>BOND
  1   1   2  1   
  2   2   3  ar  
  3   2   4  ar  
  4   3   5  ar  
  5   3   6  1   
  6   4   7  ar  
  7   4  23  1   
  8   5   8  ar  
  9   5  24  1   
 10   6   9  1   
 11   6  25  1   
 12   6  26  1   
 13   7   8  ar  
 14   7  27  1   
 15   8  28  1   
 16   9  10  1   
 17   9  11  1   
 18   9  29  1   
 19  10  12  1   
 20  10  30  1   
 21  10  31  1   
 22  11  13  1   
 23  11  32  1   
 24  11  33  1   
 25  12  14  1   
 26  12  34  1   
 27  12  35  1   
 28  13  14  1   
 29  13  36  1   
 30  13  37  1   
 31  14  15  1   
 32  15  16  1   
 33  15  38  1   
 34  15  39  1   
 35  16  17  ar  
 36  16  18  ar  
 37  17  19  1   
 38  17  20  ar  
 39  18  21  ar  
 40  18  40  1   
 41  20  22  ar  
 42  20  41  1   
 43  21  22  ar  
 44  21  42  1   
 45  22  43  1   
@<TRIPOS>SUBSTRUCTURE
  1 ****  14 GROUP 4 **** **** 0

# MOE 2024.06 (io_trps.svl 2023.06)
