@<TRIPOS>MOLECULE
NONAME
47 48 1 0 0 
SMALL
USER_CHARGES


@<TRIPOS>ATOM
  1 O       -0.1680    -0.8670    -2.2300 O.2   1 <1>  -0.5700 
  2 C       -0.2370    -1.6130    -1.2860 C.2   1 <1>   0.6590 
  3 O        0.7720    -1.7510    -0.4350 O.3   1 <1>  -0.4300 
  4 C       -1.4780    -2.4600    -1.0710 C.3   1 <1>   0.0420 
  5 C        1.9480    -0.9870    -0.5480 C.3   1 <1>   0.1200 
  6 C       -2.4360    -1.6920    -0.1800 C.2   1 <1>   0.5690 
  7 C       -1.2010    -3.9220    -0.6130 C.3   1 <1>  -0.0800 
  8 C        2.8870    -1.4030     0.5790 C.3   1 <1>  -0.2400 
  9 O       -2.0070    -1.0840     0.7710 O.2   1 <1>  -0.5700 
 10 N       -3.7710    -1.7460    -0.4910 N.am  1 <1>  -0.5470 
 11 C       -2.3760    -4.8510    -0.9880 C.3   1 <1>  -0.1600 
 12 C       -0.8980    -4.0670     0.8960 C.3   1 <1>  -0.1600 
 13 C       -4.8870    -1.1650     0.1300 C.ar  1 <1>   0.1170 
 14 C       -2.0770    -6.3110    -0.6210 C.3   1 <1>  -0.1600 
 15 C       -0.5920    -5.5230     1.2680 C.3   1 <1>  -0.1600 
 16 C       -6.1360    -1.7420    -0.0740 C.ar  1 <1>  -0.1500 
 17 C       -4.8080    -0.0270     0.9270 C.ar  1 <1>  -0.1500 
 18 C       -1.7460    -6.4500     0.8700 C.3   1 <1>  -0.1600 
 19 C       -7.2780    -1.2080     0.5000 C.ar  1 <1>  -0.1430 
 20 C       -5.9420     0.5110     1.5050 C.ar  1 <1>  -0.1500 
 21 C       -7.1760    -0.0780     1.2930 C.ar  1 <1>  -0.1500 
 22 C       -8.6360    -1.8500     0.2730 C.3   1 <1>  -0.0970 
 23 H       -1.9310    -2.5160    -2.0430 H     1 <1>   0.0800 
 24 H        1.6840     0.0550    -0.4680 H     1 <1>   0.0800 
 25 H        2.3890    -1.1770    -1.5120 H     1 <1>   0.0800 
 26 H       -0.3370    -4.2670    -1.1560 H     1 <1>   0.0800 
 27 H        2.4240    -1.2170     1.5320 H     1 <1>   0.0800 
 28 H        3.7970    -0.8320     0.5230 H     1 <1>   0.0800 
 29 H        3.1300    -2.4470     0.4930 H     1 <1>   0.0800 
 30 H       -4.0080    -2.3470    -1.2760 H     1 <1>   0.3700 
 31 H       -2.5670    -4.7970    -2.0460 H     1 <1>   0.0800 
 32 H       -3.2660    -4.5420    -0.4680 H     1 <1>   0.0800 
 33 H       -1.7430    -3.7360     1.4760 H     1 <1>   0.0800 
 34 H       -0.0580    -3.4570     1.1760 H     1 <1>   0.0800 
 35 H       -1.2440    -6.6640    -1.2040 H     1 <1>   0.0800 
 36 H       -2.9290    -6.9250    -0.8570 H     1 <1>   0.0800 
 37 H       -0.4240    -5.5940     2.3290 H     1 <1>   0.0800 
 38 H        0.3100    -5.8370     0.7710 H     1 <1>   0.0800 
 39 H       -6.2140    -2.6210    -0.6840 H     1 <1>   0.1500 
 40 H       -3.8590     0.4470     1.0970 H     1 <1>   0.1500 
 41 H       -1.4810    -7.4710     1.0880 H     1 <1>   0.0800 
 42 H       -2.6160    -6.2040     1.4540 H     1 <1>   0.0800 
 43 H       -5.8640     1.3900     2.1210 H     1 <1>   0.1500 
 44 H       -8.0540     0.3470     1.7480 H     1 <1>   0.1500 
 45 H       -8.6070    -2.5260    -0.5620 H     1 <1>   0.0800 
 46 H       -9.3730    -1.0940     0.0720 H     1 <1>   0.0800 
 47 H       -8.9300    -2.3970     1.1510 H     1 <1>   0.0800 
@<TRIPOS>BOND
  1   1   2  2   
  2   2   3  1   
  3   2   4  1   
  4   3   5  1   
  5   4   6  1   
  6   4   7  1   
  7   4  23  1   
  8   5   8  1   
  9   5  24  1   
 10   5  25  1   
 11   6   9  2   
 12   6  10  am  
 13   7  11  1   
 14   7  12  1   
 15   7  26  1   
 16   8  27  1   
 17   8  28  1   
 18   8  29  1   
 19  10  13  1   
 20  10  30  1   
 21  11  14  1   
 22  11  31  1   
 23  11  32  1   
 24  12  15  1   
 25  12  33  1   
 26  12  34  1   
 27  13  16  ar  
 28  13  17  ar  
 29  14  18  1   
 30  14  35  1   
 31  14  36  1   
 32  15  18  1   
 33  15  37  1   
 34  15  38  1   
 35  16  19  ar  
 36  16  39  1   
 37  17  20  ar  
 38  17  40  1   
 39  18  41  1   
 40  18  42  1   
 41  19  21  ar  
 42  19  22  1   
 43  20  21  ar  
 44  20  43  1   
 45  21  44  1   
 46  22  45  1   
 47  22  46  1   
 48  22  47  1   
@<TRIPOS>SUBSTRUCTURE
  1 ****   6 GROUP 4 **** **** 0

# MOE 2024.06 (io_trps.svl 2023.06)
