@<TRIPOS>MOLECULE
NONAME
34 34 1 0 0 
SMALL
USER_CHARGES


@<TRIPOS>ATOM
  1 O        0.3890     1.3490    -1.3420 O.2   1 <1>  -0.5700 
  2 C        0.1050     2.0270    -0.3740 C.2   1 <1>   0.5440 
  3 N        1.0420     2.2630     0.5970 N.am  1 <1>  -0.7300 
  4 C       -1.2190     2.6010    -0.2230 C.ar  1 <1>   0.0860 
  5 C        2.4360     1.7800     0.6760 C.3   1 <1>   0.2200 
  6 C       -2.3850     1.8250    -0.1790 C.ar  1 <1>  -0.1440 
  7 C       -1.3540     3.9830    -0.1010 C.ar  1 <1>  -0.1500 
  8 C        3.2470     2.2940    -0.5240 C.3   1 <1>  -0.1600 
  9 C        2.4380     0.2560     0.8100 C.3   1 <1>  -0.2400 
 10 C       -3.6210     2.4300    -0.0130 C.ar  1 <1>  -0.1500 
 11 C       -2.3160     0.3090    -0.3100 C.3   1 <1>  -0.0970 
 12 C       -2.5890     4.5800     0.0660 C.ar  1 <1>  -0.1500 
 13 C        4.7600     2.0800    -0.3660 C.3   1 <1>  -0.2400 
 14 C       -3.7330     3.8040     0.1130 C.ar  1 <1>  -0.1430 
 15 C       -5.0960     4.4480     0.2920 C.3   1 <1>  -0.0970 
 16 H        0.7310     2.7770     1.4210 H     1 <1>   0.3700 
 17 H        2.8680     2.1940     1.5720 H     1 <1>   0.0800 
 18 H       -0.4720     4.5980    -0.1440 H     1 <1>   0.1500 
 19 H        3.0630     3.3480    -0.6370 H     1 <1>   0.0800 
 20 H        2.9170     1.8020    -1.4220 H     1 <1>   0.0800 
 21 H        2.0900    -0.2020    -0.0990 H     1 <1>   0.0800 
 22 H        1.8030    -0.0450     1.6220 H     1 <1>   0.0800 
 23 H        3.4310    -0.1000     1.0090 H     1 <1>   0.0800 
 24 H       -4.5120     1.8260     0.0160 H     1 <1>   0.1500 
 25 H       -1.6060    -0.0940     0.3890 H     1 <1>   0.0800 
 26 H       -2.0060     0.0440    -1.3050 H     1 <1>   0.0800 
 27 H       -3.2730    -0.1430    -0.1200 H     1 <1>   0.0800 
 28 H       -2.6570     5.6500     0.1550 H     1 <1>   0.1500 
 29 H        5.1160     2.5450     0.5360 H     1 <1>   0.0800 
 30 H        5.2760     2.5170    -1.2030 H     1 <1>   0.0800 
 31 H        4.9960     1.0320    -0.3380 H     1 <1>   0.0800 
 32 H       -5.7330     3.8160     0.8840 H     1 <1>   0.0800 
 33 H       -5.5530     4.6010    -0.6690 H     1 <1>   0.0800 
 34 H       -5.0040     5.3970     0.7880 H     1 <1>   0.0800 
@<TRIPOS>BOND
  1   1   2  2   
  2   2   3  am  
  3   2   4  1   
  4   3   5  1   
  5   3  16  1   
  6   4   6  ar  
  7   4   7  ar  
  8   5   8  1   
  9   5   9  1   
 10   5  17  1   
 11   6  10  ar  
 12   6  11  1   
 13   7  12  ar  
 14   7  18  1   
 15   8  13  1   
 16   8  19  1   
 17   8  20  1   
 18   9  21  1   
 19   9  22  1   
 20   9  23  1   
 21  10  14  ar  
 22  10  24  1   
 23  11  25  1   
 24  11  26  1   
 25  11  27  1   
 26  12  14  ar  
 27  12  28  1   
 28  13  29  1   
 29  13  30  1   
 30  13  31  1   
 31  14  15  1   
 32  15  32  1   
 33  15  33  1   
 34  15  34  1   
@<TRIPOS>SUBSTRUCTURE
  1 ****   4 GROUP 4 **** **** 0

# MOE 2024.06 (io_trps.svl 2023.06)
