@<TRIPOS>MOLECULE
NONAME
36 37 1 0 0 
SMALL
USER_CHARGES


@<TRIPOS>ATOM
  1 CL      -0.0060     0.3290     0.3230 Cl    1 <1>  -0.1770 
  2 C       -1.5870     1.0460     0.1610 C.ar  1 <1>   0.1770 
  3 C       -1.7770     2.0800    -0.7360 C.ar  1 <1>  -0.1500 
  4 C       -2.6330     0.5710     0.9290 C.ar  1 <1>  -0.1500 
  5 C       -3.0340     2.6470    -0.8590 C.ar  1 <1>  -0.1500 
  6 C       -3.8840     1.1470     0.7960 C.ar  1 <1>  -0.1500 
  7 C       -4.1170     2.2010    -0.0930 C.ar  1 <1>   0.0860 
  8 C       -5.4350     2.8030    -0.2110 C.2   1 <1>   0.4140 
  9 N       -6.5020     2.1470     0.0370 N.2   1 <1>  -0.5130 
 10 N       -5.5140     4.1330    -0.5760 N.pl3 1 <1>  -0.8500 
 11 O       -7.6800     2.7750    -0.1060 O.3   1 <1>  -0.0870 
 12 C       -8.8640     2.2170     0.1840 C.2   1 <1>   0.6590 
 13 O       -8.9850     1.1040     0.6380 O.2   1 <1>  -0.5700 
 14 C      -10.0740     3.1100    -0.0990 C.3   1 <1>  -0.0190 
 15 C      -10.3110     4.1000     1.0590 C.3   1 <1>  -0.1600 
 16 C      -11.3580     2.3020    -0.3850 C.3   1 <1>  -0.1600 
 17 C      -11.5090     5.0190     0.7830 C.3   1 <1>  -0.1600 
 18 C      -12.5540     3.2220    -0.6650 C.3   1 <1>  -0.1600 
 19 C      -12.7770     4.2060     0.4910 C.3   1 <1>  -0.1600 
 20 H       -0.9510     2.4290    -1.3280 H     1 <1>   0.1500 
 21 H       -2.4670    -0.2380     1.6170 H     1 <1>   0.1500 
 22 H       -3.1820     3.4420    -1.5690 H     1 <1>   0.1500 
 23 H       -4.7030     0.7760     1.3910 H     1 <1>   0.1500 
 24 H       -6.4520     4.5090    -0.4320 H     1 <1>   0.4000 
 25 H       -4.7910     4.7310    -0.1740 H     1 <1>   0.4000 
 26 H       -9.8460     3.6770    -0.9840 H     1 <1>   0.0800 
 27 H      -10.4910     3.5460     1.9660 H     1 <1>   0.0800 
 28 H       -9.4310     4.7000     1.2120 H     1 <1>   0.0800 
 29 H      -11.1960     1.6540    -1.2290 H     1 <1>   0.0800 
 30 H      -11.5850     1.6790     0.4640 H     1 <1>   0.0800 
 31 H      -11.6800     5.6550     1.6350 H     1 <1>   0.0800 
 32 H      -11.2900     5.6510    -0.0610 H     1 <1>   0.0800 
 33 H      -12.3800     3.7720    -1.5740 H     1 <1>   0.0800 
 34 H      -13.4400     2.6270    -0.8060 H     1 <1>   0.0800 
 35 H      -13.5850     4.8730     0.2460 H     1 <1>   0.0800 
 36 H      -13.0600     3.6580     1.3740 H     1 <1>   0.0800 
@<TRIPOS>BOND
  1   1   2  1   
  2   2   3  ar  
  3   2   4  ar  
  4   3   5  ar  
  5   3  20  1   
  6   4   6  ar  
  7   4  21  1   
  8   5   7  ar  
  9   5  22  1   
 10   6   7  ar  
 11   6  23  1   
 12   7   8  1   
 13   8   9  2   
 14   8  10  1   
 15   9  11  1   
 16  10  24  1   
 17  10  25  1   
 18  11  12  1   
 19  12  13  2   
 20  12  14  1   
 21  14  15  1   
 22  14  16  1   
 23  14  26  1   
 24  15  17  1   
 25  15  27  1   
 26  15  28  1   
 27  16  18  1   
 28  16  29  1   
 29  16  30  1   
 30  17  19  1   
 31  17  31  1   
 32  17  32  1   
 33  18  19  1   
 34  18  33  1   
 35  18  34  1   
 36  19  35  1   
 37  19  36  1   
@<TRIPOS>SUBSTRUCTURE
  1 ****   9 GROUP 4 **** **** 0

# MOE 2024.06 (io_trps.svl 2023.06)
