@<TRIPOS>MOLECULE
NONAME
35 35 1 0 0 
SMALL
USER_CHARGES


@<TRIPOS>ATOM
  1 O       -0.4510    -0.6550    -0.8950 O.2   1 <1>  -0.5200 
  2 N       -0.1780    -1.7290    -1.4630 N.pl3 1 <1>   0.8000 
  3 O        0.2970    -1.7020    -2.6120 O.2   1 <1>  -0.5200 
  4 C       -0.0950    -2.9830    -0.6680 C.3   1 <1>   0.4800 
  5 N       -0.9230    -4.0370    -1.2970 N.pl3 1 <1>   0.8000 
  6 C        1.3620    -3.5200    -0.7070 C.3   1 <1>   0.1100 
  7 C       -0.4940    -2.7590     0.8290 C.3   1 <1>   0.1400 
  8 O       -1.3040    -4.9780    -0.5760 O.2   1 <1>  -0.5200 
  9 O       -1.0010    -4.1390    -2.5310 O.2   1 <1>  -0.5200 
 10 N        2.3320    -2.7750     0.1380 N.3   1 <1>  -0.8100 
 11 N       -1.9130    -2.4210     1.2190 N.am  1 <1>  -0.7300 
 12 C        2.9190    -1.5980    -0.5580 C.3   1 <1>   0.1100 
 13 C        3.4350    -3.6630     0.5720 C.3   1 <1>   0.1100 
 14 C       -2.9960    -2.1680     0.4410 C.2   1 <1>   0.5690 
 15 C        3.9860    -0.9030     0.3060 C.3   1 <1>   0.1200 
 16 C        4.4770    -2.9010     1.4110 C.3   1 <1>   0.1200 
 17 O       -2.9580    -2.2290    -0.7590 O.2   1 <1>  -0.5700 
 18 C       -4.2890    -1.8040     1.1190 C.3   1 <1>  -0.1790 
 19 O        4.9740    -1.8130     0.6910 O.3   1 <1>  -0.5600 
 20 H        1.7210    -3.5700    -1.7230 H     1 <1>   0.0800 
 21 H        1.3280    -4.5330    -0.3420 H     1 <1>   0.0800 
 22 H        0.1370    -1.9800     1.2240 H     1 <1>   0.0800 
 23 H       -0.2250    -3.6510     1.3690 H     1 <1>   0.0800 
 24 H       -2.0520    -2.3320     2.2290 H     1 <1>   0.3700 
 25 H        2.1580    -0.8730    -0.7810 H     1 <1>   0.0800 
 26 H        3.3720    -1.9020    -1.4870 H     1 <1>   0.0800 
 27 H        3.9290    -4.0870    -0.2870 H     1 <1>   0.0800 
 28 H        3.0400    -4.4690     1.1650 H     1 <1>   0.0800 
 29 H        3.5420    -0.4800     1.1910 H     1 <1>   0.0800 
 30 H        4.4630    -0.1170    -0.2510 H     1 <1>   0.0800 
 31 H        5.3070    -3.5420     1.6500 H     1 <1>   0.0800 
 32 H        4.0400    -2.5410     2.3260 H     1 <1>   0.0800 
 33 H       -4.6020    -2.6060     1.7610 H     1 <1>   0.0800 
 34 H       -5.0500    -1.6340     0.3790 H     1 <1>   0.0800 
 35 H       -4.1590    -0.9070     1.6950 H     1 <1>   0.0800 
@<TRIPOS>BOND
  1   1   2  2   
  2   2   3  2   
  3   2   4  1   
  4   4   5  1   
  5   4   6  1   
  6   4   7  1   
  7   5   8  2   
  8   5   9  2   
  9   6  10  1   
 10   6  20  1   
 11   6  21  1   
 12   7  11  1   
 13   7  22  1   
 14   7  23  1   
 15  10  12  1   
 16  10  13  1   
 17  11  14  am  
 18  11  24  1   
 19  12  15  1   
 20  12  25  1   
 21  12  26  1   
 22  13  16  1   
 23  13  27  1   
 24  13  28  1   
 25  14  17  2   
 26  14  18  1   
 27  15  19  1   
 28  15  29  1   
 29  15  30  1   
 30  16  19  1   
 31  16  31  1   
 32  16  32  1   
 33  18  33  1   
 34  18  34  1   
 35  18  35  1   
@<TRIPOS>SUBSTRUCTURE
  1 ****   4 GROUP 4 **** **** 0

# MOE 2024.06 (io_trps.svl 2023.06)
