@<TRIPOS>MOLECULE
NONAME
51 54 1 0 0 
SMALL
USER_CHARGES


@<TRIPOS>ATOM
  1 CL      -1.4260    -1.3080    -0.2270 Cl    1 <1>  -0.1770 
  2 C       -0.1590    -2.5020    -0.1290 C.ar  1 <1>   0.1770 
  3 C        0.6120    -2.7680    -1.2450 C.ar  1 <1>  -0.1500 
  4 C        0.0600    -3.1650     1.0640 C.ar  1 <1>  -0.1500 
  5 C        1.6150    -3.7190    -1.1630 C.ar  1 <1>  -0.1500 
  6 C        1.0650    -4.1140     1.1350 C.ar  1 <1>  -0.1500 
  7 C        1.8560    -4.4150     0.0240 C.ar  1 <1>   0.0860 
  8 C        2.8950    -5.4130     0.1070 C.2   1 <1>   0.2780 
  9 N        3.9470    -5.1290     0.8110 N.2   1 <1>  -0.5120 
 10 C        2.7250    -6.6700    -0.5850 C.ar  1 <1>   0.0860 
 11 N        4.9570    -6.0440     0.8690 N.am  1 <1>  -0.2980 
 12 C        3.7730    -7.6020    -0.5490 C.ar  1 <1>   0.0860 
 13 C        1.5590    -7.0140    -1.2870 C.ar  1 <1>  -0.1500 
 14 C        4.9500    -7.2590     0.1960 C.2   1 <1>   0.5440 
 15 C        6.1200    -5.6670     1.7150 C.3   1 <1>   0.1400 
 16 C        3.6360    -8.8200    -1.2240 C.ar  1 <1>  -0.1500 
 17 C        1.4410    -8.2190    -1.9440 C.ar  1 <1>  -0.1500 
 18 O        5.9280    -7.9970     0.2350 O.2   1 <1>  -0.5700 
 19 C        7.2740    -5.1350     0.8550 C.3   1 <1>  -0.0990 
 20 C        2.4870    -9.1280    -1.9160 C.ar  1 <1>  -0.1500 
 21 C        8.5560    -5.8790     1.1440 C.2   1 <1>   0.5690 
 22 O        9.4980    -5.2740     1.5920 O.2   1 <1>  -0.5700 
 23 N        8.6010    -7.2070     0.8800 N.am  1 <1>  -0.7300 
 24 C        9.7710    -8.0980     1.1080 C.3   1 <1>   0.1400 
 25 C       10.4620    -8.4560    -0.2140 C.3   1 <1>   0.2000 
 26 O       11.5270    -9.3250     0.0380 O.3   1 <1>  -0.5600 
 27 C       11.0620    -7.2640    -0.9540 C.3   1 <1>  -0.1600 
 28 C       12.6660    -8.9820    -0.6900 C.3   1 <1>   0.1200 
 29 C       12.2510    -7.8810    -1.6560 C.3   1 <1>  -0.1600 
 30 H        0.4270    -2.2340    -2.1600 H     1 <1>   0.1500 
 31 H       -0.5470    -2.9370     1.9210 H     1 <1>   0.1500 
 32 H        2.2250    -3.9250    -2.0260 H     1 <1>   0.1500 
 33 H        1.2520    -4.6300     2.0610 H     1 <1>   0.1500 
 34 H        0.7270    -6.3330    -1.3200 H     1 <1>   0.1500 
 35 H        6.4270    -6.5250     2.2880 H     1 <1>   0.0800 
 36 H        5.8150    -4.9070     2.4130 H     1 <1>   0.0800 
 37 H        4.4490    -9.5260    -1.1960 H     1 <1>   0.1500 
 38 H        0.5390    -8.4630    -2.4800 H     1 <1>   0.1500 
 39 H        7.4230    -4.0930     1.0700 H     1 <1>   0.0800 
 40 H        7.0540    -5.2310    -0.1920 H     1 <1>   0.0800 
 41 H        2.3940   -10.0700    -2.4310 H     1 <1>   0.1500 
 42 H        7.7420    -7.6700     0.5380 H     1 <1>   0.3700 
 43 H        9.4340    -8.9990     1.5890 H     1 <1>   0.0800 
 44 H       10.4770    -7.6060     1.7550 H     1 <1>   0.0800 
 45 H        9.7780    -8.9840    -0.8550 H     1 <1>   0.0800 
 46 H       11.3880    -6.5210    -0.2460 H     1 <1>   0.0800 
 47 H       10.3570    -6.8180    -1.6320 H     1 <1>   0.0800 
 48 H       13.0360    -9.8560    -1.1980 H     1 <1>   0.0800 
 49 H       13.4020    -8.6230     0.0090 H     1 <1>   0.0800 
 50 H       13.0440    -7.1760    -1.8300 H     1 <1>   0.0800 
 51 H       11.9510    -8.3210    -2.5900 H     1 <1>   0.0800 
@<TRIPOS>BOND
  1   1   2  1   
  2   2   3  ar  
  3   2   4  ar  
  4   3   5  ar  
  5   3  30  1   
  6   4   6  ar  
  7   4  31  1   
  8   5   7  ar  
  9   5  32  1   
 10   6   7  ar  
 11   6  33  1   
 12   7   8  1   
 13   8   9  2   
 14   8  10  1   
 15   9  11  1   
 16  10  12  ar  
 17  10  13  ar  
 18  11  14  am  
 19  11  15  1   
 20  12  14  1   
 21  12  16  ar  
 22  13  17  ar  
 23  13  34  1   
 24  14  18  2   
 25  15  19  1   
 26  15  35  1   
 27  15  36  1   
 28  16  20  ar  
 29  16  37  1   
 30  17  20  ar  
 31  17  38  1   
 32  19  21  1   
 33  19  39  1   
 34  19  40  1   
 35  20  41  1   
 36  21  22  2   
 37  21  23  am  
 38  23  24  1   
 39  23  42  1   
 40  24  25  1   
 41  24  43  1   
 42  24  44  1   
 43  25  26  1   
 44  25  27  1   
 45  25  45  1   
 46  26  28  1   
 47  27  29  1   
 48  27  46  1   
 49  27  47  1   
 50  28  29  1   
 51  28  48  1   
 52  28  49  1   
 53  29  50  1   
 54  29  51  1   
@<TRIPOS>SUBSTRUCTURE
  1 ****  11 GROUP 4 **** **** 0

# MOE 2024.06 (io_trps.svl 2023.06)
