@<TRIPOS>MOLECULE
NONAME
40 42 1 0 0 
SMALL
USER_CHARGES


@<TRIPOS>ATOM
  1 CL      -0.5910    -1.8350     2.5690 Cl    1 <1>  -0.1770 
  2 C       -1.5780    -1.7680     1.1190 C.ar  1 <1>   0.1770 
  3 C       -1.1470    -2.3760    -0.0680 C.ar  1 <1>   0.1000 
  4 C       -2.7830    -1.0980     1.1970 C.ar  1 <1>  -0.1500 
  5 N        0.0620    -3.0690    -0.2110 N.pl3 1 <1>  -0.8380 
  6 C       -1.9810    -2.2820    -1.1750 C.ar  1 <1>  -0.1500 
  7 C       -3.5950    -1.0190     0.0780 C.ar  1 <1>  -0.1500 
  8 C        0.1630    -4.3720     0.5120 C.3   1 <1>   0.2090 
  9 C        1.3040    -2.2380    -0.1760 C.3   1 <1>   0.2090 
 10 C       -3.1910    -1.6120    -1.1060 C.ar  1 <1>  -0.1500 
 11 C        1.4030    -5.1670     0.0500 C.3   1 <1>   0.3430 
 12 C        2.5300    -3.0560    -0.6290 C.3   1 <1>   0.3430 
 13 N        2.6720    -4.3550     0.1310 N.4   1 <1>  -0.9590 
 14 C        3.8560    -5.1340    -0.3200 C.3   1 <1>   0.4860 
 15 C        5.1060    -4.3180    -0.0490 C.ar  1 <1>  -0.1430 
 16 C        5.5710    -4.1560     1.2490 C.ar  1 <1>  -0.1500 
 17 C        5.7960    -3.7190    -1.0990 C.ar  1 <1>  -0.1500 
 18 C        6.7020    -3.3910     1.4630 C.ar  1 <1>   0.1900 
 19 C        6.9300    -2.9570    -0.8620 C.ar  1 <1>  -0.1500 
 20 F        7.1270    -3.2350     2.6860 F     1 <1>  -0.1900 
 21 C        7.3920    -2.7850     0.4320 C.ar  1 <1>  -0.1500 
 22 H       -3.0850    -0.6420     2.1230 H     1 <1>   0.1500 
 23 H       -1.6740    -2.7390    -2.0980 H     1 <1>   0.1500 
 24 H       -4.5370    -0.4990     0.1280 H     1 <1>   0.1500 
 25 H       -0.7240    -4.9520     0.3190 H     1 <1>   0.0800 
 26 H        0.2200    -4.2020     1.5720 H     1 <1>   0.0800 
 27 H        1.4690    -1.8640     0.8190 H     1 <1>   0.0800 
 28 H        1.1790    -1.3900    -0.8280 H     1 <1>   0.0800 
 29 H       -3.8210    -1.5520    -1.9770 H     1 <1>   0.1500 
 30 H        1.2370    -5.4760    -0.9690 H     1 <1>   0.0800 
 31 H        1.4930    -6.0540     0.6550 H     1 <1>   0.0800 
 32 H        3.4150    -2.4540    -0.5000 H     1 <1>   0.0800 
 33 H        2.4220    -3.2630    -1.6810 H     1 <1>   0.0800 
 34 H        2.8290    -4.1020     1.1140 H     1 <1>   0.4500 
 35 H        3.7800    -5.3530    -1.3730 H     1 <1>   0.0800 
 36 H        3.9170    -6.0650     0.2190 H     1 <1>   0.0800 
 37 H        5.0860    -4.6070     2.0970 H     1 <1>   0.1500 
 38 H        5.4640    -3.8400    -2.1180 H     1 <1>   0.1500 
 39 H        7.4590    -2.4990    -1.6820 H     1 <1>   0.1500 
 40 H        8.2700    -2.1990     0.6400 H     1 <1>   0.1500 
@<TRIPOS>BOND
  1   1   2  1   
  2   2   3  ar  
  3   2   4  ar  
  4   3   5  1   
  5   3   6  ar  
  6   4   7  ar  
  7   4  22  1   
  8   5   8  1   
  9   5   9  1   
 10   6  10  ar  
 11   6  23  1   
 12   7  10  ar  
 13   7  24  1   
 14   8  11  1   
 15   8  25  1   
 16   8  26  1   
 17   9  12  1   
 18   9  27  1   
 19   9  28  1   
 20  10  29  1   
 21  11  13  1   
 22  11  30  1   
 23  11  31  1   
 24  12  13  1   
 25  12  32  1   
 26  12  33  1   
 27  13  14  1   
 28  13  34  1   
 29  14  15  1   
 30  14  35  1   
 31  14  36  1   
 32  15  16  ar  
 33  15  17  ar  
 34  16  18  ar  
 35  16  37  1   
 36  17  19  ar  
 37  17  38  1   
 38  18  20  1   
 39  18  21  ar  
 40  19  21  ar  
 41  19  39  1   
 42  21  40  1   
@<TRIPOS>SUBSTRUCTURE
  1 ****  12 GROUP 4 **** **** 0

# MOE 2024.06 (io_trps.svl 2023.06)
