@<TRIPOS>MOLECULE
NONAME
43 44 1 0 0 
SMALL
USER_CHARGES


@<TRIPOS>ATOM
  1 S        0.2790    -0.0790     0.2270 S.o2  1 <1>   1.3330 
  2 O        0.6700    -1.3450    -0.3520 O.2   1 <1>  -0.6500 
  3 O       -0.1400    -0.0170     1.6090 O.2   1 <1>  -0.6500 
  4 N        1.5710     1.0020     0.0350 N.am  1 <1>  -0.8490 
  5 C       -1.0000     0.6340    -0.8200 C.3   1 <1>  -0.0550 
  6 C        2.8620     0.3460     0.3050 C.3   1 <1>   0.1960 
  7 C        1.4290     2.1970     0.8760 C.3   1 <1>   0.1960 
  8 C       -2.3130    -0.1670    -0.8560 C.3   1 <1>  -0.2400 
  9 C        4.0250     1.2780    -0.0550 C.3   1 <1>  -0.0190 
 10 C        2.5240     3.2140     0.5380 C.3   1 <1>  -0.1600 
 11 C        5.3410     0.5650     0.2140 C.2   1 <1>   0.5690 
 12 C        3.9220     2.6060     0.7190 C.3   1 <1>  -0.1600 
 13 O        5.5700     0.1700     1.3310 O.2   1 <1>  -0.5700 
 14 N        6.2090     0.3980    -0.8280 N.am  1 <1>  -0.5470 
 15 C        7.4380    -0.2740    -0.8300 C.ar  1 <1>   0.1170 
 16 C        7.5460    -1.6480    -0.5990 C.ar  1 <1>  -0.1440 
 17 C        8.5880     0.4570    -1.1010 C.ar  1 <1>  -0.1500 
 18 C        8.7930    -2.2520    -0.6340 C.ar  1 <1>  -0.1500 
 19 C        6.3250    -2.5140    -0.3100 C.3   1 <1>  -0.0970 
 20 C        9.8280    -0.1530    -1.1380 C.ar  1 <1>  -0.1500 
 21 C        9.9310    -1.5110    -0.9030 C.ar  1 <1>  -0.1500 
 22 H       -0.6190     0.7100    -1.8200 H     1 <1>   0.0800 
 23 H       -1.2190     1.6270    -0.4800 H     1 <1>   0.0800 
 24 H        2.9510    -0.5490    -0.2880 H     1 <1>   0.0800 
 25 H        2.9180     0.0610     1.3440 H     1 <1>   0.0800 
 26 H        1.4940     1.9240     1.9180 H     1 <1>   0.0800 
 27 H        0.4660     2.6500     0.7110 H     1 <1>   0.0800 
 28 H       -2.1290    -1.1620    -1.2240 H     1 <1>   0.0800 
 29 H       -3.0280     0.3140    -1.4990 H     1 <1>   0.0800 
 30 H       -2.7290    -0.2400     0.1340 H     1 <1>   0.0800 
 31 H        3.9560     1.4860    -1.1070 H     1 <1>   0.0800 
 32 H        2.4210     4.0730     1.1770 H     1 <1>   0.0800 
 33 H        2.3940     3.5410    -0.4790 H     1 <1>   0.0800 
 34 H        4.6740     3.2950     0.3750 H     1 <1>   0.0800 
 35 H        4.0940     2.4210     1.7660 H     1 <1>   0.0800 
 36 H        5.9690     0.8580    -1.7030 H     1 <1>   0.3700 
 37 H        8.5130     1.5140    -1.2780 H     1 <1>   0.1500 
 38 H        8.8870    -3.3070    -0.4500 H     1 <1>   0.1500 
 39 H        5.5130    -2.2530    -0.9630 H     1 <1>   0.0800 
 40 H        6.0140    -2.3720     0.7100 H     1 <1>   0.0800 
 41 H        6.5490    -3.5550    -0.4550 H     1 <1>   0.0800 
 42 H       10.7110     0.4260    -1.3460 H     1 <1>   0.1500 
 43 H       10.8940    -1.9920    -0.9270 H     1 <1>   0.1500 
@<TRIPOS>BOND
  1   1   2  2   
  2   1   3  2   
  3   1   4  am  
  4   1   5  1   
  5   4   6  1   
  6   4   7  1   
  7   5   8  1   
  8   5  22  1   
  9   5  23  1   
 10   6   9  1   
 11   6  24  1   
 12   6  25  1   
 13   7  10  1   
 14   7  26  1   
 15   7  27  1   
 16   8  28  1   
 17   8  29  1   
 18   8  30  1   
 19   9  11  1   
 20   9  12  1   
 21   9  31  1   
 22  10  12  1   
 23  10  32  1   
 24  10  33  1   
 25  11  13  2   
 26  11  14  am  
 27  12  34  1   
 28  12  35  1   
 29  14  15  1   
 30  14  36  1   
 31  15  16  ar  
 32  15  17  ar  
 33  16  18  ar  
 34  16  19  1   
 35  17  20  ar  
 36  17  37  1   
 37  18  21  ar  
 38  18  38  1   
 39  19  39  1   
 40  19  40  1   
 41  19  41  1   
 42  20  21  ar  
 43  20  42  1   
 44  21  43  1   
@<TRIPOS>SUBSTRUCTURE
  1 ****   9 GROUP 4 **** **** 0

# MOE 2024.06 (io_trps.svl 2023.06)
