@<TRIPOS>MOLECULE
NONAME
53 55 1 0 0 
SMALL
USER_CHARGES


@<TRIPOS>ATOM
  1 N       -0.1710    -0.4640     0.3850 N.4   1 <1>  -0.9590 
  2 C        0.5450    -1.3890     1.3120 C.3   1 <1>   0.3430 
  3 C        0.6940     0.6290    -0.1490 C.3   1 <1>   0.3430 
  4 C       -1.3760     0.1170     1.0650 C.3   1 <1>   0.2630 
  5 C        1.7760    -1.9840     0.6230 C.3   1 <1>  -0.1600 
  6 C        1.9060     0.0280    -0.8620 C.3   1 <1>  -0.1600 
  7 C        2.6940    -0.8810     0.0950 C.3   1 <1>   0.4230 
  8 N        3.9120    -1.5140    -0.5110 N.4   1 <1>  -0.9590 
  9 C        5.1780    -0.8360    -0.0730 C.3   1 <1>   0.4230 
 10 C        3.8540    -1.7780    -1.9950 C.3   1 <1>   0.2630 
 11 C        5.4400     0.4980    -0.7930 C.3   1 <1>  -0.1600 
 12 C        6.3660    -1.7940    -0.2440 C.3   1 <1>  -0.1600 
 13 C        6.7440     1.1430    -0.2930 C.3   1 <1>  -0.1600 
 14 C        7.6660    -1.1530     0.2670 C.3   1 <1>  -0.1600 
 15 C        7.9430     0.1900    -0.4290 C.3   1 <1>   0.0630 
 16 C        9.2190     0.8340     0.1050 C.ar  1 <1>  -0.1430 
 17 C       10.2850     1.0630    -0.7540 C.ar  1 <1>  -0.1500 
 18 C        9.3450     1.2010     1.4390 C.ar  1 <1>  -0.1500 
 19 C       11.4520     1.6460    -0.2910 C.ar  1 <1>  -0.1500 
 20 C       10.5110     1.7840     1.9040 C.ar  1 <1>  -0.1500 
 21 C       11.5660     2.0070     1.0380 C.ar  1 <1>  -0.1500 
 22 H       -0.5260    -1.0170    -0.4130 H     1 <1>   0.4500 
 23 H       -0.1160    -2.1850     1.6210 H     1 <1>   0.0800 
 24 H        0.8500    -0.8500     2.1970 H     1 <1>   0.0800 
 25 H        1.0220     1.2640     0.6600 H     1 <1>   0.0800 
 26 H        0.1310     1.2360    -0.8420 H     1 <1>   0.0800 
 27 H       -1.0820     0.7110     1.9150 H     1 <1>   0.0800 
 28 H       -2.0310    -0.6690     1.4060 H     1 <1>   0.0800 
 29 H       -1.9270     0.7440     0.3830 H     1 <1>   0.0800 
 30 H        1.4540    -2.6280    -0.1760 H     1 <1>   0.0800 
 31 H        2.3040    -2.5810     1.3460 H     1 <1>   0.0800 
 32 H        2.5220     0.8370    -1.2080 H     1 <1>   0.0800 
 33 H        1.5500    -0.5150    -1.7190 H     1 <1>   0.0800 
 34 H        3.0070    -0.2850     0.9390 H     1 <1>   0.0800 
 35 H        3.9880    -2.4440    -0.0770 H     1 <1>   0.4500 
 36 H        5.1020    -0.6220     0.9820 H     1 <1>   0.0800 
 37 H        3.8250    -0.8510    -2.5440 H     1 <1>   0.0800 
 38 H        2.9750    -2.3520    -2.2410 H     1 <1>   0.0800 
 39 H        4.7190    -2.3350    -2.3150 H     1 <1>   0.0800 
 40 H        4.6440     1.1920    -0.6040 H     1 <1>   0.0800 
 41 H        5.5290     0.3480    -1.8540 H     1 <1>   0.0800 
 42 H        6.5070    -2.0450    -1.2800 H     1 <1>   0.0800 
 43 H        6.1940    -2.7010     0.3090 H     1 <1>   0.0800 
 44 H        6.6290     1.4310     0.7380 H     1 <1>   0.0800 
 45 H        6.9460     2.0390    -0.8550 H     1 <1>   0.0800 
 46 H        8.4940    -1.8180     0.0870 H     1 <1>   0.0800 
 47 H        7.6000    -1.0050     1.3310 H     1 <1>   0.0800 
 48 H        8.0840    -0.0100    -1.4790 H     1 <1>   0.0800 
 49 H       10.2190     0.7900    -1.7920 H     1 <1>   0.1500 
 50 H        8.5400     1.0380     2.1320 H     1 <1>   0.1500 
 51 H       12.2710     1.8190    -0.9670 H     1 <1>   0.1500 
 52 H       10.5980     2.0650     2.9390 H     1 <1>   0.1500 
 53 H       12.4730     2.4610     1.3990 H     1 <1>   0.1500 
@<TRIPOS>BOND
  1   1   2  1   
  2   1   3  1   
  3   1   4  1   
  4   1  22  1   
  5   2   5  1   
  6   2  23  1   
  7   2  24  1   
  8   3   6  1   
  9   3  25  1   
 10   3  26  1   
 11   4  27  1   
 12   4  28  1   
 13   4  29  1   
 14   5   7  1   
 15   5  30  1   
 16   5  31  1   
 17   6   7  1   
 18   6  32  1   
 19   6  33  1   
 20   7   8  1   
 21   7  34  1   
 22   8   9  1   
 23   8  10  1   
 24   8  35  1   
 25   9  11  1   
 26   9  12  1   
 27   9  36  1   
 28  10  37  1   
 29  10  38  1   
 30  10  39  1   
 31  11  13  1   
 32  11  40  1   
 33  11  41  1   
 34  12  14  1   
 35  12  42  1   
 36  12  43  1   
 37  13  15  1   
 38  13  44  1   
 39  13  45  1   
 40  14  15  1   
 41  14  46  1   
 42  14  47  1   
 43  15  16  1   
 44  15  48  1   
 45  16  17  ar  
 46  16  18  ar  
 47  17  19  ar  
 48  17  49  1   
 49  18  20  ar  
 50  18  50  1   
 51  19  21  ar  
 52  19  51  1   
 53  20  21  ar  
 54  20  52  1   
 55  21  53  1   
@<TRIPOS>SUBSTRUCTURE
  1 ****   9 GROUP 4 **** **** 0

# MOE 2024.06 (io_trps.svl 2023.06)
