@<TRIPOS>MOLECULE
NONAME
40 40 1 0 0 
SMALL
USER_CHARGES


@<TRIPOS>ATOM
  1 BR       0.1250     0.4350    -0.7000 Br    1 <1>  -0.1110 
  2 C        1.9310     1.0010    -0.3470 C.ar  1 <1>   0.1110 
  3 C        2.1650     1.8580     0.7120 C.ar  1 <1>  -0.1500 
  4 C        2.9460     0.5360    -1.1620 C.ar  1 <1>  -0.1500 
  5 C        3.4670     2.2600     0.9580 C.ar  1 <1>  -0.1500 
  6 C        4.2450     0.9450    -0.9070 C.ar  1 <1>  -0.1500 
  7 C        4.5080     1.8100     0.1570 C.ar  1 <1>   0.0830 
  8 O        5.7490     2.2570     0.4740 O.3   1 <1>  -0.3630 
  9 C        6.8810     1.8700    -0.2650 C.3   1 <1>   0.1200 
 10 C        8.0950     2.5550     0.3660 C.3   1 <1>  -0.1600 
 11 C        9.3990     2.2030    -0.3650 C.3   1 <1>  -0.1600 
 12 C       10.5850     2.9050     0.2940 C.3   1 <1>   0.3430 
 13 N       11.8300     2.5450    -0.4330 N.4   1 <1>  -0.9060 
 14 C       13.0770     3.1320     0.0630 C.3   1 <1>   0.5030 
 15 C       13.3270     2.6770     1.5000 C.3   1 <1>  -0.2400 
 16 C       13.0050     4.6550    -0.0280 C.3   1 <1>  -0.2400 
 17 C       14.1860     2.6100    -0.8460 C.3   1 <1>  -0.2400 
 18 H        1.3510     2.2000     1.3250 H     1 <1>   0.1500 
 19 H        2.7210    -0.1290    -1.9760 H     1 <1>   0.1500 
 20 H        3.6830     2.9260     1.7740 H     1 <1>   0.1500 
 21 H        5.0290     0.5810    -1.5430 H     1 <1>   0.1500 
 22 H        6.7430     2.1870    -1.2850 H     1 <1>   0.0800 
 23 H        6.9690     0.7980    -0.2120 H     1 <1>   0.0800 
 24 H        8.1610     2.2480     1.3970 H     1 <1>   0.0800 
 25 H        7.9380     3.6200     0.3360 H     1 <1>   0.0800 
 26 H        9.3170     2.5130    -1.3920 H     1 <1>   0.0800 
 27 H        9.5410     1.1360    -0.3290 H     1 <1>   0.0800 
 28 H       10.6560     2.5990     1.3260 H     1 <1>   0.0800 
 29 H       10.4320     3.9720     0.2650 H     1 <1>   0.0800 
 30 H       11.7350     2.8170    -1.4160 H     1 <1>   0.4500 
 31 H       11.9450     1.5280    -0.4190 H     1 <1>   0.4500 
 32 H       12.5960     3.0800     2.1780 H     1 <1>   0.0800 
 33 H       14.2900     3.0290     1.8280 H     1 <1>   0.0800 
 34 H       13.3290     1.6040     1.5740 H     1 <1>   0.0800 
 35 H       12.2740     5.0600     0.6480 H     1 <1>   0.0800 
 36 H       12.7800     4.9750    -1.0310 H     1 <1>   0.0800 
 37 H       13.9560     5.0790     0.2440 H     1 <1>   0.0800 
 38 H       14.0300     2.9140    -1.8660 H     1 <1>   0.0800 
 39 H       15.1350     3.0080    -0.5300 H     1 <1>   0.0800 
 40 H       14.2540     1.5370    -0.8010 H     1 <1>   0.0800 
@<TRIPOS>BOND
  1   1   2  1   
  2   2   3  ar  
  3   2   4  ar  
  4   3   5  ar  
  5   3  18  1   
  6   4   6  ar  
  7   4  19  1   
  8   5   7  ar  
  9   5  20  1   
 10   6   7  ar  
 11   6  21  1   
 12   7   8  1   
 13   8   9  1   
 14   9  10  1   
 15   9  22  1   
 16   9  23  1   
 17  10  11  1   
 18  10  24  1   
 19  10  25  1   
 20  11  12  1   
 21  11  26  1   
 22  11  27  1   
 23  12  13  1   
 24  12  28  1   
 25  12  29  1   
 26  13  14  1   
 27  13  30  1   
 28  13  31  1   
 29  14  15  1   
 30  14  16  1   
 31  14  17  1   
 32  15  32  1   
 33  15  33  1   
 34  15  34  1   
 35  16  35  1   
 36  16  36  1   
 37  16  37  1   
 38  17  38  1   
 39  17  39  1   
 40  17  40  1   
@<TRIPOS>SUBSTRUCTURE
  1 ****   9 GROUP 4 **** **** 0

# MOE 2024.06 (io_trps.svl 2023.06)
