@<TRIPOS>MOLECULE
NONAME
48 52 1 0 0 
SMALL
USER_CHARGES


@<TRIPOS>ATOM
  1 O        0.0250     1.2750     1.3870 O.2   1 <1>  -0.5700 
  2 C        0.0340     2.1450     0.5550 C.2   1 <1>   0.5690 
  3 N        1.0770     2.5560    -0.2590 N.am  1 <1>  -0.2370 
  4 C       -1.1310     3.0370     0.2490 C.3   1 <1>  -0.0190 
  5 C        2.4370     2.2340    -0.0840 C.ar  1 <1>   0.1170 
  6 C        0.5780     3.4040    -1.2340 C.2   1 <1>   0.5690 
  7 C       -2.6580     3.1200     0.3920 C.3   1 <1>   0.1960 
  8 C       -0.9110     3.2220    -1.2560 C.3   1 <1>  -0.0190 
  9 C        2.9300     0.9480    -0.3180 C.ar  1 <1>  -0.1440 
 10 C        3.3160     3.2300     0.3290 C.ar  1 <1>  -0.1500 
 11 O        1.1840     4.1490    -1.9610 O.2   1 <1>  -0.5700 
 12 C       -2.7380     4.4490    -0.3440 C.2   1 <1>  -0.2760 
 13 C       -3.4220     2.3200    -0.6550 C.2   1 <1>  -0.2880 
 14 C       -2.1840     3.9900    -1.6790 C.3   1 <1>   0.1960 
 15 C        4.2760     0.6880    -0.1180 C.ar  1 <1>  -0.1500 
 16 C        2.0280    -0.1860    -0.7900 C.3   1 <1>  -0.0970 
 17 C        4.6600     2.9670     0.5230 C.ar  1 <1>  -0.1430 
 18 C       -3.1570     5.6530     0.0610 C.2   1 <1>  -0.2760 
 19 C       -3.1920     2.8630    -1.8550 C.2   1 <1>  -0.2880 
 20 C        5.1360     1.6880     0.3000 C.ar  1 <1>  -0.1500 
 21 C        5.6070     4.0640     0.9750 C.3   1 <1>  -0.0970 
 22 C       -3.6910     5.9850     1.4420 C.3   1 <1>  -0.0220 
 23 C       -3.1640     6.9140    -0.7800 C.3   1 <1>  -0.0220 
 24 C       -4.1410     7.4420     1.3590 C.3   1 <1>  -0.1600 
 25 C       -3.3100     8.0470     0.2310 C.3   1 <1>  -0.1600 
 26 H       -0.8060     3.9310     0.7650 H     1 <1>   0.0800 
 27 H       -3.0630     3.1410     1.3890 H     1 <1>   0.0800 
 28 H       -0.9830     2.2650    -1.7500 H     1 <1>   0.0800 
 29 H        2.9370     4.2220     0.4950 H     1 <1>   0.1500 
 30 H       -4.0310     1.4830    -0.3610 H     1 <1>   0.1500 
 31 H       -2.1160     4.7120    -2.4750 H     1 <1>   0.0800 
 32 H        4.6680    -0.3000    -0.2870 H     1 <1>   0.1500 
 33 H        2.6110    -1.0090    -1.1630 H     1 <1>   0.0800 
 34 H        1.3820     0.1490    -1.5800 H     1 <1>   0.0800 
 35 H        1.4280    -0.5410     0.0290 H     1 <1>   0.0800 
 36 H       -3.5610     2.6060    -2.8330 H     1 <1>   0.1500 
 37 H        6.1780     1.4650     0.4500 H     1 <1>   0.1500 
 38 H        5.8090     3.9600     2.0260 H     1 <1>   0.0800 
 39 H        5.1790     5.0340     0.7970 H     1 <1>   0.0800 
 40 H        6.5340     3.9980     0.4340 H     1 <1>   0.0800 
 41 H       -4.5050     5.3380     1.7180 H     1 <1>   0.0800 
 42 H       -2.8960     5.8880     2.1610 H     1 <1>   0.0800 
 43 H       -2.2700     7.0160    -1.3690 H     1 <1>   0.0800 
 44 H       -4.0220     6.8960    -1.4300 H     1 <1>   0.0800 
 45 H       -5.1830     7.4740     1.0880 H     1 <1>   0.0800 
 46 H       -4.0020     7.9620     2.2910 H     1 <1>   0.0800 
 47 H       -2.3370     8.3140     0.6060 H     1 <1>   0.0800 
 48 H       -3.7770     8.9150    -0.2000 H     1 <1>   0.0800 
@<TRIPOS>BOND
  1   1   2  2   
  2   2   3  am  
  3   2   4  1   
  4   3   5  1   
  5   3   6  am  
  6   4   7  1   
  7   4   8  1   
  8   4  26  1   
  9   5   9  ar  
 10   5  10  ar  
 11   6   8  1   
 12   6  11  2   
 13   7  12  1   
 14   7  13  1   
 15   7  27  1   
 16   8  14  1   
 17   8  28  1   
 18   9  15  ar  
 19   9  16  1   
 20  10  17  ar  
 21  10  29  1   
 22  12  14  1   
 23  12  18  2   
 24  13  19  2   
 25  13  30  1   
 26  14  19  1   
 27  14  31  1   
 28  15  20  ar  
 29  15  32  1   
 30  16  33  1   
 31  16  34  1   
 32  16  35  1   
 33  17  20  ar  
 34  17  21  1   
 35  18  22  1   
 36  18  23  1   
 37  19  36  1   
 38  20  37  1   
 39  21  38  1   
 40  21  39  1   
 41  21  40  1   
 42  22  24  1   
 43  22  41  1   
 44  22  42  1   
 45  23  25  1   
 46  23  43  1   
 47  23  44  1   
 48  24  25  1   
 49  24  45  1   
 50  24  46  1   
 51  25  47  1   
 52  25  48  1   
@<TRIPOS>SUBSTRUCTURE
  1 ****   6 GROUP 4 **** **** 0

# MOE 2024.06 (io_trps.svl 2023.06)
