@<TRIPOS>MOLECULE
NONAME
47 49 1 0 0 
SMALL
USER_CHARGES


@<TRIPOS>ATOM
  1 S        0.0270     0.3730     1.1890 S.o2  1 <1>   1.4470 
  2 O        0.8570     0.5240     2.3620 O.2   1 <1>  -0.6500 
  3 O       -0.4020     1.5320     0.4430 O.2   1 <1>  -0.6500 
  4 N        0.8810    -0.5120     0.0510 N.am  1 <1>  -0.9140 
  5 C       -1.3820    -0.7060     1.5620 C.ar  1 <1>  -0.0090 
  6 C        2.2840    -0.1720    -0.0160 C.3   1 <1>   0.2760 
  7 C       -2.6910    -0.2780     1.3830 C.ar  1 <1>  -0.1500 
  8 C       -1.1790    -1.9950     2.0390 C.ar  1 <1>  -0.1500 
  9 C        2.7140    -0.2370    -1.4860 C.3   1 <1>  -0.1600 
 10 C        3.0890    -1.1720     0.8250 C.3   1 <1>  -0.1600 
 11 C       -3.7920    -1.0900     1.6530 C.ar  1 <1>   0.0860 
 12 C       -2.2470    -2.8240     2.3280 C.ar  1 <1>  -0.1500 
 13 C        4.2230     0.0080    -1.6380 C.3   1 <1>  -0.1600 
 14 C        4.6000    -0.9350     0.6830 C.3   1 <1>  -0.1600 
 15 C       -5.1410    -0.5970     1.4380 C.2   1 <1>   0.5440 
 16 C       -3.5380    -2.3730     2.1390 C.ar  1 <1>  -0.1500 
 17 C        5.0320    -0.9800    -0.7890 C.3   1 <1>  -0.1600 
 18 O       -5.4370     0.5410     1.7320 O.2   1 <1>  -0.5700 
 19 N       -6.1460    -1.3570     0.9090 N.am  1 <1>  -0.5470 
 20 C       -6.1230    -2.5960     0.2610 C.ar  1 <1>   0.1170 
 21 C       -5.1090    -2.9390    -0.6280 C.ar  1 <1>  -0.1500 
 22 C       -7.1420    -3.5100     0.4960 C.ar  1 <1>  -0.1500 
 23 C       -5.1040    -4.1730    -1.2520 C.ar  1 <1>  -0.1500 
 24 C       -7.1420    -4.7440    -0.1280 C.ar  1 <1>  -0.1500 
 25 C       -6.1210    -5.0780    -1.0020 C.ar  1 <1>  -0.1500 
 26 H        0.4780    -0.1790    -0.8210 H     1 <1>   0.4200 
 27 H        2.4540     0.8310     0.3460 H     1 <1>   0.0800 
 28 H       -2.8720     0.7220     1.0230 H     1 <1>   0.1500 
 29 H       -0.1710    -2.3490     2.1860 H     1 <1>   0.1500 
 30 H        2.1820     0.5070    -2.0520 H     1 <1>   0.0800 
 31 H        2.4790    -1.2090    -1.8860 H     1 <1>   0.0800 
 32 H        2.8580    -2.1730     0.5050 H     1 <1>   0.0800 
 33 H        2.8200    -1.0780     1.8620 H     1 <1>   0.0800 
 34 H       -2.0710    -3.8190     2.7010 H     1 <1>   0.1500 
 35 H        4.4550     1.0140    -1.3310 H     1 <1>   0.0800 
 36 H        4.5030    -0.0930    -2.6730 H     1 <1>   0.0800 
 37 H        5.1360    -1.6840     1.2400 H     1 <1>   0.0800 
 38 H        4.8500     0.0260     1.1000 H     1 <1>   0.0800 
 39 H       -4.3640    -3.0230     2.3710 H     1 <1>   0.1500 
 40 H        6.0810    -0.7470    -0.8630 H     1 <1>   0.0800 
 41 H        4.8900    -1.9770    -1.1700 H     1 <1>   0.0800 
 42 H       -7.0490    -0.8850     0.9570 H     1 <1>   0.3700 
 43 H       -4.3210    -2.2380    -0.8370 H     1 <1>   0.1500 
 44 H       -7.9370    -3.2570     1.1740 H     1 <1>   0.1500 
 45 H       -4.3130    -4.4300    -1.9350 H     1 <1>   0.1500 
 46 H       -7.9350    -5.4460     0.0640 H     1 <1>   0.1500 
 47 H       -6.1190    -6.0390    -1.4870 H     1 <1>   0.1500 
@<TRIPOS>BOND
  1   1   2  2   
  2   1   3  2   
  3   1   4  am  
  4   1   5  1   
  5   4   6  1   
  6   4  26  1   
  7   5   7  ar  
  8   5   8  ar  
  9   6   9  1   
 10   6  10  1   
 11   6  27  1   
 12   7  11  ar  
 13   7  28  1   
 14   8  12  ar  
 15   8  29  1   
 16   9  13  1   
 17   9  30  1   
 18   9  31  1   
 19  10  14  1   
 20  10  32  1   
 21  10  33  1   
 22  11  15  1   
 23  11  16  ar  
 24  12  16  ar  
 25  12  34  1   
 26  13  17  1   
 27  13  35  1   
 28  13  36  1   
 29  14  17  1   
 30  14  37  1   
 31  14  38  1   
 32  15  18  2   
 33  15  19  am  
 34  16  39  1   
 35  17  40  1   
 36  17  41  1   
 37  19  20  1   
 38  19  42  1   
 39  20  21  ar  
 40  20  22  ar  
 41  21  23  ar  
 42  21  43  1   
 43  22  24  ar  
 44  22  44  1   
 45  23  25  ar  
 46  23  45  1   
 47  24  25  ar  
 48  24  46  1   
 49  25  47  1   
@<TRIPOS>SUBSTRUCTURE
  1 ****   5 GROUP 4 **** **** 0

# MOE 2024.06 (io_trps.svl 2023.06)
