@<TRIPOS>MOLECULE
NONAME
32 34 1 0 0 
SMALL
USER_CHARGES


@<TRIPOS>ATOM
  1 S      -11.4270     3.2360    -1.0930 S.3   1 <1>  -0.0800 
  2 C       -9.8840     2.4190    -0.8400 C.ar  1 <1>   0.2970 
  3 C      -10.9560     4.5700    -0.0350 C.2   1 <1>  -0.1400 
  4 N       -9.5730     1.2690    -1.3980 N.ar  1 <1>  -0.5670 
  5 C       -9.0890     3.1540     0.0030 C.ar  1 <1>   0.0000 
  6 C       -9.7170     4.3720     0.4500 C.2   1 <1>  -0.1500 
  7 C      -11.9680     5.6800     0.1570 C.3   1 <1>  -0.0600 
  8 C       -8.3660     0.8590    -1.0600 C.ar  1 <1>   0.4700 
  9 C       -7.8390     2.5980     0.2680 C.ar  1 <1>   0.4100 
 10 N       -7.4780     1.4460    -0.2680 N.ar  1 <1>  -0.6200 
 11 N       -6.9390     3.2320     1.0860 N.pl3 1 <1>  -0.8690 
 12 C       -5.5750     2.7230     1.4190 C.3   1 <1>   0.2090 
 13 C       -4.5790     2.9630     0.2730 C.3   1 <1>   0.2000 
 14 O       -3.2880     2.6730     0.7040 O.3   1 <1>  -0.5600 
 15 C       -4.4860     4.4050    -0.2120 C.3   1 <1>  -0.1600 
 16 C       -2.3600     3.2830    -0.1340 C.3   1 <1>   0.1200 
 17 C       -3.0610     4.5020    -0.7330 C.3   1 <1>  -0.1600 
 18 H       -9.1990     5.0350     1.1180 H     1 <1>   0.1500 
 19 H      -12.2000     6.1330    -0.7900 H     1 <1>   0.0800 
 20 H      -11.5750     6.4330     0.8160 H     1 <1>   0.0800 
 21 H      -12.8720     5.2810     0.5830 H     1 <1>   0.0800 
 22 H       -8.0560    -0.0810    -1.4860 H     1 <1>   0.1500 
 23 H       -7.1610     4.1640     1.4370 H     1 <1>   0.4000 
 24 H       -5.6270     1.6660     1.6200 H     1 <1>   0.0800 
 25 H       -5.2230     3.2200     2.3050 H     1 <1>   0.0800 
 26 H       -4.8010     2.3030    -0.5480 H     1 <1>   0.0800 
 27 H       -4.6250     5.0770     0.6170 H     1 <1>   0.0800 
 28 H       -5.2220     4.6120    -0.9680 H     1 <1>   0.0800 
 29 H       -2.0840     2.5770    -0.8980 H     1 <1>   0.0800 
 30 H       -1.4970     3.5540     0.4490 H     1 <1>   0.0800 
 31 H       -2.5860     5.4150    -0.4190 H     1 <1>   0.0800 
 32 H       -3.0350     4.4430    -1.8070 H     1 <1>   0.0800 
@<TRIPOS>BOND
  1   1   2  1   
  2   1   3  1   
  3   2   4  ar  
  4   2   5  ar  
  5   3   6  2   
  6   3   7  1   
  7   4   8  ar  
  8   5   6  1   
  9   5   9  ar  
 10   6  18  1   
 11   7  19  1   
 12   7  20  1   
 13   7  21  1   
 14   8  10  ar  
 15   8  22  1   
 16   9  10  ar  
 17   9  11  1   
 18  11  12  1   
 19  11  23  1   
 20  12  13  1   
 21  12  24  1   
 22  12  25  1   
 23  13  14  1   
 24  13  15  1   
 25  13  26  1   
 26  14  16  1   
 27  15  17  1   
 28  15  27  1   
 29  15  28  1   
 30  16  17  1   
 31  16  29  1   
 32  16  30  1   
 33  17  31  1   
 34  17  32  1   
@<TRIPOS>SUBSTRUCTURE
  1 ****   9 GROUP 4 **** **** 0

# MOE 2024.06 (io_trps.svl 2023.06)
