@<TRIPOS>MOLECULE
NONAME
43 44 1 0 0 
SMALL
USER_CHARGES


@<TRIPOS>ATOM
  1 O       -0.1300     1.2430    -0.7770 O.2   1 <1>  -0.5700 
  2 C       -0.7990     1.8310     0.0500 C.2   1 <1>   0.5440 
  3 N       -0.1540     2.4700     1.0720 N.am  1 <1>  -0.7300 
  4 C       -2.2480     1.8490    -0.0400 C.ar  1 <1>   0.0860 
  5 C        1.3250     2.4950     1.2640 C.3   1 <1>   0.1400 
  6 C       -3.0090     2.9050     0.4690 C.ar  1 <1>  -0.1500 
  7 C       -2.9410     0.8010    -0.6480 C.ar  1 <1>  -0.1500 
  8 C        2.0360     3.3210     0.1810 C.3   1 <1>   0.2000 
  9 C       -4.3900     2.9100     0.3900 C.ar  1 <1>  -0.1500 
 10 C       -4.3200     0.7980    -0.7310 C.ar  1 <1>  -0.1500 
 11 O        3.3600     3.5190     0.5510 O.3   1 <1>  -0.5600 
 12 C        1.4980     4.7340    -0.0170 C.3   1 <1>  -0.1600 
 13 C       -5.0580     1.8480    -0.2130 C.ar  1 <1>   0.0830 
 14 C        3.8930     4.5830    -0.1680 C.3   1 <1>   0.1200 
 15 C        2.7200     5.5080    -0.4880 C.3   1 <1>  -0.1600 
 16 O       -6.4020     1.7710    -0.3320 O.3   1 <1>  -0.3630 
 17 C       -7.2520     2.7900     0.1410 C.3   1 <1>   0.1200 
 18 C       -8.6960     2.3880    -0.1620 C.3   1 <1>  -0.1600 
 19 C       -9.6850     3.4550     0.3250 C.3   1 <1>  -0.1600 
 20 C      -11.1280     3.0470     0.0180 C.3   1 <1>  -0.2400 
 21 H       -0.7020     2.8550     1.8410 H     1 <1>   0.3700 
 22 H        1.7000     1.4870     1.2330 H     1 <1>   0.0800 
 23 H        1.5450     2.9170     2.2290 H     1 <1>   0.0800 
 24 H       -2.5130     3.7420     0.9260 H     1 <1>   0.1500 
 25 H       -2.3810    -0.0220    -1.0590 H     1 <1>   0.1500 
 26 H        2.0360     2.7830    -0.7530 H     1 <1>   0.0800 
 27 H       -4.9300     3.7440     0.7960 H     1 <1>   0.1500 
 28 H       -4.8360    -0.0210    -1.2010 H     1 <1>   0.1500 
 29 H        1.1490     5.1260     0.9220 H     1 <1>   0.0800 
 30 H        0.6950     4.7500    -0.7310 H     1 <1>   0.0800 
 31 H        4.3360     4.1900    -1.0670 H     1 <1>   0.0800 
 32 H        4.6440     5.0650     0.4340 H     1 <1>   0.0800 
 33 H        2.8160     6.4450     0.0310 H     1 <1>   0.0800 
 34 H        2.6820     5.6930    -1.5470 H     1 <1>   0.0800 
 35 H       -6.9980     3.7060    -0.3650 H     1 <1>   0.0800 
 36 H       -7.1020     2.8930     1.2020 H     1 <1>   0.0800 
 37 H       -8.9080     1.4530     0.3250 H     1 <1>   0.0800 
 38 H       -8.8060     2.2570    -1.2250 H     1 <1>   0.0800 
 39 H       -9.4730     4.3940    -0.1580 H     1 <1>   0.0800 
 40 H       -9.5760     3.5920     1.3880 H     1 <1>   0.0800 
 41 H      -11.2670     2.9240    -1.0420 H     1 <1>   0.0800 
 42 H      -11.8080     3.8050     0.3660 H     1 <1>   0.0800 
 43 H      -11.3700     2.1200     0.5080 H     1 <1>   0.0800 
@<TRIPOS>BOND
  1   1   2  2   
  2   2   3  am  
  3   2   4  1   
  4   3   5  1   
  5   3  21  1   
  6   4   6  ar  
  7   4   7  ar  
  8   5   8  1   
  9   5  22  1   
 10   5  23  1   
 11   6   9  ar  
 12   6  24  1   
 13   7  10  ar  
 14   7  25  1   
 15   8  11  1   
 16   8  12  1   
 17   8  26  1   
 18   9  13  ar  
 19   9  27  1   
 20  10  13  ar  
 21  10  28  1   
 22  11  14  1   
 23  12  15  1   
 24  12  29  1   
 25  12  30  1   
 26  13  16  1   
 27  14  15  1   
 28  14  31  1   
 29  14  32  1   
 30  15  33  1   
 31  15  34  1   
 32  16  17  1   
 33  17  18  1   
 34  17  35  1   
 35  17  36  1   
 36  18  19  1   
 37  18  37  1   
 38  18  38  1   
 39  19  20  1   
 40  19  39  1   
 41  19  40  1   
 42  20  41  1   
 43  20  42  1   
 44  20  43  1   
@<TRIPOS>SUBSTRUCTURE
  1 ****   6 GROUP 4 **** **** 0

# MOE 2024.06 (io_trps.svl 2023.06)
