@<TRIPOS>MOLECULE
NONAME
37 38 1 0 0 
SMALL
USER_CHARGES


@<TRIPOS>ATOM
  1 O        0.8950     2.9270    -2.7980 O.2   1 <1>  -0.5700 
  2 C        0.2050     2.4630    -1.9230 C.2   1 <1>   0.5690 
  3 N        0.7110     1.6220    -0.9830 N.am  1 <1>  -0.7300 
  4 C       -1.2700     2.8410    -1.8730 C.3   1 <1>   0.1810 
  5 C        2.1330     1.1970    -0.8840 C.3   1 <1>   0.1400 
  6 O       -1.8620     2.4450    -0.6420 O.3   1 <1>  -0.3620 
  7 C        2.9990     2.2820    -0.2300 C.3   1 <1>   0.2000 
  8 C       -3.1670     2.7030    -0.3640 C.ar  1 <1>   0.0830 
  9 O        4.2620     1.7660     0.0350 O.3   1 <1>  -0.5600 
 10 C        2.5120     2.7680     1.1300 C.3   1 <1>  -0.1600 
 11 C       -3.6470     2.3200     0.8860 C.ar  1 <1>  -0.1430 
 12 C       -4.0230     3.3260    -1.2700 C.ar  1 <1>  -0.1500 
 13 C        4.9030     2.5490     0.9880 C.3   1 <1>   0.1200 
 14 C        3.7970     3.1900     1.8250 C.3   1 <1>  -0.1600 
 15 C       -4.9710     2.5620     1.2150 C.ar  1 <1>  -0.1500 
 16 C       -2.7330     1.6390     1.8950 C.3   1 <1>  -0.0970 
 17 C       -5.3430     3.5630    -0.9300 C.ar  1 <1>  -0.1500 
 18 C       -5.8170     3.1810     0.3120 C.ar  1 <1>  -0.1500 
 19 H        0.0820     1.3170    -0.2350 H     1 <1>   0.3700 
 20 H       -1.7890     2.3490    -2.6750 H     1 <1>   0.0800 
 21 H       -1.3650     3.9070    -1.9680 H     1 <1>   0.0800 
 22 H        2.5120     0.9990    -1.8720 H     1 <1>   0.0800 
 23 H        2.1890     0.2930    -0.3040 H     1 <1>   0.0800 
 24 H        3.1230     3.1110    -0.9070 H     1 <1>   0.0800 
 25 H        2.0520     1.9550     1.6640 H     1 <1>   0.0800 
 26 H        1.8080     3.5750     1.0310 H     1 <1>   0.0800 
 27 H       -3.6890     3.6350    -2.2410 H     1 <1>   0.1500 
 28 H        5.4850     3.2940     0.4730 H     1 <1>   0.0800 
 29 H        5.5460     1.9180     1.5750 H     1 <1>   0.0800 
 30 H        3.8290     2.8410     2.8420 H     1 <1>   0.0800 
 31 H        3.9110     4.2600     1.8170 H     1 <1>   0.0800 
 32 H       -5.3540     2.2710     2.1770 H     1 <1>   0.1500 
 33 H       -2.3740     0.7100     1.4910 H     1 <1>   0.0800 
 34 H       -3.2530     1.4350     2.8140 H     1 <1>   0.0800 
 35 H       -1.8920     2.2730     2.1110 H     1 <1>   0.0800 
 36 H       -6.0030     4.0450    -1.6310 H     1 <1>   0.1500 
 37 H       -6.8440     3.3650     0.5760 H     1 <1>   0.1500 
@<TRIPOS>BOND
  1   1   2  2   
  2   2   3  am  
  3   2   4  1   
  4   3   5  1   
  5   3  19  1   
  6   4   6  1   
  7   4  20  1   
  8   4  21  1   
  9   5   7  1   
 10   5  22  1   
 11   5  23  1   
 12   6   8  1   
 13   7   9  1   
 14   7  10  1   
 15   7  24  1   
 16   8  11  ar  
 17   8  12  ar  
 18   9  13  1   
 19  10  14  1   
 20  10  25  1   
 21  10  26  1   
 22  11  15  ar  
 23  11  16  1   
 24  12  17  ar  
 25  12  27  1   
 26  13  14  1   
 27  13  28  1   
 28  13  29  1   
 29  14  30  1   
 30  14  31  1   
 31  15  18  ar  
 32  15  32  1   
 33  16  33  1   
 34  16  34  1   
 35  16  35  1   
 36  17  18  ar  
 37  17  36  1   
 38  18  37  1   
@<TRIPOS>SUBSTRUCTURE
  1 ****   6 GROUP 4 **** **** 0

# MOE 2024.06 (io_trps.svl 2023.06)
