@<TRIPOS>MOLECULE
NONAME
49 52 1 0 0 
SMALL
USER_CHARGES


@<TRIPOS>ATOM
  1 O        0.3840    -0.6140    -0.3280 O.3   1 <1>  -0.3630 
  2 C        1.3140     0.3720    -0.2400 C.ar  1 <1>   0.0830 
  3 C       -0.9940    -0.3160    -0.3540 C.3   1 <1>   0.0400 
  4 C        2.6400    -0.0220    -0.2500 C.ar  1 <1>  -0.1500 
  5 C        1.0020     1.7260    -0.1440 C.ar  1 <1>  -0.1500 
  6 C        3.6680     0.9050    -0.1620 C.ar  1 <1>   0.1000 
  7 C        2.0190     2.6610    -0.0570 C.ar  1 <1>  -0.1500 
  8 N        4.9910     0.4660    -0.1660 N.pl3 1 <1>  -0.8380 
  9 C        3.3410     2.2540    -0.0640 C.ar  1 <1>  -0.1500 
 10 C        5.4930    -0.2100     1.0630 C.3   1 <1>   0.2090 
 11 C        6.0150     1.2040    -0.9570 C.3   1 <1>   0.2090 
 12 C        6.7050    -1.1060     0.7280 C.3   1 <1>   0.3430 
 13 C        7.2160     0.2850    -1.2680 C.3   1 <1>   0.3430 
 14 N        7.7880    -0.3720    -0.0300 N.4   1 <1>  -0.9590 
 15 C        8.9200    -1.2910    -0.3440 C.3   1 <1>   0.3430 
 16 C       10.1750    -0.5110    -0.7780 C.3   1 <1>  -0.0800 
 17 C       11.4500    -1.5460    -0.9860 C.3   1 <1>   0.0580 
 18 C       10.6890     0.6630     0.3570 C.3   1 <1>  -0.1600 
 19 C       12.9230    -1.8380    -0.3940 C.2   1 <1>  -0.2880 
 20 C       11.7470    -0.5450    -0.1570 C.3   1 <1>  -0.1600 
 21 C       12.2520     0.2900     0.7510 C.3   1 <1>   0.0580 
 22 C       13.3420    -0.8770     0.5160 C.2   1 <1>  -0.2880 
 23 H       -1.5330    -1.2420    -0.4360 H     1 <1>   0.0800 
 24 H       -1.2010     0.3050    -1.2070 H     1 <1>   0.0800 
 25 H       -1.2610     0.1820     0.5610 H     1 <1>   0.0800 
 26 H        2.8690    -1.0660    -0.3330 H     1 <1>   0.1500 
 27 H       -0.0150     2.0660    -0.1350 H     1 <1>   0.1500 
 28 H        1.7780     3.7070     0.0180 H     1 <1>   0.1500 
 29 H        4.1170     2.9910     0.0130 H     1 <1>   0.1500 
 30 H        4.7090    -0.8130     1.4890 H     1 <1>   0.0800 
 31 H        5.7710     0.5320     1.7920 H     1 <1>   0.0800 
 32 H        6.3460     2.0670    -0.4070 H     1 <1>   0.0800 
 33 H        5.5740     1.5420    -1.8790 H     1 <1>   0.0800 
 34 H        6.3490    -1.9310     0.1330 H     1 <1>   0.0800 
 35 H        7.1040    -1.5080     1.6440 H     1 <1>   0.0800 
 36 H        7.9760     0.8660    -1.7630 H     1 <1>   0.0800 
 37 H        6.8810    -0.4750    -1.9550 H     1 <1>   0.0800 
 38 H        8.1410     0.3740     0.5830 H     1 <1>   0.4500 
 39 H        8.6330    -1.9810    -1.1210 H     1 <1>   0.0800 
 40 H        9.1680    -1.8660     0.5340 H     1 <1>   0.0800 
 41 H        9.9630    -0.0340    -1.7250 H     1 <1>   0.0800 
 42 H       11.6520    -1.4610    -2.0460 H     1 <1>   0.0800 
 43 H       10.0850     0.6530     1.2520 H     1 <1>   0.0800 
 44 H       10.6300     1.6570    -0.0650 H     1 <1>   0.0800 
 45 H       13.4530    -2.7140    -0.7320 H     1 <1>   0.1500 
 46 H       12.2170     0.0780    -1.0270 H     1 <1>   0.0800 
 47 H       11.3430    -1.2370     0.7620 H     1 <1>   0.0800 
 48 H       12.7930     1.1750     0.4450 H     1 <1>   0.0800 
 49 H       14.2750    -0.8250     1.0560 H     1 <1>   0.1500 
@<TRIPOS>BOND
  1   1   2  1   
  2   1   3  1   
  3   2   4  ar  
  4   2   5  ar  
  5   3  23  1   
  6   3  24  1   
  7   3  25  1   
  8   4   6  ar  
  9   4  26  1   
 10   5   7  ar  
 11   5  27  1   
 12   6   8  1   
 13   6   9  ar  
 14   7   9  ar  
 15   7  28  1   
 16   8  10  1   
 17   8  11  1   
 18   9  29  1   
 19  10  12  1   
 20  10  30  1   
 21  10  31  1   
 22  11  13  1   
 23  11  32  1   
 24  11  33  1   
 25  12  14  1   
 26  12  34  1   
 27  12  35  1   
 28  13  14  1   
 29  13  36  1   
 30  13  37  1   
 31  14  15  1   
 32  14  38  1   
 33  15  16  1   
 34  15  39  1   
 35  15  40  1   
 36  16  17  1   
 37  16  18  1   
 38  16  41  1   
 39  17  19  1   
 40  17  20  1   
 41  17  42  1   
 42  18  21  1   
 43  18  43  1   
 44  18  44  1   
 45  19  22  2   
 46  19  45  1   
 47  20  21  1   
 48  20  46  1   
 49  20  47  1   
 50  21  22  1   
 51  21  48  1   
 52  22  49  1   
@<TRIPOS>SUBSTRUCTURE
  1 ****  13 GROUP 4 **** **** 0

# MOE 2024.06 (io_trps.svl 2023.06)
