@<TRIPOS>MOLECULE
NONAME
35 35 1 0 0 
SMALL
USER_CHARGES


@<TRIPOS>ATOM
  1 CL       3.0450    -0.7490    -1.3630 Cl    1 <1>  -0.1770 
  2 C        2.0490    -2.1920    -1.3300 C.ar  1 <1>   0.1770 
  3 C        2.5210    -3.3650    -0.7430 C.ar  1 <1>   0.0820 
  4 C        0.7880    -2.1280    -1.8890 C.ar  1 <1>  -0.1500 
  5 O        3.7590    -3.4160    -0.1910 O.3   1 <1>  -0.3630 
  6 C        1.6980    -4.4870    -0.6970 C.ar  1 <1>  -0.1440 
  7 C       -0.0240    -3.2480    -1.8520 C.ar  1 <1>  -0.1500 
  8 C        4.8650    -3.4420    -1.0760 C.3   1 <1>   0.1200 
  9 C        0.4290    -4.4150    -1.2560 C.ar  1 <1>  -0.1500 
 10 C        2.1470    -5.7880    -0.0420 C.3   1 <1>   0.1220 
 11 C        6.0480    -2.7380    -0.3980 C.3   1 <1>   0.3430 
 12 C        1.8530    -5.7560     1.4480 C.2   1 <1>  -0.2880 
 13 N        5.5770    -1.5150     0.3130 N.4   1 <1>  -0.9060 
 14 C        1.0920    -6.6380     2.1040 C.2   1 <1>  -0.3000 
 15 C        6.6060    -0.8430     1.1280 C.3   1 <1>   0.3430 
 16 C        5.9600     0.3610     1.7960 C.3   1 <1>  -0.2400 
 17 H        0.4420    -1.2160    -2.3410 H     1 <1>   0.1500 
 18 H       -1.0120    -3.2130    -2.2810 H     1 <1>   0.1500 
 19 H        4.6050    -2.9410    -1.9920 H     1 <1>   0.0800 
 20 H        5.1010    -4.4690    -1.2980 H     1 <1>   0.0800 
 21 H       -0.2220    -5.2720    -1.2250 H     1 <1>   0.1500 
 22 H        3.2000    -5.9420    -0.1940 H     1 <1>   0.0800 
 23 H        1.6360    -6.6200    -0.4940 H     1 <1>   0.0800 
 24 H        6.7940    -2.4860    -1.1340 H     1 <1>   0.0800 
 25 H        6.4930    -3.4190     0.3100 H     1 <1>   0.0800 
 26 H        2.3270    -4.9260     1.9420 H     1 <1>   0.1500 
 27 H        4.7820    -1.8040     0.9050 H     1 <1>   0.4500 
 28 H        5.1630    -0.8550    -0.3600 H     1 <1>   0.4500 
 29 H        0.8970    -6.5900     3.1620 H     1 <1>   0.1500 
 30 H        0.5990    -7.4780     1.6460 H     1 <1>   0.1500 
 31 H        7.4250    -0.5210     0.5040 H     1 <1>   0.0800 
 32 H        6.9870    -1.5180     1.8790 H     1 <1>   0.0800 
 33 H        5.5930     1.0580     1.0630 H     1 <1>   0.0800 
 34 H        6.6940     0.8690     2.3980 H     1 <1>   0.0800 
 35 H        5.1550     0.0570     2.4420 H     1 <1>   0.0800 
@<TRIPOS>BOND
  1   1   2  1   
  2   2   3  ar  
  3   2   4  ar  
  4   3   5  1   
  5   3   6  ar  
  6   4   7  ar  
  7   4  17  1   
  8   5   8  1   
  9   6   9  ar  
 10   6  10  1   
 11   7   9  ar  
 12   7  18  1   
 13   8  11  1   
 14   8  19  1   
 15   8  20  1   
 16   9  21  1   
 17  10  12  1   
 18  10  22  1   
 19  10  23  1   
 20  11  13  1   
 21  11  24  1   
 22  11  25  1   
 23  12  14  2   
 24  12  26  1   
 25  13  15  1   
 26  13  27  1   
 27  13  28  1   
 28  14  29  1   
 29  14  30  1   
 30  15  16  1   
 31  15  31  1   
 32  15  32  1   
 33  16  33  1   
 34  16  34  1   
 35  16  35  1   
@<TRIPOS>SUBSTRUCTURE
  1 ****   3 GROUP 4 **** **** 0

# MOE 2024.06 (io_trps.svl 2023.06)
