@<TRIPOS>MOLECULE
NONAME
51 53 1 0 0 
SMALL
USER_CHARGES


@<TRIPOS>ATOM
  1 O       -0.2160    -0.2650    -1.4800 O.2   1 <1>  -0.5700 
  2 C       -0.3900    -1.0070    -0.5320 C.2   1 <1>   0.6900 
  3 N       -1.6520    -1.2680    -0.0730 N.am  1 <1>  -0.6600 
  4 N        0.6670    -1.5910     0.0780 N.am  1 <1>  -0.7300 
  5 C       -2.8330    -0.7150    -0.8130 C.3   1 <1>   0.3200 
  6 C       -1.9250    -1.8020     1.2890 C.3   1 <1>   0.1400 
  7 C        2.0730    -1.4560    -0.3280 C.3   1 <1>   0.2200 
  8 C       -3.9490    -1.7350    -0.9820 C.2   1 <1>   0.2980 
  9 C       -1.9700    -3.3290     1.2570 C.3   1 <1>  -0.2400 
 10 C        2.5400    -2.7790    -0.9450 C.3   1 <1>  -0.1600 
 11 C        2.9080    -1.0910     0.9030 C.3   1 <1>  -0.1600 
 12 O       -3.7660    -2.7290    -1.8090 O.3   1 <1>  -0.0190 
 13 N       -5.0700    -1.7220    -0.3830 N.2   1 <1>  -0.5650 
 14 C        4.0360    -2.7350    -1.2870 C.3   1 <1>  -0.1600 
 15 C        4.4060    -1.0430     0.5650 C.3   1 <1>  -0.1600 
 16 N       -4.8640    -3.4130    -1.7290 N.2   1 <1>  -0.4100 
 17 C       -5.6390    -2.8230    -0.8880 C.2   1 <1>   0.4620 
 18 C        4.8760    -2.3660    -0.0560 C.3   1 <1>  -0.1600 
 19 C       -6.9690    -3.2670    -0.5040 C.ar  1 <1>   0.0540 
 20 C       -7.7510    -2.5510     0.4040 C.ar  1 <1>  -0.1500 
 21 C       -7.5230    -4.4350    -1.0310 C.ar  1 <1>  -0.1500 
 22 C       -9.0150    -2.9760     0.7670 C.ar  1 <1>  -0.1500 
 23 C       -8.7870    -4.8660    -0.6710 C.ar  1 <1>  -0.1500 
 24 C       -9.5440    -4.1370     0.2300 C.ar  1 <1>  -0.1440 
 25 C      -10.9310    -4.6080     0.6280 C.3   1 <1>  -0.0970 
 26 H        0.4690    -2.3200     0.7550 H     1 <1>   0.3700 
 27 H       -2.5460    -0.3760    -1.7920 H     1 <1>   0.0800 
 28 H       -3.2130     0.1320    -0.2720 H     1 <1>   0.0800 
 29 H       -2.8650    -1.4190     1.6520 H     1 <1>   0.0800 
 30 H       -1.1570    -1.4710     1.9670 H     1 <1>   0.0800 
 31 H        2.1680    -0.6720    -1.0620 H     1 <1>   0.0800 
 32 H       -2.7860    -3.6730     0.6480 H     1 <1>   0.0800 
 33 H       -2.1190    -3.7050     2.2530 H     1 <1>   0.0800 
 34 H       -1.0510    -3.7330     0.8740 H     1 <1>   0.0800 
 35 H        1.9760    -2.9680    -1.8410 H     1 <1>   0.0800 
 36 H        2.3620    -3.5830    -0.2520 H     1 <1>   0.0800 
 37 H        2.7480    -1.8200     1.6770 H     1 <1>   0.0800 
 38 H        2.5960    -0.1280     1.2690 H     1 <1>   0.0800 
 39 H        4.2020    -2.0060    -2.0620 H     1 <1>   0.0800 
 40 H        4.3490    -3.6940    -1.6640 H     1 <1>   0.0800 
 41 H        4.9720    -0.8410     1.4580 H     1 <1>   0.0800 
 42 H        4.5880    -0.2400    -0.1290 H     1 <1>   0.0800 
 43 H        5.9110    -2.2820    -0.3390 H     1 <1>   0.0800 
 44 H        4.7990    -3.1510     0.6770 H     1 <1>   0.0800 
 45 H       -7.3630    -1.6440     0.8350 H     1 <1>   0.1500 
 46 H       -6.9530    -5.0180    -1.7340 H     1 <1>   0.1500 
 47 H       -9.5880    -2.3990     1.4720 H     1 <1>   0.1500 
 48 H       -9.1800    -5.7720    -1.0970 H     1 <1>   0.1500 
 49 H      -11.5580    -3.7680     0.8690 H     1 <1>   0.0800 
 50 H      -10.8640    -5.2500     1.4870 H     1 <1>   0.0800 
 51 H      -11.3890    -5.1520    -0.1780 H     1 <1>   0.0800 
@<TRIPOS>BOND
  1   1   2  2   
  2   2   3  am  
  3   2   4  am  
  4   3   5  1   
  5   3   6  1   
  6   4   7  1   
  7   4  26  1   
  8   5   8  1   
  9   5  27  1   
 10   5  28  1   
 11   6   9  1   
 12   6  29  1   
 13   6  30  1   
 14   7  10  1   
 15   7  11  1   
 16   7  31  1   
 17   8  12  1   
 18   8  13  2   
 19   9  32  1   
 20   9  33  1   
 21   9  34  1   
 22  10  14  1   
 23  10  35  1   
 24  10  36  1   
 25  11  15  1   
 26  11  37  1   
 27  11  38  1   
 28  12  16  1   
 29  13  17  1   
 30  14  18  1   
 31  14  39  1   
 32  14  40  1   
 33  15  18  1   
 34  15  41  1   
 35  15  42  1   
 36  16  17  2   
 37  17  19  1   
 38  18  43  1   
 39  18  44  1   
 40  19  20  ar  
 41  19  21  ar  
 42  20  22  ar  
 43  20  45  1   
 44  21  23  ar  
 45  21  46  1   
 46  22  24  ar  
 47  22  47  1   
 48  23  24  ar  
 49  23  48  1   
 50  24  25  1   
 51  25  49  1   
 52  25  50  1   
 53  25  51  1   
@<TRIPOS>SUBSTRUCTURE
  1 ****   8 GROUP 4 **** **** 0

# MOE 2024.06 (io_trps.svl 2023.06)
