@<TRIPOS>MOLECULE
NONAME
30 30 1 0 0 
SMALL
USER_CHARGES


@<TRIPOS>ATOM
  1 CL      -0.5260     0.1600    -0.0080 Cl    1 <1>  -0.1770 
  2 C        1.1030     0.7880    -0.0070 C.ar  1 <1>   0.1770 
  3 C        2.1690    -0.0940    -0.0080 C.ar  1 <1>  -0.1500 
  4 C        1.3020     2.1560    -0.0040 C.ar  1 <1>  -0.1500 
  5 C        3.4630     0.4020    -0.0070 C.ar  1 <1>  -0.1500 
  6 C        2.5960     2.6480    -0.0030 C.ar  1 <1>  -0.1500 
  7 C        3.6790     1.7800    -0.0040 C.ar  1 <1>   0.0830 
  8 O        4.9110     2.3490    -0.0020 O.3   1 <1>  -0.3630 
  9 C        6.0810     1.5650    -0.0040 C.3   1 <1>   0.1200 
 10 C        7.2840     2.5090    -0.0020 C.3   1 <1>  -0.1600 
 11 C        8.6060     1.7290    -0.0030 C.3   1 <1>  -0.1600 
 12 C        9.8060     2.6830    -0.0010 C.3   1 <1>  -0.1600 
 13 C       11.1270     1.9110    -0.0020 C.3   1 <1>   0.0700 
 14 S       12.5070     3.1340     0.0000 S.3   1 <1>  -0.2660 
 15 C       13.9690     2.0780    -0.0020 C.1   1 <1>   0.5930 
 16 N       14.8710     1.3850    -0.0030 N.1   1 <1>  -0.5570 
 17 H        1.9830    -1.1530    -0.0100 H     1 <1>   0.1500 
 18 H        0.4580     2.8210    -0.0030 H     1 <1>   0.1500 
 19 H        4.2800    -0.2930    -0.0080 H     1 <1>   0.1500 
 20 H        2.7760     3.7080    -0.0010 H     1 <1>   0.1500 
 21 H        6.0790     0.9530    -0.8890 H     1 <1>   0.0800 
 22 H        6.0780     0.9490     0.8790 H     1 <1>   0.0800 
 23 H        7.2350     3.1330     0.8740 H     1 <1>   0.0800 
 24 H        7.2360     3.1360    -0.8750 H     1 <1>   0.0800 
 25 H        8.6490     1.1000    -0.8770 H     1 <1>   0.0800 
 26 H        8.6480     1.0970     0.8690 H     1 <1>   0.0800 
 27 H        9.7650     3.3110     0.8730 H     1 <1>   0.0800 
 28 H        9.7650     3.3150    -0.8720 H     1 <1>   0.0800 
 29 H       11.2350     1.3070    -0.8860 H     1 <1>   0.0800 
 30 H       11.2340     1.3040     0.8800 H     1 <1>   0.0800 
@<TRIPOS>BOND
  1   1   2  1   
  2   2   3  ar  
  3   2   4  ar  
  4   3   5  ar  
  5   3  17  1   
  6   4   6  ar  
  7   4  18  1   
  8   5   7  ar  
  9   5  19  1   
 10   6   7  ar  
 11   6  20  1   
 12   7   8  1   
 13   8   9  1   
 14   9  10  1   
 15   9  21  1   
 16   9  22  1   
 17  10  11  1   
 18  10  23  1   
 19  10  24  1   
 20  11  12  1   
 21  11  25  1   
 22  11  26  1   
 23  12  13  1   
 24  12  27  1   
 25  12  28  1   
 26  13  14  1   
 27  13  29  1   
 28  13  30  1   
 29  14  15  1   
 30  15  16  3   
@<TRIPOS>SUBSTRUCTURE
  1 ****   9 GROUP 4 **** **** 0

# MOE 2024.06 (io_trps.svl 2023.06)
