@<TRIPOS>MOLECULE
NONAME
46 48 1 0 0 
SMALL
USER_CHARGES


@<TRIPOS>ATOM
  1 O       -1.8880     1.0720     0.5650 O.3   1 <1>  -0.3630 
  2 C       -1.0800     2.0330     0.0530 C.ar  1 <1>   0.0830 
  3 C       -1.5010    -0.2690     0.3290 C.3   1 <1>   0.0400 
  4 C       -1.5280     2.7320    -1.0640 C.ar  1 <1>  -0.1440 
  5 C        0.1480     2.3360     0.6380 C.ar  1 <1>  -0.1440 
  6 C       -0.7130     3.6910    -1.6430 C.ar  1 <1>  -0.1500 
  7 C       -2.9070     2.4650    -1.6320 C.3   1 <1>   0.4870 
  8 C        0.9620     3.2960     0.0410 C.ar  1 <1>   0.0820 
  9 C        0.6160     1.6590     1.9280 C.3   1 <1>  -0.0970 
 10 C        0.5270     3.9650    -1.1000 C.ar  1 <1>  -0.1500 
 11 N       -3.9040     2.7030    -0.5610 N.4   1 <1>  -0.9590 
 12 O        2.1710     3.5440     0.6120 O.3   1 <1>  -0.3630 
 13 C       -5.2660     2.2320    -0.9140 C.3   1 <1>   0.4860 
 14 C       -3.9190     4.1090    -0.0670 C.3   1 <1>   0.3430 
 15 C        3.1040     4.4380     0.0440 C.3   1 <1>   0.0400 
 16 C       -6.2300     2.4660     0.2400 C.ar  1 <1>  -0.1430 
 17 C       -4.6560     4.1730     1.2710 C.3   1 <1>  -0.0160 
 18 C       -5.9550     3.3800     1.2540 C.ar  1 <1>  -0.1430 
 19 C       -7.4190     1.7520     0.2690 C.ar  1 <1>  -0.1500 
 20 C       -6.8690     3.5660     2.2780 C.ar  1 <1>  -0.1500 
 21 C       -8.3270     1.9440     1.2940 C.ar  1 <1>  -0.1500 
 22 C       -8.0520     2.8520     2.2990 C.ar  1 <1>  -0.1500 
 23 H       -0.5420    -0.4530     0.7770 H     1 <1>   0.0800 
 24 H       -1.4470    -0.4380    -0.7320 H     1 <1>   0.0800 
 25 H       -2.2360    -0.9180     0.7700 H     1 <1>   0.0800 
 26 H       -1.0290     4.2350    -2.5180 H     1 <1>   0.1500 
 27 H       -2.9560     1.4400    -1.9620 H     1 <1>   0.0800 
 28 H       -3.0970     3.1110    -2.4740 H     1 <1>   0.0800 
 29 H       -0.2040     1.2190     2.4650 H     1 <1>   0.0800 
 30 H        1.0770     2.3780     2.5810 H     1 <1>   0.0800 
 31 H        1.3380     0.8970     1.6980 H     1 <1>   0.0800 
 32 H        1.1410     4.7070    -1.5750 H     1 <1>   0.1500 
 33 H       -3.5730     2.1240     0.2300 H     1 <1>   0.4500 
 34 H       -5.2410     1.1800    -1.1440 H     1 <1>   0.0800 
 35 H       -5.6250     2.7630    -1.7800 H     1 <1>   0.0800 
 36 H       -4.4200     4.7410    -0.7830 H     1 <1>   0.0800 
 37 H       -2.9130     4.4740     0.0680 H     1 <1>   0.0800 
 38 H        3.9850     4.4340     0.6600 H     1 <1>   0.0800 
 39 H        2.6780     5.4250     0.0270 H     1 <1>   0.0800 
 40 H        3.3500     4.1040    -0.9480 H     1 <1>   0.0800 
 41 H       -4.8600     5.2030     1.5070 H     1 <1>   0.0800 
 42 H       -4.0160     3.7830     2.0430 H     1 <1>   0.0800 
 43 H       -7.6570     1.0400    -0.5030 H     1 <1>   0.1500 
 44 H       -6.6680     4.2680     3.0700 H     1 <1>   0.1500 
 45 H       -9.2500     1.3880     1.3120 H     1 <1>   0.1500 
 46 H       -8.7590     3.0010     3.0970 H     1 <1>   0.1500 
@<TRIPOS>BOND
  1   1   2  1   
  2   1   3  1   
  3   2   4  ar  
  4   2   5  ar  
  5   3  23  1   
  6   3  24  1   
  7   3  25  1   
  8   4   6  ar  
  9   4   7  1   
 10   5   8  ar  
 11   5   9  1   
 12   6  10  ar  
 13   6  26  1   
 14   7  11  1   
 15   7  27  1   
 16   7  28  1   
 17   8  10  ar  
 18   8  12  1   
 19   9  29  1   
 20   9  30  1   
 21   9  31  1   
 22  10  32  1   
 23  11  13  1   
 24  11  14  1   
 25  11  33  1   
 26  12  15  1   
 27  13  16  1   
 28  13  34  1   
 29  13  35  1   
 30  14  17  1   
 31  14  36  1   
 32  14  37  1   
 33  15  38  1   
 34  15  39  1   
 35  15  40  1   
 36  16  18  ar  
 37  16  19  ar  
 38  17  18  1   
 39  17  41  1   
 40  17  42  1   
 41  18  20  ar  
 42  19  21  ar  
 43  19  43  1   
 44  20  22  ar  
 45  20  44  1   
 46  21  22  ar  
 47  21  45  1   
 48  22  46  1   
@<TRIPOS>SUBSTRUCTURE
  1 ****  11 GROUP 4 **** **** 0

# MOE 2024.06 (io_trps.svl 2023.06)
