@<TRIPOS>MOLECULE
NONAME
35 36 1 0 0 
SMALL
USER_CHARGES


@<TRIPOS>ATOM
  1 F       -0.0460     0.0300     0.0720 F     1 <1>  -0.3400 
  2 C        0.2270     1.0740    -0.7040 C.3   1 <1>   1.1640 
  3 F        0.4530     0.5850    -1.9160 F     1 <1>  -0.3400 
  4 F       -0.8990     1.7730    -0.7880 F     1 <1>  -0.3400 
  5 C        1.4130     1.9040    -0.1900 C.ar  1 <1>  -0.1440 
  6 C        1.4910     3.2680    -0.4520 C.ar  1 <1>  -0.1500 
  7 C        2.4390     1.3110     0.5400 C.ar  1 <1>  -0.1500 
  8 C        2.5570     4.0280     0.0010 C.ar  1 <1>   0.0830 
  9 C        3.5070     2.0620     0.9980 C.ar  1 <1>  -0.1500 
 10 O        2.5390     5.3470    -0.3100 O.3   1 <1>  -0.3630 
 11 C        3.5710     3.4170     0.7330 C.ar  1 <1>  -0.1500 
 12 C        3.5940     6.2080     0.0700 C.3   1 <1>   0.1200 
 13 C        3.3070     7.6310    -0.4190 C.3   1 <1>   0.1200 
 14 O        2.1970     8.1470     0.2520 O.3   1 <1>  -0.5600 
 15 C        1.8070     9.4080    -0.1830 C.3   1 <1>   0.1200 
 16 C        0.5280     9.7820     0.5610 C.3   1 <1>   0.0960 
 17 N        0.1640    11.1810     0.2750 N.pl3 1 <1>   0.3140 
 18 N        0.0270    11.6630    -0.9530 N.2   1 <1>  -0.7070 
 19 C       -0.0770    12.1650     1.1460 C.2   1 <1>   0.0370 
 20 C       -0.2880    12.8970    -0.7340 C.2   1 <1>   0.3660 
 21 N       -0.3650    13.2650     0.5510 N.2   1 <1>  -0.5650 
 22 H        0.7210     3.7670    -1.0160 H     1 <1>   0.1500 
 23 H        2.4130     0.2560     0.7590 H     1 <1>   0.1500 
 24 H        4.2920     1.5890     1.5640 H     1 <1>   0.1500 
 25 H        4.4100     3.9750     1.1020 H     1 <1>   0.1500 
 26 H        4.5000     5.8420    -0.3780 H     1 <1>   0.0800 
 27 H        3.6820     6.1970     1.1420 H     1 <1>   0.0800 
 28 H        3.1100     7.6200    -1.4770 H     1 <1>   0.0800 
 29 H        4.1510     8.2660    -0.2140 H     1 <1>   0.0800 
 30 H        1.6230     9.3730    -1.2450 H     1 <1>   0.0800 
 31 H        2.5960    10.1060     0.0380 H     1 <1>   0.0800 
 32 H        0.6770     9.6710     1.6180 H     1 <1>   0.0800 
 33 H       -0.2770     9.1480     0.2410 H     1 <1>   0.0800 
 34 H       -0.0310    12.0320     2.2120 H     1 <1>   0.1500 
 35 H       -0.4800    13.6080    -1.5230 H     1 <1>   0.1500 
@<TRIPOS>BOND
  1   1   2  1   
  2   2   3  1   
  3   2   4  1   
  4   2   5  1   
  5   5   6  ar  
  6   5   7  ar  
  7   6   8  ar  
  8   6  22  1   
  9   7   9  ar  
 10   7  23  1   
 11   8  10  1   
 12   8  11  ar  
 13   9  11  ar  
 14   9  24  1   
 15  10  12  1   
 16  11  25  1   
 17  12  13  1   
 18  12  26  1   
 19  12  27  1   
 20  13  14  1   
 21  13  28  1   
 22  13  29  1   
 23  14  15  1   
 24  15  16  1   
 25  15  30  1   
 26  15  31  1   
 27  16  17  1   
 28  16  32  1   
 29  16  33  1   
 30  17  18  1   
 31  17  19  1   
 32  18  20  2   
 33  19  21  2   
 34  19  34  1   
 35  20  21  1   
 36  20  35  1   
@<TRIPOS>SUBSTRUCTURE
  1 ****  10 GROUP 4 **** **** 0

# MOE 2024.06 (io_trps.svl 2023.06)
