@<TRIPOS>MOLECULE
NONAME
30 30 1 0 0 
SMALL
USER_CHARGES


@<TRIPOS>ATOM
  1 CL       0.7490     0.1800     0.5990 Cl    1 <1>  -0.1770 
  2 C        0.3650    -1.5290     0.5490 C.ar  1 <1>   0.1770 
  3 C        1.3780    -2.4500     0.2760 C.ar  1 <1>   0.1170 
  4 C       -0.9420    -1.9130     0.7800 C.ar  1 <1>  -0.1500 
  5 N        2.6890    -1.9890     0.0470 N.am  1 <1>  -0.5470 
  6 C        1.0290    -3.7990     0.2280 C.ar  1 <1>  -0.1500 
  7 C       -1.2480    -3.2580     0.7310 C.ar  1 <1>   0.1770 
  8 C        3.8950    -2.6150     0.1480 C.2   1 <1>   0.6900 
  9 C       -0.2770    -4.2040     0.4570 C.ar  1 <1>  -0.1500 
 10 CL      -2.8910    -3.7730     1.0190 Cl    1 <1>  -0.1770 
 11 O        3.9870    -3.7500     0.5680 O.2   1 <1>  -0.5700 
 12 N        4.9860    -1.9020    -0.2300 N.am  1 <1>  -0.7300 
 13 C        6.3980    -2.2970    -0.2000 C.3   1 <1>   0.3000 
 14 C        7.1920    -1.0980    -0.7160 C.3   1 <1>  -0.2400 
 15 C        6.6230    -3.4930    -1.1260 C.3   1 <1>  -0.2400 
 16 C        6.8240    -2.6100     1.2350 C.3   1 <1>  -0.2400 
 17 H       -1.7030    -1.1850     0.9910 H     1 <1>   0.1500 
 18 H        2.7630    -0.9810    -0.0570 H     1 <1>   0.3700 
 19 H        1.7750    -4.5420     0.0090 H     1 <1>   0.1500 
 20 H       -0.5400    -5.2460     0.4220 H     1 <1>   0.1500 
 21 H        4.8360    -1.0170    -0.7020 H     1 <1>   0.3700 
 22 H        6.9050    -0.8560    -1.7230 H     1 <1>   0.0800 
 23 H        8.2430    -1.3250    -0.7140 H     1 <1>   0.0800 
 24 H        7.0360    -0.2410    -0.0850 H     1 <1>   0.0800 
 25 H        6.2800    -3.2720    -2.1200 H     1 <1>   0.0800 
 26 H        6.1010    -4.3590    -0.7600 H     1 <1>   0.0800 
 27 H        7.6690    -3.7350    -1.1710 H     1 <1>   0.0800 
 28 H        6.6140    -1.7770     1.8810 H     1 <1>   0.0800 
 29 H        7.8780    -2.8140     1.2720 H     1 <1>   0.0800 
 30 H        6.3080    -3.4770     1.6050 H     1 <1>   0.0800 
@<TRIPOS>BOND
  1   1   2  1   
  2   2   3  ar  
  3   2   4  ar  
  4   3   5  1   
  5   3   6  ar  
  6   4   7  ar  
  7   4  17  1   
  8   5   8  am  
  9   5  18  1   
 10   6   9  ar  
 11   6  19  1   
 12   7   9  ar  
 13   7  10  1   
 14   8  11  2   
 15   8  12  am  
 16   9  20  1   
 17  12  13  1   
 18  12  21  1   
 19  13  14  1   
 20  13  15  1   
 21  13  16  1   
 22  14  22  1   
 23  14  23  1   
 24  14  24  1   
 25  15  25  1   
 26  15  26  1   
 27  15  27  1   
 28  16  28  1   
 29  16  29  1   
 30  16  30  1   
@<TRIPOS>SUBSTRUCTURE
  1 ****   5 GROUP 4 **** **** 0

# MOE 2024.06 (io_trps.svl 2023.06)
