@<TRIPOS>MOLECULE
NONAME
56 58 1 0 0 
SMALL
USER_CHARGES


@<TRIPOS>ATOM
  1 S       -0.5760     0.5290    -1.4190 S.o2  1 <1>   1.3330 
  2 O       -1.0590     1.7170    -0.7570 O.2   1 <1>  -0.6500 
  3 O        0.6420     0.5720    -2.1910 O.2   1 <1>  -0.6500 
  4 N       -0.3760    -0.6930    -0.2080 N.am  1 <1>  -0.6930 
  5 C       -1.8610    -0.1270    -2.4650 C.3   1 <1>  -0.1350 
  6 C        0.6760    -1.5990    -0.2360 C.ar  1 <1>   0.1990 
  7 C       -1.2190    -0.5590     1.0030 C.3   1 <1>   0.3390 
  8 C        1.5850    -1.6810     0.8140 C.ar  1 <1>  -0.1500 
  9 C        0.8520    -2.4620    -1.3130 C.ar  1 <1>  -0.1500 
 10 C       -2.6880    -0.8160     0.6810 C.ar  1 <1>  -0.1430 
 11 C        2.6180    -2.5990     0.7950 C.ar  1 <1>  -0.1500 
 12 C        1.8850    -3.3780    -1.3300 C.ar  1 <1>  -0.1500 
 13 C       -3.1910    -2.0920     0.4310 C.ar  1 <1>  -0.1430 
 14 C       -3.5480     0.2740     0.6360 C.ar  1 <1>  -0.1500 
 15 C        2.7990    -3.4730    -0.2800 C.ar  1 <1>   0.0860 
 16 C       -4.5360    -2.2490     0.1330 C.ar  1 <1>  -0.1500 
 17 C       -2.3110    -3.3350     0.4700 C.3   1 <1>  -0.0970 
 18 C       -4.8880     0.1070     0.3390 C.ar  1 <1>  -0.1500 
 19 C        3.8790    -4.4380    -0.3170 C.2   1 <1>   0.5440 
 20 C       -5.3830    -1.1570     0.0860 C.ar  1 <1>  -0.1500 
 21 O        3.7390    -5.5030    -0.8880 O.2   1 <1>  -0.5700 
 22 N        5.0790    -4.1620     0.2790 N.am  1 <1>  -0.7300 
 23 C        6.2460    -5.0590     0.3130 C.3   1 <1>   0.2200 
 24 C        6.7150    -5.2040     1.7640 C.3   1 <1>  -0.1600 
 25 C        7.3490    -4.4700    -0.5730 C.3   1 <1>  -0.1600 
 26 C        7.9990    -6.0420     1.8510 C.3   1 <1>  -0.1600 
 27 C        8.6340    -5.3070    -0.4900 C.3   1 <1>  -0.1600 
 28 C        9.1060    -5.4570     0.9630 C.3   1 <1>  -0.1600 
 29 H       -2.0450     0.5460    -3.2790 H     1 <1>   0.0800 
 30 H       -2.7730    -0.2510    -1.9180 H     1 <1>   0.0800 
 31 H       -1.5700    -1.0760    -2.8660 H     1 <1>   0.0800 
 32 H       -1.0950     0.4290     1.4130 H     1 <1>   0.0800 
 33 H       -0.8990    -1.2580     1.7550 H     1 <1>   0.0800 
 34 H        1.4850    -1.0140     1.6500 H     1 <1>   0.1500 
 35 H        0.1730    -2.4160    -2.1420 H     1 <1>   0.1500 
 36 H        3.2960    -2.6440     1.6290 H     1 <1>   0.1500 
 37 H        1.9970    -4.0400    -2.1730 H     1 <1>   0.1500 
 38 H       -3.1770     1.2680     0.8260 H     1 <1>   0.1500 
 39 H       -4.9380    -3.2270    -0.0650 H     1 <1>   0.1500 
 40 H       -1.6850    -3.3670    -0.4020 H     1 <1>   0.0800 
 41 H       -2.9100    -4.2280     0.4850 H     1 <1>   0.0800 
 42 H       -1.6930    -3.3410     1.3480 H     1 <1>   0.0800 
 43 H       -5.5420     0.9610     0.3060 H     1 <1>   0.1500 
 44 H       -6.4250    -1.2920    -0.1450 H     1 <1>   0.1500 
 45 H        5.2540    -3.2220     0.6270 H     1 <1>   0.3700 
 46 H        5.9720    -6.0310    -0.0660 H     1 <1>   0.0800 
 47 H        5.9410    -5.6800     2.3400 H     1 <1>   0.0800 
 48 H        6.9050    -4.2310     2.1810 H     1 <1>   0.0800 
 49 H        7.5650    -3.4640    -0.2610 H     1 <1>   0.0800 
 50 H        7.0060    -4.4460    -1.5930 H     1 <1>   0.0800 
 51 H        7.7870    -7.0500     1.5360 H     1 <1>   0.0800 
 52 H        8.3370    -6.0810     2.8720 H     1 <1>   0.0800 
 53 H        9.4070    -4.8400    -1.0750 H     1 <1>   0.0800 
 54 H        8.4500    -6.2830    -0.9070 H     1 <1>   0.0800 
 55 H        9.9710    -6.0970     0.9960 H     1 <1>   0.0800 
 56 H        9.3970    -4.4930     1.3450 H     1 <1>   0.0800 
@<TRIPOS>BOND
  1   1   2  2   
  2   1   3  2   
  3   1   4  am  
  4   1   5  1   
  5   4   6  1   
  6   4   7  1   
  7   5  29  1   
  8   5  30  1   
  9   5  31  1   
 10   6   8  ar  
 11   6   9  ar  
 12   7  10  1   
 13   7  32  1   
 14   7  33  1   
 15   8  11  ar  
 16   8  34  1   
 17   9  12  ar  
 18   9  35  1   
 19  10  13  ar  
 20  10  14  ar  
 21  11  15  ar  
 22  11  36  1   
 23  12  15  ar  
 24  12  37  1   
 25  13  16  ar  
 26  13  17  1   
 27  14  18  ar  
 28  14  38  1   
 29  15  19  1   
 30  16  20  ar  
 31  16  39  1   
 32  17  40  1   
 33  17  41  1   
 34  17  42  1   
 35  18  20  ar  
 36  18  43  1   
 37  19  21  2   
 38  19  22  am  
 39  20  44  1   
 40  22  23  1   
 41  22  45  1   
 42  23  24  1   
 43  23  25  1   
 44  23  46  1   
 45  24  26  1   
 46  24  47  1   
 47  24  48  1   
 48  25  27  1   
 49  25  49  1   
 50  25  50  1   
 51  26  28  1   
 52  26  51  1   
 53  26  52  1   
 54  27  28  1   
 55  27  53  1   
 56  27  54  1   
 57  28  55  1   
 58  28  56  1   
@<TRIPOS>SUBSTRUCTURE
  1 ****   6 GROUP 4 **** **** 0

# MOE 2024.06 (io_trps.svl 2023.06)
