@<TRIPOS>MOLECULE
NONAME
48 52 1 0 0 
SMALL
USER_CHARGES


@<TRIPOS>ATOM
  1 O       -0.1010    -1.5490     2.2800 O.2   1 <1>  -0.5700 
  2 C        0.3300    -1.8070     1.1840 C.2   1 <1>   0.5690 
  3 N       -0.3960    -2.1490     0.0680 N.am  1 <1>  -0.2370 
  4 C        1.8190    -1.7310     0.8910 C.3   1 <1>  -0.0190 
  5 C       -1.7910    -2.3670     0.0820 C.ar  1 <1>   0.1170 
  6 C        0.3780    -2.2660    -1.0630 C.2   1 <1>   0.5690 
  7 C        1.8550    -2.0690    -0.7620 C.3   1 <1>  -0.0190 
  8 C        2.7670    -2.8670     1.6380 C.3   1 <1>   0.0580 
  9 C       -2.6950    -1.3190    -0.1510 C.ar  1 <1>   0.1000 
 10 C       -2.2690    -3.6440     0.3330 C.ar  1 <1>  -0.1500 
 11 O       -0.0050    -2.4620    -2.1880 O.2   1 <1>  -0.5700 
 12 C        2.8230    -3.3980    -0.9640 C.3   1 <1>   0.0580 
 13 C        3.8080    -4.0480     1.2570 C.2   1 <1>  -0.2880 
 14 C        2.7270    -3.0610     0.3210 C.3   1 <1>  -0.1600 
 15 N       -2.3030    -0.0030    -0.4110 N.pl3 1 <1>  -0.8380 
 16 C       -4.0520    -1.6050    -0.1220 C.ar  1 <1>  -0.1500 
 17 C       -3.6320    -3.9430     0.3650 C.ar  1 <1>  -0.1790 
 18 C        3.8380    -4.3270    -0.1070 C.2   1 <1>  -0.2880 
 19 C       -1.7910     0.3470    -1.7570 C.3   1 <1>   0.2090 
 20 C       -1.8440     0.8500     0.7100 C.3   1 <1>   0.2090 
 21 C       -4.5110    -2.8840     0.1300 C.ar  1 <1>  -0.1500 
 22 C       -4.1080    -5.2930     0.6300 C.2   1 <1>   0.9790 
 23 C       -2.1640     1.8000    -2.0670 C.3   1 <1>  -0.1600 
 24 C       -2.2170     2.3060     0.4090 C.3   1 <1>  -0.1600 
 25 O       -5.3270    -5.5480     0.6560 O.co2 1 <1>  -0.9000 
 26 O       -3.3030    -6.2200     0.8370 O.co2 1 <1>  -0.9000 
 27 C       -1.6890     2.7590    -0.9620 C.3   1 <1>  -0.1600 
 28 H        2.1660    -0.7320     1.1000 H     1 <1>   0.0800 
 29 H        2.2180    -1.2280    -1.3310 H     1 <1>   0.0800 
 30 H        2.0770    -3.3690     2.3040 H     1 <1>   0.0800 
 31 H       -1.5750    -4.4470     0.5120 H     1 <1>   0.1500 
 32 H        2.1570    -4.1270    -1.4070 H     1 <1>   0.0800 
 33 H        4.3730    -4.5120     2.0500 H     1 <1>   0.1500 
 34 H        3.6710    -2.3050     0.1870 H     1 <1>   0.0800 
 35 H        1.8560    -3.8340     0.4600 H     1 <1>   0.0800 
 36 H       -4.7480    -0.8080    -0.2990 H     1 <1>   0.1500 
 37 H        4.4300    -5.0600    -0.6320 H     1 <1>   0.1500 
 38 H       -2.2190    -0.3170    -2.4910 H     1 <1>   0.0800 
 39 H       -0.7230     0.2310    -1.7750 H     1 <1>   0.0800 
 40 H       -0.7780     0.7600     0.8160 H     1 <1>   0.0800 
 41 H       -2.3080     0.5240     1.6260 H     1 <1>   0.0800 
 42 H       -5.5700    -3.0840     0.1480 H     1 <1>   0.1500 
 43 H       -3.2340     1.8610    -2.1640 H     1 <1>   0.0800 
 44 H       -1.7310     2.0840    -3.0090 H     1 <1>   0.0800 
 45 H       -1.8210     2.9400     1.1820 H     1 <1>   0.0800 
 46 H       -3.2890     2.3910     0.4300 H     1 <1>   0.0800 
 47 H       -2.0360     3.7560    -1.1730 H     1 <1>   0.0800 
 48 H       -0.6130     2.7760    -0.9430 H     1 <1>   0.0800 
@<TRIPOS>BOND
  1   1   2  2   
  2   2   3  am  
  3   2   4  1   
  4   3   5  1   
  5   3   6  am  
  6   4   7  1   
  7   4   8  1   
  8   4  28  1   
  9   5   9  ar  
 10   5  10  ar  
 11   6   7  1   
 12   6  11  2   
 13   7  12  1   
 14   7  29  1   
 15   8  13  1   
 16   8  14  1   
 17   8  30  1   
 18   9  15  1   
 19   9  16  ar  
 20  10  17  ar  
 21  10  31  1   
 22  12  14  1   
 23  12  18  1   
 24  12  32  1   
 25  13  18  2   
 26  13  33  1   
 27  14  34  1   
 28  14  35  1   
 29  15  19  1   
 30  15  20  1   
 31  16  21  ar  
 32  16  36  1   
 33  17  21  ar  
 34  17  22  1   
 35  18  37  1   
 36  19  23  1   
 37  19  38  1   
 38  19  39  1   
 39  20  24  1   
 40  20  40  1   
 41  20  41  1   
 42  21  42  1   
 43  22  25  ar  
 44  22  26  ar  
 45  23  27  1   
 46  23  43  1   
 47  23  44  1   
 48  24  27  1   
 49  24  45  1   
 50  24  46  1   
 51  27  47  1   
 52  27  48  1   
@<TRIPOS>SUBSTRUCTURE
  1 ****   3 GROUP 4 **** **** 0

# MOE 2024.06 (io_trps.svl 2023.06)
