@<TRIPOS>MOLECULE
NONAME
49 51 1 0 0 
SMALL
USER_CHARGES


@<TRIPOS>ATOM
  1 O       -0.0310     0.7150    -0.2150 O.2   1 <1>  -0.5700 
  2 C       -0.6440     1.7580    -0.0920 C.2   1 <1>   0.5440 
  3 N        0.0640     2.9360     0.0320 N.am  1 <1>  -0.6600 
  4 C       -2.0950     1.7250    -0.0630 C.ar  1 <1>   0.0860 
  5 C        1.5290     3.0200    -0.2710 C.3   1 <1>   0.1400 
  6 C       -0.4780     4.1690     0.6750 C.3   1 <1>   0.1400 
  7 C       -2.8650     2.6280    -0.7930 C.ar  1 <1>  -0.1500 
  8 C       -2.7750     0.7740     0.6940 C.ar  1 <1>  -0.1500 
  9 C        2.3240     3.5540     0.9390 C.3   1 <1>   0.2000 
 10 C        0.4240     4.6100     1.8380 C.3   1 <1>   0.1200 
 11 C       -4.2470     2.6150    -0.7580 C.ar  1 <1>   0.0820 
 12 C       -4.1560     0.7430     0.7480 C.ar  1 <1>  -0.1500 
 13 O        1.7500     4.7450     1.4140 O.3   1 <1>  -0.5600 
 14 C        3.7790     3.8630     0.5820 C.3   1 <1>   0.1200 
 15 O       -4.8500     3.5670    -1.5230 O.3   1 <1>  -0.3630 
 16 C       -4.9170     1.6680     0.0350 C.ar  1 <1>   0.0820 
 17 O        4.3900     2.7100     0.0390 O.3   1 <1>  -0.3630 
 18 C       -6.0530     3.2870    -2.2060 C.3   1 <1>   0.0400 
 19 O       -6.2760     1.6780     0.1070 O.3   1 <1>  -0.3630 
 20 C        5.6770     2.7310    -0.3850 C.ar  1 <1>   0.0820 
 21 C       -7.0000     0.7900     0.9300 C.3   1 <1>   0.0400 
 22 C        6.1700     1.5590    -0.9360 C.ar  1 <1>  -0.1500 
 23 C        6.5060     3.8470    -0.2950 C.ar  1 <1>  -0.1500 
 24 C        7.4730     1.4930    -1.3960 C.ar  1 <1>  -0.1500 
 25 C        7.8100     3.7790    -0.7560 C.ar  1 <1>  -0.1500 
 26 C        8.2940     2.6040    -1.3060 C.ar  1 <1>  -0.1500 
 27 H        1.6740     3.6780    -1.1090 H     1 <1>   0.0800 
 28 H        1.9150     2.0550    -0.5480 H     1 <1>   0.0800 
 29 H       -1.4700     3.9990     1.0540 H     1 <1>   0.0800 
 30 H       -0.5280     4.9580    -0.0560 H     1 <1>   0.0800 
 31 H       -2.3730     3.3580    -1.4090 H     1 <1>   0.1500 
 32 H       -2.2000     0.0510     1.2470 H     1 <1>   0.1500 
 33 H        2.3040     2.8310     1.7350 H     1 <1>   0.0800 
 34 H        0.3880     3.8910     2.6390 H     1 <1>   0.0800 
 35 H        0.1020     5.5640     2.2160 H     1 <1>   0.0800 
 36 H       -4.6190    -0.0110     1.3550 H     1 <1>   0.1500 
 37 H        4.3210     4.1490     1.4650 H     1 <1>   0.0800 
 38 H        3.8190     4.6440    -0.1570 H     1 <1>   0.0800 
 39 H       -6.1430     3.9790    -3.0230 H     1 <1>   0.0800 
 40 H       -6.8760     3.4200    -1.5270 H     1 <1>   0.0800 
 41 H       -6.0220     2.2780    -2.5760 H     1 <1>   0.0800 
 42 H       -8.0460     1.0170     0.8250 H     1 <1>   0.0800 
 43 H       -6.6970     0.9340     1.9520 H     1 <1>   0.0800 
 44 H       -6.8120    -0.2190     0.6080 H     1 <1>   0.0800 
 45 H        5.5250     0.7010    -1.0020 H     1 <1>   0.1500 
 46 H        6.1590     4.7700     0.1270 H     1 <1>   0.1500 
 47 H        7.8470     0.5780    -1.8220 H     1 <1>   0.1500 
 48 H        8.4500     4.6410    -0.6870 H     1 <1>   0.1500 
 49 H        9.3080     2.5540    -1.6630 H     1 <1>   0.1500 
@<TRIPOS>BOND
  1   1   2  2   
  2   2   3  am  
  3   2   4  1   
  4   3   5  1   
  5   3   6  1   
  6   4   7  ar  
  7   4   8  ar  
  8   5   9  1   
  9   5  27  1   
 10   5  28  1   
 11   6  10  1   
 12   6  29  1   
 13   6  30  1   
 14   7  11  ar  
 15   7  31  1   
 16   8  12  ar  
 17   8  32  1   
 18   9  13  1   
 19   9  14  1   
 20   9  33  1   
 21  10  13  1   
 22  10  34  1   
 23  10  35  1   
 24  11  15  1   
 25  11  16  ar  
 26  12  16  ar  
 27  12  36  1   
 28  14  17  1   
 29  14  37  1   
 30  14  38  1   
 31  15  18  1   
 32  16  19  1   
 33  17  20  1   
 34  18  39  1   
 35  18  40  1   
 36  18  41  1   
 37  19  21  1   
 38  20  22  ar  
 39  20  23  ar  
 40  21  42  1   
 41  21  43  1   
 42  21  44  1   
 43  22  24  ar  
 44  22  45  1   
 45  23  25  ar  
 46  23  46  1   
 47  24  26  ar  
 48  24  47  1   
 49  25  26  ar  
 50  25  48  1   
 51  26  49  1   
@<TRIPOS>SUBSTRUCTURE
  1 ****   3 GROUP 4 **** **** 0

# MOE 2024.06 (io_trps.svl 2023.06)
