@<TRIPOS>MOLECULE
NONAME
55 57 1 0 0 
SMALL
USER_CHARGES


@<TRIPOS>ATOM
  1 O       -3.2280     1.1110    -0.1030 O.3   1 <1>  -0.3630 
  2 C       -2.0480     1.7630     0.1020 C.ar  1 <1>   0.0820 
  3 C       -3.2020    -0.2990    -0.1520 C.3   1 <1>   0.0400 
  4 C       -0.9480     1.5970    -0.7520 C.ar  1 <1>   0.0820 
  5 C       -1.9630     2.6230     1.1950 C.ar  1 <1>  -0.1440 
  6 O       -1.0780     0.7950    -1.8490 O.3   1 <1>  -0.3620 
  7 C        0.2380     2.2680    -0.4670 C.ar  1 <1>  -0.1500 
  8 C       -0.7710     3.2820     1.4560 C.ar  1 <1>  -0.1500 
  9 C       -3.1600     2.8570     2.1080 C.3   1 <1>   0.2530 
 10 C       -0.0200     0.6010    -2.7620 C.3   1 <1>   0.0400 
 11 C        0.3250     3.1020     0.6330 C.ar  1 <1>  -0.1500 
 12 N       -4.2170     3.5850     1.3850 N.3   1 <1>  -0.8100 
 13 C       -5.5150     3.6290     2.0870 C.3   1 <1>   0.1100 
 14 C       -3.8210     4.9160     0.8710 C.3   1 <1>   0.1100 
 15 C       -6.6220     4.2290     1.1830 C.3   1 <1>   0.3430 
 16 C       -4.9100     5.5050    -0.0590 C.3   1 <1>   0.3430 
 17 N       -6.0710     4.5650    -0.1750 N.4   1 <1>  -0.9590 
 18 C       -7.0830     4.9630    -1.1740 C.3   1 <1>   0.4810 
 19 C       -8.0810     3.8380    -1.2970 C.2   1 <1>  -0.2880 
 20 C       -9.3770     3.9180    -0.9450 C.2   1 <1>  -0.1780 
 21 C      -10.3880     2.8840    -1.0180 C.ar  1 <1>   0.0280 
 22 C      -11.7130     3.1870    -0.7100 C.ar  1 <1>  -0.1500 
 23 C      -10.0970     1.5710    -1.3850 C.ar  1 <1>  -0.1500 
 24 C      -12.7050     2.2250    -0.7630 C.ar  1 <1>  -0.1500 
 25 C      -11.0840     0.6040    -1.4400 C.ar  1 <1>  -0.1500 
 26 C      -12.3920     0.9290    -1.1290 C.ar  1 <1>  -0.1500 
 27 H       -4.1810    -0.6620     0.1030 H     1 <1>   0.0800 
 28 H       -2.4770    -0.6650     0.5540 H     1 <1>   0.0800 
 29 H       -2.9490    -0.6120    -1.1480 H     1 <1>   0.0800 
 30 H        1.1070     2.1590    -1.0870 H     1 <1>   0.1500 
 31 H       -0.6860     3.9400     2.3040 H     1 <1>   0.1500 
 32 H       -2.8660     3.4100     2.9840 H     1 <1>   0.0800 
 33 H       -3.5370     1.9000     2.4260 H     1 <1>   0.0800 
 34 H       -0.3650    -0.0590    -3.5370 H     1 <1>   0.0800 
 35 H        0.8100     0.1550    -2.2450 H     1 <1>   0.0800 
 36 H        0.2530     1.5510    -3.1880 H     1 <1>   0.0800 
 37 H        1.2480     3.6140     0.8460 H     1 <1>   0.1500 
 38 H       -5.8030     2.6290     2.3670 H     1 <1>   0.0800 
 39 H       -5.4290     4.2100     2.9900 H     1 <1>   0.0800 
 40 H       -3.6370     5.5890     1.6920 H     1 <1>   0.0800 
 41 H       -2.9080     4.8350     0.3060 H     1 <1>   0.0800 
 42 H       -7.0260     5.1120     1.6480 H     1 <1>   0.0800 
 43 H       -7.4200     3.5110     1.0910 H     1 <1>   0.0800 
 44 H       -4.4760     5.6760    -1.0310 H     1 <1>   0.0800 
 45 H       -5.2360     6.4550     0.3300 H     1 <1>   0.0800 
 46 H       -5.6260     3.6780    -0.4670 H     1 <1>   0.4500 
 47 H       -7.5800     5.8650    -0.8570 H     1 <1>   0.0800 
 48 H       -6.6160     5.1420    -2.1300 H     1 <1>   0.0800 
 49 H       -7.6390     2.9460    -1.7040 H     1 <1>   0.1500 
 50 H       -9.7610     4.8460    -0.5560 H     1 <1>   0.1500 
 51 H      -11.9800     4.1890    -0.4250 H     1 <1>   0.1500 
 52 H       -9.0920     1.2870    -1.6320 H     1 <1>   0.1500 
 53 H      -13.7210     2.4820    -0.5220 H     1 <1>   0.1500 
 54 H      -10.8380    -0.4040    -1.7260 H     1 <1>   0.1500 
 55 H      -13.1620     0.1780    -1.1720 H     1 <1>   0.1500 
@<TRIPOS>BOND
  1   1   2  1   
  2   1   3  1   
  3   2   4  ar  
  4   2   5  ar  
  5   3  27  1   
  6   3  28  1   
  7   3  29  1   
  8   4   6  1   
  9   4   7  ar  
 10   5   8  ar  
 11   5   9  1   
 12   6  10  1   
 13   7  11  ar  
 14   7  30  1   
 15   8  11  ar  
 16   8  31  1   
 17   9  12  1   
 18   9  32  1   
 19   9  33  1   
 20  10  34  1   
 21  10  35  1   
 22  10  36  1   
 23  11  37  1   
 24  12  13  1   
 25  12  14  1   
 26  13  15  1   
 27  13  38  1   
 28  13  39  1   
 29  14  16  1   
 30  14  40  1   
 31  14  41  1   
 32  15  17  1   
 33  15  42  1   
 34  15  43  1   
 35  16  17  1   
 36  16  44  1   
 37  16  45  1   
 38  17  18  1   
 39  17  46  1   
 40  18  19  1   
 41  18  47  1   
 42  18  48  1   
 43  19  20  2   
 44  19  49  1   
 45  20  21  1   
 46  20  50  1   
 47  21  22  ar  
 48  21  23  ar  
 49  22  24  ar  
 50  22  51  1   
 51  23  25  ar  
 52  23  52  1   
 53  24  26  ar  
 54  24  53  1   
 55  25  26  ar  
 56  25  54  1   
 57  26  55  1   
@<TRIPOS>SUBSTRUCTURE
  1 ****  17 GROUP 4 **** **** 0

# MOE 2024.06 (io_trps.svl 2023.06)
