@<TRIPOS>MOLECULE
NONAME
40 42 1 0 0 
SMALL
USER_CHARGES


@<TRIPOS>ATOM
  1 O       -0.6830     0.9770     1.9240 O.2   1 <1>  -0.5700 
  2 C       -1.4240     1.5320     1.1260 C.2   1 <1>   0.6160 
  3 N       -2.6930     1.0960     0.9230 N.am  1 <1>  -0.5470 
  4 C       -1.1670     2.6630     0.2880 C.2   1 <1>  -0.0140 
  5 C       -3.3020     1.8950    -0.0240 C.ar  1 <1>   0.1170 
  6 C       -2.3940     2.8640    -0.4330 C.ar  1 <1>   0.0280 
  7 C       -0.0200     3.3980     0.1820 C.2   1 <1>  -0.0500 
  8 C       -4.5830     1.8330    -0.5480 C.ar  1 <1>  -0.1500 
  9 C       -2.7800     3.7950    -1.3920 C.ar  1 <1>  -0.1500 
 10 N        1.1150     3.1600     0.8940 N.pl3 1 <1>  -0.8690 
 11 C       -4.9570     2.7640    -1.5020 C.ar  1 <1>  -0.1500 
 12 C       -4.0580     3.7400    -1.9210 C.ar  1 <1>  -0.1500 
 13 C        2.3840     3.9170     0.7990 C.3   1 <1>   0.2090 
 14 C        3.4790     3.0160     0.2250 C.3   1 <1>  -0.0220 
 15 C        4.8400     3.6980     0.0720 C.2   1 <1>  -0.2760 
 16 C        5.1250     4.9590     0.4220 C.2   1 <1>  -0.2880 
 17 C        5.8850     2.7730    -0.5470 C.3   1 <1>  -0.0220 
 18 C        6.4810     5.6200     0.2310 C.3   1 <1>  -0.0220 
 19 C        7.3120     3.3150    -0.3820 C.3   1 <1>  -0.1600 
 20 C        7.3760     4.8100    -0.7160 C.3   1 <1>  -0.1600 
 21 H       -3.0790     0.2970     1.4230 H     1 <1>   0.3700 
 22 H        0.0110     4.2260    -0.5080 H     1 <1>   0.1500 
 23 H       -5.2670     1.0740    -0.2160 H     1 <1>   0.1500 
 24 H       -2.0860     4.5500    -1.7170 H     1 <1>   0.1500 
 25 H        1.1200     2.3740     1.5690 H     1 <1>   0.4000 
 26 H       -5.9470     2.7350    -1.9230 H     1 <1>   0.1500 
 27 H       -4.3630     4.4580    -2.6640 H     1 <1>   0.1500 
 28 H        2.2480     4.7730     0.1600 H     1 <1>   0.0800 
 29 H        2.6670     4.2590     1.7790 H     1 <1>   0.0800 
 30 H        3.5890     2.1630     0.8700 H     1 <1>   0.0800 
 31 H        3.1550     2.6700    -0.7410 H     1 <1>   0.0800 
 32 H        4.4180     5.6310     0.8770 H     1 <1>   0.1500 
 33 H        5.8350     1.8010    -0.0870 H     1 <1>   0.0800 
 34 H        5.6640     2.6560    -1.5940 H     1 <1>   0.0800 
 35 H        6.3480     6.6090    -0.1730 H     1 <1>   0.0800 
 36 H        6.9570     5.7130     1.1920 H     1 <1>   0.0800 
 37 H        7.6260     3.1700     0.6380 H     1 <1>   0.0800 
 38 H        7.9820     2.7660    -1.0190 H     1 <1>   0.0800 
 39 H        7.0410     4.9570    -1.7280 H     1 <1>   0.0800 
 40 H        8.3900     5.1620    -0.6440 H     1 <1>   0.0800 
@<TRIPOS>BOND
  1   1   2  2   
  2   2   3  am  
  3   2   4  1   
  4   3   5  1   
  5   3  21  1   
  6   4   6  1   
  7   4   7  2   
  8   5   6  ar  
  9   5   8  ar  
 10   6   9  ar  
 11   7  10  1   
 12   7  22  1   
 13   8  11  ar  
 14   8  23  1   
 15   9  12  ar  
 16   9  24  1   
 17  10  13  1   
 18  10  25  1   
 19  11  12  ar  
 20  11  26  1   
 21  12  27  1   
 22  13  14  1   
 23  13  28  1   
 24  13  29  1   
 25  14  15  1   
 26  14  30  1   
 27  14  31  1   
 28  15  16  2   
 29  15  17  1   
 30  16  18  1   
 31  16  32  1   
 32  17  19  1   
 33  17  33  1   
 34  17  34  1   
 35  18  20  1   
 36  18  35  1   
 37  18  36  1   
 38  19  20  1   
 39  19  37  1   
 40  19  38  1   
 41  20  39  1   
 42  20  40  1   
@<TRIPOS>SUBSTRUCTURE
  1 ****   7 GROUP 4 **** **** 0

# MOE 2024.06 (io_trps.svl 2023.06)
