@<TRIPOS>MOLECULE
NONAME
34 35 1 0 0 
SMALL
USER_CHARGES


@<TRIPOS>ATOM
  1 S       -0.1410     0.3780     0.1100 S.3   1 <1>  -0.3610 
  2 C       -0.0640    -1.3600     0.0340 C.cat 1 <1>   0.8400 
  3 C        1.6160     0.6230    -0.3650 C.3   1 <1>   0.1310 
  4 N       -1.1190    -2.0840     0.3110 N.pl3 1 <1>  -0.7940 
  5 N        1.1380    -1.7840    -0.3240 N.pl3 1 <1>  -0.7250 
  6 C        2.0950    -0.8040    -0.5530 C.2   1 <1>   0.8900 
  7 C       -2.4640    -1.6030     0.7340 C.3   1 <1>   0.3290 
  8 C        1.5270    -3.2060    -0.4890 C.3   1 <1>   0.3300 
  9 O        3.2200    -1.0520    -0.8790 O.2   1 <1>  -0.5700 
 10 C       -3.4480    -1.6830    -0.4330 C.3   1 <1>  -0.0170 
 11 C        2.0250    -3.7510     0.8460 C.3   1 <1>  -0.2400 
 12 C       -4.8120    -1.2010     0.0240 C.ar  1 <1>  -0.1440 
 13 C       -5.7570    -2.1030     0.4910 C.ar  1 <1>  -0.1500 
 14 C       -5.1210     0.1500    -0.0120 C.ar  1 <1>  -0.1500 
 15 C       -6.9940    -1.6570     0.9220 C.ar  1 <1>  -0.1500 
 16 C       -6.3580     0.5960     0.4190 C.ar  1 <1>  -0.1500 
 17 C       -7.2960    -0.3080     0.8870 C.ar  1 <1>  -0.1500 
 18 H        1.6550     1.1870    -1.2790 H     1 <1>   0.0800 
 19 H        2.1280     1.1190     0.4380 H     1 <1>   0.0800 
 20 H       -1.0630    -3.1010     0.2590 H     1 <1>   0.4500 
 21 H       -2.8230    -2.2130     1.5480 H     1 <1>   0.0800 
 22 H       -2.4200    -0.5880     1.0920 H     1 <1>   0.0800 
 23 H        0.6850    -3.7850    -0.8300 H     1 <1>   0.0800 
 24 H        2.3030    -3.3010    -1.2340 H     1 <1>   0.0800 
 25 H       -3.1070    -1.0640    -1.2440 H     1 <1>   0.0800 
 26 H       -3.5260    -2.6960    -0.7860 H     1 <1>   0.0800 
 27 H        1.2650    -3.6820     1.6030 H     1 <1>   0.0800 
 28 H        2.9010    -3.2130     1.1670 H     1 <1>   0.0800 
 29 H        2.2970    -4.7860     0.7330 H     1 <1>   0.0800 
 30 H       -5.5440    -3.1580     0.5230 H     1 <1>   0.1500 
 31 H       -4.4070     0.8690    -0.3760 H     1 <1>   0.1500 
 32 H       -7.7250    -2.3600     1.2830 H     1 <1>   0.1500 
 33 H       -6.5940     1.6450     0.3890 H     1 <1>   0.1500 
 34 H       -8.2580     0.0390     1.2210 H     1 <1>   0.1500 
@<TRIPOS>BOND
  1   1   2  1   
  2   1   3  1   
  3   2   4  ar  
  4   2   5  ar  
  5   3   6  1   
  6   3  18  1   
  7   3  19  1   
  8   4   7  1   
  9   4  20  1   
 10   5   6  1   
 11   5   8  1   
 12   6   9  2   
 13   7  10  1   
 14   7  21  1   
 15   7  22  1   
 16   8  11  1   
 17   8  23  1   
 18   8  24  1   
 19  10  12  1   
 20  10  25  1   
 21  10  26  1   
 22  11  27  1   
 23  11  28  1   
 24  11  29  1   
 25  12  13  ar  
 26  12  14  ar  
 27  13  15  ar  
 28  13  30  1   
 29  14  16  ar  
 30  14  31  1   
 31  15  17  ar  
 32  15  32  1   
 33  16  17  ar  
 34  16  33  1   
 35  17  34  1   
@<TRIPOS>SUBSTRUCTURE
  1 ****   7 GROUP 4 **** **** 0

# MOE 2024.06 (io_trps.svl 2023.06)
