@<TRIPOS>MOLECULE
NONAME
24 25 1 0 0 
SMALL
USER_CHARGES


@<TRIPOS>ATOM
  1 S       -0.5880     0.0380     1.2660 S.o2  1 <1>   1.4470 
  2 O       -0.8080     0.8850     2.4160 O.2   1 <1>  -0.6500 
  3 O       -0.8070    -1.3860     1.3870 O.2   1 <1>  -0.6500 
  4 N        1.0340     0.2410     0.8860 N.am  1 <1>  -0.7890 
  5 C       -1.4570     0.7120    -0.1790 C.ar  1 <1>  -0.0090 
  6 C        1.5400    -0.6760    -0.1060 C.3   1 <1>   0.1310 
  7 C       -2.1270    -0.1250    -1.0710 C.ar  1 <1>  -0.1500 
  8 C       -1.4510     2.0820    -0.4350 C.ar  1 <1>  -0.1500 
  9 C        2.8160    -0.3170    -0.7840 C.3   1 <1>  -0.2000 
 10 C        1.5180    -0.2550    -1.5360 C.3   1 <1>  -0.2000 
 11 C       -2.7740     0.3830    -2.1850 C.ar  1 <1>  -0.1500 
 12 C       -2.0920     2.6100    -1.5440 C.ar  1 <1>  -0.1500 
 13 C       -2.7440     1.7460    -2.4010 C.ar  1 <1>   0.1900 
 14 F       -3.3500     2.2340    -3.4490 F     1 <1>  -0.1900 
 15 H        1.5120     0.0490     1.7630 H     1 <1>   0.4200 
 16 H        1.3740    -1.7160     0.1360 H     1 <1>   0.1000 
 17 H       -2.1420    -1.1880    -0.8900 H     1 <1>   0.1500 
 18 H       -0.9360     2.7410     0.2450 H     1 <1>   0.1500 
 19 H        3.5110    -1.0980    -1.0380 H     1 <1>   0.1000 
 20 H        3.3030     0.6050    -0.5200 H     1 <1>   0.1000 
 21 H        1.1190     0.7100    -1.7920 H     1 <1>   0.1000 
 22 H        1.3330    -0.9970    -2.2930 H     1 <1>   0.1000 
 23 H       -3.2920    -0.2600    -2.8740 H     1 <1>   0.1500 
 24 H       -2.0890     3.6670    -1.7420 H     1 <1>   0.1500 
@<TRIPOS>BOND
  1   1   2  2   
  2   1   3  2   
  3   1   4  am  
  4   1   5  1   
  5   4   6  1   
  6   4  15  1   
  7   5   7  ar  
  8   5   8  ar  
  9   6   9  1   
 10   6  10  1   
 11   6  16  1   
 12   7  11  ar  
 13   7  17  1   
 14   8  12  ar  
 15   8  18  1   
 16   9  10  1   
 17   9  19  1   
 18   9  20  1   
 19  10  21  1   
 20  10  22  1   
 21  11  13  ar  
 22  11  23  1   
 23  12  13  ar  
 24  12  24  1   
 25  13  14  1   
@<TRIPOS>SUBSTRUCTURE
  1 ****   5 GROUP 4 **** **** 0

# MOE 2024.06 (io_trps.svl 2023.06)
