@<TRIPOS>MOLECULE
NONAME
42 44 1 0 0 
SMALL
USER_CHARGES


@<TRIPOS>ATOM
  1 O        0.5060    -0.3630     1.4710 O.2   1 <1>  -0.5700 
  2 C        1.1590    -0.9300     0.6320 C.2   1 <1>   0.5690 
  3 N        0.8510    -2.1250     0.0640 N.am  1 <1>  -0.4200 
  4 C        2.4480    -0.3710     0.0540 C.3   1 <1>  -0.0190 
  5 C        1.7650    -2.4830    -0.8750 C.2   1 <1>   0.5690 
  6 C       -0.3400    -2.9330     0.4170 C.3   1 <1>   0.1400 
  7 C        2.8660    -1.4410    -0.9850 C.3   1 <1>  -0.0190 
  8 C        3.5200    -0.1100     1.1290 C.3   1 <1>  -0.1600 
  9 O        1.7220    -3.4780    -1.5520 O.2   1 <1>  -0.5700 
 10 C       -1.5320    -2.5440    -0.4620 C.3   1 <1>  -0.0220 
 11 C        4.2680    -2.0260    -0.7310 C.3   1 <1>  -0.1600 
 12 C        4.8920     0.1550     0.4900 C.3   1 <1>  -0.1600 
 13 C       -2.8110    -3.3250    -0.1570 C.2   1 <1>  -0.2760 
 14 C        5.3080    -0.9110    -0.5450 C.3   1 <1>  -0.1600 
 15 C       -2.9340    -4.2930     0.7610 C.2   1 <1>  -0.2880 
 16 C       -3.9830    -2.8780    -1.0260 C.3   1 <1>  -0.0220 
 17 C       -4.2280    -5.0330     1.0640 C.3   1 <1>  -0.0220 
 18 C       -5.1530    -3.8720    -0.9790 C.3   1 <1>  -0.1600 
 19 C       -5.4420    -4.3160     0.4590 C.3   1 <1>  -0.1600 
 20 H        2.2200     0.5500    -0.4530 H     1 <1>   0.0800 
 21 H       -0.5850    -2.7690     1.4530 H     1 <1>   0.0800 
 22 H       -0.1130    -3.9760     0.2790 H     1 <1>   0.0800 
 23 H        2.8310    -1.0150    -1.9710 H     1 <1>   0.0800 
 24 H        3.5920    -0.9640     1.7820 H     1 <1>   0.0800 
 25 H        3.2280     0.7310     1.7340 H     1 <1>   0.0800 
 26 H       -1.2660    -2.7100    -1.4910 H     1 <1>   0.0800 
 27 H       -1.7310    -1.4960    -0.3230 H     1 <1>   0.0800 
 28 H        4.5510    -2.6580    -1.5560 H     1 <1>   0.0800 
 29 H        4.2480    -2.6430     0.1520 H     1 <1>   0.0800 
 30 H        5.6360     0.2090     1.2670 H     1 <1>   0.0800 
 31 H        4.8690     1.1170     0.0060 H     1 <1>   0.0800 
 32 H        5.4720    -0.4270    -1.4930 H     1 <1>   0.0800 
 33 H        6.2450    -1.3510    -0.2480 H     1 <1>   0.0800 
 34 H       -2.1260    -4.6450     1.3770 H     1 <1>   0.1500 
 35 H       -3.6660    -2.7750    -2.0490 H     1 <1>   0.0800 
 36 H       -4.3180    -1.9150    -0.6830 H     1 <1>   0.0800 
 37 H       -4.3610    -5.1080     2.1290 H     1 <1>   0.0800 
 38 H       -4.1570    -6.0290     0.6640 H     1 <1>   0.0800 
 39 H       -4.9010    -4.7370    -1.5690 H     1 <1>   0.0800 
 40 H       -6.0280    -3.4190    -1.4090 H     1 <1>   0.0800 
 41 H       -5.6710    -3.4490     1.0540 H     1 <1>   0.0800 
 42 H       -6.2950    -4.9710     0.4800 H     1 <1>   0.0800 
@<TRIPOS>BOND
  1   1   2  2   
  2   2   3  am  
  3   2   4  1   
  4   3   5  am  
  5   3   6  1   
  6   4   7  1   
  7   4   8  1   
  8   4  20  1   
  9   5   7  1   
 10   5   9  2   
 11   6  10  1   
 12   6  21  1   
 13   6  22  1   
 14   7  11  1   
 15   7  23  1   
 16   8  12  1   
 17   8  24  1   
 18   8  25  1   
 19  10  13  1   
 20  10  26  1   
 21  10  27  1   
 22  11  14  1   
 23  11  28  1   
 24  11  29  1   
 25  12  14  1   
 26  12  30  1   
 27  12  31  1   
 28  13  15  2   
 29  13  16  1   
 30  14  32  1   
 31  14  33  1   
 32  15  17  1   
 33  15  34  1   
 34  16  18  1   
 35  16  35  1   
 36  16  36  1   
 37  17  19  1   
 38  17  37  1   
 39  17  38  1   
 40  18  19  1   
 41  18  39  1   
 42  18  40  1   
 43  19  41  1   
 44  19  42  1   
@<TRIPOS>SUBSTRUCTURE
  1 ****   3 GROUP 4 **** **** 0

# MOE 2024.06 (io_trps.svl 2023.06)
