@<TRIPOS>MOLECULE
NONAME
38 38 1 0 0 
SMALL
USER_CHARGES


@<TRIPOS>ATOM
  1 P       -0.9700     0.2080    -0.3990 P.3   1 <1>   1.5100 
  2 O       -0.8990     0.1960    -1.8590 O.2   1 <1>  -0.7000 
  3 O       -1.4560     1.6070     0.2110 O.3   1 <1>  -0.5510 
  4 O       -1.9750    -0.8740     0.2270 O.3   1 <1>  -0.5510 
  5 N        0.4920    -0.0900     0.3690 N.3   1 <1>  -0.8080 
  6 C       -2.6910     2.1220    -0.1110 C.3   1 <1>   0.2000 
  7 C       -2.8760    -1.5530    -0.5670 C.3   1 <1>   0.2000 
  8 C        1.0400    -1.4240     0.0840 C.3   1 <1>   0.1100 
  9 C        1.5140     0.9240     0.0670 C.3   1 <1>   0.1100 
 10 C       -2.4730     3.5600    -0.5710 C.3   1 <1>  -0.2400 
 11 C       -3.5600     2.0590     1.1420 C.3   1 <1>  -0.2400 
 12 C       -4.0230    -1.9940     0.3370 C.3   1 <1>  -0.2400 
 13 C       -2.1750    -2.7610    -1.1900 C.3   1 <1>  -0.2400 
 14 C        2.3660    -1.6560     0.8280 C.3   1 <1>   0.1200 
 15 C        2.8290     0.6340     0.8110 C.3   1 <1>   0.1200 
 16 O        3.2870    -0.6530     0.5090 O.3   1 <1>  -0.5600 
 17 H       -3.1290     1.5450    -0.9100 H     1 <1>   0.0800 
 18 H       -3.2470    -0.8870    -1.3300 H     1 <1>   0.0800 
 19 H        1.2040    -1.5370    -0.9750 H     1 <1>   0.0800 
 20 H        0.3340    -2.1750     0.3960 H     1 <1>   0.0800 
 21 H        1.1540     1.8950     0.3640 H     1 <1>   0.0800 
 22 H        1.7060     0.9490    -0.9930 H     1 <1>   0.0800 
 23 H       -2.0090     4.1380     0.2080 H     1 <1>   0.0800 
 24 H       -3.4160     4.0120    -0.8210 H     1 <1>   0.0800 
 25 H       -1.8480     3.5730    -1.4460 H     1 <1>   0.0800 
 26 H       -3.1190     2.6400     1.9320 H     1 <1>   0.0800 
 27 H       -3.6650     1.0410     1.4700 H     1 <1>   0.0800 
 28 H       -4.5380     2.4510     0.9310 H     1 <1>   0.0800 
 29 H       -3.6560    -2.6250     1.1270 H     1 <1>   0.0800 
 30 H       -4.7490    -2.5440    -0.2330 H     1 <1>   0.0800 
 31 H       -4.5090    -1.1370     0.7640 H     1 <1>   0.0800 
 32 H       -1.7700    -3.3970    -0.4240 H     1 <1>   0.0800 
 33 H       -1.3890    -2.4460    -1.8510 H     1 <1>   0.0800 
 34 H       -2.8810    -3.3310    -1.7670 H     1 <1>   0.0800 
 35 H        2.7960    -2.5990     0.5410 H     1 <1>   0.0800 
 36 H        2.2070    -1.6530     1.8920 H     1 <1>   0.0800 
 37 H        2.6850     0.7090     1.8750 H     1 <1>   0.0800 
 38 H        3.5900     1.3320     0.5110 H     1 <1>   0.0800 
@<TRIPOS>BOND
  1   1   2  2   
  2   1   3  1   
  3   1   4  1   
  4   1   5  1   
  5   3   6  1   
  6   4   7  1   
  7   5   8  1   
  8   5   9  1   
  9   6  10  1   
 10   6  11  1   
 11   6  17  1   
 12   7  12  1   
 13   7  13  1   
 14   7  18  1   
 15   8  14  1   
 16   8  19  1   
 17   8  20  1   
 18   9  15  1   
 19   9  21  1   
 20   9  22  1   
 21  10  23  1   
 22  10  24  1   
 23  10  25  1   
 24  11  26  1   
 25  11  27  1   
 26  11  28  1   
 27  12  29  1   
 28  12  30  1   
 29  12  31  1   
 30  13  32  1   
 31  13  33  1   
 32  13  34  1   
 33  14  16  1   
 34  14  35  1   
 35  14  36  1   
 36  15  16  1   
 37  15  37  1   
 38  15  38  1   
@<TRIPOS>SUBSTRUCTURE
  1 ****   1 GROUP 4 **** **** 0

# MOE 2024.06 (io_trps.svl 2023.06)
