@<TRIPOS>MOLECULE
NONAME
56 59 1 0 0 
SMALL
USER_CHARGES


@<TRIPOS>ATOM
  1 S       -0.3190    -1.1090     3.4790 S.3   1 <1>  -0.0800 
  2 C       -0.5890    -2.4510     2.3780 C.2   1 <1>   0.4620 
  3 C        1.1110    -0.6910     2.5860 C.2   1 <1>  -0.1100 
  4 N        0.3010    -2.5440     1.4600 N.2   1 <1>  -0.5650 
  5 N       -1.6910    -3.2690     2.5360 N.pl3 1 <1>  -0.8220 
  6 C        1.2750    -1.5530     1.5620 C.2   1 <1>   0.1730 
  7 C       -1.7720    -4.5200     1.7560 C.3   1 <1>   0.2090 
  8 C       -2.9850    -2.7490     3.0270 C.3   1 <1>   0.2090 
  9 C        2.3500    -1.5170     0.5870 C.ar  1 <1>   0.0540 
 10 C       -2.5880    -4.2120     0.5010 C.3   1 <1>  -0.1600 
 11 C       -3.8150    -2.4060     1.7900 C.3   1 <1>  -0.1600 
 12 C        2.8310    -2.6810    -0.0100 C.ar  1 <1>  -0.1500 
 13 C        2.9450    -0.3140     0.2120 C.ar  1 <1>  -0.1500 
 14 C       -3.9810    -3.6390     0.8620 C.3   1 <1>   0.5640 
 15 C        3.8570    -2.6470    -0.9370 C.ar  1 <1>  -0.1500 
 16 C        3.9720    -0.2740    -0.7140 C.ar  1 <1>  -0.1500 
 17 N       -4.6720    -3.2110    -0.4320 N.4   1 <1>  -0.9590 
 18 C       -4.8300    -4.7460     1.6000 C.2   1 <1>   0.5690 
 19 C        4.4360    -1.4420    -1.2940 C.ar  1 <1>  -0.1430 
 20 C       -3.9650    -2.1440    -1.2160 C.3   1 <1>   0.3430 
 21 C       -6.1060    -2.8280    -0.2000 C.3   1 <1>   0.3430 
 22 O       -5.6960    -4.4080     2.3680 O.2   1 <1>  -0.5700 
 23 N       -4.6940    -6.0750     1.3590 N.am  1 <1>  -0.8000 
 24 C        5.5620    -1.4020    -2.3120 C.3   1 <1>  -0.0970 
 25 C       -4.6390    -1.9650    -2.5770 C.3   1 <1>  -0.1600 
 26 C       -6.8250    -2.6570    -1.5390 C.3   1 <1>  -0.1600 
 27 C       -6.1270    -1.6270    -2.4330 C.3   1 <1>  -0.1600 
 28 H        1.6860     0.1520     2.9200 H     1 <1>   0.1500 
 29 H       -2.2270    -5.2890     2.3570 H     1 <1>   0.0800 
 30 H       -0.7830    -4.8560     1.4870 H     1 <1>   0.0800 
 31 H       -2.8490    -1.8720     3.6360 H     1 <1>   0.0800 
 32 H       -3.4710    -3.4950     3.6350 H     1 <1>   0.0800 
 33 H       -2.6740    -5.1030    -0.0920 H     1 <1>   0.0800 
 34 H       -2.0060    -3.5040    -0.0580 H     1 <1>   0.0800 
 35 H       -3.3060    -1.6050     1.2870 H     1 <1>   0.0800 
 36 H       -4.7700    -2.0400     2.1200 H     1 <1>   0.0800 
 37 H        2.3940    -3.6260     0.2590 H     1 <1>   0.1500 
 38 H        2.5980     0.6070     0.6440 H     1 <1>   0.1500 
 39 H        4.2040    -3.5650    -1.3790 H     1 <1>   0.1500 
 40 H        4.4090     0.6710    -0.9830 H     1 <1>   0.1500 
 41 H       -4.7030    -4.0430    -1.0300 H     1 <1>   0.4500 
 42 H       -2.9320    -2.4050    -1.3750 H     1 <1>   0.0800 
 43 H       -3.9980    -1.2110    -0.6780 H     1 <1>   0.0800 
 44 H       -6.1540    -1.9040     0.3540 H     1 <1>   0.0800 
 45 H       -6.6170    -3.5870     0.3720 H     1 <1>   0.0800 
 46 H       -5.2920    -6.7250     1.8810 H     1 <1>   0.3700 
 47 H       -3.9970    -6.5250     0.7630 H     1 <1>   0.3700 
 48 H        6.1440    -2.3050    -2.2640 H     1 <1>   0.0800 
 49 H        6.2140    -0.5690    -2.1200 H     1 <1>   0.0800 
 50 H        5.1540    -1.3030    -3.3010 H     1 <1>   0.0800 
 51 H       -4.5180    -2.8620    -3.1590 H     1 <1>   0.0800 
 52 H       -4.1450    -1.1700    -3.1090 H     1 <1>   0.0800 
 53 H       -7.8360    -2.3390    -1.3530 H     1 <1>   0.0800 
 54 H       -6.8770    -3.6080    -2.0410 H     1 <1>   0.0800 
 55 H       -6.5950    -1.6060    -3.4040 H     1 <1>   0.0800 
 56 H       -6.2320    -0.6460    -2.0000 H     1 <1>   0.0800 
@<TRIPOS>BOND
  1   1   2  1   
  2   1   3  1   
  3   2   4  2   
  4   2   5  1   
  5   3   6  2   
  6   3  28  1   
  7   4   6  1   
  8   5   7  1   
  9   5   8  1   
 10   6   9  1   
 11   7  10  1   
 12   7  29  1   
 13   7  30  1   
 14   8  11  1   
 15   8  31  1   
 16   8  32  1   
 17   9  12  ar  
 18   9  13  ar  
 19  10  14  1   
 20  10  33  1   
 21  10  34  1   
 22  11  14  1   
 23  11  35  1   
 24  11  36  1   
 25  12  15  ar  
 26  12  37  1   
 27  13  16  ar  
 28  13  38  1   
 29  14  17  1   
 30  14  18  1   
 31  15  19  ar  
 32  15  39  1   
 33  16  19  ar  
 34  16  40  1   
 35  17  20  1   
 36  17  21  1   
 37  17  41  1   
 38  18  22  2   
 39  18  23  am  
 40  19  24  1   
 41  20  25  1   
 42  20  42  1   
 43  20  43  1   
 44  21  26  1   
 45  21  44  1   
 46  21  45  1   
 47  23  46  1   
 48  23  47  1   
 49  24  48  1   
 50  24  49  1   
 51  24  50  1   
 52  25  27  1   
 53  25  51  1   
 54  25  52  1   
 55  26  27  1   
 56  26  53  1   
 57  26  54  1   
 58  27  55  1   
 59  27  56  1   
@<TRIPOS>SUBSTRUCTURE
  1 ****   4 GROUP 4 **** **** 0

# MOE 2024.06 (io_trps.svl 2023.06)
