@<TRIPOS>MOLECULE
NONAME
37 39 1 0 0 
SMALL
USER_CHARGES


@<TRIPOS>ATOM
  1 CL       0.8400     0.8410     2.6800 Cl    1 <1>  -0.1770 
  2 C        1.9450     1.2090     1.3800 C.ar  1 <1>   0.1770 
  3 C        3.1260     0.5040     1.2770 C.ar  1 <1>  -0.1500 
  4 C        1.6160     2.2020     0.4750 C.ar  1 <1>  -0.1500 
  5 C        4.0120     0.7890     0.2470 C.ar  1 <1>   0.1000 
  6 C        2.4950     2.4910    -0.5560 C.ar  1 <1>  -0.1500 
  7 N        5.1990     0.0750     0.1490 N.pl3 1 <1>  -0.8380 
  8 C        3.6830     1.7880    -0.6660 C.ar  1 <1>  -0.1500 
  9 C        6.4550     0.8280     0.4330 C.3   1 <1>   0.2090 
 10 C        5.3000    -0.8930    -0.9800 C.3   1 <1>   0.2090 
 11 C        7.6360    -0.1430     0.6390 C.3   1 <1>   0.3430 
 12 C        6.4870    -1.8570    -0.7640 C.3   1 <1>   0.3430 
 13 N        7.7850    -1.1330    -0.4960 N.4   1 <1>  -0.9590 
 14 C        8.9040    -2.0820    -0.2640 C.3   1 <1>   0.5240 
 15 C       10.1980    -1.2970    -0.2530 C.2   1 <1>  -0.1810 
 16 C       10.9020    -0.9440    -1.3470 C.2   1 <1>  -0.1100 
 17 C       10.7980    -0.8550     0.9750 C.2   1 <1>  -0.1500 
 18 S       12.3290    -0.0260    -0.9010 S.3   1 <1>  -0.0800 
 19 C       11.9370    -0.1620     0.8020 C.2   1 <1>  -0.1100 
 20 H        3.3590    -0.2610     1.9920 H     1 <1>   0.1500 
 21 H        0.6880     2.7350     0.5790 H     1 <1>   0.1500 
 22 H        2.2520     3.2620    -1.2680 H     1 <1>   0.1500 
 23 H        4.3600     2.0170    -1.4670 H     1 <1>   0.1500 
 24 H        6.3190     1.4200     1.3220 H     1 <1>   0.0800 
 25 H        6.6690     1.4990    -0.3810 H     1 <1>   0.0800 
 26 H        5.4220    -0.3600    -1.9070 H     1 <1>   0.0800 
 27 H        4.3860    -1.4600    -1.0430 H     1 <1>   0.0800 
 28 H        7.4710    -0.6750     1.5610 H     1 <1>   0.0800 
 29 H        8.5410     0.4310     0.7470 H     1 <1>   0.0800 
 30 H        6.5870    -2.4870    -1.6330 H     1 <1>   0.0800 
 31 H        6.2480    -2.4880     0.0760 H     1 <1>   0.0800 
 32 H        8.0340    -0.5880    -1.3310 H     1 <1>   0.4500 
 33 H        8.9410    -2.8060    -1.0630 H     1 <1>   0.0800 
 34 H        8.7760    -2.6070     0.6690 H     1 <1>   0.0800 
 35 H       10.7560    -1.1140    -2.4000 H     1 <1>   0.1500 
 36 H       10.3660    -1.0760     1.9370 H     1 <1>   0.1500 
 37 H       12.6190     0.2950     1.5000 H     1 <1>   0.1500 
@<TRIPOS>BOND
  1   1   2  1   
  2   2   3  ar  
  3   2   4  ar  
  4   3   5  ar  
  5   3  20  1   
  6   4   6  ar  
  7   4  21  1   
  8   5   7  1   
  9   5   8  ar  
 10   6   8  ar  
 11   6  22  1   
 12   7   9  1   
 13   7  10  1   
 14   8  23  1   
 15   9  11  1   
 16   9  24  1   
 17   9  25  1   
 18  10  12  1   
 19  10  26  1   
 20  10  27  1   
 21  11  13  1   
 22  11  28  1   
 23  11  29  1   
 24  12  13  1   
 25  12  30  1   
 26  12  31  1   
 27  13  14  1   
 28  13  32  1   
 29  14  15  1   
 30  14  33  1   
 31  14  34  1   
 32  15  16  2   
 33  15  17  1   
 34  16  18  1   
 35  16  35  1   
 36  17  19  2   
 37  17  36  1   
 38  18  19  1   
 39  19  37  1   
@<TRIPOS>SUBSTRUCTURE
  1 ****   9 GROUP 4 **** **** 0

# MOE 2024.06 (io_trps.svl 2023.06)
