@<TRIPOS>MOLECULE
NONAME
48 49 1 0 0 
SMALL
USER_CHARGES


@<TRIPOS>ATOM
  1 S       -0.1850     0.3790    -1.1560 S.3   1 <1>  -0.0800 
  2 C        0.4540    -0.6880     0.0700 C.2   1 <1>   0.1040 
  3 C       -0.9970     1.4140     0.0240 C.2   1 <1>  -0.0450 
  4 N        1.2500    -1.7650    -0.2700 N.am  1 <1>  -0.4940 
  5 C        0.0480    -0.2820     1.3110 C.2   1 <1>  -0.0860 
  6 C       -0.7400     0.9210     1.2710 C.2   1 <1>  -0.1810 
  7 C       -1.7440     2.5340    -0.4880 C.2   1 <1>   0.8050 
  8 C        1.6870    -2.2800    -1.4670 C.2   1 <1>   0.5690 
  9 C        0.3990    -1.0240     2.4950 C.2   1 <1>   0.7160 
 10 C       -1.2100     1.5980     2.5560 C.3   1 <1>  -0.0590 
 11 O       -2.4370     3.2540     0.2070 O.2   1 <1>  -0.5700 
 12 O       -1.6800     2.7950    -1.7990 O.3   1 <1>  -0.4300 
 13 O        1.3400    -1.8580    -2.5430 O.2   1 <1>  -0.5700 
 14 C        2.6720    -3.4500    -1.4320 C.3   1 <1>   0.1240 
 15 O        1.4840    -1.5570     2.6180 O.2   1 <1>  -0.5700 
 16 N       -0.4760    -1.2230     3.5040 N.am  1 <1>  -0.8000 
 17 C       -2.3860     3.8670    -2.3810 C.3   1 <1>   0.1200 
 18 C        2.4460    -4.3460    -0.2040 C.ar  1 <1>  -0.1430 
 19 C        4.1270    -2.9490    -1.5670 C.3   1 <1>  -0.1600 
 20 C       -2.0860     3.8690    -3.8760 C.3   1 <1>  -0.2400 
 21 C        2.9470    -4.0170     1.0510 C.ar  1 <1>  -0.1500 
 22 C        1.7040    -5.5100    -0.3420 C.ar  1 <1>  -0.1500 
 23 C        5.1540    -4.0900    -1.6330 C.3   1 <1>  -0.2400 
 24 C        2.7050    -4.8340     2.1410 C.ar  1 <1>  -0.1500 
 25 C        1.4650    -6.3300     0.7470 C.ar  1 <1>  -0.1500 
 26 C        1.9650    -5.9920     1.9910 C.ar  1 <1>  -0.1500 
 27 H        1.5990    -2.2920     0.5390 H     1 <1>   0.3700 
 28 H       -1.4700     2.6270     2.3890 H     1 <1>   0.0800 
 29 H       -0.4270     1.5860     3.2940 H     1 <1>   0.0800 
 30 H       -2.0740     1.0940     2.9490 H     1 <1>   0.0800 
 31 H        2.4670    -4.0390    -2.3090 H     1 <1>   0.0800 
 32 H       -0.2080    -1.8470     4.2630 H     1 <1>   0.3700 
 33 H       -1.4660    -1.0080     3.4060 H     1 <1>   0.3700 
 34 H       -2.0590     4.7830    -1.9190 H     1 <1>   0.0800 
 35 H       -3.4380     3.7230    -2.1980 H     1 <1>   0.0800 
 36 H        4.3690    -2.2940    -0.7490 H     1 <1>   0.0800 
 37 H        4.2030    -2.3680    -2.4700 H     1 <1>   0.0800 
 38 H       -1.0320     4.0010    -4.0430 H     1 <1>   0.0800 
 39 H       -2.6130     4.6770    -4.3510 H     1 <1>   0.0800 
 40 H       -2.4070     2.9440    -4.3200 H     1 <1>   0.0800 
 41 H        3.5260    -3.1230     1.2030 H     1 <1>   0.1500 
 42 H        1.3020    -5.7890    -1.3010 H     1 <1>   0.1500 
 43 H        5.1480    -4.6650    -0.7230 H     1 <1>   0.0800 
 44 H        6.1410    -3.6870    -1.7710 H     1 <1>   0.0800 
 45 H        4.9340    -4.7460    -2.4570 H     1 <1>   0.0800 
 46 H        3.0930    -4.5630     3.1080 H     1 <1>   0.1500 
 47 H        0.8890    -7.2300     0.6260 H     1 <1>   0.1500 
 48 H        1.7790    -6.6270     2.8390 H     1 <1>   0.1500 
@<TRIPOS>BOND
  1   1   2  1   
  2   1   3  1   
  3   2   4  1   
  4   2   5  2   
  5   3   6  2   
  6   3   7  1   
  7   4   8  am  
  8   4  27  1   
  9   5   6  1   
 10   5   9  1   
 11   6  10  1   
 12   7  11  2   
 13   7  12  1   
 14   8  13  2   
 15   8  14  1   
 16   9  15  2   
 17   9  16  am  
 18  10  28  1   
 19  10  29  1   
 20  10  30  1   
 21  12  17  1   
 22  14  18  1   
 23  14  19  1   
 24  14  31  1   
 25  16  32  1   
 26  16  33  1   
 27  17  20  1   
 28  17  34  1   
 29  17  35  1   
 30  18  21  ar  
 31  18  22  ar  
 32  19  23  1   
 33  19  36  1   
 34  19  37  1   
 35  20  38  1   
 36  20  39  1   
 37  20  40  1   
 38  21  24  ar  
 39  21  41  1   
 40  22  25  ar  
 41  22  42  1   
 42  23  43  1   
 43  23  44  1   
 44  23  45  1   
 45  24  26  ar  
 46  24  46  1   
 47  25  26  ar  
 48  25  47  1   
 49  26  48  1   
@<TRIPOS>SUBSTRUCTURE
  1 ****   2 GROUP 4 **** **** 0

# MOE 2024.06 (io_trps.svl 2023.06)
