@<TRIPOS>MOLECULE
NONAME
43 44 1 0 0 
SMALL
USER_CHARGES


@<TRIPOS>ATOM
  1 O       -1.2000    -0.8680     0.2700 O.2   1 <1>  -0.5700 
  2 C       -1.1560    -1.8030    -0.4860 C.2   1 <1>   0.5690 
  3 N       -0.1450    -1.9000    -1.3680 N.am  1 <1>  -0.8000 
  4 C       -2.2350    -2.8840    -0.4500 C.3   1 <1>  -0.0190 
  5 C       -3.6480    -2.2790    -0.5480 C.3   1 <1>  -0.1600 
  6 C       -2.1170    -3.7450     0.8210 C.3   1 <1>  -0.1600 
  7 C       -4.7330    -3.3560    -0.4700 C.3   1 <1>   0.1400 
  8 C       -3.2130    -4.8120     0.8860 C.3   1 <1>   0.1400 
  9 N       -4.5490    -4.1650     0.7690 N.am  1 <1>  -0.6600 
 10 C       -5.5160    -4.3500     1.7330 C.2   1 <1>   0.5690 
 11 O       -5.3170    -5.0450     2.7040 O.2   1 <1>  -0.5700 
 12 C       -6.8740    -3.6570     1.6500 C.3   1 <1>   0.1810 
 13 O       -7.6080    -4.0910     0.5150 O.3   1 <1>  -0.3630 
 14 C       -8.7380    -3.4520     0.1150 C.ar  1 <1>   0.0830 
 15 C       -9.2590    -3.7870    -1.1310 C.ar  1 <1>  -0.1430 
 16 C       -9.3760    -2.4890     0.8950 C.ar  1 <1>  -0.1500 
 17 C      -10.4010    -3.1490    -1.5860 C.ar  1 <1>  -0.1500 
 18 C       -8.5890    -4.8470    -1.9940 C.3   1 <1>  -0.0970 
 19 C      -10.5160    -1.8530     0.4330 C.ar  1 <1>  -0.1430 
 20 C      -11.0250    -2.1880    -0.8100 C.ar  1 <1>  -0.1500 
 21 C      -11.2120    -0.8030     1.2800 C.3   1 <1>  -0.0970 
 22 H        0.5710    -1.1720    -1.3740 H     1 <1>   0.3700 
 23 H       -0.0270    -2.6620    -2.0330 H     1 <1>   0.3700 
 24 H       -2.0920    -3.5250    -1.3010 H     1 <1>   0.0800 
 25 H       -3.7470    -1.7390    -1.4730 H     1 <1>   0.0800 
 26 H       -3.7990    -1.5770     0.2550 H     1 <1>   0.0800 
 27 H       -2.1920    -3.1180     1.6930 H     1 <1>   0.0800 
 28 H       -1.1540    -4.2240     0.8480 H     1 <1>   0.0800 
 29 H       -4.6640    -4.0080    -1.3240 H     1 <1>   0.0800 
 30 H       -5.6980    -2.8830    -0.4960 H     1 <1>   0.0800 
 31 H       -3.1300    -5.3530     1.8130 H     1 <1>   0.0800 
 32 H       -3.0940    -5.5160     0.0810 H     1 <1>   0.0800 
 33 H       -6.7230    -2.5960     1.5790 H     1 <1>   0.0800 
 34 H       -7.4500    -3.8870     2.5270 H     1 <1>   0.0800 
 35 H       -9.0020    -2.2270     1.8650 H     1 <1>   0.1500 
 36 H      -10.8150    -3.3980    -2.5470 H     1 <1>   0.1500 
 37 H       -7.5870    -4.5400    -2.2340 H     1 <1>   0.0800 
 38 H       -9.1310    -5.0040    -2.9080 H     1 <1>   0.0800 
 39 H       -8.5450    -5.7770    -1.4560 H     1 <1>   0.0800 
 40 H      -11.9120    -1.7040    -1.1790 H     1 <1>   0.1500 
 41 H      -10.5230    -0.3560     1.9740 H     1 <1>   0.0800 
 42 H      -12.0150    -1.2570     1.8330 H     1 <1>   0.0800 
 43 H      -11.6150    -0.0270     0.6550 H     1 <1>   0.0800 
@<TRIPOS>BOND
  1   1   2  2   
  2   2   3  am  
  3   2   4  1   
  4   3  22  1   
  5   3  23  1   
  6   4   5  1   
  7   4   6  1   
  8   4  24  1   
  9   5   7  1   
 10   5  25  1   
 11   5  26  1   
 12   6   8  1   
 13   6  27  1   
 14   6  28  1   
 15   7   9  1   
 16   7  29  1   
 17   7  30  1   
 18   8   9  1   
 19   8  31  1   
 20   8  32  1   
 21   9  10  am  
 22  10  11  2   
 23  10  12  1   
 24  12  13  1   
 25  12  33  1   
 26  12  34  1   
 27  13  14  1   
 28  14  15  ar  
 29  14  16  ar  
 30  15  17  ar  
 31  15  18  1   
 32  16  19  ar  
 33  16  35  1   
 34  17  20  ar  
 35  17  36  1   
 36  18  37  1   
 37  18  38  1   
 38  18  39  1   
 39  19  20  ar  
 40  19  21  1   
 41  20  40  1   
 42  21  41  1   
 43  21  42  1   
 44  21  43  1   
@<TRIPOS>SUBSTRUCTURE
  1 ****   7 GROUP 4 **** **** 0

# MOE 2024.06 (io_trps.svl 2023.06)
