@<TRIPOS>MOLECULE
NONAME
35 35 1 0 0 
SMALL
USER_CHARGES


@<TRIPOS>ATOM
  1 CL       1.9350    -0.6260     1.2170 Cl    1 <1>  -0.1770 
  2 C        2.9390     0.7420     0.8100 C.ar  1 <1>   0.1770 
  3 C        3.5860     1.4320     1.8180 C.ar  1 <1>  -0.1500 
  4 C        3.0730     1.1150    -0.5140 C.ar  1 <1>  -0.1500 
  5 C        4.3820     2.5170     1.4910 C.ar  1 <1>  -0.1500 
  6 C        3.8700     2.2010    -0.8350 C.ar  1 <1>  -0.1500 
  7 C        4.5280     2.9060     0.1660 C.ar  1 <1>  -0.1430 
  8 C        5.4050     4.0980    -0.1860 C.3   1 <1>   0.2140 
  9 S        7.1300     3.6960     0.2170 S.3   1 <1>  -0.4600 
 10 C        7.3930     2.0720    -0.5990 C.3   1 <1>   0.1310 
 11 C        8.8540     1.6410    -0.5810 C.2   1 <1>   0.5690 
 12 O        9.1790     0.6850    -1.2420 O.2   1 <1>  -0.5700 
 13 N        9.7470     2.3370     0.1700 N.am  1 <1>  -0.7300 
 14 C       11.2010     2.0830     0.2630 C.3   1 <1>   0.1400 
 15 C       11.9920     3.3320    -0.1560 C.3   1 <1>  -0.0800 
 16 C       13.4970     3.0350    -0.1220 C.3   1 <1>  -0.2400 
 17 C       11.6880     4.5450     0.7390 C.3   1 <1>  -0.2400 
 18 H        3.4670     1.1220     2.8400 H     1 <1>   0.1500 
 19 H        2.5580     0.5610    -1.2780 H     1 <1>   0.1500 
 20 H        4.8930     3.0570     2.2710 H     1 <1>   0.1500 
 21 H        3.9730     2.4930    -1.8660 H     1 <1>   0.1500 
 22 H        5.1370     4.9660     0.3890 H     1 <1>   0.0800 
 23 H        5.3680     4.3300    -1.2360 H     1 <1>   0.0800 
 24 H        7.0530     2.1630    -1.6130 H     1 <1>   0.0800 
 25 H        6.7940     1.3480    -0.0780 H     1 <1>   0.0800 
 26 H        9.4010     3.1590     0.6730 H     1 <1>   0.3700 
 27 H       11.4620     1.2560    -0.3770 H     1 <1>   0.0800 
 28 H       11.4460     1.8130     1.2760 H     1 <1>   0.0800 
 29 H       11.7250     3.5720    -1.1720 H     1 <1>   0.0800 
 30 H       13.8140     2.7890     0.8770 H     1 <1>   0.0800 
 31 H       14.0550     3.8900    -0.4590 H     1 <1>   0.0800 
 32 H       13.7280     2.2070    -0.7700 H     1 <1>   0.0800 
 33 H       11.8980     4.3180     1.7690 H     1 <1>   0.0800 
 34 H       10.6560     4.8340     0.6520 H     1 <1>   0.0800 
 35 H       12.2910     5.3850     0.4430 H     1 <1>   0.0800 
@<TRIPOS>BOND
  1   1   2  1   
  2   2   3  ar  
  3   2   4  ar  
  4   3   5  ar  
  5   3  18  1   
  6   4   6  ar  
  7   4  19  1   
  8   5   7  ar  
  9   5  20  1   
 10   6   7  ar  
 11   6  21  1   
 12   7   8  1   
 13   8   9  1   
 14   8  22  1   
 15   8  23  1   
 16   9  10  1   
 17  10  11  1   
 18  10  24  1   
 19  10  25  1   
 20  11  12  2   
 21  11  13  am  
 22  13  14  1   
 23  13  26  1   
 24  14  15  1   
 25  14  27  1   
 26  14  28  1   
 27  15  16  1   
 28  15  17  1   
 29  15  29  1   
 30  16  30  1   
 31  16  31  1   
 32  16  32  1   
 33  17  33  1   
 34  17  34  1   
 35  17  35  1   
@<TRIPOS>SUBSTRUCTURE
  1 ****  10 GROUP 4 **** **** 0

# MOE 2024.06 (io_trps.svl 2023.06)
