@<TRIPOS>MOLECULE
NONAME
44 45 1 0 0 
SMALL
USER_CHARGES


@<TRIPOS>ATOM
  1 O       -1.5440    -3.8690    -0.9760 O.2   1 <1>  -0.5700 
  2 C       -1.2390    -3.0120    -0.1850 C.2   1 <1>   0.5690 
  3 N       -2.1220    -2.1450     0.3930 N.am  1 <1>  -0.5470 
  4 C        0.2240    -2.8830     0.1810 C.3   1 <1>  -0.0990 
  5 C       -3.5170    -2.0380     0.2670 C.ar  1 <1>   0.1170 
  6 C        0.9910    -4.0960    -0.3540 C.3   1 <1>   0.3430 
  7 C       -4.1250    -0.8400     0.6270 C.ar  1 <1>  -0.1500 
  8 C       -4.3280    -3.0750    -0.1830 C.ar  1 <1>  -0.1500 
  9 N        2.4400    -4.0630     0.0170 N.4   1 <1>  -0.9590 
 10 C       -5.4960    -0.6800     0.5360 C.ar  1 <1>  -0.1500 
 11 C       -5.6990    -2.9160    -0.2760 C.ar  1 <1>  -0.1500 
 12 C        3.1770    -3.0260    -0.7640 C.3   1 <1>   0.3430 
 13 C        3.0140    -5.4300    -0.1500 C.3   1 <1>   0.3430 
 14 C       -6.2920    -1.7170     0.0820 C.ar  1 <1>  -0.1430 
 15 C        4.6040    -2.8190    -0.2520 C.3   1 <1>  -0.1600 
 16 C        4.1540    -5.6380     0.8470 C.3   1 <1>  -0.1600 
 17 C       -7.7970    -1.5460    -0.0200 C.3   1 <1>  -0.0970 
 18 C        5.5500    -3.9740    -0.6100 C.3   1 <1>  -0.1600 
 19 C        5.5350    -5.1400     0.3870 C.3   1 <1>  -0.1600 
 20 H       -1.7200    -1.4240     0.9870 H     1 <1>   0.3700 
 21 H        0.3090    -2.8380     1.2500 H     1 <1>   0.0800 
 22 H        0.5950    -1.9740    -0.2550 H     1 <1>   0.0800 
 23 H        0.8850    -4.1440    -1.4270 H     1 <1>   0.0800 
 24 H        0.5340    -4.9850     0.0530 H     1 <1>   0.0800 
 25 H       -3.5290    -0.0200     0.9800 H     1 <1>   0.1500 
 26 H       -3.9010    -4.0190    -0.4630 H     1 <1>   0.1500 
 27 H        2.5220    -3.8290     1.0140 H     1 <1>   0.4500 
 28 H       -5.9430     0.2570     0.8210 H     1 <1>   0.1500 
 29 H       -6.3030    -3.7340    -0.6290 H     1 <1>   0.1500 
 30 H        2.6570    -2.0850    -0.6880 H     1 <1>   0.0800 
 31 H        3.2050    -3.3020    -1.8060 H     1 <1>   0.0800 
 32 H        3.3580    -5.5850    -1.1600 H     1 <1>   0.0800 
 33 H        2.2510    -6.1620     0.0590 H     1 <1>   0.0800 
 34 H        4.6130    -2.6230     0.8060 H     1 <1>   0.0800 
 35 H        4.9820    -1.9350    -0.7360 H     1 <1>   0.0800 
 36 H        4.2410    -6.6950     1.0330 H     1 <1>   0.0800 
 37 H        3.8980    -5.1860     1.7900 H     1 <1>   0.0800 
 38 H       -8.0480    -0.5150    -0.1980 H     1 <1>   0.0800 
 39 H       -8.2620    -1.8650     0.8950 H     1 <1>   0.0800 
 40 H       -8.1870    -2.1330    -0.8320 H     1 <1>   0.0800 
 41 H        6.5580    -3.5920    -0.6430 H     1 <1>   0.0800 
 42 H        5.3290    -4.3350    -1.6010 H     1 <1>   0.0800 
 43 H        6.0650    -5.9620    -0.0660 H     1 <1>   0.0800 
 44 H        6.1010    -4.8600     1.2610 H     1 <1>   0.0800 
@<TRIPOS>BOND
  1   1   2  2   
  2   2   3  am  
  3   2   4  1   
  4   3   5  1   
  5   3  20  1   
  6   4   6  1   
  7   4  21  1   
  8   4  22  1   
  9   5   7  ar  
 10   5   8  ar  
 11   6   9  1   
 12   6  23  1   
 13   6  24  1   
 14   7  10  ar  
 15   7  25  1   
 16   8  11  ar  
 17   8  26  1   
 18   9  12  1   
 19   9  13  1   
 20   9  27  1   
 21  10  14  ar  
 22  10  28  1   
 23  11  14  ar  
 24  11  29  1   
 25  12  15  1   
 26  12  30  1   
 27  12  31  1   
 28  13  16  1   
 29  13  32  1   
 30  13  33  1   
 31  14  17  1   
 32  15  18  1   
 33  15  34  1   
 34  15  35  1   
 35  16  19  1   
 36  16  36  1   
 37  16  37  1   
 38  17  38  1   
 39  17  39  1   
 40  17  40  1   
 41  18  19  1   
 42  18  41  1   
 43  18  42  1   
 44  19  43  1   
 45  19  44  1   
@<TRIPOS>SUBSTRUCTURE
  1 ****   2 GROUP 4 **** **** 0

# MOE 2024.06 (io_trps.svl 2023.06)
