@<TRIPOS>MOLECULE
NONAME
40 41 1 0 0 
SMALL
USER_CHARGES


@<TRIPOS>ATOM
  1 O        0.0060     2.0840    -0.4810 O.2   1 <1>  -0.5700 
  2 C       -0.1290     3.1870     0.0160 C.2   1 <1>   0.6900 
  3 N        0.9680     3.9090     0.4200 N.am  1 <1>  -0.6600 
  4 N       -1.3680     3.7440     0.1660 N.am  1 <1>  -0.5470 
  5 C        0.8680     5.1250     1.2760 C.3   1 <1>   0.1400 
  6 C        2.3370     3.4150     0.0910 C.3   1 <1>   0.1400 
  7 C       -2.6840     3.3140    -0.0630 C.ar  1 <1>   0.1170 
  8 C        0.8200     6.3800     0.3980 C.3   1 <1>  -0.1600 
  9 C        3.3730     4.5260    -0.1360 C.3   1 <1>  -0.1600 
 10 C       -3.7330     4.2560    -0.1220 C.ar  1 <1>   0.0860 
 11 C       -2.9750     1.9600    -0.2240 C.ar  1 <1>  -0.1500 
 12 C        2.1780     6.7910    -0.1910 C.3   1 <1>  -0.1600 
 13 C        2.8780     5.6940    -1.0080 C.3   1 <1>  -0.1600 
 14 C       -3.5160     5.6800     0.0590 C.2   1 <1>   0.6340 
 15 C       -5.0280     3.7780    -0.3630 C.ar  1 <1>  -0.1500 
 16 C       -4.2610     1.5200    -0.4580 C.ar  1 <1>  -0.1500 
 17 O       -2.5330     6.1640     0.5920 O.2   1 <1>  -0.5700 
 18 O       -4.4620     6.5170    -0.3850 O.3   1 <1>  -0.4300 
 19 C       -5.2940     2.4350    -0.5300 C.ar  1 <1>  -0.1500 
 20 C       -4.3430     7.9210    -0.2610 C.3   1 <1>   0.0400 
 21 H       -1.2990     4.7320     0.4280 H     1 <1>   0.3700 
 22 H        1.7010     5.1710     1.9550 H     1 <1>   0.0800 
 23 H       -0.0250     5.0730     1.8760 H     1 <1>   0.0800 
 24 H        2.2830     2.8250    -0.8090 H     1 <1>   0.0800 
 25 H        2.6710     2.7650     0.8820 H     1 <1>   0.0800 
 26 H        0.4570     7.1950     0.9990 H     1 <1>   0.0800 
 27 H        0.1100     6.2350    -0.3980 H     1 <1>   0.0800 
 28 H        4.2170     4.0730    -0.6250 H     1 <1>   0.0800 
 29 H        3.7300     4.8910     0.8100 H     1 <1>   0.0800 
 30 H       -2.1890     1.2300    -0.1650 H     1 <1>   0.1500 
 31 H        2.8290     7.1100     0.6060 H     1 <1>   0.0800 
 32 H        2.0210     7.6430    -0.8300 H     1 <1>   0.0800 
 33 H        2.2250     5.3300    -1.7830 H     1 <1>   0.0800 
 34 H        3.7320     6.1380    -1.4890 H     1 <1>   0.0800 
 35 H       -5.8480     4.4720    -0.4190 H     1 <1>   0.1500 
 36 H       -4.4570     0.4690    -0.5830 H     1 <1>   0.1500 
 37 H       -6.2990     2.0960    -0.7150 H     1 <1>   0.1500 
 38 H       -5.2180     8.3760    -0.6890 H     1 <1>   0.0800 
 39 H       -3.4620     8.2440    -0.7880 H     1 <1>   0.0800 
 40 H       -4.2660     8.1740     0.7820 H     1 <1>   0.0800 
@<TRIPOS>BOND
  1   1   2  2   
  2   2   3  am  
  3   2   4  am  
  4   3   5  1   
  5   3   6  1   
  6   4   7  1   
  7   4  21  1   
  8   5   8  1   
  9   5  22  1   
 10   5  23  1   
 11   6   9  1   
 12   6  24  1   
 13   6  25  1   
 14   7  10  ar  
 15   7  11  ar  
 16   8  12  1   
 17   8  26  1   
 18   8  27  1   
 19   9  13  1   
 20   9  28  1   
 21   9  29  1   
 22  10  14  1   
 23  10  15  ar  
 24  11  16  ar  
 25  11  30  1   
 26  12  13  1   
 27  12  31  1   
 28  12  32  1   
 29  13  33  1   
 30  13  34  1   
 31  14  17  2   
 32  14  18  1   
 33  15  19  ar  
 34  15  35  1   
 35  16  19  ar  
 36  16  36  1   
 37  18  20  1   
 38  19  37  1   
 39  20  38  1   
 40  20  39  1   
 41  20  40  1   
@<TRIPOS>SUBSTRUCTURE
  1 ****   4 GROUP 4 **** **** 0

# MOE 2024.06 (io_trps.svl 2023.06)
