@<TRIPOS>MOLECULE
NONAME
33 34 1 0 0 
SMALL
USER_CHARGES


@<TRIPOS>ATOM
  1 O       -1.0330     0.2880    -1.4140 O.2   1 <1>  -0.5700 
  2 C       -2.1040     0.0430    -0.9220 C.2   1 <1>   0.5690 
  3 N       -2.5610    -1.1940    -0.6860 N.am  1 <1>  -0.7300 
  4 C       -3.1350     1.0640    -0.5580 C.3   1 <1>   0.0420 
  5 C       -3.9260    -1.2160    -0.1480 C.3   1 <1>   0.1400 
  6 C       -2.4920     2.1790     0.2260 C.2   1 <1>   0.6590 
  7 C       -4.1850     0.2540     0.2470 C.3   1 <1>   0.0630 
  8 O       -2.0980     2.0320     1.3550 O.2   1 <1>  -0.5700 
  9 O       -2.4210     3.3520    -0.3940 O.3   1 <1>  -0.4300 
 10 C       -5.6420     0.7020     0.0610 C.ar  1 <1>  -0.1440 
 11 C       -1.8350     4.4810     0.2210 C.3   1 <1>   0.0400 
 12 C       -6.6830    -0.1910     0.2920 C.ar  1 <1>  -0.1500 
 13 C       -5.9630     2.0050    -0.3070 C.ar  1 <1>  -0.1500 
 14 C       -8.0030     0.1920     0.1340 C.ar  1 <1>  -0.1500 
 15 C       -7.2810     2.3910    -0.4670 C.ar  1 <1>  -0.1500 
 16 C       -8.3110     1.4920    -0.2530 C.ar  1 <1>   0.0820 
 17 O       -9.5740     1.9510    -0.4330 O.3   1 <1>  -0.3630 
 18 C      -10.6940     1.1210    -0.2180 C.3   1 <1>   0.0400 
 19 H       -2.0240    -2.0330    -0.9210 H     1 <1>   0.3700 
 20 H       -3.5500     1.4360    -1.4740 H     1 <1>   0.0800 
 21 H       -3.9950    -1.8700     0.7040 H     1 <1>   0.0800 
 22 H       -4.6040    -1.5370    -0.9210 H     1 <1>   0.0800 
 23 H       -3.9590     0.3300     1.2970 H     1 <1>   0.0800 
 24 H       -0.8090     4.2550     0.4540 H     1 <1>   0.0800 
 25 H       -2.3790     4.7090     1.1210 H     1 <1>   0.0800 
 26 H       -1.8860     5.3080    -0.4650 H     1 <1>   0.0800 
 27 H       -6.4840    -1.2000     0.6050 H     1 <1>   0.1500 
 28 H       -5.2030     2.7480    -0.4720 H     1 <1>   0.1500 
 29 H       -8.7760    -0.5300     0.3170 H     1 <1>   0.1500 
 30 H       -7.5230     3.3970    -0.7570 H     1 <1>   0.1500 
 31 H      -11.5790     1.6990    -0.4130 H     1 <1>   0.0800 
 32 H      -10.6910     0.7900     0.8050 H     1 <1>   0.0800 
 33 H      -10.6460     0.2870    -0.8960 H     1 <1>   0.0800 
@<TRIPOS>BOND
  1   1   2  2   
  2   2   3  am  
  3   2   4  1   
  4   3   5  1   
  5   3  19  1   
  6   4   6  1   
  7   4   7  1   
  8   4  20  1   
  9   5   7  1   
 10   5  21  1   
 11   5  22  1   
 12   6   8  2   
 13   6   9  1   
 14   7  10  1   
 15   7  23  1   
 16   9  11  1   
 17  10  12  ar  
 18  10  13  ar  
 19  11  24  1   
 20  11  25  1   
 21  11  26  1   
 22  12  14  ar  
 23  12  27  1   
 24  13  15  ar  
 25  13  28  1   
 26  14  16  ar  
 27  14  29  1   
 28  15  16  ar  
 29  15  30  1   
 30  16  17  1   
 31  17  18  1   
 32  18  31  1   
 33  18  32  1   
 34  18  33  1   
@<TRIPOS>SUBSTRUCTURE
  1 ****  10 GROUP 4 **** **** 0

# MOE 2024.06 (io_trps.svl 2023.06)
