@<TRIPOS>MOLECULE
NONAME
37 37 1 0 0 
SMALL
USER_CHARGES


@<TRIPOS>ATOM
  1 CL      -0.0600    -0.5420     0.0750 Cl    1 <1>  -0.1770 
  2 C       -1.1700     0.8240     0.0500 C.ar  1 <1>   0.1770 
  3 C       -2.5250     0.5290     0.0520 C.ar  1 <1>   0.1770 
  4 C       -0.7510     2.1640     0.0290 C.ar  1 <1>   0.0820 
  5 CL      -3.0780    -1.1310     0.0780 Cl    1 <1>  -0.1770 
  6 C       -3.4810     1.5280     0.0330 C.ar  1 <1>  -0.1500 
  7 O        0.5260     2.6430     0.0240 O.3   1 <1>  -0.3630 
  8 C       -1.7240     3.1570     0.0110 C.ar  1 <1>  -0.1500 
  9 C       -3.0750     2.8500     0.0130 C.ar  1 <1>  -0.1500 
 10 C        1.6790     1.8430     0.0350 C.3   1 <1>   0.1200 
 11 C        2.8860     2.7800     0.0200 C.3   1 <1>  -0.1600 
 12 C        4.1830     1.9790     0.0310 C.3   1 <1>   0.3430 
 13 N        5.3290     2.9190     0.0150 N.4   1 <1>  -0.9060 
 14 C        6.6380     2.2240     0.0240 C.3   1 <1>   0.3430 
 15 C        7.7520     3.2680     0.0070 C.3   1 <1>  -0.1600 
 16 C        9.1300     2.5940     0.0150 C.3   1 <1>  -0.1600 
 17 C       10.2490     3.6390    -0.0020 C.3   1 <1>  -0.2400 
 18 H       -4.5260     1.2720     0.0350 H     1 <1>   0.1500 
 19 H       -1.4150     4.1880    -0.0060 H     1 <1>   0.1500 
 20 H       -3.8070     3.6400    -0.0020 H     1 <1>   0.1500 
 21 H        1.6650     1.2190    -0.8430 H     1 <1>   0.0800 
 22 H        1.6660     1.2470     0.9320 H     1 <1>   0.0800 
 23 H        2.8390     3.4110     0.8900 H     1 <1>   0.0800 
 24 H        2.8370     3.3840    -0.8690 H     1 <1>   0.0800 
 25 H        4.2210     1.3360    -0.8360 H     1 <1>   0.0800 
 26 H        4.2220     1.3630     0.9160 H     1 <1>   0.0800 
 27 H        5.2740     3.5440     0.8290 H     1 <1>   0.4500 
 28 H        5.2720     3.5190    -0.8180 H     1 <1>   0.4500 
 29 H        6.7270     1.5870    -0.8420 H     1 <1>   0.0800 
 30 H        6.7290     1.6140     0.9090 H     1 <1>   0.0800 
 31 H        7.6710     3.9010     0.8730 H     1 <1>   0.0800 
 32 H        7.6690     3.8750    -0.8790 H     1 <1>   0.0800 
 33 H        9.2370     1.9570    -0.8480 H     1 <1>   0.0800 
 34 H        9.2390     1.9830     0.8960 H     1 <1>   0.0800 
 35 H       10.1890     4.2500    -0.8860 H     1 <1>   0.0800 
 36 H       11.2080     3.1500     0.0040 H     1 <1>   0.0800 
 37 H       10.1910     4.2760     0.8630 H     1 <1>   0.0800 
@<TRIPOS>BOND
  1   1   2  1   
  2   2   3  ar  
  3   2   4  ar  
  4   3   5  1   
  5   3   6  ar  
  6   4   7  1   
  7   4   8  ar  
  8   6   9  ar  
  9   6  18  1   
 10   7  10  1   
 11   8   9  ar  
 12   8  19  1   
 13   9  20  1   
 14  10  11  1   
 15  10  21  1   
 16  10  22  1   
 17  11  12  1   
 18  11  23  1   
 19  11  24  1   
 20  12  13  1   
 21  12  25  1   
 22  12  26  1   
 23  13  14  1   
 24  13  27  1   
 25  13  28  1   
 26  14  15  1   
 27  14  29  1   
 28  14  30  1   
 29  15  16  1   
 30  15  31  1   
 31  15  32  1   
 32  16  17  1   
 33  16  33  1   
 34  16  34  1   
 35  17  35  1   
 36  17  36  1   
 37  17  37  1   
@<TRIPOS>SUBSTRUCTURE
  1 ****  10 GROUP 4 **** **** 0

# MOE 2024.06 (io_trps.svl 2023.06)
