@<TRIPOS>MOLECULE
NONAME
32 32 1 0 0 
SMALL
USER_CHARGES


@<TRIPOS>ATOM
  1 CL      -0.0490     0.4660     1.9200 Cl    1 <1>  -0.1770 
  2 C       -1.0820     1.6650     1.1860 C.ar  1 <1>   0.1770 
  3 C       -1.9270     1.2960     0.1620 C.ar  1 <1>  -0.1500 
  4 C       -1.0350     2.9670     1.6450 C.ar  1 <1>  -0.1500 
  5 C       -2.7550     2.2440    -0.4270 C.ar  1 <1>   0.1990 
  6 C       -1.8520     3.9170     1.0590 C.ar  1 <1>  -0.1500 
  7 N       -3.6090     1.8790    -1.4580 N.am  1 <1>  -0.7570 
  8 C       -2.7080     3.5660     0.0250 C.ar  1 <1>  -0.1430 
  9 S       -4.9070     0.7710    -1.2990 S.o2  1 <1>   1.3330 
 10 C       -3.5870     4.6400    -0.6050 C.3   1 <1>  -0.0960 
 11 O       -5.4410     0.6660    -2.6330 O.2   1 <1>  -0.6500 
 12 O       -4.3870    -0.3900    -0.6210 O.2   1 <1>  -0.6500 
 13 C       -6.0580     1.6640    -0.2530 C.3   1 <1>  -0.0550 
 14 C       -7.3480     0.8860     0.0510 C.3   1 <1>  -0.1600 
 15 C       -8.2890     1.6970     0.9490 C.3   1 <1>  -0.1600 
 16 C       -9.5700     0.9140     1.2490 C.3   1 <1>  -0.2400 
 17 H       -1.9420     0.2750    -0.1710 H     1 <1>   0.1500 
 18 H       -0.3670     3.2280     2.4470 H     1 <1>   0.1500 
 19 H       -1.8130     4.9330     1.4150 H     1 <1>   0.1500 
 20 H       -3.1750     1.7210    -2.3630 H     1 <1>   0.4200 
 21 H       -4.6210     4.4420    -0.3930 H     1 <1>   0.0800 
 22 H       -3.4470     4.6530    -1.6710 H     1 <1>   0.0800 
 23 H       -3.3420     5.6150    -0.2230 H     1 <1>   0.0800 
 24 H       -6.3160     2.5880    -0.7320 H     1 <1>   0.0800 
 25 H       -5.5710     1.9000     0.6740 H     1 <1>   0.0800 
 26 H       -7.0950    -0.0420     0.5370 H     1 <1>   0.0800 
 27 H       -7.8450     0.6500    -0.8760 H     1 <1>   0.0800 
 28 H       -8.5480     2.6230     0.4640 H     1 <1>   0.0800 
 29 H       -7.7950     1.9320     1.8770 H     1 <1>   0.0800 
 30 H      -10.0950     0.6870     0.3370 H     1 <1>   0.0800 
 31 H      -10.2190     1.4960     1.8790 H     1 <1>   0.0800 
 32 H       -9.3390    -0.0070     1.7550 H     1 <1>   0.0800 
@<TRIPOS>BOND
  1   1   2  1   
  2   2   3  ar  
  3   2   4  ar  
  4   3   5  ar  
  5   3  17  1   
  6   4   6  ar  
  7   4  18  1   
  8   5   7  1   
  9   5   8  ar  
 10   6   8  ar  
 11   6  19  1   
 12   7   9  am  
 13   7  20  1   
 14   8  10  1   
 15   9  11  2   
 16   9  12  2   
 17   9  13  1   
 18  10  21  1   
 19  10  22  1   
 20  10  23  1   
 21  13  14  1   
 22  13  24  1   
 23  13  25  1   
 24  14  15  1   
 25  14  26  1   
 26  14  27  1   
 27  15  16  1   
 28  15  28  1   
 29  15  29  1   
 30  16  30  1   
 31  16  31  1   
 32  16  32  1   
@<TRIPOS>SUBSTRUCTURE
  1 ****   5 GROUP 4 **** **** 0

# MOE 2024.06 (io_trps.svl 2023.06)
