@<TRIPOS>MOLECULE
NONAME
28 28 1 0 0 
SMALL
USER_CHARGES


@<TRIPOS>ATOM
  1 CL       0.3990    -3.1330    -2.2150 Cl    1 <1>  -0.1770 
  2 C        1.6680    -2.1930    -1.4620 C.ar  1 <1>   0.1770 
  3 C        1.8080    -2.1360    -0.0760 C.ar  1 <1>   0.0820 
  4 C        2.5280    -1.4950    -2.2890 C.ar  1 <1>  -0.1500 
  5 O        1.0030    -2.8160     0.7810 O.3   1 <1>  -0.2330 
  6 C        2.8080    -1.3460     0.4700 C.ar  1 <1>  -0.1500 
  7 C        3.5340    -0.7210    -1.7340 C.ar  1 <1>  -0.1500 
  8 C        0.6560    -4.1080     0.7040 C.2   1 <1>   0.8700 
  9 C        3.6700    -0.6450    -0.3570 C.ar  1 <1>  -0.1500 
 10 O       -0.4330    -4.4580     1.0900 O.2   1 <1>  -0.5700 
 11 O        1.5210    -5.0190     0.2480 O.3   1 <1>  -0.4300 
 12 C        2.9250    -4.8750     0.1930 C.3   1 <1>   0.1200 
 13 C        3.5740    -6.2640     0.1080 C.3   1 <1>  -0.0800 
 14 C        5.1020    -6.1320     0.1250 C.3   1 <1>  -0.2400 
 15 C        3.1340    -7.0200    -1.1540 C.3   1 <1>  -0.2400 
 16 H        2.4080    -1.5540    -3.3560 H     1 <1>   0.1500 
 17 H        2.9120    -1.2810     1.5400 H     1 <1>   0.1500 
 18 H        4.2070    -0.1740    -2.3730 H     1 <1>   0.1500 
 19 H        4.4490    -0.0350     0.0720 H     1 <1>   0.1500 
 20 H        3.2520    -4.3620     1.0810 H     1 <1>   0.0800 
 21 H        3.1800    -4.2990    -0.6790 H     1 <1>   0.0800 
 22 H        3.2760    -6.8290     0.9760 H     1 <1>   0.0800 
 23 H        5.4460    -5.5720    -0.7270 H     1 <1>   0.0800 
 24 H        5.5600    -7.1060     0.1000 H     1 <1>   0.0800 
 25 H        5.4260    -5.6320     1.0210 H     1 <1>   0.0800 
 26 H        3.4010    -6.4710    -2.0400 H     1 <1>   0.0800 
 27 H        2.0680    -7.1650    -1.1520 H     1 <1>   0.0800 
 28 H        3.6020    -7.9870    -1.1940 H     1 <1>   0.0800 
@<TRIPOS>BOND
  1   1   2  1   
  2   2   3  ar  
  3   2   4  ar  
  4   3   5  1   
  5   3   6  ar  
  6   4   7  ar  
  7   4  16  1   
  8   5   8  1   
  9   6   9  ar  
 10   6  17  1   
 11   7   9  ar  
 12   7  18  1   
 13   8  10  2   
 14   8  11  1   
 15   9  19  1   
 16  11  12  1   
 17  12  13  1   
 18  12  20  1   
 19  12  21  1   
 20  13  14  1   
 21  13  15  1   
 22  13  22  1   
 23  14  23  1   
 24  14  24  1   
 25  14  25  1   
 26  15  26  1   
 27  15  27  1   
 28  15  28  1   
@<TRIPOS>SUBSTRUCTURE
  1 ****   3 GROUP 4 **** **** 0

# MOE 2024.06 (io_trps.svl 2023.06)
