@<TRIPOS>MOLECULE
NONAME
32 32 1 0 0 
SMALL
USER_CHARGES


@<TRIPOS>ATOM
  1 O        0.5360     4.9040    -0.4260 O.2   1 <1>  -0.5700 
  2 C        0.0370     3.8120    -0.2900 C.2   1 <1>   0.5690 
  3 N        0.7750     2.6820    -0.4420 N.am  1 <1>  -0.7300 
  4 C       -1.4510     3.7110     0.0720 C.3   1 <1>   0.1250 
  5 C        2.2090     2.6320    -0.7430 C.3   1 <1>   0.2780 
  6 C       -1.8960     2.2580     0.3040 C.ar  1 <1>  -0.1440 
  7 C       -2.3400     4.4350    -0.9650 C.3   1 <1>  -0.1600 
  8 C        2.7840     1.4540     0.0110 C.2   1 <1>  -0.2880 
  9 C       -2.1410     1.8080     1.5940 C.ar  1 <1>  -0.1500 
 10 C       -2.0480     1.3710    -0.7550 C.ar  1 <1>  -0.1500 
 11 C       -3.8310     4.4290    -0.5940 C.3   1 <1>  -0.2400 
 12 C        3.3300     0.3680    -0.5450 C.2   1 <1>  -0.3000 
 13 C       -2.5290     0.5000     1.8220 C.ar  1 <1>  -0.1500 
 14 C       -2.4360     0.0620    -0.5290 C.ar  1 <1>  -0.1500 
 15 C       -2.6770    -0.3750     0.7610 C.ar  1 <1>  -0.1500 
 16 H        0.3280     1.7740    -0.2880 H     1 <1>   0.3700 
 17 H       -1.5590     4.2450     0.9990 H     1 <1>   0.0800 
 18 H        2.6880     3.5470    -0.4370 H     1 <1>   0.0800 
 19 H        2.3450     2.5070    -1.8040 H     1 <1>   0.0800 
 20 H       -2.2100     3.9850    -1.9330 H     1 <1>   0.0800 
 21 H       -2.0120     5.4580    -1.0440 H     1 <1>   0.0800 
 22 H        2.7060     1.5820     1.0770 H     1 <1>   0.1500 
 23 H       -2.0310     2.4730     2.4330 H     1 <1>   0.1500 
 24 H       -1.8630     1.6930    -1.7650 H     1 <1>   0.1500 
 25 H       -4.2160     3.4250    -0.5680 H     1 <1>   0.0800 
 26 H       -4.3920     4.9870    -1.3230 H     1 <1>   0.0800 
 27 H       -3.9800     4.8820     0.3700 H     1 <1>   0.0800 
 28 H        3.7320    -0.4570     0.0190 H     1 <1>   0.1500 
 29 H        3.4220     0.2080    -1.6060 H     1 <1>   0.1500 
 30 H       -2.7170     0.1620     2.8270 H     1 <1>   0.1500 
 31 H       -2.5510    -0.6160    -1.3560 H     1 <1>   0.1500 
 32 H       -2.9790    -1.3920     0.9380 H     1 <1>   0.1500 
@<TRIPOS>BOND
  1   1   2  2   
  2   2   3  am  
  3   2   4  1   
  4   3   5  1   
  5   3  16  1   
  6   4   6  1   
  7   4   7  1   
  8   4  17  1   
  9   5   8  1   
 10   5  18  1   
 11   5  19  1   
 12   6   9  ar  
 13   6  10  ar  
 14   7  11  1   
 15   7  20  1   
 16   7  21  1   
 17   8  12  2   
 18   8  22  1   
 19   9  13  ar  
 20   9  23  1   
 21  10  14  ar  
 22  10  24  1   
 23  11  25  1   
 24  11  26  1   
 25  11  27  1   
 26  12  28  1   
 27  12  29  1   
 28  13  15  ar  
 29  13  30  1   
 30  14  15  ar  
 31  14  31  1   
 32  15  32  1   
@<TRIPOS>SUBSTRUCTURE
  1 ****   6 GROUP 4 **** **** 0

# MOE 2024.06 (io_trps.svl 2023.06)
