@<TRIPOS>MOLECULE
NONAME
44 46 1 0 0 
SMALL
USER_CHARGES


@<TRIPOS>ATOM
  1 S       -0.9740    -0.3720     1.4380 S.3   1 <1>  -0.4600 
  2 C        0.2270    -1.7310     1.3030 C.3   1 <1>   0.2140 
  3 C       -1.1490     0.2440    -0.2800 C.3   1 <1>   0.1310 
  4 C        1.4350    -1.2660     0.5030 C.ar  1 <1>  -0.1440 
  5 C       -2.0610     1.4670    -0.3620 C.2   1 <1>   0.5690 
  6 C        2.1940    -0.1910     0.9510 C.ar  1 <1>  -0.1500 
  7 C        1.7810    -1.9140    -0.6770 C.ar  1 <1>  -0.1500 
  8 O       -1.5560     2.4960    -0.7460 O.2   1 <1>  -0.5700 
  9 N       -3.4010     1.4030    -0.0550 N.am  1 <1>  -0.6600 
 10 C        3.2940     0.2400     0.2280 C.ar  1 <1>  -0.1500 
 11 C        2.8800    -1.4940    -1.4080 C.ar  1 <1>  -0.1500 
 12 C       -4.2600     2.6280    -0.0720 C.3   1 <1>   0.1400 
 13 C       -4.1380     0.1760     0.3790 C.3   1 <1>   0.1400 
 14 C        3.6160    -0.4230    -0.9400 C.ar  1 <1>   0.1900 
 15 C       -5.4970     2.4120    -0.9520 C.3   1 <1>   0.1400 
 16 C       -5.4030    -0.0470    -0.4710 C.3   1 <1>   0.1400 
 17 F        4.6530    -0.0240    -1.6260 F     1 <1>  -0.1900 
 18 N       -6.2470     1.1860    -0.5290 N.am  1 <1>  -0.6600 
 19 C       -7.5110     1.2650     0.0250 C.2   1 <1>   0.7150 
 20 O       -7.9100     2.3550     0.3980 O.2   1 <1>  -0.5700 
 21 C       -8.3540     0.0940     0.1520 C.2   1 <1>   0.0550 
 22 O       -9.1050    -0.1000     1.2330 O.3   1 <1>  -0.2800 
 23 C       -8.5540    -0.9550    -0.6970 C.2   1 <1>  -0.1500 
 24 C       -9.7680    -1.2250     1.0980 C.2   1 <1>  -0.0100 
 25 C       -9.4700    -1.8090    -0.0820 C.2   1 <1>  -0.1500 
 26 H       -0.2760    -2.5540     0.8280 H     1 <1>   0.0800 
 27 H        0.5070    -2.0060     2.3050 H     1 <1>   0.0800 
 28 H       -1.5330    -0.5580    -0.8800 H     1 <1>   0.0800 
 29 H       -0.1670     0.5120    -0.6230 H     1 <1>   0.0800 
 30 H        1.9250     0.3170     1.8630 H     1 <1>   0.1500 
 31 H        1.2020    -2.7490    -1.0320 H     1 <1>   0.1500 
 32 H        3.8880     1.0710     0.5600 H     1 <1>   0.1500 
 33 H        3.1640    -1.9820    -2.3220 H     1 <1>   0.1500 
 34 H       -3.7100     3.4760    -0.4410 H     1 <1>   0.0800 
 35 H       -4.5750     2.8550     0.9320 H     1 <1>   0.0800 
 36 H       -4.4220     0.2890     1.4110 H     1 <1>   0.0800 
 37 H       -3.5150    -0.6950     0.3060 H     1 <1>   0.0800 
 38 H       -5.1850     2.3000    -1.9750 H     1 <1>   0.0800 
 39 H       -6.1270     3.2830    -0.8980 H     1 <1>   0.0800 
 40 H       -5.9540    -0.8680    -0.0490 H     1 <1>   0.0800 
 41 H       -5.1130    -0.3200    -1.4710 H     1 <1>   0.0800 
 42 H       -8.1100    -1.1090    -1.6650 H     1 <1>   0.1500 
 43 H      -10.4320    -1.5380     1.8850 H     1 <1>   0.1500 
 44 H       -9.8460    -2.7320    -0.4880 H     1 <1>   0.1500 
@<TRIPOS>BOND
  1   1   2  1   
  2   1   3  1   
  3   2   4  1   
  4   2  26  1   
  5   2  27  1   
  6   3   5  1   
  7   3  28  1   
  8   3  29  1   
  9   4   6  ar  
 10   4   7  ar  
 11   5   8  2   
 12   5   9  am  
 13   6  10  ar  
 14   6  30  1   
 15   7  11  ar  
 16   7  31  1   
 17   9  12  1   
 18   9  13  1   
 19  10  14  ar  
 20  10  32  1   
 21  11  14  ar  
 22  11  33  1   
 23  12  15  1   
 24  12  34  1   
 25  12  35  1   
 26  13  16  1   
 27  13  36  1   
 28  13  37  1   
 29  14  17  1   
 30  15  18  1   
 31  15  38  1   
 32  15  39  1   
 33  16  18  1   
 34  16  40  1   
 35  16  41  1   
 36  18  19  am  
 37  19  20  2   
 38  19  21  1   
 39  21  22  1   
 40  21  23  2   
 41  22  24  1   
 42  23  25  1   
 43  23  42  1   
 44  24  25  2   
 45  24  43  1   
 46  25  44  1   
@<TRIPOS>SUBSTRUCTURE
  1 ****  13 GROUP 4 **** **** 0

# MOE 2024.06 (io_trps.svl 2023.06)
