@<TRIPOS>MOLECULE
NONAME
49 51 1 0 0 
SMALL
USER_CHARGES


@<TRIPOS>ATOM
  1 O       -0.2160     0.1080    -1.1400 O.2   1 <1>  -0.5700 
  2 C       -0.2510     1.0770    -0.4070 C.2   1 <1>   0.6900 
  3 N       -1.4540     1.5370     0.0660 N.am  1 <1>  -0.6600 
  4 N        0.8920     1.7430    -0.0640 N.am  1 <1>  -0.5470 
  5 C       -1.6300     2.4250     1.2560 C.3   1 <1>   0.1400 
  6 C       -2.7450     1.0190    -0.4830 C.3   1 <1>   0.1400 
  7 C        2.2440     1.4410    -0.2770 C.ar  1 <1>   0.1170 
  8 C       -2.5850     3.5850     0.9360 C.3   1 <1>   0.1400 
  9 C       -3.7230     2.1670    -0.7850 C.3   1 <1>   0.1400 
 10 C        2.7070     0.1450    -0.4760 C.ar  1 <1>  -0.1500 
 11 C        3.1720     2.4760    -0.2690 C.ar  1 <1>  -0.1500 
 12 N       -3.8830     3.0760     0.3960 N.am  1 <1>  -0.6600 
 13 C        4.0540    -0.1070    -0.6660 C.ar  1 <1>  -0.1500 
 14 C        4.5200     2.2260    -0.4580 C.ar  1 <1>  -0.1500 
 15 C       -5.0910     3.4840     0.9210 C.2   1 <1>   0.5690 
 16 C        4.9700     0.9320    -0.6600 C.ar  1 <1>  -0.1430 
 17 O       -5.1170     4.2300     1.8760 O.2   1 <1>  -0.5700 
 18 C       -6.4360     2.9880     0.3240 C.3   1 <1>   0.2610 
 19 C        6.4500     0.6540    -0.8700 C.3   1 <1>  -0.0170 
 20 O       -6.5560     3.3410    -1.0290 O.3   1 <1>  -0.5600 
 21 C       -7.7000     3.5870     0.9430 C.3   1 <1>  -0.1600 
 22 C        7.1460     0.4040     0.4690 C.3   1 <1>  -0.2400 
 23 C       -7.0860     4.6250    -1.1370 C.3   1 <1>   0.1200 
 24 C       -7.9370     4.8400     0.1130 C.3   1 <1>  -0.1600 
 25 H        0.7090     2.6670     0.3050 H     1 <1>   0.3700 
 26 H       -0.6890     2.8190     1.5920 H     1 <1>   0.0800 
 27 H       -2.0460     1.8470     2.0640 H     1 <1>   0.0800 
 28 H       -3.1890     0.3510     0.2330 H     1 <1>   0.0800 
 29 H       -2.5740     0.4640    -1.3890 H     1 <1>   0.0800 
 30 H       -2.1310     4.2310     0.2060 H     1 <1>   0.0800 
 31 H       -2.7450     4.1620     1.8300 H     1 <1>   0.0800 
 32 H       -4.6640     1.7420    -1.0820 H     1 <1>   0.0800 
 33 H       -3.3490     2.7380    -1.6170 H     1 <1>   0.0800 
 34 H        2.0140    -0.6760    -0.4810 H     1 <1>   0.1500 
 35 H        2.8420     3.4860    -0.1170 H     1 <1>   0.1500 
 36 H        4.3850    -1.1190    -0.8190 H     1 <1>   0.1500 
 37 H        5.2200     3.0430    -0.4480 H     1 <1>   0.1500 
 38 H       -6.4640     1.9160     0.3930 H     1 <1>   0.0800 
 39 H        6.9090     1.4910    -1.3660 H     1 <1>   0.0800 
 40 H        6.5690    -0.2060    -1.5060 H     1 <1>   0.0800 
 41 H       -7.5980     3.7950     1.9940 H     1 <1>   0.0800 
 42 H       -8.5130     2.8970     0.8050 H     1 <1>   0.0800 
 43 H        7.0460     1.2660     1.1050 H     1 <1>   0.0800 
 44 H        8.1910     0.2070     0.3130 H     1 <1>   0.0800 
 45 H        6.7030    -0.4410     0.9640 H     1 <1>   0.0800 
 46 H       -7.6660     4.6830    -2.0410 H     1 <1>   0.0800 
 47 H       -6.2670     5.3240    -1.1750 H     1 <1>   0.0800 
 48 H       -7.5940     5.7170     0.6350 H     1 <1>   0.0800 
 49 H       -8.9760     4.9620    -0.1370 H     1 <1>   0.0800 
@<TRIPOS>BOND
  1   1   2  2   
  2   2   3  am  
  3   2   4  am  
  4   3   5  1   
  5   3   6  1   
  6   4   7  1   
  7   4  25  1   
  8   5   8  1   
  9   5  26  1   
 10   5  27  1   
 11   6   9  1   
 12   6  28  1   
 13   6  29  1   
 14   7  10  ar  
 15   7  11  ar  
 16   8  12  1   
 17   8  30  1   
 18   8  31  1   
 19   9  12  1   
 20   9  32  1   
 21   9  33  1   
 22  10  13  ar  
 23  10  34  1   
 24  11  14  ar  
 25  11  35  1   
 26  12  15  am  
 27  13  16  ar  
 28  13  36  1   
 29  14  16  ar  
 30  14  37  1   
 31  15  17  2   
 32  15  18  1   
 33  16  19  1   
 34  18  20  1   
 35  18  21  1   
 36  18  38  1   
 37  19  22  1   
 38  19  39  1   
 39  19  40  1   
 40  20  23  1   
 41  21  24  1   
 42  21  41  1   
 43  21  42  1   
 44  22  43  1   
 45  22  44  1   
 46  22  45  1   
 47  23  24  1   
 48  23  46  1   
 49  23  47  1   
 50  24  48  1   
 51  24  49  1   
@<TRIPOS>SUBSTRUCTURE
  1 ****   3 GROUP 4 **** **** 0

# MOE 2024.06 (io_trps.svl 2023.06)
