@<TRIPOS>MOLECULE
NONAME
39 40 1 0 0 
SMALL
USER_CHARGES


@<TRIPOS>ATOM
  1 O       -4.7260     3.2290     1.7830 O.3   1 <1>  -0.3630 
  2 C       -4.2270     3.6020     0.5800 C.ar  1 <1>   0.0830 
  3 C       -5.7680     3.9700     2.3890 C.3   1 <1>   0.1200 
  4 C       -4.0920     2.6370    -0.4120 C.ar  1 <1>  -0.1440 
  5 C       -3.8540     4.9180     0.3300 C.ar  1 <1>  -0.1500 
  6 C       -7.1320     3.3190     2.0920 C.3   1 <1>   0.3430 
  7 C       -3.6210     3.0090    -1.6620 C.ar  1 <1>  -0.1500 
  8 C       -4.4530     1.1890    -0.1360 C.3   1 <1>   0.2640 
  9 C       -3.3890     5.2790    -0.9220 C.ar  1 <1>  -0.1500 
 10 N       -7.4120     3.0870     0.6370 N.4   1 <1>  -0.9590 
 11 C       -3.2780     4.3250    -1.9180 C.ar  1 <1>  -0.1500 
 12 O       -5.7600     1.0010    -0.5580 O.3   1 <1>  -0.6800 
 13 C       -7.3400     4.3340    -0.1810 C.3   1 <1>   0.3430 
 14 C       -8.7070     2.3680     0.4640 C.3   1 <1>   0.3430 
 15 C       -7.5320     4.0050    -1.6610 C.3   1 <1>  -0.1600 
 16 C       -8.9640     2.0420    -1.0100 C.3   1 <1>  -0.1600 
 17 C       -8.8600     3.2800    -1.9070 C.3   1 <1>  -0.1600 
 18 H       -5.7480     4.9910     2.0580 H     1 <1>   0.0800 
 19 H       -5.5900     3.9590     3.4500 H     1 <1>   0.0800 
 20 H       -3.9070     5.6620     1.1040 H     1 <1>   0.1500 
 21 H       -7.9060     3.9410     2.5090 H     1 <1>   0.0800 
 22 H       -7.1650     2.3740     2.6090 H     1 <1>   0.0800 
 23 H       -3.5100     2.2770    -2.4440 H     1 <1>   0.1500 
 24 H       -4.3950     0.9560     0.9140 H     1 <1>   0.0800 
 25 H       -3.8130     0.5130    -0.6770 H     1 <1>   0.0800 
 26 H       -3.1020     6.2980    -1.1200 H     1 <1>   0.1500 
 27 H       -6.6660     2.4500     0.2780 H     1 <1>   0.4500 
 28 H       -2.9120     4.6070    -2.8910 H     1 <1>   0.1500 
 29 H       -5.7590     0.9020    -1.5320 H     1 <1>   0.4000 
 30 H       -6.3810     4.8080    -0.0520 H     1 <1>   0.0800 
 31 H       -8.1060     5.0220     0.1350 H     1 <1>   0.0800 
 32 H       -9.5120     2.9820     0.8340 H     1 <1>   0.0800 
 33 H       -8.6930     1.4500     1.0310 H     1 <1>   0.0800 
 34 H       -6.7080     3.3990    -1.9980 H     1 <1>   0.0800 
 35 H       -7.5110     4.9180    -2.2290 H     1 <1>   0.0800 
 36 H       -9.9470     1.6150    -1.1060 H     1 <1>   0.0800 
 37 H       -8.2640     1.2940    -1.3350 H     1 <1>   0.0800 
 38 H       -8.9320     2.9890    -2.9430 H     1 <1>   0.0800 
 39 H       -9.6780     3.9480    -1.6970 H     1 <1>   0.0800 
@<TRIPOS>BOND
  1   1   2  1   
  2   1   3  1   
  3   2   4  ar  
  4   2   5  ar  
  5   3   6  1   
  6   3  18  1   
  7   3  19  1   
  8   4   7  ar  
  9   4   8  1   
 10   5   9  ar  
 11   5  20  1   
 12   6  10  1   
 13   6  21  1   
 14   6  22  1   
 15   7  11  ar  
 16   7  23  1   
 17   8  12  1   
 18   8  24  1   
 19   8  25  1   
 20   9  11  ar  
 21   9  26  1   
 22  10  13  1   
 23  10  14  1   
 24  10  27  1   
 25  11  28  1   
 26  12  29  1   
 27  13  15  1   
 28  13  30  1   
 29  13  31  1   
 30  14  16  1   
 31  14  32  1   
 32  14  33  1   
 33  15  17  1   
 34  15  34  1   
 35  15  35  1   
 36  16  17  1   
 37  16  36  1   
 38  16  37  1   
 39  17  38  1   
 40  17  39  1   
@<TRIPOS>SUBSTRUCTURE
  1 ****  10 GROUP 4 **** **** 0

# MOE 2024.06 (io_trps.svl 2023.06)
