@<TRIPOS>MOLECULE
NONAME
38 40 1 0 0 
SMALL
USER_CHARGES


@<TRIPOS>ATOM
  1 O       -3.1820    -1.5590    -0.1460 O.co2 1 <1>  -0.9000 
  2 C       -3.5890    -0.9470     0.8460 C.2   1 <1>   0.9060 
  3 O       -4.0600    -1.5470     1.8220 O.co2 1 <1>  -0.9000 
  4 C       -3.5190     0.5810     0.9350 C.3   1 <1>  -0.1860 
  5 C       -4.3160     1.3850    -0.1500 C.3   1 <1>  -0.0190 
  6 C       -2.0710     1.1220     1.0660 C.3   1 <1>  -0.0800 
  7 C       -5.1490     0.5590    -1.1500 C.2   1 <1>   0.5690 
  8 C       -3.3640     2.4230    -0.8140 C.3   1 <1>  -0.0800 
  9 C       -1.3340     0.9910    -0.2810 C.3   1 <1>  -0.1600 
 10 C       -2.1490     2.6250     1.4060 C.3   1 <1>  -0.1600 
 11 O       -4.9240     0.6500    -2.3400 O.2   1 <1>  -0.5700 
 12 N       -6.2050    -0.2010    -0.7190 N.am  1 <1>  -0.6600 
 13 C       -2.1250     1.7050    -1.3960 C.3   1 <1>  -0.1600 
 14 C       -2.8690     3.3980     0.2770 C.3   1 <1>  -0.1600 
 15 C       -6.4470    -1.5030    -1.3730 C.3   1 <1>   0.1400 
 16 C       -6.8290    -0.1730     0.6260 C.3   1 <1>   0.1400 
 17 C       -6.9790    -2.4010    -0.2650 C.3   1 <1>  -0.1600 
 18 C       -7.6650    -1.4450     0.7030 C.3   1 <1>  -0.1600 
 19 H       -3.9950     0.8000     1.8720 H     1 <1>   0.0800 
 20 H       -5.0480     1.9650     0.3780 H     1 <1>   0.0800 
 21 H       -1.5440     0.5840     1.8360 H     1 <1>   0.0800 
 22 H       -3.8820     2.9620    -1.5890 H     1 <1>   0.0800 
 23 H       -1.2140    -0.0490    -0.5350 H     1 <1>   0.0800 
 24 H       -0.3510     1.4170    -0.1990 H     1 <1>   0.0800 
 25 H       -1.1560     3.0170     1.5380 H     1 <1>   0.0800 
 26 H       -2.6780     2.7560     2.3340 H     1 <1>   0.0800 
 27 H       -1.4910     2.4150    -1.8950 H     1 <1>   0.0800 
 28 H       -2.4320     0.9760    -2.1260 H     1 <1>   0.0800 
 29 H       -3.7010     3.9460     0.6830 H     1 <1>   0.0800 
 30 H       -2.1910     4.1090    -0.1630 H     1 <1>   0.0800 
 31 H       -5.5310    -1.8960    -1.7840 H     1 <1>   0.0800 
 32 H       -7.1750    -1.3750    -2.1540 H     1 <1>   0.0800 
 33 H       -7.4380     0.7050     0.7430 H     1 <1>   0.0800 
 34 H       -6.0760    -0.1940     1.3910 H     1 <1>   0.0800 
 35 H       -6.1360    -2.8640     0.2240 H     1 <1>   0.0800 
 36 H       -7.6350    -3.1650    -0.6400 H     1 <1>   0.0800 
 37 H       -8.6650    -1.2340     0.3690 H     1 <1>   0.0800 
 38 H       -7.6920    -1.8360     1.7040 H     1 <1>   0.0800 
@<TRIPOS>BOND
  1   1   2  ar  
  2   2   3  ar  
  3   2   4  1   
  4   4   5  1   
  5   4   6  1   
  6   4  19  1   
  7   5   7  1   
  8   5   8  1   
  9   5  20  1   
 10   6   9  1   
 11   6  10  1   
 12   6  21  1   
 13   7  11  2   
 14   7  12  am  
 15   8  13  1   
 16   8  14  1   
 17   8  22  1   
 18   9  13  1   
 19   9  23  1   
 20   9  24  1   
 21  10  14  1   
 22  10  25  1   
 23  10  26  1   
 24  12  15  1   
 25  12  16  1   
 26  13  27  1   
 27  13  28  1   
 28  14  29  1   
 29  14  30  1   
 30  15  17  1   
 31  15  31  1   
 32  15  32  1   
 33  16  18  1   
 34  16  33  1   
 35  16  34  1   
 36  17  18  1   
 37  17  35  1   
 38  17  36  1   
 39  18  37  1   
 40  18  38  1   
@<TRIPOS>SUBSTRUCTURE
  1 ****   5 GROUP 4 **** **** 0

# MOE 2024.06 (io_trps.svl 2023.06)
