@<TRIPOS>MOLECULE
NONAME
46 49 1 0 0 
SMALL
USER_CHARGES


@<TRIPOS>ATOM
  1 O       -0.2600     1.2370    -1.7640 O.2   1 <1>  -0.5700 
  2 C        0.4250     1.4230    -0.7910 C.2   1 <1>   0.5690 
  3 N        0.3410     2.4980     0.0370 N.am  1 <1>  -0.4200 
  4 C        1.4980     0.4600    -0.3210 C.3   1 <1>  -0.0190 
  5 C        1.2310     2.4140     1.0600 C.2   1 <1>   0.5690 
  6 C       -0.6000     3.6210    -0.1620 C.3   1 <1>   0.1400 
  7 C        2.0520     1.1430     0.9600 C.3   1 <1>  -0.0190 
  8 C        2.5220     0.1460    -1.4290 C.3   1 <1>  -0.0220 
  9 O        1.3640     3.2240     1.9410 O.2   1 <1>  -0.5700 
 10 C       -1.9850     3.2400     0.3710 C.3   1 <1>  -0.1600 
 11 C        3.5670     1.4250     0.9860 C.3   1 <1>  -0.0220 
 12 C        3.8590    -0.2480    -0.8340 C.2   1 <1>  -0.2880 
 13 C       -3.0160     4.3430     0.0810 C.3   1 <1>  -0.0990 
 14 C        4.3350     0.3350     0.2660 C.2   1 <1>  -0.2880 
 15 C       -4.3930     3.9930     0.6130 C.2   1 <1>   0.5690 
 16 O       -4.7920     4.5800     1.5870 O.2   1 <1>  -0.5700 
 17 N       -5.1050     3.0350    -0.0540 N.am  1 <1>  -0.5470 
 18 C       -6.3840     2.5020     0.1840 C.ar  1 <1>   0.1170 
 19 C       -7.0460     1.8840    -0.8760 C.ar  1 <1>  -0.1500 
 20 C       -7.0080     2.5550     1.4370 C.ar  1 <1>  -0.1500 
 21 C       -8.2980     1.3500    -0.6540 C.ar  1 <1>   0.0820 
 22 C       -8.2700     2.0130     1.6430 C.ar  1 <1>  -0.1500 
 23 O       -9.0980     0.7230    -1.5240 O.3   1 <1>  -0.3620 
 24 C       -8.8950     1.4120     0.5700 C.ar  1 <1>   0.0820 
 25 C      -10.2800     0.3680    -0.8100 C.3   1 <1>   0.4000 
 26 O      -10.1000     0.8270     0.5280 O.3   1 <1>  -0.3630 
 27 H        1.0190    -0.4590    -0.0350 H     1 <1>   0.0800 
 28 H       -0.6570     3.8430    -1.2140 H     1 <1>   0.0800 
 29 H       -0.2320     4.4940     0.3510 H     1 <1>   0.0800 
 30 H        1.8110     0.5240     1.8050 H     1 <1>   0.0800 
 31 H        2.6700     1.0050    -2.0610 H     1 <1>   0.0800 
 32 H        2.1400    -0.6520    -2.0420 H     1 <1>   0.0800 
 33 H       -1.9250     3.0860     1.4360 H     1 <1>   0.0800 
 34 H       -2.3060     2.3230    -0.0920 H     1 <1>   0.0800 
 35 H        3.8920     1.4940     2.0100 H     1 <1>   0.0800 
 36 H        3.7840     2.3660     0.5100 H     1 <1>   0.0800 
 37 H        4.3850    -1.0090    -1.3870 H     1 <1>   0.1500 
 38 H       -3.0880     4.5170    -0.9780 H     1 <1>   0.0800 
 39 H       -2.6990     5.2610     0.5430 H     1 <1>   0.0800 
 40 H        5.2910     0.1000     0.7060 H     1 <1>   0.1500 
 41 H       -4.6480     2.6660    -0.8850 H     1 <1>   0.3700 
 42 H       -6.6070     1.8190    -1.8530 H     1 <1>   0.1500 
 43 H       -6.5070     3.0210     2.2660 H     1 <1>   0.1500 
 44 H       -8.7520     2.0540     2.6030 H     1 <1>   0.1500 
 45 H      -10.3960    -0.7020    -0.8120 H     1 <1>   0.0800 
 46 H      -11.1290     0.8620    -1.2490 H     1 <1>   0.0800 
@<TRIPOS>BOND
  1   1   2  2   
  2   2   3  am  
  3   2   4  1   
  4   3   5  am  
  5   3   6  1   
  6   4   7  1   
  7   4   8  1   
  8   4  27  1   
  9   5   7  1   
 10   5   9  2   
 11   6  10  1   
 12   6  28  1   
 13   6  29  1   
 14   7  11  1   
 15   7  30  1   
 16   8  12  1   
 17   8  31  1   
 18   8  32  1   
 19  10  13  1   
 20  10  33  1   
 21  10  34  1   
 22  11  14  1   
 23  11  35  1   
 24  11  36  1   
 25  12  14  2   
 26  12  37  1   
 27  13  15  1   
 28  13  38  1   
 29  13  39  1   
 30  14  40  1   
 31  15  16  2   
 32  15  17  am  
 33  17  18  1   
 34  17  41  1   
 35  18  19  ar  
 36  18  20  ar  
 37  19  21  ar  
 38  19  42  1   
 39  20  22  ar  
 40  20  43  1   
 41  21  23  1   
 42  21  24  ar  
 43  22  24  ar  
 44  22  44  1   
 45  23  25  1   
 46  24  26  1   
 47  25  26  1   
 48  25  45  1   
 49  25  46  1   
@<TRIPOS>SUBSTRUCTURE
  1 ****  10 GROUP 4 **** **** 0

# MOE 2024.06 (io_trps.svl 2023.06)
