@<TRIPOS>MOLECULE
NONAME
45 46 1 0 0 
SMALL
USER_CHARGES


@<TRIPOS>ATOM
  1 BR      -0.5780     0.7790    -2.0250 Br    1 <1>  -0.1110 
  2 C        0.5560     1.7490    -0.8020 C.ar  1 <1>   0.1110 
  3 C       -0.0220     2.4750     0.2280 C.ar  1 <1>  -0.1440 
  4 C        1.9210     1.6900    -1.0000 C.ar  1 <1>  -0.1500 
  5 C        0.8190     3.1800     1.0780 C.ar  1 <1>  -0.1500 
  6 C       -1.5200     2.5040     0.4210 C.3   1 <1>   0.4870 
  7 C        2.7510     2.3810    -0.1350 C.ar  1 <1>   0.0830 
  8 C        2.1940     3.1540     0.8940 C.ar  1 <1>   0.0830 
  9 N       -2.0740     3.4490    -0.5730 N.4   1 <1>  -0.9060 
 10 O        4.0850     2.2650    -0.3370 O.3   1 <1>  -0.3620 
 11 O        2.9320     3.9040     1.7490 O.3   1 <1>  -0.3620 
 12 C       -3.5350     3.5700    -0.5570 C.3   1 <1>   0.4230 
 13 C        4.8510     1.6280     0.6700 C.3   1 <1>   0.2000 
 14 C        3.7480     4.9140     1.1920 C.3   1 <1>   0.0400 
 15 C       -3.9420     4.3070    -1.8250 C.3   1 <1>  -0.2400 
 16 C       -3.9640     4.3480     0.6830 C.3   1 <1>  -0.2400 
 17 C        6.3220     1.8800     0.3650 C.3   1 <1>  -0.1600 
 18 C        4.7170     0.1130     0.5310 C.3   1 <1>  -0.1600 
 19 C        6.7060     0.8450    -0.6990 C.3   1 <1>  -0.1600 
 20 C        5.6580    -0.2720    -0.6140 C.3   1 <1>  -0.1600 
 21 H        2.3430     1.1120    -1.8030 H     1 <1>   0.1500 
 22 H        0.4320     3.7630     1.8970 H     1 <1>   0.1500 
 23 H       -1.7540     2.8290     1.4220 H     1 <1>   0.0800 
 24 H       -1.9290     1.5170     0.2720 H     1 <1>   0.0800 
 25 H       -1.7740     3.1290    -1.5020 H     1 <1>   0.4500 
 26 H       -1.6470     4.3700    -0.4340 H     1 <1>   0.4500 
 27 H       -3.9910     2.5910    -0.5540 H     1 <1>   0.0800 
 28 H        4.5600     1.9940     1.6400 H     1 <1>   0.0800 
 29 H        4.1130     5.5300     1.9950 H     1 <1>   0.0800 
 30 H        3.1610     5.5050     0.5130 H     1 <1>   0.0800 
 31 H        4.5770     4.4660     0.6770 H     1 <1>   0.0800 
 32 H       -3.5080     5.2910    -1.8650 H     1 <1>   0.0800 
 33 H       -5.0130     4.4160    -1.8510 H     1 <1>   0.0800 
 34 H       -3.6520     3.7520    -2.7000 H     1 <1>   0.0800 
 35 H       -3.5050     5.3210     0.7140 H     1 <1>   0.0800 
 36 H       -3.7300     3.8100     1.5840 H     1 <1>   0.0800 
 37 H       -5.0320     4.4880     0.6650 H     1 <1>   0.0800 
 38 H        6.8950     1.6940     1.2560 H     1 <1>   0.0800 
 39 H        6.5010     2.8900     0.0410 H     1 <1>   0.0800 
 40 H        3.7030    -0.2020     0.3610 H     1 <1>   0.0800 
 41 H        5.0690    -0.3430     1.4390 H     1 <1>   0.0800 
 42 H        7.6990     0.4680    -0.5270 H     1 <1>   0.0800 
 43 H        6.6700     1.2970    -1.6760 H     1 <1>   0.0800 
 44 H        5.1040    -0.3120    -1.5370 H     1 <1>   0.0800 
 45 H        6.1120    -1.2320    -0.4380 H     1 <1>   0.0800 
@<TRIPOS>BOND
  1   1   2  1   
  2   2   3  ar  
  3   2   4  ar  
  4   3   5  ar  
  5   3   6  1   
  6   4   7  ar  
  7   4  21  1   
  8   5   8  ar  
  9   5  22  1   
 10   6   9  1   
 11   6  23  1   
 12   6  24  1   
 13   7   8  ar  
 14   7  10  1   
 15   8  11  1   
 16   9  12  1   
 17   9  25  1   
 18   9  26  1   
 19  10  13  1   
 20  11  14  1   
 21  12  15  1   
 22  12  16  1   
 23  12  27  1   
 24  13  17  1   
 25  13  18  1   
 26  13  28  1   
 27  14  29  1   
 28  14  30  1   
 29  14  31  1   
 30  15  32  1   
 31  15  33  1   
 32  15  34  1   
 33  16  35  1   
 34  16  36  1   
 35  16  37  1   
 36  17  19  1   
 37  17  38  1   
 38  17  39  1   
 39  18  20  1   
 40  18  40  1   
 41  18  41  1   
 42  19  20  1   
 43  19  42  1   
 44  19  43  1   
 45  20  44  1   
 46  20  45  1   
@<TRIPOS>SUBSTRUCTURE
  1 ****   7 GROUP 4 **** **** 0

# MOE 2024.06 (io_trps.svl 2023.06)
