@<TRIPOS>MOLECULE
NONAME
49 50 1 0 0 
SMALL
USER_CHARGES


@<TRIPOS>ATOM
  1 O       -3.1670     2.6680     1.2560 O.2   1 <1>  -0.5700 
  2 C       -2.9170     1.7040     0.5650 C.2   1 <1>   0.5690 
  3 N       -3.7530     1.4270    -0.4990 N.am  1 <1>  -0.6600 
  4 C       -1.6720     0.8470     0.9720 C.3   1 <1>   0.0610 
  5 C       -3.3960     0.6400    -1.7140 C.3   1 <1>   0.2200 
  6 C       -5.1340     2.0290    -0.4690 C.3   1 <1>   0.3200 
  7 C       -1.9760    -0.6690     0.9950 C.3   1 <1>  -0.2400 
  8 C       -1.2300     1.1930     2.4160 C.3   1 <1>  -0.2400 
  9 C       -0.4530     1.1410     0.0740 C.3   1 <1>  -0.2400 
 10 C       -3.2610     1.5680    -2.9210 C.3   1 <1>  -0.2400 
 11 C       -4.4060    -0.4800    -1.9730 C.3   1 <1>  -0.2400 
 12 C       -6.1250     1.1400     0.2730 C.2   1 <1>   0.2980 
 13 O       -5.8720     0.8100     1.5130 O.3   1 <1>  -0.0190 
 14 N       -7.2030     0.6670    -0.2070 N.2   1 <1>  -0.5650 
 15 N       -6.8710     0.0550     1.8490 N.2   1 <1>  -0.4100 
 16 C       -7.6600    -0.0320     0.8370 C.2   1 <1>   0.4620 
 17 C       -8.9000    -0.7900     0.7920 C.ar  1 <1>   0.0540 
 18 C       -9.6970    -0.8300    -0.3550 C.ar  1 <1>  -0.1500 
 19 C       -9.3470    -1.5140     1.9000 C.ar  1 <1>  -0.1500 
 20 C      -10.8740    -1.5540    -0.3920 C.ar  1 <1>  -0.1500 
 21 C      -10.5230    -2.2410     1.8710 C.ar  1 <1>  -0.1500 
 22 C      -11.2990    -2.2650     0.7170 C.ar  1 <1>   0.0820 
 23 O      -12.4630    -2.9480     0.6000 O.3   1 <1>  -0.3620 
 24 C      -12.9830    -3.7020     1.6720 C.3   1 <1>   0.0400 
 25 H       -2.4430     0.1780    -1.5790 H     1 <1>   0.0800 
 26 H       -5.4960     2.1830    -1.4670 H     1 <1>   0.0800 
 27 H       -5.1170     2.9920     0.0080 H     1 <1>   0.0800 
 28 H       -2.1420    -1.0760     0.0200 H     1 <1>   0.0800 
 29 H       -2.8550    -0.8540     1.5890 H     1 <1>   0.0800 
 30 H       -1.1570    -1.2130     1.4300 H     1 <1>   0.0800 
 31 H       -2.0390     1.0190     3.1040 H     1 <1>   0.0800 
 32 H       -0.9510     2.2290     2.4880 H     1 <1>   0.0800 
 33 H       -0.3880     0.5980     2.7230 H     1 <1>   0.0800 
 34 H       -0.6200     0.8720    -0.9490 H     1 <1>   0.0800 
 35 H        0.4100     0.5990     0.4190 H     1 <1>   0.0800 
 36 H       -0.2250     2.1930     0.1050 H     1 <1>   0.0800 
 37 H       -4.2060     1.9840    -3.2140 H     1 <1>   0.0800 
 38 H       -2.8700     1.0160    -3.7570 H     1 <1>   0.0800 
 39 H       -2.5740     2.3650    -2.6960 H     1 <1>   0.0800 
 40 H       -5.3590    -0.0900    -2.2790 H     1 <1>   0.0800 
 41 H       -4.5320    -1.0780    -1.0880 H     1 <1>   0.0800 
 42 H       -4.0430    -1.1170    -2.7590 H     1 <1>   0.0800 
 43 H       -9.3910    -0.2860    -1.2310 H     1 <1>   0.1500 
 44 H       -8.7600    -1.5070     2.8020 H     1 <1>   0.1500 
 45 H      -11.4740    -1.5730    -1.2840 H     1 <1>   0.1500 
 46 H      -10.8190    -2.7790     2.7510 H     1 <1>   0.1500 
 47 H      -13.9050    -4.1500     1.3480 H     1 <1>   0.0800 
 48 H      -13.1680    -3.0450     2.5030 H     1 <1>   0.0800 
 49 H      -12.2770    -4.4690     1.9350 H     1 <1>   0.0800 
@<TRIPOS>BOND
  1   1   2  2   
  2   2   3  am  
  3   2   4  1   
  4   3   5  1   
  5   3   6  1   
  6   4   7  1   
  7   4   8  1   
  8   4   9  1   
  9   5  10  1   
 10   5  11  1   
 11   5  25  1   
 12   6  12  1   
 13   6  26  1   
 14   6  27  1   
 15   7  28  1   
 16   7  29  1   
 17   7  30  1   
 18   8  31  1   
 19   8  32  1   
 20   8  33  1   
 21   9  34  1   
 22   9  35  1   
 23   9  36  1   
 24  10  37  1   
 25  10  38  1   
 26  10  39  1   
 27  11  40  1   
 28  11  41  1   
 29  11  42  1   
 30  12  13  1   
 31  12  14  2   
 32  13  15  1   
 33  14  16  1   
 34  15  16  2   
 35  16  17  1   
 36  17  18  ar  
 37  17  19  ar  
 38  18  20  ar  
 39  18  43  1   
 40  19  21  ar  
 41  19  44  1   
 42  20  22  ar  
 43  20  45  1   
 44  21  22  ar  
 45  21  46  1   
 46  22  23  1   
 47  23  24  1   
 48  24  47  1   
 49  24  48  1   
 50  24  49  1   
@<TRIPOS>SUBSTRUCTURE
  1 ****  12 GROUP 4 **** **** 0

# MOE 2024.06 (io_trps.svl 2023.06)
