@<TRIPOS>MOLECULE
NONAME
25 25 1 0 0 
SMALL
USER_CHARGES


@<TRIPOS>ATOM
  1 O        1.5730    -2.3420    -0.9870 O.2   1 <1>  -0.5700 
  2 C        1.6970    -1.3410    -0.3320 C.2   1 <1>   0.5690 
  3 N        0.8500    -1.1010     0.6860 N.am  1 <1>  -0.8000 
  4 C        2.8280    -0.3660    -0.6510 C.3   1 <1>  -0.0190 
  5 C        4.0700    -0.7330     0.1810 C.3   1 <1>  -0.0170 
  6 C        2.4190     1.1120    -0.4670 C.3   1 <1>  -0.2400 
  7 C        5.2820     0.1170    -0.1760 C.ar  1 <1>  -0.1440 
  8 C        5.9830    -0.1320    -1.3460 C.ar  1 <1>  -0.1500 
  9 C        5.6960     1.1440     0.6590 C.ar  1 <1>  -0.1500 
 10 C        7.0840     0.6390    -1.6800 C.ar  1 <1>  -0.1500 
 11 C        6.7960     1.9150     0.3260 C.ar  1 <1>  -0.1500 
 12 C        7.4910     1.6630    -0.8440 C.ar  1 <1>  -0.1500 
 13 H        0.0990    -1.7650     0.8750 H     1 <1>   0.3700 
 14 H        0.8790    -0.2600     1.2600 H     1 <1>   0.3700 
 15 H        3.0720    -0.5060    -1.6900 H     1 <1>   0.0800 
 16 H        4.3130    -1.7680     0.0090 H     1 <1>   0.0800 
 17 H        3.8470    -0.6290     1.2280 H     1 <1>   0.0800 
 18 H        2.2600     1.3420     0.5710 H     1 <1>   0.0800 
 19 H        1.5150     1.3150    -1.0130 H     1 <1>   0.0800 
 20 H        3.1900     1.7610    -0.8450 H     1 <1>   0.0800 
 21 H        5.6740    -0.9270    -2.0020 H     1 <1>   0.1500 
 22 H        5.1640     1.3500     1.5710 H     1 <1>   0.1500 
 23 H        7.6230     0.4400    -2.5890 H     1 <1>   0.1500 
 24 H        7.1130     2.7110     0.9780 H     1 <1>   0.1500 
 25 H        8.3460     2.2620    -1.1030 H     1 <1>   0.1500 
@<TRIPOS>BOND
  1   1   2  2   
  2   2   3  am  
  3   2   4  1   
  4   3  13  1   
  5   3  14  1   
  6   4   5  1   
  7   4   6  1   
  8   4  15  1   
  9   5   7  1   
 10   5  16  1   
 11   5  17  1   
 12   6  18  1   
 13   6  19  1   
 14   6  20  1   
 15   7   8  ar  
 16   7   9  ar  
 17   8  10  ar  
 18   8  21  1   
 19   9  11  ar  
 20   9  22  1   
 21  10  12  ar  
 22  10  23  1   
 23  11  12  ar  
 24  11  24  1   
 25  12  25  1   
@<TRIPOS>SUBSTRUCTURE
  1 ****   7 GROUP 4 **** **** 0

# MOE 2024.06 (io_trps.svl 2023.06)
