@<TRIPOS>MOLECULE
NONAME
45 47 1 0 0 
SMALL
USER_CHARGES


@<TRIPOS>ATOM
  1 S       -0.1280    -0.3810     0.8020 S.3   1 <1>  -0.0800 
  2 C        0.1150     1.3190     0.3800 C.2   1 <1>   0.1040 
  3 C       -1.8400    -0.2240     0.5010 C.2   1 <1>  -0.1400 
  4 N        1.3780     1.8910     0.4140 N.am  1 <1>  -0.4940 
  5 C       -1.0680     1.9240     0.0340 C.2   1 <1>  -0.0860 
  6 C       -2.1680     0.9980     0.1200 C.2   1 <1>  -0.1810 
  7 C       -2.9430    -1.2270     0.6080 C.3   1 <1>   0.0200 
  8 C        2.6140     1.3930     0.7460 C.2   1 <1>   0.5690 
  9 C       -1.1800     3.3000    -0.3620 C.2   1 <1>   0.8060 
 10 C       -3.6540     1.0810    -0.1260 C.3   1 <1>   0.0210 
 11 C       -4.1560    -0.3580     0.1870 C.3   1 <1>  -0.1600 
 12 O        2.8160     0.2690     1.1360 O.2   1 <1>  -0.5700 
 13 C        3.8420     2.3050     0.6010 C.3   1 <1>   0.4040 
 14 O       -0.2080     4.0370    -0.4350 O.2   1 <1>  -0.5700 
 15 O       -2.3870     3.7940    -0.6630 O.3   1 <1>  -0.4300 
 16 N        5.1320     1.5380     0.4170 N.4   1 <1>  -0.9590 
 17 C       -2.5680     5.1390    -1.0590 C.3   1 <1>   0.0400 
 18 C        6.3410     2.3760     0.6470 C.3   1 <1>   0.3430 
 19 C        5.1630     0.8160    -0.8910 C.3   1 <1>   0.3430 
 20 C        7.5920     1.4960     0.6080 C.3   1 <1>  -0.1600 
 21 C        6.3980    -0.0830    -0.9520 C.3   1 <1>  -0.1600 
 22 C        7.6920     0.7030    -0.7020 C.3   1 <1>  -0.1600 
 23 H        1.3380     2.8800     0.1360 H     1 <1>   0.3700 
 24 H       -3.0370    -1.5840     1.6180 H     1 <1>   0.0800 
 25 H       -2.7810    -2.0460    -0.0710 H     1 <1>   0.0800 
 26 H       -3.8530     1.3480    -1.1500 H     1 <1>   0.0800 
 27 H       -4.1060     1.8010     0.5330 H     1 <1>   0.0800 
 28 H       -4.8790    -0.3300     0.9830 H     1 <1>   0.0800 
 29 H       -4.6220    -0.7810    -0.6860 H     1 <1>   0.0800 
 30 H        3.9090     2.9010     1.4940 H     1 <1>   0.0800 
 31 H        3.6920     2.9670    -0.2350 H     1 <1>   0.0800 
 32 H        5.1050     0.7910     1.1330 H     1 <1>   0.4500 
 33 H       -3.6150     5.3010    -1.2450 H     1 <1>   0.0800 
 34 H       -2.0020     5.3190    -1.9570 H     1 <1>   0.0800 
 35 H       -2.2290     5.7860    -0.2690 H     1 <1>   0.0800 
 36 H        6.2780     2.8640     1.6060 H     1 <1>   0.0800 
 37 H        6.4120     3.1330    -0.1180 H     1 <1>   0.0800 
 38 H        5.1940     1.5250    -1.7020 H     1 <1>   0.0800 
 39 H        4.2770     0.2080    -1.0000 H     1 <1>   0.0800 
 40 H        7.5780     0.8190     1.4450 H     1 <1>   0.0800 
 41 H        8.4640     2.1180     0.7140 H     1 <1>   0.0800 
 42 H        6.4460    -0.5500    -1.9210 H     1 <1>   0.0800 
 43 H        6.3000    -0.8700    -0.2230 H     1 <1>   0.0800 
 44 H        8.5290     0.0250    -0.6570 H     1 <1>   0.0800 
 45 H        7.8650     1.3810    -1.5220 H     1 <1>   0.0800 
@<TRIPOS>BOND
  1   1   2  1   
  2   1   3  1   
  3   2   4  1   
  4   2   5  2   
  5   3   6  2   
  6   3   7  1   
  7   4   8  am  
  8   4  23  1   
  9   5   6  1   
 10   5   9  1   
 11   6  10  1   
 12   7  11  1   
 13   7  24  1   
 14   7  25  1   
 15   8  12  2   
 16   8  13  1   
 17   9  14  2   
 18   9  15  1   
 19  10  11  1   
 20  10  26  1   
 21  10  27  1   
 22  11  28  1   
 23  11  29  1   
 24  13  16  1   
 25  13  30  1   
 26  13  31  1   
 27  15  17  1   
 28  16  18  1   
 29  16  19  1   
 30  16  32  1   
 31  17  33  1   
 32  17  34  1   
 33  17  35  1   
 34  18  20  1   
 35  18  36  1   
 36  18  37  1   
 37  19  21  1   
 38  19  38  1   
 39  19  39  1   
 40  20  22  1   
 41  20  40  1   
 42  20  41  1   
 43  21  22  1   
 44  21  42  1   
 45  21  43  1   
 46  22  44  1   
 47  22  45  1   
@<TRIPOS>SUBSTRUCTURE
  1 ****   4 GROUP 4 **** **** 0

# MOE 2024.06 (io_trps.svl 2023.06)
