@<TRIPOS>MOLECULE
NONAME
53 55 1 0 0 
SMALL
USER_CHARGES


@<TRIPOS>ATOM
  1 O        0.3130    -3.0070     2.8050 O.2   1 <1>  -0.5700 
  2 C       -0.3100    -2.5610     1.8720 C.2   1 <1>   0.5690 
  3 N        0.2130    -1.7690     0.8900 N.am  1 <1>  -0.5470 
  4 C       -1.8010    -2.8840     1.7500 C.3   1 <1>   0.1710 
  5 C        1.4920    -1.2480     0.6450 C.ar  1 <1>   0.1170 
  6 N       -2.5600    -1.9000     0.9210 N.3   1 <1>  -0.8100 
  7 C        1.6430    -0.3190    -0.3770 C.ar  1 <1>  -0.1500 
  8 C        2.6190    -1.6150     1.3690 C.ar  1 <1>  -0.1500 
  9 C       -3.8750    -2.4520     0.5170 C.3   1 <1>   0.1100 
 10 C       -2.7700    -0.6290     1.6660 C.3   1 <1>   0.1100 
 11 C        2.8750     0.2390    -0.6770 C.ar  1 <1>  -0.1430 
 12 C        3.8530    -1.0650     1.0790 C.ar  1 <1>  -0.1500 
 13 C       -4.6970    -1.4490    -0.3170 C.3   1 <1>   0.2090 
 14 C       -3.5770     0.4000     0.8510 C.3   1 <1>   0.2090 
 15 C        3.9940    -0.1370     0.0590 C.ar  1 <1>  -0.1430 
 16 C        2.9750     1.2530    -1.8080 C.3   1 <1>  -0.0970 
 17 N       -4.8880    -0.1720     0.4290 N.pl3 1 <1>  -0.8380 
 18 C        5.3710     0.4440    -0.2270 C.3   1 <1>  -0.0970 
 19 C       -5.7850     0.7370    -0.1470 C.ar  1 <1>   0.1000 
 20 C       -5.5820     1.3880    -1.3790 C.ar  1 <1>   0.0830 
 21 C       -6.9490     1.0010     0.5600 C.ar  1 <1>  -0.1500 
 22 O       -4.4320     1.1250    -2.0770 O.3   1 <1>  -0.3630 
 23 C       -6.5440     2.2750    -1.8540 C.ar  1 <1>  -0.1500 
 24 C       -7.9000     1.8820     0.0810 C.ar  1 <1>  -0.1500 
 25 C       -4.2020     1.6780    -3.3530 C.3   1 <1>   0.0400 
 26 C       -7.6980     2.5210    -1.1280 C.ar  1 <1>  -0.1500 
 27 H       -0.5240    -1.4660     0.2460 H     1 <1>   0.3700 
 28 H       -2.2280    -2.9440     2.7350 H     1 <1>   0.0800 
 29 H       -1.8730    -3.8570     1.2990 H     1 <1>   0.0800 
 30 H        0.7770    -0.0310    -0.9430 H     1 <1>   0.1500 
 31 H        2.5400    -2.3330     2.1630 H     1 <1>   0.1500 
 32 H       -4.4450    -2.7170     1.3900 H     1 <1>   0.0800 
 33 H       -3.7230    -3.3410    -0.0690 H     1 <1>   0.0800 
 34 H       -1.8200    -0.1930     1.9210 H     1 <1>   0.0800 
 35 H       -3.3020    -0.8250     2.5810 H     1 <1>   0.0800 
 36 H        4.7070    -1.3690     1.6580 H     1 <1>   0.1500 
 37 H       -5.6600    -1.8720    -0.5440 H     1 <1>   0.0800 
 38 H       -4.1860    -1.2580    -1.2440 H     1 <1>   0.0800 
 39 H       -3.0100     0.6910    -0.0150 H     1 <1>   0.0800 
 40 H       -3.7520     1.2770     1.4480 H     1 <1>   0.0800 
 41 H        2.0180     1.4140    -2.2690 H     1 <1>   0.0800 
 42 H        3.6560     0.8980    -2.5610 H     1 <1>   0.0800 
 43 H        3.3300     2.1940    -1.4280 H     1 <1>   0.0800 
 44 H        5.3520     1.5120    -0.1060 H     1 <1>   0.0800 
 45 H        5.6680     0.2080    -1.2330 H     1 <1>   0.0800 
 46 H        6.1070     0.0410     0.4450 H     1 <1>   0.0800 
 47 H       -7.1000     0.5010     1.4990 H     1 <1>   0.1500 
 48 H       -6.4220     2.7900    -2.7870 H     1 <1>   0.1500 
 49 H       -8.7950     2.0700     0.6490 H     1 <1>   0.1500 
 50 H       -3.2600     1.3040    -3.7120 H     1 <1>   0.0800 
 51 H       -4.1600     2.7500    -3.2670 H     1 <1>   0.0800 
 52 H       -4.9930     1.3720    -4.0140 H     1 <1>   0.0800 
 53 H       -8.4360     3.2080    -1.5030 H     1 <1>   0.1500 
@<TRIPOS>BOND
  1   1   2  2   
  2   2   3  am  
  3   2   4  1   
  4   3   5  1   
  5   3  27  1   
  6   4   6  1   
  7   4  28  1   
  8   4  29  1   
  9   5   7  ar  
 10   5   8  ar  
 11   6   9  1   
 12   6  10  1   
 13   7  11  ar  
 14   7  30  1   
 15   8  12  ar  
 16   8  31  1   
 17   9  13  1   
 18   9  32  1   
 19   9  33  1   
 20  10  14  1   
 21  10  34  1   
 22  10  35  1   
 23  11  15  ar  
 24  11  16  1   
 25  12  15  ar  
 26  12  36  1   
 27  13  17  1   
 28  13  37  1   
 29  13  38  1   
 30  14  17  1   
 31  14  39  1   
 32  14  40  1   
 33  15  18  1   
 34  16  41  1   
 35  16  42  1   
 36  16  43  1   
 37  17  19  1   
 38  18  44  1   
 39  18  45  1   
 40  18  46  1   
 41  19  20  ar  
 42  19  21  ar  
 43  20  22  1   
 44  20  23  ar  
 45  21  24  ar  
 46  21  47  1   
 47  22  25  1   
 48  23  26  ar  
 49  23  48  1   
 50  24  26  ar  
 51  24  49  1   
 52  25  50  1   
 53  25  51  1   
 54  25  52  1   
 55  26  53  1   
@<TRIPOS>SUBSTRUCTURE
  1 ****  10 GROUP 4 **** **** 0

# MOE 2024.06 (io_trps.svl 2023.06)
