@<TRIPOS>MOLECULE
NONAME
52 54 1 0 0 
SMALL
USER_CHARGES


@<TRIPOS>ATOM
  1 O       -0.6100     0.0600    -0.0030 O.2   1 <1>  -0.5700 
  2 C       -0.9910    -0.9340    -0.5920 C.2   1 <1>   0.6900 
  3 N       -2.2240    -0.9500    -1.1900 N.am  1 <1>  -0.6600 
  4 N       -0.2120    -2.0480    -0.6880 N.am  1 <1>  -0.5470 
  5 C       -3.0740    -2.1800    -1.2740 C.3   1 <1>   0.1400 
  6 C       -3.0230     0.3080    -1.3250 C.3   1 <1>   0.1400 
  7 C        1.0190    -2.4340    -0.1270 C.ar  1 <1>   0.1170 
  8 C       -4.2160    -2.1320    -0.2430 C.3   1 <1>   0.2090 
  9 C       -4.1540     0.3530    -0.2840 C.3   1 <1>   0.2090 
 10 C        1.6420    -3.5810    -0.6310 C.ar  1 <1>   0.0830 
 11 C        1.6330    -1.7380     0.9080 C.ar  1 <1>  -0.1500 
 12 N       -5.0070    -0.8720    -0.3680 N.pl3 1 <1>  -0.8380 
 13 O        1.0030    -4.2480    -1.6410 O.3   1 <1>  -0.3630 
 14 C        2.8590    -4.0010    -0.1040 C.ar  1 <1>  -0.1500 
 15 C        2.8430    -2.1580     1.4310 C.ar  1 <1>  -0.1500 
 16 C       -6.2050    -0.8380     0.3350 C.ar  1 <1>   0.1000 
 17 C        1.6020    -5.3610    -2.2680 C.3   1 <1>   0.0400 
 18 C        3.4630    -3.2950     0.9230 C.ar  1 <1>   0.0830 
 19 C       -7.4070    -0.9070    -0.3520 C.ar  1 <1>  -0.1500 
 20 C       -6.2320    -0.7400     1.7220 C.ar  1 <1>  -0.1500 
 21 O        4.6510    -3.7770     1.3760 O.3   1 <1>  -0.3630 
 22 C       -8.6170    -0.8790     0.3170 C.ar  1 <1>   0.0830 
 23 C       -7.4350    -0.7110     2.4040 C.ar  1 <1>  -0.1500 
 24 C        5.3530    -3.1160     2.4060 C.3   1 <1>   0.0400 
 25 O       -9.7400    -0.9530    -0.4430 O.3   1 <1>  -0.3630 
 26 C       -8.6300    -0.7800     1.7070 C.ar  1 <1>  -0.1500 
 27 C      -11.0220    -0.9280     0.1430 C.3   1 <1>   0.0400 
 28 H       -0.5170    -2.6880    -1.4170 H     1 <1>   0.3700 
 29 H       -2.4900    -3.0660    -1.1020 H     1 <1>   0.0800 
 30 H       -3.4980    -2.2470    -2.2600 H     1 <1>   0.0800 
 31 H       -3.4530     0.3490    -2.3100 H     1 <1>   0.0800 
 32 H       -2.3920     1.1710    -1.2060 H     1 <1>   0.0800 
 33 H       -3.8020    -2.1990     0.7490 H     1 <1>   0.0800 
 34 H       -4.8690    -2.9750    -0.3900 H     1 <1>   0.0800 
 35 H       -4.7650     1.2230    -0.4550 H     1 <1>   0.0800 
 36 H       -3.7240     0.4320     0.6990 H     1 <1>   0.0800 
 37 H        1.1680    -0.8600     1.3170 H     1 <1>   0.1500 
 38 H        3.3650    -4.8730    -0.4660 H     1 <1>   0.1500 
 39 H        3.2810    -1.5880     2.2270 H     1 <1>   0.1500 
 40 H        0.9470    -5.7000    -3.0500 H     1 <1>   0.0800 
 41 H        1.7360    -6.1420    -1.5400 H     1 <1>   0.0800 
 42 H        2.5460    -5.0600    -2.6880 H     1 <1>   0.0800 
 43 H       -7.3920    -0.9820    -1.4220 H     1 <1>   0.1500 
 44 H       -5.3050    -0.6870     2.2620 H     1 <1>   0.1500 
 45 H       -7.4420    -0.6340     3.4770 H     1 <1>   0.1500 
 46 H        6.2600    -3.6620     2.5950 H     1 <1>   0.0800 
 47 H        4.7430    -3.1030     3.2920 H     1 <1>   0.0800 
 48 H        5.5870    -2.1170     2.0830 H     1 <1>   0.0800 
 49 H       -9.5500    -0.7560     2.2580 H     1 <1>   0.1500 
 50 H      -11.7500    -0.9950    -0.6450 H     1 <1>   0.0800 
 51 H      -11.1450    -0.0010     0.6750 H     1 <1>   0.0800 
 52 H      -11.1200    -1.7700     0.8040 H     1 <1>   0.0800 
@<TRIPOS>BOND
  1   1   2  2   
  2   2   3  am  
  3   2   4  am  
  4   3   5  1   
  5   3   6  1   
  6   4   7  1   
  7   4  28  1   
  8   5   8  1   
  9   5  29  1   
 10   5  30  1   
 11   6   9  1   
 12   6  31  1   
 13   6  32  1   
 14   7  10  ar  
 15   7  11  ar  
 16   8  12  1   
 17   8  33  1   
 18   8  34  1   
 19   9  12  1   
 20   9  35  1   
 21   9  36  1   
 22  10  13  1   
 23  10  14  ar  
 24  11  15  ar  
 25  11  37  1   
 26  12  16  1   
 27  13  17  1   
 28  14  18  ar  
 29  14  38  1   
 30  15  18  ar  
 31  15  39  1   
 32  16  19  ar  
 33  16  20  ar  
 34  17  40  1   
 35  17  41  1   
 36  17  42  1   
 37  18  21  1   
 38  19  22  ar  
 39  19  43  1   
 40  20  23  ar  
 41  20  44  1   
 42  21  24  1   
 43  22  25  1   
 44  22  26  ar  
 45  23  26  ar  
 46  23  45  1   
 47  24  46  1   
 48  24  47  1   
 49  24  48  1   
 50  25  27  1   
 51  26  49  1   
 52  27  50  1   
 53  27  51  1   
 54  27  52  1   
@<TRIPOS>SUBSTRUCTURE
  1 ****   3 GROUP 4 **** **** 0

# MOE 2024.06 (io_trps.svl 2023.06)
