@<TRIPOS>MOLECULE
NONAME
43 44 1 0 0 
SMALL
USER_CHARGES


@<TRIPOS>ATOM
  1 S       -0.6630     0.4640     0.9980 S.3   1 <1>  -0.4600 
  2 C       -1.1180     0.4550    -0.7780 C.3   1 <1>   0.1310 
  3 C       -1.8590    -0.6690     1.7950 C.3   1 <1>   0.1310 
  4 C       -1.6010     1.8190    -1.2560 C.2   1 <1>   0.5690 
  5 C       -3.2990    -0.3210     1.4240 C.2   1 <1>   0.5690 
  6 O       -1.2060     2.2040    -2.3300 O.2   1 <1>  -0.5700 
  7 N       -2.4830     2.5140    -0.4720 N.am  1 <1>  -0.5470 
  8 O       -3.6680     0.8240     1.5090 O.2   1 <1>  -0.5700 
  9 N       -4.1680    -1.2570     0.9740 N.am  1 <1>  -0.7300 
 10 C       -3.1280     3.7490    -0.6380 C.ar  1 <1>   0.1170 
 11 C       -4.0130    -2.7180     0.8800 C.3   1 <1>   0.2200 
 12 C       -2.7750     4.6820    -1.6090 C.ar  1 <1>  -0.1500 
 13 C       -4.1730     4.0610     0.2240 C.ar  1 <1>  -0.1500 
 14 C       -3.5950    -3.0860    -0.5480 C.3   1 <1>  -0.1600 
 15 C       -5.3440    -3.3760     1.2550 C.3   1 <1>  -0.1600 
 16 C       -3.4510     5.8840    -1.7190 C.ar  1 <1>  -0.1500 
 17 C       -4.8520     5.2620     0.1190 C.ar  1 <1>  -0.1500 
 18 C       -3.5230    -4.6100    -0.7280 C.3   1 <1>  -0.1600 
 19 C       -5.2760    -4.9010     1.0820 C.3   1 <1>  -0.1600 
 20 C       -4.4920     6.1760    -0.8550 C.ar  1 <1>  -0.1500 
 21 C       -4.8510    -5.2780    -0.3440 C.3   1 <1>  -0.1600 
 22 H       -1.8820    -0.2830    -0.9290 H     1 <1>   0.0800 
 23 H       -0.2350     0.1740    -1.3210 H     1 <1>   0.0800 
 24 H       -1.7190    -0.5710     2.8560 H     1 <1>   0.0800 
 25 H       -1.5930    -1.6590     1.4820 H     1 <1>   0.0800 
 26 H       -2.7550     2.0240     0.3920 H     1 <1>   0.3700 
 27 H       -5.0940    -0.9080     0.7180 H     1 <1>   0.3700 
 28 H       -3.2590    -3.0550     1.5710 H     1 <1>   0.0800 
 29 H       -1.9670     4.4770    -2.2860 H     1 <1>   0.1500 
 30 H       -4.4590     3.3550     0.9840 H     1 <1>   0.1500 
 31 H       -2.6320    -2.6620    -0.7650 H     1 <1>   0.0800 
 32 H       -4.3090    -2.6850    -1.2460 H     1 <1>   0.0800 
 33 H       -6.1280    -2.9920     0.6250 H     1 <1>   0.0800 
 34 H       -5.5840    -3.1470     2.2780 H     1 <1>   0.0800 
 35 H       -3.1650     6.5910    -2.4780 H     1 <1>   0.1500 
 36 H       -5.6590     5.4840     0.7950 H     1 <1>   0.1500 
 37 H       -2.7340    -5.0090    -0.1130 H     1 <1>   0.0800 
 38 H       -3.2890    -4.8420    -1.7530 H     1 <1>   0.0800 
 39 H       -6.2400    -5.3320     1.2950 H     1 <1>   0.0800 
 40 H       -4.5710    -5.3110     1.7840 H     1 <1>   0.0800 
 41 H       -5.0180     7.1100    -0.9400 H     1 <1>   0.1500 
 42 H       -4.7520    -6.3470    -0.4190 H     1 <1>   0.0800 
 43 H       -5.6170    -4.9710    -1.0360 H     1 <1>   0.0800 
@<TRIPOS>BOND
  1   1   2  1   
  2   1   3  1   
  3   2   4  1   
  4   2  22  1   
  5   2  23  1   
  6   3   5  1   
  7   3  24  1   
  8   3  25  1   
  9   4   6  2   
 10   4   7  am  
 11   5   8  2   
 12   5   9  am  
 13   7  10  1   
 14   7  26  1   
 15   9  11  1   
 16   9  27  1   
 17  10  12  ar  
 18  10  13  ar  
 19  11  14  1   
 20  11  15  1   
 21  11  28  1   
 22  12  16  ar  
 23  12  29  1   
 24  13  17  ar  
 25  13  30  1   
 26  14  18  1   
 27  14  31  1   
 28  14  32  1   
 29  15  19  1   
 30  15  33  1   
 31  15  34  1   
 32  16  20  ar  
 33  16  35  1   
 34  17  20  ar  
 35  17  36  1   
 36  18  21  1   
 37  18  37  1   
 38  18  38  1   
 39  19  21  1   
 40  19  39  1   
 41  19  40  1   
 42  20  41  1   
 43  21  42  1   
 44  21  43  1   
@<TRIPOS>SUBSTRUCTURE
  1 ****   8 GROUP 4 **** **** 0

# MOE 2024.06 (io_trps.svl 2023.06)
