@<TRIPOS>MOLECULE
NONAME
46 47 1 0 0 
SMALL
USER_CHARGES


@<TRIPOS>ATOM
  1 S       -0.3970     0.3560     0.8470 S.o2  1 <1>   1.4470 
  2 O       -1.3200     1.4360     1.1190 O.2   1 <1>  -0.6500 
  3 O        0.0280    -0.5000     1.9360 O.2   1 <1>  -0.6500 
  4 N        1.0130     1.0470     0.2040 N.am  1 <1>  -0.8490 
  5 C       -1.0310    -0.6430    -0.5280 C.ar  1 <1>  -0.0090 
  6 C        2.0740     0.0530     0.0190 C.3   1 <1>   0.1960 
  7 C        1.4700     2.1780     1.0150 C.3   1 <1>   0.1960 
  8 C       -1.3620    -1.9820    -0.3560 C.ar  1 <1>  -0.1500 
  9 C       -1.2000    -0.0890    -1.7920 C.ar  1 <1>  -0.1500 
 10 C        3.2740     0.6800    -0.6940 C.3   1 <1>  -0.1600 
 11 C        2.6550     2.8690     0.3370 C.3   1 <1>  -0.1600 
 12 C       -1.8400    -2.7450    -1.4080 C.ar  1 <1>  -0.1500 
 13 C       -1.6770    -0.8440    -2.8500 C.ar  1 <1>  -0.1500 
 14 C        3.8180     1.8890     0.0850 C.3   1 <1>  -0.0190 
 15 C       -1.9970    -2.1750    -2.6580 C.ar  1 <1>  -0.1500 
 16 C        5.0090     2.5440    -0.6330 C.2   1 <1>   0.5690 
 17 O        4.7760     3.4960    -1.3430 O.2   1 <1>  -0.5700 
 18 N        6.2990     2.0820    -0.4730 N.am  1 <1>  -0.6600 
 19 C        7.4350     2.8760    -1.0240 C.3   1 <1>   0.1400 
 20 C        6.7020     0.8380     0.2430 C.3   1 <1>   0.1400 
 21 C        7.9230     3.8650     0.0320 C.3   1 <1>  -0.2400 
 22 C        7.0700    -0.2530    -0.7630 C.3   1 <1>  -0.2400 
 23 H        1.7060    -0.7660    -0.5770 H     1 <1>   0.0800 
 24 H        2.3820    -0.3400     0.9750 H     1 <1>   0.0800 
 25 H        1.7490     1.8350     1.9990 H     1 <1>   0.0800 
 26 H        0.6730     2.8950     1.1220 H     1 <1>   0.0800 
 27 H       -1.2450    -2.4350     0.6150 H     1 <1>   0.1500 
 28 H       -0.9520     0.9480    -1.9470 H     1 <1>   0.1500 
 29 H        2.9750     0.9900    -1.6810 H     1 <1>   0.0800 
 30 H        4.0410    -0.0630    -0.8030 H     1 <1>   0.0800 
 31 H        2.9960     3.6820     0.9540 H     1 <1>   0.0800 
 32 H        2.3170     3.2890    -0.5950 H     1 <1>   0.0800 
 33 H       -2.0900    -3.7810    -1.2530 H     1 <1>   0.1500 
 34 H       -1.8000    -0.3940    -3.8210 H     1 <1>   0.1500 
 35 H        4.1460     1.5630     1.0530 H     1 <1>   0.0800 
 36 H       -2.3680    -2.7650    -3.4780 H     1 <1>   0.1500 
 37 H        7.1180     3.4140    -1.9020 H     1 <1>   0.0800 
 38 H        8.2410     2.2270    -1.3170 H     1 <1>   0.0800 
 39 H        5.9100     0.4780     0.8720 H     1 <1>   0.0800 
 40 H        7.5460     1.0470     0.8780 H     1 <1>   0.0800 
 41 H        7.1260     4.5350     0.3020 H     1 <1>   0.0800 
 42 H        8.7330     4.4470    -0.3670 H     1 <1>   0.0800 
 43 H        8.2710     3.3480     0.9070 H     1 <1>   0.0800 
 44 H        6.2650    -0.4160    -1.4560 H     1 <1>   0.0800 
 45 H        7.2650    -1.1720    -0.2420 H     1 <1>   0.0800 
 46 H        7.9550     0.0130    -1.3110 H     1 <1>   0.0800 
@<TRIPOS>BOND
  1   1   2  2   
  2   1   3  2   
  3   1   4  am  
  4   1   5  1   
  5   4   6  1   
  6   4   7  1   
  7   5   8  ar  
  8   5   9  ar  
  9   6  10  1   
 10   6  23  1   
 11   6  24  1   
 12   7  11  1   
 13   7  25  1   
 14   7  26  1   
 15   8  12  ar  
 16   8  27  1   
 17   9  13  ar  
 18   9  28  1   
 19  10  14  1   
 20  10  29  1   
 21  10  30  1   
 22  11  14  1   
 23  11  31  1   
 24  11  32  1   
 25  12  15  ar  
 26  12  33  1   
 27  13  15  ar  
 28  13  34  1   
 29  14  16  1   
 30  14  35  1   
 31  15  36  1   
 32  16  17  2   
 33  16  18  am  
 34  18  19  1   
 35  18  20  1   
 36  19  21  1   
 37  19  37  1   
 38  19  38  1   
 39  20  22  1   
 40  20  39  1   
 41  20  40  1   
 42  21  41  1   
 43  21  42  1   
 44  21  43  1   
 45  22  44  1   
 46  22  45  1   
 47  22  46  1   
@<TRIPOS>SUBSTRUCTURE
  1 ****   6 GROUP 4 **** **** 0

# MOE 2024.06 (io_trps.svl 2023.06)
