@<TRIPOS>MOLECULE
NONAME
43 47 1 0 0 
SMALL
USER_CHARGES


@<TRIPOS>ATOM
  1 O       -0.5650     0.9690     0.8800 O.2   1 <1>  -0.5700 
  2 C       -0.0260     2.0330     0.6930 C.2   1 <1>   0.5690 
  3 N       -0.6070     3.1400     0.1280 N.am  1 <1>  -0.1840 
  4 C        1.4120     2.2860     1.0880 C.3   1 <1>  -0.0190 
  5 C       -1.9250     3.1600    -0.3870 C.2   1 <1>   0.2500 
  6 C        0.2960     4.1790     0.1070 C.2   1 <1>   0.5690 
  7 C        1.6330     3.7650     0.6850 C.3   1 <1>  -0.0190 
  8 C        2.4470     1.5270     0.2290 C.3   1 <1>   0.0580 
  9 N       -2.7870     2.1490    -0.2360 N.pl3 1 <1>   0.0330 
 10 N       -2.4750     4.1160    -1.0670 N.2   1 <1>  -0.3380 
 11 O        0.1220     5.3020    -0.2880 O.2   1 <1>  -0.5700 
 12 C        2.7700     3.6830    -0.3550 C.3   1 <1>   0.0580 
 13 C        3.8000     1.9540     0.7660 C.2   1 <1>  -0.2880 
 14 C        2.4540     2.3600    -1.0530 C.3   1 <1>  -0.1600 
 15 C       -3.8880     2.5590    -0.8670 C.2   1 <1>   0.0060 
 16 N       -3.7210     3.7300    -1.3680 N.2   1 <1>  -0.3380 
 17 C        3.9910     3.2250     0.4220 C.2   1 <1>  -0.2880 
 18 C       -5.1630     1.7430    -0.9680 C.3   1 <1>   0.0200 
 19 C       -6.0760     2.0110     0.2320 C.3   1 <1>  -0.0170 
 20 C       -7.3350     1.1650     0.1390 C.ar  1 <1>  -0.1430 
 21 C       -7.4070    -0.0640     0.7760 C.ar  1 <1>  -0.1500 
 22 C       -8.4240     1.6170    -0.5900 C.ar  1 <1>  -0.1500 
 23 C       -8.5540    -0.8330     0.6850 C.ar  1 <1>  -0.1500 
 24 C       -9.5720     0.8490    -0.6830 C.ar  1 <1>  -0.1500 
 25 C       -9.6370    -0.3780    -0.0460 C.ar  1 <1>  -0.1500 
 26 H        1.5560     2.1170     2.1410 H     1 <1>   0.0800 
 27 H        1.8930     4.3890     1.5210 H     1 <1>   0.0800 
 28 H        2.3040     0.4680     0.1000 H     1 <1>   0.0800 
 29 H       -2.5890     1.2650     0.2420 H     1 <1>   0.2700 
 30 H        2.9110     4.5330    -1.0010 H     1 <1>   0.0800 
 31 H        4.4140     1.2710     1.3310 H     1 <1>   0.1500 
 32 H        3.2450     2.0620    -1.7210 H     1 <1>   0.0800 
 33 H        1.5190     2.3590    -1.5870 H     1 <1>   0.0800 
 34 H        4.8070     3.9010     0.6180 H     1 <1>   0.1500 
 35 H       -4.9260     0.6960    -1.0240 H     1 <1>   0.0800 
 36 H       -5.6790     2.0130    -1.8730 H     1 <1>   0.0800 
 37 H       -6.3390     3.0540     0.2540 H     1 <1>   0.0800 
 38 H       -5.5550     1.7880     1.1460 H     1 <1>   0.0800 
 39 H       -6.5720    -0.4300     1.3480 H     1 <1>   0.1500 
 40 H       -8.3830     2.5700    -1.0900 H     1 <1>   0.1500 
 41 H       -8.6040    -1.7860     1.1810 H     1 <1>   0.1500 
 42 H      -10.4130     1.2060    -1.2510 H     1 <1>   0.1500 
 43 H      -10.5290    -0.9750    -0.1170 H     1 <1>   0.1500 
@<TRIPOS>BOND
  1   1   2  2   
  2   2   3  am  
  3   2   4  1   
  4   3   5  1   
  5   3   6  am  
  6   4   7  1   
  7   4   8  1   
  8   4  26  1   
  9   5   9  1   
 10   5  10  2   
 11   6   7  1   
 12   6  11  2   
 13   7  12  1   
 14   7  27  1   
 15   8  13  1   
 16   8  14  1   
 17   8  28  1   
 18   9  15  1   
 19   9  29  1   
 20  10  16  1   
 21  12  14  1   
 22  12  17  1   
 23  12  30  1   
 24  13  17  2   
 25  13  31  1   
 26  14  32  1   
 27  14  33  1   
 28  15  16  2   
 29  15  18  1   
 30  17  34  1   
 31  18  19  1   
 32  18  35  1   
 33  18  36  1   
 34  19  20  1   
 35  19  37  1   
 36  19  38  1   
 37  20  21  ar  
 38  20  22  ar  
 39  21  23  ar  
 40  21  39  1   
 41  22  24  ar  
 42  22  40  1   
 43  23  25  ar  
 44  23  41  1   
 45  24  25  ar  
 46  24  42  1   
 47  25  43  1   
@<TRIPOS>SUBSTRUCTURE
  1 ****   9 GROUP 4 **** **** 0

# MOE 2024.06 (io_trps.svl 2023.06)
