@<TRIPOS>MOLECULE
NONAME
39 40 1 0 0 
SMALL
USER_CHARGES


@<TRIPOS>ATOM
  1 N        0.1890     0.2380     0.2280 N.4   1 <1>  -0.9590 
  2 C        0.0150     1.6180     0.7950 C.3   1 <1>   0.3430 
  3 C       -0.9310    -0.6480     0.6870 C.3   1 <1>   0.3430 
  4 C        1.5430    -0.3560     0.4510 C.3   1 <1>   0.3430 
  5 C       -1.3600     2.2110     0.3970 C.3   1 <1>   0.1100 
  6 C       -2.3100    -0.0340     0.3330 C.3   1 <1>   0.1100 
  7 C        2.5110    -0.1040    -0.7190 C.3   1 <1>   0.0640 
  8 N       -2.1810     1.2560    -0.3840 N.3   1 <1>  -0.8100 
  9 C        3.8320    -0.7910    -0.3920 C.ar  1 <1>  -0.1440 
 10 C        2.7470     1.3790    -1.0490 C.3   1 <1>  -0.2400 
 11 C       -3.4970     1.8220    -0.7110 C.3   1 <1>   0.0300 
 12 C        4.2530    -1.8770    -1.1480 C.ar  1 <1>  -0.1500 
 13 C        4.6260    -0.3570     0.6620 C.ar  1 <1>  -0.1500 
 14 C        5.4410    -2.5210    -0.8520 C.ar  1 <1>  -0.1500 
 15 C        5.8140    -1.0010     0.9580 C.ar  1 <1>  -0.1500 
 16 C        6.2230    -2.0850     0.2020 C.ar  1 <1>  -0.1500 
 17 H        0.0030     0.3580    -0.7810 H     1 <1>   0.4500 
 18 H        0.7920     2.2710     0.4360 H     1 <1>   0.0800 
 19 H        0.0870     1.5840     1.8700 H     1 <1>   0.0800 
 20 H       -0.8730    -0.7970     1.7530 H     1 <1>   0.0800 
 21 H       -0.8510    -1.6140     0.2160 H     1 <1>   0.0800 
 22 H        1.4500    -1.4240     0.5700 H     1 <1>   0.0800 
 23 H        1.9690     0.0340     1.3600 H     1 <1>   0.0800 
 24 H       -1.1980     3.0990    -0.1900 H     1 <1>   0.0800 
 25 H       -1.8880     2.5060     1.2890 H     1 <1>   0.0800 
 26 H       -2.8770     0.1040     1.2380 H     1 <1>   0.0800 
 27 H       -2.8520    -0.7310    -0.2840 H     1 <1>   0.0800 
 28 H        2.0980    -0.5750    -1.5940 H     1 <1>   0.0800 
 29 H        3.0630     1.9280    -0.1800 H     1 <1>   0.0800 
 30 H        1.8570     1.8310    -1.4490 H     1 <1>   0.0800 
 31 H        3.5190     1.4620    -1.7950 H     1 <1>   0.0800 
 32 H       -3.3760     2.7350    -1.2700 H     1 <1>   0.0800 
 33 H       -4.0570     2.0320     0.1840 H     1 <1>   0.0800 
 34 H       -4.0550     1.1300    -1.3190 H     1 <1>   0.0800 
 35 H        3.6660    -2.2340    -1.9760 H     1 <1>   0.1500 
 36 H        4.3380     0.4860     1.2640 H     1 <1>   0.1500 
 37 H        5.7620    -3.3620    -1.4430 H     1 <1>   0.1500 
 38 H        6.4270    -0.6600     1.7750 H     1 <1>   0.1500 
 39 H        7.1480    -2.5850     0.4310 H     1 <1>   0.1500 
@<TRIPOS>BOND
  1   1   2  1   
  2   1   3  1   
  3   1   4  1   
  4   1  17  1   
  5   2   5  1   
  6   2  18  1   
  7   2  19  1   
  8   3   6  1   
  9   3  20  1   
 10   3  21  1   
 11   4   7  1   
 12   4  22  1   
 13   4  23  1   
 14   5   8  1   
 15   5  24  1   
 16   5  25  1   
 17   6   8  1   
 18   6  26  1   
 19   6  27  1   
 20   7   9  1   
 21   7  10  1   
 22   7  28  1   
 23   8  11  1   
 24   9  12  ar  
 25   9  13  ar  
 26  10  29  1   
 27  10  30  1   
 28  10  31  1   
 29  11  32  1   
 30  11  33  1   
 31  11  34  1   
 32  12  14  ar  
 33  12  35  1   
 34  13  15  ar  
 35  13  36  1   
 36  14  16  ar  
 37  14  37  1   
 38  15  16  ar  
 39  15  38  1   
 40  16  39  1   
@<TRIPOS>SUBSTRUCTURE
  1 ****   4 GROUP 4 **** **** 0

# MOE 2024.06 (io_trps.svl 2023.06)
