@<TRIPOS>MOLECULE
NONAME
42 43 1 0 0 
SMALL
USER_CHARGES


@<TRIPOS>ATOM
  1 O        1.9320    -5.7470     0.3960 O.2   1 <1>  -0.5700 
  2 C        1.8790    -4.5450     0.2370 C.2   1 <1>   0.6340 
  3 O        0.6800    -3.9580     0.1700 O.3   1 <1>  -0.4300 
  4 C        3.0560    -3.7060     0.1130 C.ar  1 <1>   0.0860 
  5 C       -0.5160    -4.7020     0.3070 C.3   1 <1>   0.1200 
  6 C        4.3370    -4.2580     0.1630 C.ar  1 <1>  -0.1500 
  7 C        2.9650    -2.3220    -0.0580 C.ar  1 <1>  -0.1500 
  8 C       -1.7020    -3.7570     0.1070 C.3   1 <1>   0.1100 
  9 C        5.4810    -3.4770     0.0470 C.ar  1 <1>   0.0830 
 10 C        4.0910    -1.5290    -0.1760 C.ar  1 <1>  -0.1500 
 11 N       -2.9840    -4.4430     0.3400 N.3   1 <1>  -0.8100 
 12 O        6.7370    -4.0080     0.0940 O.3   1 <1>  -0.3630 
 13 C        5.3600    -2.0960    -0.1250 C.ar  1 <1>   0.0830 
 14 C       -3.3460    -5.4070    -0.7150 C.3   1 <1>   0.1100 
 15 C       -4.0850    -3.4830     0.5930 C.3   1 <1>   0.1100 
 16 C        6.9590    -5.3900     0.2650 C.3   1 <1>   0.0400 
 17 O        6.4950    -1.3570    -0.2360 O.3   1 <1>  -0.3630 
 18 C       -4.6660    -6.1390    -0.3780 C.3   1 <1>   0.1200 
 19 C       -5.4660    -3.9560     0.0850 C.3   1 <1>   0.1200 
 20 C        6.4740     0.0420    -0.4110 C.3   1 <1>   0.0400 
 21 O       -5.6260    -5.3320     0.2590 O.3   1 <1>  -0.5600 
 22 H       -0.5370    -5.1280     1.2950 H     1 <1>   0.0800 
 23 H       -0.5110    -5.4820    -0.4320 H     1 <1>   0.0800 
 24 H        4.4130    -5.3210     0.2950 H     1 <1>   0.1500 
 25 H        1.9960    -1.8560    -0.1010 H     1 <1>   0.1500 
 26 H       -1.6830    -3.3470    -0.8880 H     1 <1>   0.0800 
 27 H       -1.6060    -2.9540     0.8170 H     1 <1>   0.0800 
 28 H        3.9610    -0.4710    -0.3060 H     1 <1>   0.1500 
 29 H       -2.5710    -6.1440    -0.8320 H     1 <1>   0.0800 
 30 H       -3.4560    -4.8930    -1.6540 H     1 <1>   0.0800 
 31 H       -3.8690    -2.5360     0.1300 H     1 <1>   0.0800 
 32 H       -4.1480    -3.3160     1.6540 H     1 <1>   0.0800 
 33 H        8.0210    -5.5570     0.2700 H     1 <1>   0.0800 
 34 H        6.5100    -5.9210    -0.5550 H     1 <1>   0.0800 
 35 H        6.5370    -5.6980     1.2050 H     1 <1>   0.0800 
 36 H       -4.4590    -6.9590     0.2860 H     1 <1>   0.0800 
 37 H       -5.1070    -6.5350    -1.2750 H     1 <1>   0.0800 
 38 H       -5.5790    -3.7350    -0.9620 H     1 <1>   0.0800 
 39 H       -6.2520    -3.4590     0.6250 H     1 <1>   0.0800 
 40 H        7.4920     0.3840    -0.4700 H     1 <1>   0.0800 
 41 H        5.9860     0.4920     0.4350 H     1 <1>   0.0800 
 42 H        5.9580     0.2710    -1.3260 H     1 <1>   0.0800 
@<TRIPOS>BOND
  1   1   2  2   
  2   2   3  1   
  3   2   4  1   
  4   3   5  1   
  5   4   6  ar  
  6   4   7  ar  
  7   5   8  1   
  8   5  22  1   
  9   5  23  1   
 10   6   9  ar  
 11   6  24  1   
 12   7  10  ar  
 13   7  25  1   
 14   8  11  1   
 15   8  26  1   
 16   8  27  1   
 17   9  12  1   
 18   9  13  ar  
 19  10  13  ar  
 20  10  28  1   
 21  11  14  1   
 22  11  15  1   
 23  12  16  1   
 24  13  17  1   
 25  14  18  1   
 26  14  29  1   
 27  14  30  1   
 28  15  19  1   
 29  15  31  1   
 30  15  32  1   
 31  16  33  1   
 32  16  34  1   
 33  16  35  1   
 34  17  20  1   
 35  18  21  1   
 36  18  36  1   
 37  18  37  1   
 38  19  21  1   
 39  19  38  1   
 40  19  39  1   
 41  20  40  1   
 42  20  41  1   
 43  20  42  1   
@<TRIPOS>SUBSTRUCTURE
  1 ****   3 GROUP 4 **** **** 0

# MOE 2024.06 (io_trps.svl 2023.06)
