@<TRIPOS>MOLECULE
NONAME
52 54 1 0 0 
SMALL
USER_CHARGES


@<TRIPOS>ATOM
  1 O        0.5680    -1.2000    -2.0570 O.3   1 <1>  -0.3630 
  2 C        0.2160    -2.1730    -1.1690 C.ar  1 <1>   0.0830 
  3 C        1.8740    -0.6730    -2.1340 C.3   1 <1>   0.0400 
  4 C        0.9720    -2.6530    -0.0890 C.ar  1 <1>   0.0830 
  5 C       -1.0380    -2.7140    -1.3950 C.ar  1 <1>  -0.1500 
  6 O        2.1980    -2.1840     0.2350 O.3   1 <1>  -0.5330 
  7 C        0.4660    -3.6630     0.7260 C.ar  1 <1>   0.0830 
  8 C       -1.5610    -3.7020    -0.5750 C.ar  1 <1>  -0.1430 
  9 O        1.2590    -4.0950     1.7500 O.3   1 <1>  -0.3630 
 10 C       -0.8020    -4.1840     0.4820 C.ar  1 <1>  -0.1500 
 11 C       -2.9570    -4.2300    -0.8380 C.3   1 <1>   0.4860 
 12 C        0.9920    -5.2990     2.4390 C.3   1 <1>   0.0400 
 13 N       -3.9040    -3.5500     0.0870 N.4   1 <1>  -0.9590 
 14 C       -5.2890    -4.1400     0.0040 C.3   1 <1>   0.3430 
 15 C       -3.9430    -2.0550    -0.1400 C.3   1 <1>   0.3430 
 16 C       -6.2810    -3.4690     0.9770 C.3   1 <1>   0.2090 
 17 C       -4.9170    -1.3270     0.8100 C.3   1 <1>   0.2090 
 18 N       -6.2560    -1.9850     0.8470 N.pl3 1 <1>  -0.8380 
 19 C       -7.3050    -1.3860     0.1490 C.ar  1 <1>   0.1000 
 20 C       -8.4000    -0.8490     0.8280 C.ar  1 <1>  -0.1430 
 21 C       -7.2770    -1.3230    -1.2410 C.ar  1 <1>  -0.1500 
 22 C       -9.4360    -0.2680     0.1140 C.ar  1 <1>  -0.1500 
 23 C       -8.4710    -0.8890     2.3480 C.3   1 <1>  -0.0970 
 24 C       -8.3130    -0.7420    -1.9460 C.ar  1 <1>  -0.1500 
 25 C       -9.3960    -0.2130    -1.2680 C.ar  1 <1>  -0.1500 
 26 H        1.9240    -0.0180    -2.9850 H     1 <1>   0.0800 
 27 H        2.5720    -1.4820    -2.2530 H     1 <1>   0.0800 
 28 H        2.0810    -0.1190    -1.2360 H     1 <1>   0.0800 
 29 H       -1.5960    -2.3360    -2.2350 H     1 <1>   0.1500 
 30 H        2.5290    -2.6680     1.0190 H     1 <1>   0.4500 
 31 H       -1.1970    -4.9580     1.1130 H     1 <1>   0.1500 
 32 H       -2.9730    -5.2950    -0.6730 H     1 <1>   0.0800 
 33 H       -3.2340    -4.0400    -1.8630 H     1 <1>   0.0800 
 34 H        1.8160    -5.4920     3.1030 H     1 <1>   0.0800 
 35 H        0.9060    -6.1000     1.7260 H     1 <1>   0.0800 
 36 H        0.0880    -5.1860     3.0090 H     1 <1>   0.0800 
 37 H       -3.5510    -3.6870     1.0420 H     1 <1>   0.4500 
 38 H       -5.2550    -5.1960     0.2170 H     1 <1>   0.0800 
 39 H       -5.6740    -4.0180    -0.9950 H     1 <1>   0.0800 
 40 H       -4.2500    -1.8520    -1.1520 H     1 <1>   0.0800 
 41 H       -2.9590    -1.6350    -0.0070 H     1 <1>   0.0800 
 42 H       -6.0390    -3.7370     1.9900 H     1 <1>   0.0800 
 43 H       -7.2770    -3.8280     0.7750 H     1 <1>   0.0800 
 44 H       -5.0300    -0.3040     0.4910 H     1 <1>   0.0800 
 45 H       -4.5090    -1.3090     1.8050 H     1 <1>   0.0800 
 46 H       -6.4450    -1.7310    -1.7770 H     1 <1>   0.1500 
 47 H      -10.2830     0.1480     0.6300 H     1 <1>   0.1500 
 48 H       -8.5010    -1.9090     2.6850 H     1 <1>   0.0800 
 49 H       -9.3470    -0.3820     2.7100 H     1 <1>   0.0800 
 50 H       -7.6030    -0.4110     2.7650 H     1 <1>   0.0800 
 51 H       -8.2830    -0.6960    -3.0210 H     1 <1>   0.1500 
 52 H      -10.2060     0.2410    -1.8120 H     1 <1>   0.1500 
@<TRIPOS>BOND
  1   1   2  1   
  2   1   3  1   
  3   2   4  ar  
  4   2   5  ar  
  5   3  26  1   
  6   3  27  1   
  7   3  28  1   
  8   4   6  1   
  9   4   7  ar  
 10   5   8  ar  
 11   5  29  1   
 12   6  30  1   
 13   7   9  1   
 14   7  10  ar  
 15   8  10  ar  
 16   8  11  1   
 17   9  12  1   
 18  10  31  1   
 19  11  13  1   
 20  11  32  1   
 21  11  33  1   
 22  12  34  1   
 23  12  35  1   
 24  12  36  1   
 25  13  14  1   
 26  13  15  1   
 27  13  37  1   
 28  14  16  1   
 29  14  38  1   
 30  14  39  1   
 31  15  17  1   
 32  15  40  1   
 33  15  41  1   
 34  16  18  1   
 35  16  42  1   
 36  16  43  1   
 37  17  18  1   
 38  17  44  1   
 39  17  45  1   
 40  18  19  1   
 41  19  20  ar  
 42  19  21  ar  
 43  20  22  ar  
 44  20  23  1   
 45  21  24  ar  
 46  21  46  1   
 47  22  25  ar  
 48  22  47  1   
 49  23  48  1   
 50  23  49  1   
 51  23  50  1   
 52  24  25  ar  
 53  24  51  1   
 54  25  52  1   
@<TRIPOS>SUBSTRUCTURE
  1 ****  15 GROUP 4 **** **** 0

# MOE 2024.06 (io_trps.svl 2023.06)
