@<TRIPOS>MOLECULE
NONAME
35 37 1 0 0 
SMALL
USER_CHARGES


@<TRIPOS>ATOM
  1 S        1.6290     0.0380     0.4880 S.3   1 <1>  -0.0800 
  2 C        2.2780     0.9470    -0.8370 C.2   1 <1>   0.4420 
  3 C        0.0600     0.5550    -0.0220 C.2   1 <1>   0.2930 
  4 N        1.3620     1.5290    -1.5230 N.2   1 <1>  -0.3380 
  5 N        3.6460     0.9270    -0.9800 N.am  1 <1>  -0.4940 
  6 N        0.0980     1.3000    -1.0520 N.2   1 <1>  -0.3380 
  7 C       -1.1350     0.0770     0.7850 C.3   1 <1>  -0.0150 
  8 C        4.4530     1.5530    -1.8840 C.2   1 <1>   0.5690 
  9 C       -2.3720     0.9150     0.8960 C.3   1 <1>  -0.2000 
 10 C       -1.4800     0.7330     2.0870 C.3   1 <1>  -0.2000 
 11 O        4.0480     2.2720    -2.7610 O.2   1 <1>  -0.5700 
 12 C        5.9480     1.3060    -1.7750 C.3   1 <1>   0.0440 
 13 C        6.4700     1.4700    -0.3470 C.ar  1 <1>  -0.1430 
 14 C        6.3400     0.4540     0.5990 C.ar  1 <1>   0.0830 
 15 C        7.0860     2.6600     0.0110 C.ar  1 <1>  -0.1500 
 16 O        5.7070    -0.6880     0.2200 O.3   1 <1>  -0.3630 
 17 C        6.8420     0.6410     1.8860 C.ar  1 <1>  -0.1500 
 18 C        7.5790     2.8400     1.2900 C.ar  1 <1>  -0.1500 
 19 C        5.7370    -1.8480     1.0250 C.3   1 <1>   0.0400 
 20 C        7.4590     1.8300     2.2270 C.ar  1 <1>  -0.1500 
 21 H        4.1580     0.3690    -0.2930 H     1 <1>   0.3700 
 22 H       -1.2720    -0.9870     0.7090 H     1 <1>   0.1000 
 23 H       -3.3290     0.4240     0.8790 H     1 <1>   0.1000 
 24 H       -2.3890     1.8710     0.3980 H     1 <1>   0.1000 
 25 H       -0.8930     1.5730     2.4180 H     1 <1>   0.1000 
 26 H       -1.8210     0.1190     2.9020 H     1 <1>   0.1000 
 27 H        6.4550     1.9910    -2.4290 H     1 <1>   0.0800 
 28 H        6.1590     0.3150    -2.1330 H     1 <1>   0.0800 
 29 H        7.1860     3.4570    -0.7060 H     1 <1>   0.1500 
 30 H        6.7590    -0.1220     2.6360 H     1 <1>   0.1500 
 31 H        8.0570     3.7670     1.5570 H     1 <1>   0.1500 
 32 H        5.2610    -2.6460     0.4820 H     1 <1>   0.0800 
 33 H        5.2000    -1.6580     1.9370 H     1 <1>   0.0800 
 34 H        6.7610    -2.1070     1.2280 H     1 <1>   0.0800 
 35 H        7.8460     1.9720     3.2210 H     1 <1>   0.1500 
@<TRIPOS>BOND
  1   1   2  1   
  2   1   3  1   
  3   2   4  2   
  4   2   5  1   
  5   3   6  2   
  6   3   7  1   
  7   4   6  1   
  8   5   8  am  
  9   5  21  1   
 10   7   9  1   
 11   7  10  1   
 12   7  22  1   
 13   8  11  2   
 14   8  12  1   
 15   9  10  1   
 16   9  23  1   
 17   9  24  1   
 18  10  25  1   
 19  10  26  1   
 20  12  13  1   
 21  12  27  1   
 22  12  28  1   
 23  13  14  ar  
 24  13  15  ar  
 25  14  16  1   
 26  14  17  ar  
 27  15  18  ar  
 28  15  29  1   
 29  16  19  1   
 30  17  20  ar  
 31  17  30  1   
 32  18  20  ar  
 33  18  31  1   
 34  19  32  1   
 35  19  33  1   
 36  19  34  1   
 37  20  35  1   
@<TRIPOS>SUBSTRUCTURE
  1 ****   5 GROUP 4 **** **** 0

# MOE 2024.06 (io_trps.svl 2023.06)
