@<TRIPOS>MOLECULE
NONAME
39 40 1 0 0 
SMALL
USER_CHARGES


@<TRIPOS>ATOM
  1 CL       0.2640    -0.7230    -1.4800 Cl    1 <1>  -0.1770 
  2 C       -0.3240    -2.0790    -0.5450 C.ar  1 <1>   0.1770 
  3 C        0.4870    -2.6800     0.4090 C.ar  1 <1>  -0.1440 
  4 C       -1.6100    -2.5260    -0.7830 C.ar  1 <1>  -0.1500 
  5 C       -0.0160    -3.7570     1.1230 C.ar  1 <1>  -0.1500 
  6 C        1.9100    -2.1950     0.6670 C.3   1 <1>   0.0890 
  7 C       -2.1040    -3.5980    -0.0590 C.ar  1 <1>  -0.1500 
  8 C       -1.3050    -4.2110     0.8920 C.ar  1 <1>  -0.1500 
  9 S        3.1590    -3.1280    -0.2280 S.o2  1 <1>   1.3330 
 10 O        2.9240    -3.0780    -1.6550 O.2   1 <1>  -0.6500 
 11 O        3.3060    -4.4130     0.4220 O.2   1 <1>  -0.6500 
 12 N        4.5760    -2.2390     0.0650 N.am  1 <1>  -0.8490 
 13 C        4.7100    -1.0970    -0.8500 C.3   1 <1>   0.1960 
 14 C        5.7710    -3.0880     0.0210 C.3   1 <1>   0.1960 
 15 C        5.8920    -0.2240    -0.4310 C.3   1 <1>  -0.1600 
 16 C        7.0050    -2.2910     0.4520 C.3   1 <1>  -0.1600 
 17 C        7.2020    -1.0330    -0.4120 C.3   1 <1>  -0.0190 
 18 C        8.4040    -0.2170     0.0600 C.2   1 <1>   0.6590 
 19 O        8.2920     0.8480     0.6110 O.2   1 <1>  -0.5700 
 20 O        9.5920    -0.7610    -0.1800 O.3   1 <1>  -0.4300 
 21 C       10.7920    -0.1200     0.2030 C.3   1 <1>   0.0400 
 22 H       -2.2150    -2.0400    -1.5270 H     1 <1>   0.1500 
 23 H        0.5930    -4.2560     1.8600 H     1 <1>   0.1500 
 24 H        2.1140    -2.2690     1.7170 H     1 <1>   0.0800 
 25 H        1.9870    -1.1580     0.4100 H     1 <1>   0.0800 
 26 H       -3.1040    -3.9550    -0.2360 H     1 <1>   0.1500 
 27 H       -1.6850    -5.0490     1.4510 H     1 <1>   0.1500 
 28 H        3.8120    -0.5030    -0.8320 H     1 <1>   0.0800 
 29 H        4.8550    -1.4490    -1.8600 H     1 <1>   0.0800 
 30 H        5.9040    -3.4810    -0.9740 H     1 <1>   0.0800 
 31 H        5.6550    -3.9200     0.6960 H     1 <1>   0.0800 
 32 H        5.6950     0.1830     0.5460 H     1 <1>   0.0800 
 33 H        5.9870     0.6010    -1.1150 H     1 <1>   0.0800 
 34 H        7.8740    -2.9220     0.3790 H     1 <1>   0.0800 
 35 H        6.8900    -2.0090     1.4850 H     1 <1>   0.0800 
 36 H        7.4130    -1.3470    -1.4190 H     1 <1>   0.0800 
 37 H       11.6200    -0.7400    -0.0900 H     1 <1>   0.0800 
 38 H       10.7880     0.0160     1.2710 H     1 <1>   0.0800 
 39 H       10.8490     0.8350    -0.2910 H     1 <1>   0.0800 
@<TRIPOS>BOND
  1   1   2  1   
  2   2   3  ar  
  3   2   4  ar  
  4   3   5  ar  
  5   3   6  1   
  6   4   7  ar  
  7   4  22  1   
  8   5   8  ar  
  9   5  23  1   
 10   6   9  1   
 11   6  24  1   
 12   6  25  1   
 13   7   8  ar  
 14   7  26  1   
 15   8  27  1   
 16   9  10  2   
 17   9  11  2   
 18   9  12  am  
 19  12  13  1   
 20  12  14  1   
 21  13  15  1   
 22  13  28  1   
 23  13  29  1   
 24  14  16  1   
 25  14  30  1   
 26  14  31  1   
 27  15  17  1   
 28  15  32  1   
 29  15  33  1   
 30  16  17  1   
 31  16  34  1   
 32  16  35  1   
 33  17  18  1   
 34  17  36  1   
 35  18  19  2   
 36  18  20  1   
 37  20  21  1   
 38  21  37  1   
 39  21  38  1   
 40  21  39  1   
@<TRIPOS>SUBSTRUCTURE
  1 ****  12 GROUP 4 **** **** 0

# MOE 2024.06 (io_trps.svl 2023.06)
