@<TRIPOS>MOLECULE
NONAME
38 38 1 0 0 
SMALL
USER_CHARGES


@<TRIPOS>ATOM
  1 O       -0.1930    -0.4870    -0.3710 O.2   1 <1>  -0.5700 
  2 C       -0.9340    -1.3780    -0.0190 C.2   1 <1>   0.5440 
  3 N       -0.3310    -2.5190     0.3910 N.am  1 <1>  -0.8000 
  4 C       -2.3790    -1.2190    -0.0200 C.ar  1 <1>   0.0860 
  5 C       -3.2490    -2.3140    -0.0220 C.ar  1 <1>  -0.1500 
  6 C       -2.9590     0.0510    -0.0210 C.ar  1 <1>  -0.1500 
  7 C       -4.6200    -2.1450    -0.0120 C.ar  1 <1>  -0.1500 
  8 C       -4.3300     0.2300    -0.0120 C.ar  1 <1>  -0.1500 
  9 C       -5.1750    -0.8760    -0.0050 C.ar  1 <1>   0.0830 
 10 O       -6.5240    -0.7960     0.0060 O.3   1 <1>  -0.3630 
 11 C       -7.1940     0.4440     0.0000 C.3   1 <1>   0.1200 
 12 C       -8.6990     0.1740     0.0100 C.3   1 <1>  -0.1600 
 13 C       -9.4980     1.4840     0.0040 C.3   1 <1>  -0.1600 
 14 C      -11.0070     1.2100     0.0140 C.3   1 <1>  -0.1600 
 15 C      -11.8070     2.5180     0.0080 C.3   1 <1>  -0.1600 
 16 C      -13.3150     2.2430     0.0180 C.3   1 <1>  -0.1600 
 17 C      -14.1140     3.5500     0.0120 C.3   1 <1>  -0.2400 
 18 H        0.6890    -2.5500     0.3990 H     1 <1>   0.3700 
 19 H       -0.8190    -3.2910     0.8390 H     1 <1>   0.3700 
 20 H       -2.8500    -3.3110    -0.0390 H     1 <1>   0.1500 
 21 H       -2.3130     0.9130    -0.0280 H     1 <1>   0.1500 
 22 H       -5.2770    -2.9970    -0.0130 H     1 <1>   0.1500 
 23 H       -4.7200     1.2300    -0.0110 H     1 <1>   0.1500 
 24 H       -6.9090     0.9800    -0.8880 H     1 <1>   0.0800 
 25 H       -6.9000     0.9920     0.8790 H     1 <1>   0.0800 
 26 H       -8.9470    -0.3940     0.8900 H     1 <1>   0.0800 
 27 H       -8.9550    -0.4060    -0.8600 H     1 <1>   0.0800 
 28 H       -9.2450     2.0550    -0.8730 H     1 <1>   0.0800 
 29 H       -9.2370     2.0670     0.8710 H     1 <1>   0.0800 
 30 H      -11.2610     0.6390     0.8900 H     1 <1>   0.0800 
 31 H      -11.2700     0.6270    -0.8530 H     1 <1>   0.0800 
 32 H      -11.5540     3.0890    -0.8690 H     1 <1>   0.0800 
 33 H      -11.5460     3.1020     0.8750 H     1 <1>   0.0800 
 34 H      -13.5740     1.6740     0.8940 H     1 <1>   0.0800 
 35 H      -13.5830     1.6620    -0.8490 H     1 <1>   0.0800 
 36 H      -13.8780     4.1380     0.8820 H     1 <1>   0.0800 
 37 H      -15.1680     3.3370     0.0190 H     1 <1>   0.0800 
 38 H      -13.8870     4.1260    -0.8680 H     1 <1>   0.0800 
@<TRIPOS>BOND
  1   1   2  2   
  2   2   3  am  
  3   2   4  1   
  4   3  18  1   
  5   3  19  1   
  6   4   5  ar  
  7   4   6  ar  
  8   5   7  ar  
  9   5  20  1   
 10   6   8  ar  
 11   6  21  1   
 12   7   9  ar  
 13   7  22  1   
 14   8   9  ar  
 15   8  23  1   
 16   9  10  1   
 17  10  11  1   
 18  11  12  1   
 19  11  24  1   
 20  11  25  1   
 21  12  13  1   
 22  12  26  1   
 23  12  27  1   
 24  13  14  1   
 25  13  28  1   
 26  13  29  1   
 27  14  15  1   
 28  14  30  1   
 29  14  31  1   
 30  15  16  1   
 31  15  32  1   
 32  15  33  1   
 33  16  17  1   
 34  16  34  1   
 35  16  35  1   
 36  17  36  1   
 37  17  37  1   
 38  17  38  1   
@<TRIPOS>SUBSTRUCTURE
  1 ****  10 GROUP 4 **** **** 0

# MOE 2024.06 (io_trps.svl 2023.06)
