@<TRIPOS>MOLECULE
NONAME
44 45 1 0 0 
SMALL
USER_CHARGES


@<TRIPOS>ATOM
  1 F        1.1140    -1.3920     1.0240 F     1 <1>  -0.3400 
  2 C       -0.1850    -1.2390     1.2640 C.3   1 <1>   1.0200 
  3 F       -0.4660     0.0360     1.0170 F     1 <1>  -0.3400 
  4 F       -0.3250    -1.3730     2.5790 F     1 <1>  -0.3400 
  5 C       -1.0910    -2.2250     0.4790 C.3   1 <1>   0.4990 
  6 N       -2.5870    -2.0170     0.6960 N.am  1 <1>  -0.7300 
  7 C       -0.6760    -2.0900    -0.9910 C.2   1 <1>   0.5690 
  8 C       -0.6850    -3.6850     0.7110 C.2   1 <1>  -0.0730 
  9 C       -3.5790    -2.7040     0.0630 C.2   1 <1>   0.5440 
 10 O       -0.8380    -1.1160    -1.6850 O.2   1 <1>  -0.5700 
 11 N       -0.0990    -3.2450    -1.4110 N.am  1 <1>  -0.5390 
 12 C       -0.9410    -4.2920     1.9740 C.1   1 <1>   0.4920 
 13 C       -0.1280    -4.1890    -0.4040 C.2   1 <1>  -0.0290 
 14 O       -3.2910    -3.7120    -0.5450 O.2   1 <1>  -0.5700 
 15 C       -4.9470    -2.2400     0.1330 C.ar  1 <1>   0.0860 
 16 N       -1.1300    -4.7590     2.9960 N.1   1 <1>  -0.5570 
 17 C        0.4140    -5.5770    -0.6770 C.3   1 <1>  -0.1020 
 18 C       -5.9870    -3.1300     0.3910 C.ar  1 <1>  -0.1500 
 19 C       -5.2620    -0.8940    -0.0530 C.ar  1 <1>  -0.1500 
 20 C       -7.3040    -2.6990     0.4910 C.ar  1 <1>   0.0830 
 21 C       -6.5710    -0.4380     0.0380 C.ar  1 <1>   0.0830 
 22 O       -8.3370    -3.5530     0.7510 O.3   1 <1>  -0.3630 
 23 C       -7.5930    -1.3450     0.3210 C.ar  1 <1>   0.0830 
 24 O       -6.9070     0.8710    -0.1490 O.3   1 <1>  -0.3630 
 25 C       -8.1190    -4.9190     1.0250 C.3   1 <1>   0.0400 
 26 O       -8.8670    -0.8990     0.4480 O.3   1 <1>  -0.3630 
 27 C       -5.9600     1.8380    -0.5440 C.3   1 <1>   0.0400 
 28 C       -9.6700    -1.0050    -0.7020 C.3   1 <1>   0.0400 
 29 H       -2.8370    -1.1690     1.2110 H     1 <1>   0.3700 
 30 H        0.1740    -3.3890    -2.3870 H     1 <1>   0.3700 
 31 H        1.4510    -5.5230    -0.9530 H     1 <1>   0.0800 
 32 H       -0.1380    -6.0340    -1.4790 H     1 <1>   0.0800 
 33 H        0.3220    -6.2000     0.1960 H     1 <1>   0.0800 
 34 H       -5.7300    -4.1660     0.5100 H     1 <1>   0.1500 
 35 H       -4.4620    -0.2160    -0.2780 H     1 <1>   0.1500 
 36 H       -9.0710    -5.3720     1.2380 H     1 <1>   0.0800 
 37 H       -7.4750    -5.0060     1.8830 H     1 <1>   0.0800 
 38 H       -7.6790    -5.3840     0.1610 H     1 <1>   0.0800 
 39 H       -6.4730     2.7750    -0.6670 H     1 <1>   0.0800 
 40 H       -5.5210     1.5380    -1.4800 H     1 <1>   0.0800 
 41 H       -5.2130     1.9320     0.2240 H     1 <1>   0.0800 
 42 H      -10.6420    -0.6110    -0.4700 H     1 <1>   0.0800 
 43 H       -9.7470    -2.0420    -0.9790 H     1 <1>   0.0800 
 44 H       -9.2170    -0.4340    -1.4930 H     1 <1>   0.0800 
@<TRIPOS>BOND
  1   1   2  1   
  2   2   3  1   
  3   2   4  1   
  4   2   5  1   
  5   5   6  1   
  6   5   7  1   
  7   5   8  1   
  8   6   9  am  
  9   6  29  1   
 10   7  10  2   
 11   7  11  am  
 12   8  12  1   
 13   8  13  2   
 14   9  14  2   
 15   9  15  1   
 16  11  13  1   
 17  11  30  1   
 18  12  16  3   
 19  13  17  1   
 20  15  18  ar  
 21  15  19  ar  
 22  17  31  1   
 23  17  32  1   
 24  17  33  1   
 25  18  20  ar  
 26  18  34  1   
 27  19  21  ar  
 28  19  35  1   
 29  20  22  1   
 30  20  23  ar  
 31  21  23  ar  
 32  21  24  1   
 33  22  25  1   
 34  23  26  1   
 35  24  27  1   
 36  25  36  1   
 37  25  37  1   
 38  25  38  1   
 39  26  28  1   
 40  27  39  1   
 41  27  40  1   
 42  27  41  1   
 43  28  42  1   
 44  28  43  1   
 45  28  44  1   
@<TRIPOS>SUBSTRUCTURE
  1 ****   9 GROUP 4 **** **** 0

# MOE 2024.06 (io_trps.svl 2023.06)
