@<TRIPOS>MOLECULE
NONAME
58 61 1 0 0 
SMALL
USER_CHARGES


@<TRIPOS>ATOM
  1 O        6.0640     1.3340    -0.5400 O.co2 1 <1>  -0.9000 
  2 C        5.5870     0.2250    -0.8020 C.2   1 <1>   0.9060 
  3 O        6.3240    -0.6800    -1.2140 O.co2 1 <1>  -0.9000 
  4 C        4.1490    -0.1120    -0.4410 C.3   1 <1>  -0.1860 
  5 C        3.8400     0.1670     1.0600 C.3   1 <1>  -0.0190 
  6 C        3.0560     0.5340    -1.3290 C.3   1 <1>  -0.0800 
  7 C        4.3820    -0.9710     1.9370 C.2   1 <1>   0.5690 
  8 C        2.3330     0.5140     1.2060 C.3   1 <1>  -0.0800 
  9 C        1.7770    -0.3080    -1.1360 C.3   1 <1>  -0.1600 
 10 C        2.7470     1.9640    -0.8310 C.3   1 <1>  -0.1600 
 11 O        3.6420    -1.8440     2.3250 O.2   1 <1>  -0.5700 
 12 N        5.7270    -1.0580     2.1890 N.am  1 <1>  -0.6600 
 13 C        1.4630    -0.4580     0.3730 C.3   1 <1>  -0.1600 
 14 C        2.1440     1.9220     0.5960 C.3   1 <1>  -0.1600 
 15 C        6.3880    -2.2500     1.5660 C.3   1 <1>   0.1400 
 16 C        6.5480     0.1670     2.4770 C.3   1 <1>   0.1400 
 17 C        7.9220    -2.3300     1.6910 C.3   1 <1>   0.3430 
 18 C        8.0490    -0.0960     2.6910 C.3   1 <1>   0.3430 
 19 N        8.6360    -1.0140     1.6680 N.4   1 <1>  -0.9590 
 20 C        8.6330    -0.3980     0.3140 C.3   1 <1>   0.4810 
 21 C        9.9960     0.2400     0.1860 C.2   1 <1>  -0.2880 
 22 C       11.0360    -0.2880    -0.4820 C.2   1 <1>  -0.1780 
 23 C       12.3630     0.2660    -0.6290 C.ar  1 <1>   0.0280 
 24 C       12.6300     1.6190    -0.4280 C.ar  1 <1>  -0.1500 
 25 C       13.4290    -0.5570    -0.9830 C.ar  1 <1>  -0.1500 
 26 C       13.9100     2.1260    -0.5600 C.ar  1 <1>  -0.1500 
 27 C       14.7120    -0.0570    -1.1170 C.ar  1 <1>  -0.1500 
 28 C       14.9560     1.2880    -0.9030 C.ar  1 <1>  -0.1500 
 29 H        4.0760    -1.1730    -0.5940 H     1 <1>   0.0800 
 30 H        4.3580     1.0590     1.3520 H     1 <1>   0.0800 
 31 H        3.3600     0.5400    -2.3620 H     1 <1>   0.0800 
 32 H        2.0360     0.5040     2.2410 H     1 <1>   0.0800 
 33 H        0.9540     0.1730    -1.6350 H     1 <1>   0.0800 
 34 H        1.9040    -1.2810    -1.5780 H     1 <1>   0.0800 
 35 H        3.6600     2.5370    -0.8260 H     1 <1>   0.0800 
 36 H        2.0620     2.4490    -1.5030 H     1 <1>   0.0800 
 37 H        1.6570    -1.4690     0.6850 H     1 <1>   0.0800 
 38 H        0.4200    -0.2600     0.5470 H     1 <1>   0.0800 
 39 H        1.0950     2.1580     0.5550 H     1 <1>   0.0800 
 40 H        2.6210     2.6650     1.2100 H     1 <1>   0.0800 
 41 H        5.9640    -3.1390     1.9990 H     1 <1>   0.0800 
 42 H        6.1330    -2.2790     0.5230 H     1 <1>   0.0800 
 43 H        6.4560     0.8760     1.6820 H     1 <1>   0.0800 
 44 H        6.1520     0.6410     3.3580 H     1 <1>   0.0800 
 45 H        8.2960    -2.9610     0.9020 H     1 <1>   0.0800 
 46 H        8.1410    -2.8220     2.6230 H     1 <1>   0.0800 
 47 H        8.1770    -0.5270     3.6700 H     1 <1>   0.0800 
 48 H        8.5700     0.8460     2.6770 H     1 <1>   0.0800 
 49 H        9.6300    -1.1650     1.8700 H     1 <1>   0.4500 
 50 H        8.5000    -1.1490    -0.4490 H     1 <1>   0.0800 
 51 H        7.8560     0.3370     0.2040 H     1 <1>   0.0800 
 52 H       10.0470     1.1840     0.6970 H     1 <1>   0.1500 
 53 H       10.9160    -1.2360    -0.9810 H     1 <1>   0.1500 
 54 H       11.8310     2.2900    -0.1740 H     1 <1>   0.1500 
 55 H       13.2570    -1.6040    -1.1540 H     1 <1>   0.1500 
 56 H       14.0940     3.1740    -0.4000 H     1 <1>   0.1500 
 57 H       15.5220    -0.7110    -1.3880 H     1 <1>   0.1500 
 58 H       15.9530     1.6800    -1.0060 H     1 <1>   0.1500 
@<TRIPOS>BOND
  1   1   2  ar  
  2   2   3  ar  
  3   2   4  1   
  4   4   5  1   
  5   4   6  1   
  6   4  29  1   
  7   5   7  1   
  8   5   8  1   
  9   5  30  1   
 10   6   9  1   
 11   6  10  1   
 12   6  31  1   
 13   7  11  2   
 14   7  12  am  
 15   8  13  1   
 16   8  14  1   
 17   8  32  1   
 18   9  13  1   
 19   9  33  1   
 20   9  34  1   
 21  10  14  1   
 22  10  35  1   
 23  10  36  1   
 24  12  15  1   
 25  12  16  1   
 26  13  37  1   
 27  13  38  1   
 28  14  39  1   
 29  14  40  1   
 30  15  17  1   
 31  15  41  1   
 32  15  42  1   
 33  16  18  1   
 34  16  43  1   
 35  16  44  1   
 36  17  19  1   
 37  17  45  1   
 38  17  46  1   
 39  18  19  1   
 40  18  47  1   
 41  18  48  1   
 42  19  20  1   
 43  19  49  1   
 44  20  21  1   
 45  20  50  1   
 46  20  51  1   
 47  21  22  2   
 48  21  52  1   
 49  22  23  1   
 50  22  53  1   
 51  23  24  ar  
 52  23  25  ar  
 53  24  26  ar  
 54  24  54  1   
 55  25  27  ar  
 56  25  55  1   
 57  26  28  ar  
 58  26  56  1   
 59  27  28  ar  
 60  27  57  1   
 61  28  58  1   
@<TRIPOS>SUBSTRUCTURE
  1 ****  20 GROUP 4 **** **** 0

# MOE 2024.06 (io_trps.svl 2023.06)
