@<TRIPOS>MOLECULE
NONAME
56 58 1 0 0 
SMALL
USER_CHARGES


@<TRIPOS>ATOM
  1 N       -0.1020     0.2390    -0.1840 N.4   1 <1>  -0.9590 
  2 C       -0.3140    -1.2320    -0.0220 C.3   1 <1>   0.3430 
  3 C       -0.7170     0.7800    -1.4330 C.3   1 <1>   0.3430 
  4 C        1.3600     0.5910    -0.1650 C.3   1 <1>   0.3430 
  5 C       -1.8090    -1.5520    -0.0330 C.3   1 <1>  -0.1600 
  6 C       -2.2160     0.4720    -1.4620 C.3   1 <1>  -0.1600 
  7 C        1.9920     0.3920     1.2150 C.3   1 <1>  -0.0170 
  8 C       -2.4610    -1.0320    -1.3200 C.3   1 <1>   0.4230 
  9 C        3.4270     0.8750     1.1480 C.ar  1 <1>  -0.1440 
 10 N       -3.9250    -1.3360    -1.4120 N.4   1 <1>  -0.9590 
 11 C        3.7320     2.1980     1.4300 C.ar  1 <1>  -0.1500 
 12 C        4.4440     0.0010     0.7920 C.ar  1 <1>  -0.1500 
 13 C       -4.7800    -0.8420    -0.2780 C.3   1 <1>   0.4230 
 14 C       -4.1780    -2.7710    -1.7830 C.3   1 <1>   0.2630 
 15 C        5.0400     2.6450     1.3480 C.ar  1 <1>  -0.1500 
 16 C        5.7510     0.4490     0.7110 C.ar  1 <1>  -0.1500 
 17 C       -5.1080    -1.9060     0.7880 C.3   1 <1>  -0.1600 
 18 C       -6.0710    -0.2620    -0.8630 C.3   1 <1>  -0.1600 
 19 C        6.0490     1.7710     0.9870 C.ar  1 <1>  -0.1500 
 20 C       -5.9520    -1.2890     1.9130 C.3   1 <1>  -0.1600 
 21 C       -6.9450     0.3490     0.2430 C.3   1 <1>  -0.1600 
 22 C       -7.2390    -0.6690     1.3530 C.3   1 <1>  -0.1600 
 23 H       -0.5260     0.7270     0.6200 H     1 <1>   0.4500 
 24 H        0.1140    -1.5670     0.9110 H     1 <1>   0.0800 
 25 H        0.1790    -1.7620    -0.8230 H     1 <1>   0.0800 
 26 H       -0.2390     0.3380    -2.2940 H     1 <1>   0.0800 
 27 H       -0.5680     1.8480    -1.4840 H     1 <1>   0.0800 
 28 H        1.4850     1.6270    -0.4380 H     1 <1>   0.0800 
 29 H        1.8970    -0.0020    -0.8880 H     1 <1>   0.0800 
 30 H       -2.2540    -1.1040     0.8370 H     1 <1>   0.0800 
 31 H       -1.9260    -2.6190     0.0330 H     1 <1>   0.0800 
 32 H       -2.6100     0.8160    -2.4020 H     1 <1>   0.0800 
 33 H       -2.6950     1.0250    -0.6740 H     1 <1>   0.0800 
 34 H        1.9860    -0.6440     1.5010 H     1 <1>   0.0800 
 35 H        1.4620     0.9610     1.9580 H     1 <1>   0.0800 
 36 H       -1.9720    -1.5160    -2.1520 H     1 <1>   0.0800 
 37 H       -4.2700    -0.7970    -2.2190 H     1 <1>   0.4500 
 38 H        2.9650     2.8960     1.7180 H     1 <1>   0.1500 
 39 H        4.2380    -1.0330     0.5780 H     1 <1>   0.1500 
 40 H       -4.2700    -0.0330     0.2190 H     1 <1>   0.0800 
 41 H       -3.8500    -3.4300    -0.9950 H     1 <1>   0.0800 
 42 H       -3.6540    -3.0280    -2.6890 H     1 <1>   0.0800 
 43 H       -5.2330    -2.9340    -1.9430 H     1 <1>   0.0800 
 44 H        5.2750     3.6720     1.5680 H     1 <1>   0.1500 
 45 H        6.5390    -0.2310     0.4350 H     1 <1>   0.1500 
 46 H       -4.2140    -2.3140     1.2190 H     1 <1>   0.0800 
 47 H       -5.6830    -2.7100     0.3620 H     1 <1>   0.0800 
 48 H       -6.6340    -1.0360    -1.3560 H     1 <1>   0.0800 
 49 H       -5.8440     0.5090    -1.5780 H     1 <1>   0.0800 
 50 H        7.0660     2.1180     0.9250 H     1 <1>   0.1500 
 51 H       -5.3850    -0.5320     2.4290 H     1 <1>   0.0800 
 52 H       -6.2090    -2.0490     2.6330 H     1 <1>   0.0800 
 53 H       -7.8750     0.6940    -0.1780 H     1 <1>   0.0800 
 54 H       -6.4480     1.2050     0.6700 H     1 <1>   0.0800 
 55 H       -7.7800    -0.1850     2.1500 H     1 <1>   0.0800 
 56 H       -7.8720    -1.4490     0.9640 H     1 <1>   0.0800 
@<TRIPOS>BOND
  1   1   2  1   
  2   1   3  1   
  3   1   4  1   
  4   1  23  1   
  5   2   5  1   
  6   2  24  1   
  7   2  25  1   
  8   3   6  1   
  9   3  26  1   
 10   3  27  1   
 11   4   7  1   
 12   4  28  1   
 13   4  29  1   
 14   5   8  1   
 15   5  30  1   
 16   5  31  1   
 17   6   8  1   
 18   6  32  1   
 19   6  33  1   
 20   7   9  1   
 21   7  34  1   
 22   7  35  1   
 23   8  10  1   
 24   8  36  1   
 25   9  11  ar  
 26   9  12  ar  
 27  10  13  1   
 28  10  14  1   
 29  10  37  1   
 30  11  15  ar  
 31  11  38  1   
 32  12  16  ar  
 33  12  39  1   
 34  13  17  1   
 35  13  18  1   
 36  13  40  1   
 37  14  41  1   
 38  14  42  1   
 39  14  43  1   
 40  15  19  ar  
 41  15  44  1   
 42  16  19  ar  
 43  16  45  1   
 44  17  20  1   
 45  17  46  1   
 46  17  47  1   
 47  18  21  1   
 48  18  48  1   
 49  18  49  1   
 50  19  50  1   
 51  20  22  1   
 52  20  51  1   
 53  20  52  1   
 54  21  22  1   
 55  21  53  1   
 56  21  54  1   
 57  22  55  1   
 58  22  56  1   
@<TRIPOS>SUBSTRUCTURE
  1 ****   1 GROUP 4 **** **** 0

# MOE 2024.06 (io_trps.svl 2023.06)
