@<TRIPOS>MOLECULE
NONAME
43 44 1 0 0 
SMALL
USER_CHARGES


@<TRIPOS>ATOM
  1 O       -1.0580     2.2280    -1.4440 O.2   1 <1>  -0.5700 
  2 C       -0.9320     2.3010    -0.2490 C.2   1 <1>   0.5690 
  3 N       -1.8110     1.7730     0.6530 N.am  1 <1>  -0.5470 
  4 C        0.2640     3.0340     0.3040 C.3   1 <1>  -0.1790 
  5 C       -2.9850     1.0300     0.4590 C.ar  1 <1>   0.1170 
  6 C       -3.9470     1.0230     1.4620 C.ar  1 <1>  -0.1500 
  7 C       -3.2260     0.2830    -0.6890 C.ar  1 <1>  -0.1500 
  8 C       -5.1200     0.3050     1.3170 C.ar  1 <1>  -0.1500 
  9 C       -4.3980    -0.4360    -0.8370 C.ar  1 <1>  -0.1500 
 10 C       -5.3570    -0.4260     0.1640 C.ar  1 <1>  -0.1430 
 11 C       -6.6600    -1.1940    -0.0020 C.3   1 <1>   0.2530 
 12 N       -7.8010    -0.2580    -0.0780 N.3   1 <1>  -0.8100 
 13 C       -7.6710     0.6890    -1.2180 C.3   1 <1>   0.1100 
 14 C       -9.0960    -0.9710    -0.1380 C.3   1 <1>   0.1100 
 15 C       -8.8940     1.6290    -1.3540 C.3   1 <1>   0.3430 
 16 C      -10.2990     0.0070    -0.1440 C.3   1 <1>   0.3430 
 17 N       -9.8450     1.4390    -0.2110 N.4   1 <1>  -0.9590 
 18 C      -10.9340     2.4440    -0.1910 C.3   1 <1>   0.3430 
 19 C      -11.6180     2.4350     1.1720 C.3   1 <1>  -0.2400 
 20 H       -1.6050     1.9850     1.6260 H     1 <1>   0.3700 
 21 H       -0.0600     3.8950     0.8580 H     1 <1>   0.0800 
 22 H        0.8940     3.3590    -0.5040 H     1 <1>   0.0800 
 23 H        0.8300     2.3830     0.9430 H     1 <1>   0.0800 
 24 H       -3.7820     1.5860     2.3620 H     1 <1>   0.1500 
 25 H       -2.4940     0.2590    -1.4760 H     1 <1>   0.1500 
 26 H       -5.8570     0.3180     2.1010 H     1 <1>   0.1500 
 27 H       -4.5530    -1.0010    -1.7390 H     1 <1>   0.1500 
 28 H       -6.7850    -1.8460     0.8460 H     1 <1>   0.0800 
 29 H       -6.6210    -1.8030    -0.8900 H     1 <1>   0.0800 
 30 H       -7.5380     0.1460    -2.1380 H     1 <1>   0.0800 
 31 H       -6.7950     1.3010    -1.0780 H     1 <1>   0.0800 
 32 H       -9.1870    -1.6250     0.7130 H     1 <1>   0.0800 
 33 H       -9.1350    -1.5840    -1.0230 H     1 <1>   0.0800 
 34 H       -9.3940     1.4260    -2.2860 H     1 <1>   0.0800 
 35 H       -8.5460     2.6480    -1.3820 H     1 <1>   0.0800 
 36 H      -10.8720    -0.1510     0.7540 H     1 <1>   0.0800 
 37 H      -10.9360    -0.2200    -0.9820 H     1 <1>   0.0800 
 38 H       -9.2450     1.5490     0.6220 H     1 <1>   0.4500 
 39 H      -11.6520     2.2330    -0.9680 H     1 <1>   0.0800 
 40 H      -10.5230     3.4250    -0.3670 H     1 <1>   0.0800 
 41 H      -12.1320     1.5080     1.3480 H     1 <1>   0.0800 
 42 H      -12.3480     3.2240     1.2030 H     1 <1>   0.0800 
 43 H      -10.9050     2.6130     1.9570 H     1 <1>   0.0800 
@<TRIPOS>BOND
  1   1   2  2   
  2   2   3  am  
  3   2   4  1   
  4   3   5  1   
  5   3  20  1   
  6   4  21  1   
  7   4  22  1   
  8   4  23  1   
  9   5   6  ar  
 10   5   7  ar  
 11   6   8  ar  
 12   6  24  1   
 13   7   9  ar  
 14   7  25  1   
 15   8  10  ar  
 16   8  26  1   
 17   9  10  ar  
 18   9  27  1   
 19  10  11  1   
 20  11  12  1   
 21  11  28  1   
 22  11  29  1   
 23  12  13  1   
 24  12  14  1   
 25  13  15  1   
 26  13  30  1   
 27  13  31  1   
 28  14  16  1   
 29  14  32  1   
 30  14  33  1   
 31  15  17  1   
 32  15  34  1   
 33  15  35  1   
 34  16  17  1   
 35  16  36  1   
 36  16  37  1   
 37  17  18  1   
 38  17  38  1   
 39  18  19  1   
 40  18  39  1   
 41  18  40  1   
 42  19  41  1   
 43  19  42  1   
 44  19  43  1   
@<TRIPOS>SUBSTRUCTURE
  1 ****  10 GROUP 4 **** **** 0

# MOE 2024.06 (io_trps.svl 2023.06)
