@<TRIPOS>MOLECULE
NONAME
53 55 1 0 0 
SMALL
USER_CHARGES


@<TRIPOS>ATOM
  1 O       -0.9860    -0.3420    -3.2170 O.2   1 <1>  -0.5700 
  2 C       -0.0560    -0.7220    -2.5460 C.2   1 <1>   0.5690 
  3 N       -0.1410    -1.1020    -1.2370 N.am  1 <1>  -0.5470 
  4 C        1.3370    -0.7920    -3.1750 C.3   1 <1>   0.1710 
  5 C       -1.1970    -1.1770    -0.3180 C.ar  1 <1>   0.1170 
  6 N        2.4460    -0.7510    -2.1760 N.3   1 <1>  -0.8100 
  7 C       -2.5310    -0.9970    -0.6680 C.ar  1 <1>  -0.1500 
  8 C       -0.8970    -1.4480     1.0120 C.ar  1 <1>  -0.1500 
  9 C        3.7190    -1.2130    -2.7810 C.3   1 <1>   0.1100 
 10 C        2.6290     0.6250    -1.6410 C.3   1 <1>   0.1100 
 11 C       -3.5320    -1.0840     0.2830 C.ar  1 <1>  -0.1500 
 12 C       -1.8960    -1.5360     1.9650 C.ar  1 <1>  -0.1500 
 13 C        4.8930    -1.1540    -1.7840 C.3   1 <1>   0.2090 
 14 C        3.7890     0.7110    -0.6310 C.3   1 <1>   0.2090 
 15 C       -3.2220    -1.3560     1.6060 C.ar  1 <1>  -0.1430 
 16 N        5.0580     0.2250    -1.2440 N.pl3 1 <1>  -0.8380 
 17 C       -4.3220    -1.4490     2.6470 C.3   1 <1>  -0.0970 
 18 C        6.2160     0.4430    -0.4840 C.ar  1 <1>   0.1000 
 19 C        6.4820    -0.1680     0.7560 C.ar  1 <1>   0.0820 
 20 C        7.1530     1.3220    -1.0060 C.ar  1 <1>  -0.1500 
 21 O        5.5550    -1.0370     1.2670 O.3   1 <1>  -0.3620 
 22 C        7.6680     0.1230     1.4260 C.ar  1 <1>  -0.1500 
 23 C        8.3290     1.6050    -0.3350 C.ar  1 <1>  -0.1500 
 24 C        5.8020    -1.7740     2.4410 C.3   1 <1>   0.1200 
 25 C        8.5860     1.0050     0.8830 C.ar  1 <1>  -0.1500 
 26 C        4.6030    -2.6870     2.6810 C.3   1 <1>  -0.2400 
 27 H        0.7910    -1.3200    -0.8700 H     1 <1>   0.3700 
 28 H        1.4440     0.0140    -3.8800 H     1 <1>   0.0800 
 29 H        1.3850    -1.7160    -3.7220 H     1 <1>   0.0800 
 30 H       -2.7980    -0.7890    -1.6870 H     1 <1>   0.1500 
 31 H        0.1260    -1.5920     1.3060 H     1 <1>   0.1500 
 32 H        3.9630    -0.6010    -3.6320 H     1 <1>   0.0800 
 33 H        3.6060    -2.2290    -3.1170 H     1 <1>   0.0800 
 34 H        1.7270     0.9510    -1.1550 H     1 <1>   0.0800 
 35 H        2.8350     1.3070    -2.4490 H     1 <1>   0.0800 
 36 H       -4.5560    -0.9390    -0.0140 H     1 <1>   0.1500 
 37 H       -1.6390    -1.7450     2.9880 H     1 <1>   0.1500 
 38 H        5.8020    -1.4500    -2.2780 H     1 <1>   0.0800 
 39 H        4.7080    -1.8430    -0.9790 H     1 <1>   0.0800 
 40 H        3.5510     0.1190     0.2340 H     1 <1>   0.0800 
 41 H        3.9180     1.7320    -0.3150 H     1 <1>   0.0800 
 42 H       -4.5290    -0.4720     3.0450 H     1 <1>   0.0800 
 43 H       -4.0260    -2.0970     3.4520 H     1 <1>   0.0800 
 44 H       -5.2210    -1.8430     2.2070 H     1 <1>   0.0800 
 45 H        6.9460     1.7860    -1.9520 H     1 <1>   0.1500 
 46 H        7.9010    -0.3220     2.3740 H     1 <1>   0.1500 
 47 H        9.0390     2.2920    -0.7620 H     1 <1>   0.1500 
 48 H        5.9250    -1.0850     3.2580 H     1 <1>   0.0800 
 49 H        6.6990    -2.3530     2.2980 H     1 <1>   0.0800 
 50 H        9.5000     1.2240     1.4070 H     1 <1>   0.1500 
 51 H        3.7120    -2.0990     2.8060 H     1 <1>   0.0800 
 52 H        4.7610    -3.2680     3.5720 H     1 <1>   0.0800 
 53 H        4.4780    -3.3580     1.8500 H     1 <1>   0.0800 
@<TRIPOS>BOND
  1   1   2  2   
  2   2   3  am  
  3   2   4  1   
  4   3   5  1   
  5   3  27  1   
  6   4   6  1   
  7   4  28  1   
  8   4  29  1   
  9   5   7  ar  
 10   5   8  ar  
 11   6   9  1   
 12   6  10  1   
 13   7  11  ar  
 14   7  30  1   
 15   8  12  ar  
 16   8  31  1   
 17   9  13  1   
 18   9  32  1   
 19   9  33  1   
 20  10  14  1   
 21  10  34  1   
 22  10  35  1   
 23  11  15  ar  
 24  11  36  1   
 25  12  15  ar  
 26  12  37  1   
 27  13  16  1   
 28  13  38  1   
 29  13  39  1   
 30  14  16  1   
 31  14  40  1   
 32  14  41  1   
 33  15  17  1   
 34  16  18  1   
 35  17  42  1   
 36  17  43  1   
 37  17  44  1   
 38  18  19  ar  
 39  18  20  ar  
 40  19  21  1   
 41  19  22  ar  
 42  20  23  ar  
 43  20  45  1   
 44  21  24  1   
 45  22  25  ar  
 46  22  46  1   
 47  23  25  ar  
 48  23  47  1   
 49  24  26  1   
 50  24  48  1   
 51  24  49  1   
 52  25  50  1   
 53  26  51  1   
 54  26  52  1   
 55  26  53  1   
@<TRIPOS>SUBSTRUCTURE
  1 ****  10 GROUP 4 **** **** 0

# MOE 2024.06 (io_trps.svl 2023.06)
