@<TRIPOS>MOLECULE
NONAME
47 49 1 0 0 
SMALL
USER_CHARGES


@<TRIPOS>ATOM
  1 S        0.3610    -0.5570    -1.4900 S.o2  1 <1>   1.4470 
  2 O       -0.0020    -1.8760    -1.9620 O.2   1 <1>  -0.6500 
  3 O        0.6380     0.4880    -2.4510 O.2   1 <1>  -0.6500 
  4 N       -0.8960     0.0070    -0.4980 N.am  1 <1>  -0.8490 
  5 C        1.7510    -0.7350    -0.3350 C.ar  1 <1>  -0.0090 
  6 C       -2.2020    -0.1380    -1.1540 C.3   1 <1>   0.1960 
  7 C       -0.6390     1.3800    -0.0460 C.3   1 <1>   0.1960 
  8 C        2.8090     0.1650    -0.3290 C.ar  1 <1>  -0.1500 
  9 C        1.7740    -1.7680     0.5930 C.ar  1 <1>  -0.1500 
 10 C       -3.3100    -0.2840    -0.1070 C.3   1 <1>  -0.1600 
 11 C       -1.5990     1.8520     1.0530 C.3   1 <1>  -0.1600 
 12 C        3.8780     0.0650     0.5600 C.ar  1 <1>   0.0860 
 13 C        2.8180    -1.8980     1.4910 C.ar  1 <1>  -0.1500 
 14 C       -3.9450     1.0320     0.3700 C.3   1 <1>  -0.1600 
 15 C       -2.9900     2.2230     0.5200 C.3   1 <1>  -0.1600 
 16 C        4.9610     1.0300     0.5240 C.2   1 <1>   0.5440 
 17 C        3.8570    -0.9880     1.4740 C.ar  1 <1>  -0.1500 
 18 O        4.7460     2.1910     0.2410 O.2   1 <1>  -0.5700 
 19 N        6.2410     0.6480     0.7960 N.am  1 <1>  -0.7300 
 20 C        7.4290     1.5260     0.6980 C.3   1 <1>   0.3200 
 21 C        8.5210     0.8390    -0.1040 C.2   1 <1>  -0.0400 
 22 O        9.7510     1.3100    -0.0180 O.3   1 <1>  -0.2800 
 23 C        8.4840    -0.2230    -0.9420 C.2   1 <1>  -0.1500 
 24 C       10.5200     0.5670    -0.7880 C.2   1 <1>  -0.0100 
 25 C        9.7990    -0.4020    -1.3900 C.2   1 <1>  -0.1500 
 26 H       -2.2140    -1.0410    -1.7410 H     1 <1>   0.0800 
 27 H       -2.3930     0.6830    -1.8250 H     1 <1>   0.0800 
 28 H       -0.6760     2.0590    -0.8830 H     1 <1>   0.0800 
 29 H        0.3570     1.4300     0.3620 H     1 <1>   0.0800 
 30 H        2.8100     0.9770    -1.0390 H     1 <1>   0.1500 
 31 H        0.9620    -2.4770     0.6090 H     1 <1>   0.1500 
 32 H       -2.9190    -0.8290     0.7350 H     1 <1>   0.0800 
 33 H       -4.0930    -0.8890    -0.5290 H     1 <1>   0.0800 
 34 H       -1.1710     2.7400     1.4830 H     1 <1>   0.0800 
 35 H       -1.6620     1.1180     1.8380 H     1 <1>   0.0800 
 36 H        2.8150    -2.7060     2.2030 H     1 <1>   0.1500 
 37 H       -4.4190     0.8440     1.3180 H     1 <1>   0.0800 
 38 H       -4.7240     1.3140    -0.3180 H     1 <1>   0.0800 
 39 H       -2.8860     2.7220    -0.4290 H     1 <1>   0.0800 
 40 H       -3.4450     2.9290     1.1940 H     1 <1>   0.0800 
 41 H        4.6570    -1.0910     2.1860 H     1 <1>   0.1500 
 42 H        6.4600    -0.3350     0.9510 H     1 <1>   0.3700 
 43 H        7.7940     1.7300     1.6900 H     1 <1>   0.0800 
 44 H        7.1770     2.4630     0.2310 H     1 <1>   0.0800 
 45 H        7.6420    -0.8240    -1.2340 H     1 <1>   0.1500 
 46 H       11.5690     0.7980    -0.8510 H     1 <1>   0.1500 
 47 H       10.1290    -1.1630    -2.0740 H     1 <1>   0.1500 
@<TRIPOS>BOND
  1   1   2  2   
  2   1   3  2   
  3   1   4  am  
  4   1   5  1   
  5   4   6  1   
  6   4   7  1   
  7   5   8  ar  
  8   5   9  ar  
  9   6  10  1   
 10   6  26  1   
 11   6  27  1   
 12   7  11  1   
 13   7  28  1   
 14   7  29  1   
 15   8  12  ar  
 16   8  30  1   
 17   9  13  ar  
 18   9  31  1   
 19  10  14  1   
 20  10  32  1   
 21  10  33  1   
 22  11  15  1   
 23  11  34  1   
 24  11  35  1   
 25  12  16  1   
 26  12  17  ar  
 27  13  17  ar  
 28  13  36  1   
 29  14  15  1   
 30  14  37  1   
 31  14  38  1   
 32  15  39  1   
 33  15  40  1   
 34  16  18  2   
 35  16  19  am  
 36  17  41  1   
 37  19  20  1   
 38  19  42  1   
 39  20  21  1   
 40  20  43  1   
 41  20  44  1   
 42  21  22  1   
 43  21  23  2   
 44  22  24  1   
 45  23  25  1   
 46  23  45  1   
 47  24  25  2   
 48  24  46  1   
 49  25  47  1   
@<TRIPOS>SUBSTRUCTURE
  1 ****   8 GROUP 4 **** **** 0

# MOE 2024.06 (io_trps.svl 2023.06)
