@<TRIPOS>MOLECULE
NONAME
41 43 1 0 0 
SMALL
USER_CHARGES


@<TRIPOS>ATOM
  1 O        0.2850    -0.4170    -0.8570 O.2   1 <1>  -0.5700 
  2 C        1.3140    -1.0040    -0.6030 C.2   1 <1>   0.5440 
  3 N        2.4490    -0.2520    -0.5950 N.am  1 <1>  -0.7300 
  4 C        1.3110    -2.4220    -0.3050 C.ar  1 <1>   0.0860 
  5 C        3.7310    -0.5720     0.0770 C.3   1 <1>   0.1400 
  6 C        0.4360    -2.9540     0.6280 C.ar  1 <1>  -0.1500 
  7 C        2.2020    -3.3030    -0.9590 C.ar  1 <1>  -0.1500 
  8 C        4.8670    -0.6130    -0.9460 C.3   1 <1>  -0.0220 
  9 C        0.4640    -4.3150     0.9230 C.ar  1 <1>   0.2270 
 10 C        2.2350    -4.6480    -0.6780 C.ar  1 <1>  -0.1500 
 11 C        6.1570    -1.1160    -0.3130 C.2   1 <1>  -0.2760 
 12 N       -0.2720    -5.0440     1.7960 N.2   1 <1>  -0.2270 
 13 C        1.3480    -5.1430     0.2830 C.ar  1 <1>  -0.1520 
 14 C        7.1630    -0.2990     0.0160 C.2   1 <1>  -0.2880 
 15 C        6.2230    -2.6270    -0.1000 C.3   1 <1>  -0.0220 
 16 N        0.1100    -6.2630     1.7240 N.2   1 <1>  -0.4180 
 17 N        1.0910    -6.3570     0.8140 N.pl3 1 <1>   0.3140 
 18 C        8.4800    -0.7570     0.6200 C.3   1 <1>  -0.0220 
 19 C        7.3690    -3.0200     0.8440 C.3   1 <1>  -0.1600 
 20 C        1.7460    -7.6280     0.4810 C.3   1 <1>   0.0160 
 21 C        8.6610    -2.2760     0.4860 C.3   1 <1>  -0.1600 
 22 H        2.3050     0.7310    -0.8400 H     1 <1>   0.3700 
 23 H        3.6510    -1.5170     0.5850 H     1 <1>   0.0800 
 24 H        3.9430     0.1800     0.8180 H     1 <1>   0.0800 
 25 H       -0.2720    -2.3250     1.1370 H     1 <1>   0.1500 
 26 H        2.8640    -2.8930    -1.7020 H     1 <1>   0.1500 
 27 H        5.0200     0.3810    -1.3270 H     1 <1>   0.0800 
 28 H        4.6060    -1.2480    -1.7740 H     1 <1>   0.0800 
 29 H        2.9180    -5.3100    -1.1820 H     1 <1>   0.1500 
 30 H        7.1210     0.7690    -0.1200 H     1 <1>   0.1500 
 31 H        6.3680    -3.1010    -1.0550 H     1 <1>   0.0800 
 32 H        5.3020    -2.9960     0.3150 H     1 <1>   0.0800 
 33 H        8.5000    -0.4780     1.6590 H     1 <1>   0.0800 
 34 H        9.2970    -0.2610     0.1250 H     1 <1>   0.0800 
 35 H        7.5300    -4.0820     0.7940 H     1 <1>   0.0800 
 36 H        7.0920    -2.7720     1.8550 H     1 <1>   0.0800 
 37 H        2.7980    -7.5460     0.6800 H     1 <1>   0.0800 
 38 H        1.5840    -7.8470    -0.5580 H     1 <1>   0.0800 
 39 H        1.3250    -8.4110     1.0840 H     1 <1>   0.0800 
 40 H        9.4650    -2.6010     1.1240 H     1 <1>   0.0800 
 41 H        8.9290    -2.5080    -0.5310 H     1 <1>   0.0800 
@<TRIPOS>BOND
  1   1   2  2   
  2   2   3  am  
  3   2   4  1   
  4   3   5  1   
  5   3  22  1   
  6   4   6  ar  
  7   4   7  ar  
  8   5   8  1   
  9   5  23  1   
 10   5  24  1   
 11   6   9  ar  
 12   6  25  1   
 13   7  10  ar  
 14   7  26  1   
 15   8  11  1   
 16   8  27  1   
 17   8  28  1   
 18   9  12  1   
 19   9  13  ar  
 20  10  13  ar  
 21  10  29  1   
 22  11  14  2   
 23  11  15  1   
 24  12  16  2   
 25  13  17  1   
 26  14  18  1   
 27  14  30  1   
 28  15  19  1   
 29  15  31  1   
 30  15  32  1   
 31  16  17  1   
 32  17  20  1   
 33  18  21  1   
 34  18  33  1   
 35  18  34  1   
 36  19  21  1   
 37  19  35  1   
 38  19  36  1   
 39  20  37  1   
 40  20  38  1   
 41  20  39  1   
 42  21  40  1   
 43  21  41  1   
@<TRIPOS>SUBSTRUCTURE
  1 ****   7 GROUP 4 **** **** 0

# MOE 2024.06 (io_trps.svl 2023.06)
