@<TRIPOS>MOLECULE
NONAME
47 49 1 0 0 
SMALL
USER_CHARGES


@<TRIPOS>ATOM
  1 S        0.6690     1.8690     0.2010 S.o2  1 <1>   1.4470 
  2 O        0.2640     2.9570     1.0650 O.2   1 <1>  -0.6500 
  3 O        1.5980     2.1070    -0.8800 O.2   1 <1>  -0.6500 
  4 N        1.3770     0.6680     1.2400 N.am  1 <1>  -0.6930 
  5 C       -0.7990     0.9960    -0.4100 C.ar  1 <1>  -0.0090 
  6 C        1.9490    -0.4820     0.7170 C.ar  1 <1>   0.1990 
  7 C        0.9990     0.7140     2.6730 C.3   1 <1>   0.1160 
  8 C       -0.6890     0.0040    -1.3780 C.ar  1 <1>  -0.1500 
  9 C       -2.0660     1.2720     0.0910 C.ar  1 <1>  -0.1500 
 10 C        1.3760    -1.7320     0.9310 C.ar  1 <1>  -0.1500 
 11 C        3.1050    -0.4170    -0.0510 C.ar  1 <1>  -0.1500 
 12 C       -1.7990    -0.6880    -1.8280 C.ar  1 <1>  -0.1500 
 13 C       -3.1820     0.5840    -0.3560 C.ar  1 <1>  -0.1500 
 14 C        1.9460    -2.8730     0.4000 C.ar  1 <1>  -0.1500 
 15 C        3.6710    -1.5590    -0.5830 C.ar  1 <1>  -0.1500 
 16 C       -3.0540    -0.4000    -1.3200 C.ar  1 <1>  -0.1430 
 17 C        3.1130    -2.8200    -0.3630 C.ar  1 <1>   0.0860 
 18 C       -4.2730    -1.1580    -1.8120 C.3   1 <1>  -0.0970 
 19 C        3.7030    -4.0270    -0.9040 C.2   1 <1>   0.5440 
 20 O        2.9930    -4.8430    -1.4640 O.2   1 <1>  -0.5700 
 21 N        5.0500    -4.2920    -0.7940 N.am  1 <1>  -0.6600 
 22 C        5.9640    -3.6530     0.1790 C.3   1 <1>   0.1400 
 23 C        5.6540    -5.5210    -1.3560 C.3   1 <1>   0.1400 
 24 C        7.0430    -4.6980     0.4390 C.3   1 <1>  -0.1600 
 25 C        7.0900    -5.5260    -0.8420 C.3   1 <1>  -0.1600 
 26 H        1.2810     1.6660     3.0900 H     1 <1>   0.0800 
 27 H        1.5040    -0.0630     3.2190 H     1 <1>   0.0800 
 28 H       -0.0650     0.5880     2.7760 H     1 <1>   0.0800 
 29 H        0.2810    -0.2310    -1.7840 H     1 <1>   0.1500 
 30 H       -2.1850     2.0360     0.8410 H     1 <1>   0.1500 
 31 H        0.4720    -1.8070     1.5070 H     1 <1>   0.1500 
 32 H        3.5560     0.5430    -0.2330 H     1 <1>   0.1500 
 33 H       -1.6800    -1.4520    -2.5770 H     1 <1>   0.1500 
 34 H       -4.1500     0.8200     0.0500 H     1 <1>   0.1500 
 35 H        1.4860    -3.8320     0.5670 H     1 <1>   0.1500 
 36 H        4.5570    -1.4800    -1.1880 H     1 <1>   0.1500 
 37 H       -4.1470    -1.4460    -2.8410 H     1 <1>   0.0800 
 38 H       -5.1530    -0.5450    -1.7390 H     1 <1>   0.0800 
 39 H       -4.4170    -2.0440    -1.2190 H     1 <1>   0.0800 
 40 H        5.4480    -3.3850     1.0850 H     1 <1>   0.0800 
 41 H        6.3990    -2.7770    -0.2690 H     1 <1>   0.0800 
 42 H        5.6130    -5.5050    -2.4320 H     1 <1>   0.0800 
 43 H        5.1160    -6.3780    -0.9880 H     1 <1>   0.0800 
 44 H        6.7360    -5.3180     1.2640 H     1 <1>   0.0800 
 45 H        7.9900    -4.2460     0.6720 H     1 <1>   0.0800 
 46 H        7.7220    -5.0440    -1.5670 H     1 <1>   0.0800 
 47 H        7.4490    -6.5260    -0.6730 H     1 <1>   0.0800 
@<TRIPOS>BOND
  1   1   2  2   
  2   1   3  2   
  3   1   4  am  
  4   1   5  1   
  5   4   6  1   
  6   4   7  1   
  7   5   8  ar  
  8   5   9  ar  
  9   6  10  ar  
 10   6  11  ar  
 11   7  26  1   
 12   7  27  1   
 13   7  28  1   
 14   8  12  ar  
 15   8  29  1   
 16   9  13  ar  
 17   9  30  1   
 18  10  14  ar  
 19  10  31  1   
 20  11  15  ar  
 21  11  32  1   
 22  12  16  ar  
 23  12  33  1   
 24  13  16  ar  
 25  13  34  1   
 26  14  17  ar  
 27  14  35  1   
 28  15  17  ar  
 29  15  36  1   
 30  16  18  1   
 31  17  19  1   
 32  18  37  1   
 33  18  38  1   
 34  18  39  1   
 35  19  20  2   
 36  19  21  am  
 37  21  22  1   
 38  21  23  1   
 39  22  24  1   
 40  22  40  1   
 41  22  41  1   
 42  23  25  1   
 43  23  42  1   
 44  23  43  1   
 45  24  25  1   
 46  24  44  1   
 47  24  45  1   
 48  25  46  1   
 49  25  47  1   
@<TRIPOS>SUBSTRUCTURE
  1 ****  10 GROUP 4 **** **** 0

# MOE 2024.06 (io_trps.svl 2023.06)
