@<TRIPOS>MOLECULE
NONAME
44 46 1 0 0 
SMALL
USER_CHARGES


@<TRIPOS>ATOM
  1 O        0.0250     1.0810    -1.7730 O.2   1 <1>  -0.5700 
  2 C        0.4480     1.9090    -1.0080 C.2   1 <1>   0.5690 
  3 N       -0.3060     2.6500    -0.1420 N.am  1 <1>  -0.2370 
  4 C        1.9190     2.2920    -0.9350 C.3   1 <1>  -0.0190 
  5 C       -1.6910     2.4800     0.0590 C.ar  1 <1>   0.1170 
  6 C        0.4750     3.5640     0.5060 C.2   1 <1>   0.5690 
  7 C        2.8460     1.1290    -0.5040 C.3   1 <1>   0.0630 
  8 C        1.9160     3.4590     0.0770 C.3   1 <1>  -0.0990 
  9 C       -2.6250     3.3990    -0.4240 C.ar  1 <1>  -0.1440 
 10 C       -2.1380     1.3620     0.7550 C.ar  1 <1>  -0.1500 
 11 O        0.1130     4.3710     1.3220 O.2   1 <1>  -0.5700 
 12 C        4.2590     1.6380    -0.2180 C.ar  1 <1>  -0.1440 
 13 C        2.9240    -0.0010    -1.5420 C.3   1 <1>  -0.2400 
 14 C       -3.9740     3.1840    -0.1930 C.ar  1 <1>  -0.1500 
 15 C       -2.1970     4.6360    -1.2030 C.3   1 <1>  -0.0970 
 16 C       -3.4860     1.1500     0.9830 C.ar  1 <1>  -0.1440 
 17 C        5.0140     2.2530    -1.2080 C.ar  1 <1>  -0.1500 
 18 C        4.8050     1.4910     1.0500 C.ar  1 <1>  -0.1500 
 19 C       -4.4030     2.0690     0.5050 C.ar  1 <1>  -0.1500 
 20 C       -3.9660    -0.0730     1.7420 C.3   1 <1>  -0.0970 
 21 C        6.2880     2.7210    -0.9330 C.ar  1 <1>  -0.1500 
 22 C        6.0780     1.9580     1.3260 C.ar  1 <1>  -0.1500 
 23 C        6.8200     2.5750     0.3350 C.ar  1 <1>  -0.1500 
 24 H        2.2170     2.6560    -1.9010 H     1 <1>   0.0800 
 25 H        2.4470     0.7040     0.4020 H     1 <1>   0.0800 
 26 H        2.2260     4.3770    -0.3870 H     1 <1>   0.0800 
 27 H        2.5250     3.2730     0.9430 H     1 <1>   0.0800 
 28 H       -1.4180     0.6520     1.1170 H     1 <1>   0.1500 
 29 H        3.1990     0.3820    -2.5090 H     1 <1>   0.0800 
 30 H        1.9820    -0.5110    -1.6310 H     1 <1>   0.0800 
 31 H        3.6630    -0.7230    -1.2400 H     1 <1>   0.0800 
 32 H       -4.7050     3.8850    -0.5560 H     1 <1>   0.1500 
 33 H       -1.5330     4.3610    -2.0020 H     1 <1>   0.0800 
 34 H       -1.6950     5.3250    -0.5470 H     1 <1>   0.0800 
 35 H       -3.0480     5.1350    -1.6300 H     1 <1>   0.0800 
 36 H        4.6200     2.3720    -2.2010 H     1 <1>   0.1500 
 37 H        4.2450     1.0120     1.8330 H     1 <1>   0.1500 
 38 H       -5.4550     1.9200     0.6730 H     1 <1>   0.1500 
 39 H       -3.1440    -0.5740     2.2220 H     1 <1>   0.0800 
 40 H       -4.4400    -0.7590     1.0640 H     1 <1>   0.0800 
 41 H       -4.6750     0.2160     2.4970 H     1 <1>   0.0800 
 42 H        6.8660     3.1970    -1.7060 H     1 <1>   0.1500 
 43 H        6.4930     1.8410     2.3120 H     1 <1>   0.1500 
 44 H        7.8100     2.9380     0.5500 H     1 <1>   0.1500 
@<TRIPOS>BOND
  1   1   2  2   
  2   2   3  am  
  3   2   4  1   
  4   3   5  1   
  5   3   6  am  
  6   4   7  1   
  7   4   8  1   
  8   4  24  1   
  9   5   9  ar  
 10   5  10  ar  
 11   6   8  1   
 12   6  11  2   
 13   7  12  1   
 14   7  13  1   
 15   7  25  1   
 16   8  26  1   
 17   8  27  1   
 18   9  14  ar  
 19   9  15  1   
 20  10  16  ar  
 21  10  28  1   
 22  12  17  ar  
 23  12  18  ar  
 24  13  29  1   
 25  13  30  1   
 26  13  31  1   
 27  14  19  ar  
 28  14  32  1   
 29  15  33  1   
 30  15  34  1   
 31  15  35  1   
 32  16  19  ar  
 33  16  20  1   
 34  17  21  ar  
 35  17  36  1   
 36  18  22  ar  
 37  18  37  1   
 38  19  38  1   
 39  20  39  1   
 40  20  40  1   
 41  20  41  1   
 42  21  23  ar  
 43  21  42  1   
 44  22  23  ar  
 45  22  43  1   
 46  23  44  1   
@<TRIPOS>SUBSTRUCTURE
  1 ****   2 GROUP 4 **** **** 0

# MOE 2024.06 (io_trps.svl 2023.06)
