@<TRIPOS>MOLECULE
NONAME
50 52 1 0 0 
SMALL
USER_CHARGES


@<TRIPOS>ATOM
  1 F       -2.8190     2.5230     4.2960 F     1 <1>  -0.3400 
  2 C       -2.2030     1.9220     3.2850 C.3   1 <1>   1.1640 
  3 F       -2.0000     0.6670     3.6680 F     1 <1>  -0.3400 
  4 F       -1.0050     2.4840     3.1900 F     1 <1>  -0.3400 
  5 C       -3.0230     1.9900     1.9870 C.ar  1 <1>  -0.1440 
  6 C       -4.3530     1.5870     1.9880 C.ar  1 <1>  -0.1500 
  7 C       -2.4670     2.4420     0.7930 C.ar  1 <1>  -0.1500 
  8 C       -5.1310     1.6220     0.8370 C.ar  1 <1>   0.1170 
  9 C       -3.2300     2.4920    -0.3600 C.ar  1 <1>  -0.1500 
 10 N       -6.4660     1.2010     0.9120 N.am  1 <1>  -0.5470 
 11 C       -4.5510     2.0890    -0.3370 C.ar  1 <1>  -0.1500 
 12 C       -7.2790     0.6160    -0.0330 C.2   1 <1>   0.5440 
 13 O       -6.8520     0.4060    -1.1540 O.2   1 <1>  -0.5700 
 14 C       -8.6150     0.2400     0.3510 C.ar  1 <1>   0.0860 
 15 C       -9.0260    -1.1070     0.3530 C.ar  1 <1>   0.4100 
 16 C       -9.5260     1.1930     0.7860 C.ar  1 <1>  -0.1500 
 17 N      -10.2050    -1.5270     0.7970 N.ar  1 <1>  -0.6200 
 18 N       -8.2110    -2.1170    -0.1020 N.pl3 1 <1>  -0.8380 
 19 C      -10.7600     0.7600     1.2170 C.ar  1 <1>  -0.1500 
 20 C      -11.0420    -0.5950     1.2070 C.ar  1 <1>   0.1600 
 21 C       -7.9800    -2.3150    -1.5590 C.3   1 <1>   0.2090 
 22 C       -7.7080    -3.1890     0.7890 C.3   1 <1>   0.2090 
 23 C       -6.4800    -2.5630    -1.8200 C.3   1 <1>   0.3430 
 24 C       -6.2100    -3.4410     0.5000 C.3   1 <1>   0.3430 
 25 N       -5.9140    -3.6830    -0.9690 N.4   1 <1>  -0.9590 
 26 C       -4.4450    -3.8070    -1.2350 C.3   1 <1>   0.3430 
 27 C       -3.8240    -5.0640    -0.6080 C.3   1 <1>   0.1200 
 28 O       -2.4920    -5.1050    -0.9800 O.3   1 <1>  -0.6800 
 29 H       -4.7970     1.2350     2.9040 H     1 <1>   0.1500 
 30 H       -1.4380     2.7620     0.7480 H     1 <1>   0.1500 
 31 H       -2.7950     2.8500    -1.2780 H     1 <1>   0.1500 
 32 H       -6.8900     1.2950     1.8340 H     1 <1>   0.3700 
 33 H       -5.1320     2.1460    -1.2390 H     1 <1>   0.1500 
 34 H       -9.2750     2.2400     0.7850 H     1 <1>   0.1500 
 35 H      -11.5010     1.4610     1.5600 H     1 <1>   0.1500 
 36 H      -12.0080    -0.9240     1.5540 H     1 <1>   0.1500 
 37 H       -8.3060    -1.4460    -2.1060 H     1 <1>   0.0800 
 38 H       -8.5600    -3.1540    -1.9020 H     1 <1>   0.0800 
 39 H       -8.2780    -4.0870     0.6250 H     1 <1>   0.0800 
 40 H       -7.8390    -2.8970     1.8170 H     1 <1>   0.0800 
 41 H       -5.9490    -1.6490    -1.6080 H     1 <1>   0.0800 
 42 H       -6.3390    -2.7860    -2.8640 H     1 <1>   0.0800 
 43 H       -5.8810    -4.2810     1.0860 H     1 <1>   0.0800 
 44 H       -5.6630    -2.5730     0.8310 H     1 <1>   0.0800 
 45 H       -6.3900    -4.5470    -1.2560 H     1 <1>   0.4500 
 46 H       -3.9330    -2.9380    -0.8540 H     1 <1>   0.0800 
 47 H       -4.2790    -3.8520    -2.2990 H     1 <1>   0.0800 
 48 H       -4.2990    -5.9560    -0.9790 H     1 <1>   0.0800 
 49 H       -3.8650    -5.0310     0.4660 H     1 <1>   0.0800 
 50 H       -2.0370    -5.9030    -0.6330 H     1 <1>   0.4000 
@<TRIPOS>BOND
  1   1   2  1   
  2   2   3  1   
  3   2   4  1   
  4   2   5  1   
  5   5   6  ar  
  6   5   7  ar  
  7   6   8  ar  
  8   6  29  1   
  9   7   9  ar  
 10   7  30  1   
 11   8  10  1   
 12   8  11  ar  
 13   9  11  ar  
 14   9  31  1   
 15  10  12  am  
 16  10  32  1   
 17  11  33  1   
 18  12  13  2   
 19  12  14  1   
 20  14  15  ar  
 21  14  16  ar  
 22  15  17  ar  
 23  15  18  1   
 24  16  19  ar  
 25  16  34  1   
 26  17  20  ar  
 27  18  21  1   
 28  18  22  1   
 29  19  20  ar  
 30  19  35  1   
 31  20  36  1   
 32  21  23  1   
 33  21  37  1   
 34  21  38  1   
 35  22  24  1   
 36  22  39  1   
 37  22  40  1   
 38  23  25  1   
 39  23  41  1   
 40  23  42  1   
 41  24  25  1   
 42  24  43  1   
 43  24  44  1   
 44  25  26  1   
 45  25  45  1   
 46  26  27  1   
 47  26  46  1   
 48  26  47  1   
 49  27  28  1   
 50  27  48  1   
 51  27  49  1   
 52  28  50  1   
@<TRIPOS>SUBSTRUCTURE
  1 ****  10 GROUP 4 **** **** 0

# MOE 2024.06 (io_trps.svl 2023.06)
