@<TRIPOS>MOLECULE
NONAME
35 35 1 0 0 
SMALL
USER_CHARGES


@<TRIPOS>ATOM
  1 CL       2.9110     1.0910    -1.2370 Cl    1 <1>  -0.1770 
  2 C        1.7380     2.2390    -0.6130 C.ar  1 <1>   0.1770 
  3 C        2.1850     3.3290     0.1300 C.ar  1 <1>   0.0820 
  4 C        0.3890     2.0370    -0.8630 C.ar  1 <1>  -0.1440 
  5 O        3.5110     3.4880     0.3670 O.3   1 <1>  -0.3630 
  6 C        1.2660     4.2580     0.6120 C.ar  1 <1>  -0.1440 
  7 C       -0.5180     2.9560    -0.3600 C.ar  1 <1>  -0.1500 
  8 C       -0.1030     0.8440    -1.6700 C.3   1 <1>  -0.0960 
  9 C        3.9830     3.1160     1.6500 C.3   1 <1>   0.1200 
 10 C       -0.0830     4.0530     0.3660 C.ar  1 <1>  -0.1500 
 11 C        1.6970     5.4980     1.3850 C.3   1 <1>  -0.0970 
 12 C        4.7190     1.7750     1.5420 C.3   1 <1>   0.3430 
 13 N        5.5670     1.7530     0.3180 N.4   1 <1>  -0.9060 
 14 C        6.0840     0.4280    -0.0430 C.3   1 <1>   0.4810 
 15 C        6.9580     0.6460    -1.2510 C.2   1 <1>  -0.2880 
 16 C        8.2920     0.5500    -1.2690 C.2   1 <1>  -0.3000 
 17 H       -1.5730     2.8290    -0.5340 H     1 <1>   0.1500 
 18 H        0.1800    -0.0740    -1.1870 H     1 <1>   0.0800 
 19 H        0.3250     0.8650    -2.6570 H     1 <1>   0.0800 
 20 H       -1.1740     0.8590    -1.7680 H     1 <1>   0.0800 
 21 H        3.1570     3.0480     2.3390 H     1 <1>   0.0800 
 22 H        4.6520     3.8880     1.9870 H     1 <1>   0.0800 
 23 H       -0.8120     4.7550     0.7350 H     1 <1>   0.1500 
 24 H        1.8620     5.2530     2.4180 H     1 <1>   0.0800 
 25 H        0.9390     6.2590     1.3320 H     1 <1>   0.0800 
 26 H        2.6010     5.9050     0.9690 H     1 <1>   0.0800 
 27 H        3.9820     0.9900     1.4850 H     1 <1>   0.0800 
 28 H        5.3170     1.6090     2.4240 H     1 <1>   0.0800 
 29 H        6.3520     2.4100     0.3780 H     1 <1>   0.4500 
 30 H        4.9750     2.0950    -0.4570 H     1 <1>   0.4500 
 31 H        5.2800    -0.2530    -0.2740 H     1 <1>   0.0800 
 32 H        6.6720     0.0230     0.7660 H     1 <1>   0.0800 
 33 H        6.3910     0.8900    -2.1360 H     1 <1>   0.1500 
 34 H        8.8900     0.7080    -2.1540 H     1 <1>   0.1500 
 35 H        8.9100     0.3040    -0.4210 H     1 <1>   0.1500 
@<TRIPOS>BOND
  1   1   2  1   
  2   2   3  ar  
  3   2   4  ar  
  4   3   5  1   
  5   3   6  ar  
  6   4   7  ar  
  7   4   8  1   
  8   5   9  1   
  9   6  10  ar  
 10   6  11  1   
 11   7  10  ar  
 12   7  17  1   
 13   8  18  1   
 14   8  19  1   
 15   8  20  1   
 16   9  12  1   
 17   9  21  1   
 18   9  22  1   
 19  10  23  1   
 20  11  24  1   
 21  11  25  1   
 22  11  26  1   
 23  12  13  1   
 24  12  27  1   
 25  12  28  1   
 26  13  14  1   
 27  13  29  1   
 28  13  30  1   
 29  14  15  1   
 30  14  31  1   
 31  14  32  1   
 32  15  16  2   
 33  15  33  1   
 34  16  34  1   
 35  16  35  1   
@<TRIPOS>SUBSTRUCTURE
  1 ****   5 GROUP 4 **** **** 0

# MOE 2024.06 (io_trps.svl 2023.06)
