@<TRIPOS>MOLECULE
NONAME
35 35 1 0 0 
SMALL
USER_CHARGES


@<TRIPOS>ATOM
  1 CL      -0.0260    -2.2980     3.9070 Cl    1 <1>  -0.1770 
  2 C        0.3370    -2.9890     2.3460 C.ar  1 <1>   0.1770 
  3 C        1.6060    -3.4590     2.0920 C.ar  1 <1>  -0.1500 
  4 C       -0.6550    -3.0530     1.3910 C.ar  1 <1>  -0.1500 
  5 C        1.9400    -4.0190     0.8550 C.ar  1 <1>   0.0860 
  6 C       -0.3590    -3.6010     0.1580 C.ar  1 <1>  -0.1500 
  7 C        0.9230    -4.0820    -0.1220 C.ar  1 <1>   0.0830 
  8 C        3.3030    -4.4980     0.6560 C.2   1 <1>   0.5440 
  9 O        1.2120    -4.6130    -1.3400 O.3   1 <1>  -0.3630 
 10 O        4.1970    -4.1770     1.4170 O.2   1 <1>  -0.5700 
 11 N        3.6600    -5.3090    -0.3830 N.am  1 <1>  -0.7300 
 12 C        0.2710    -4.6850    -2.3940 C.3   1 <1>   0.0400 
 13 C        4.8870    -6.1510    -0.4980 C.3   1 <1>   0.1400 
 14 C        6.0810    -5.3600    -1.0690 C.3   1 <1>   0.3430 
 15 N        6.4470    -4.2180    -0.1790 N.4   1 <1>  -0.9590 
 16 C        6.9450    -3.0340    -0.9340 C.3   1 <1>   0.2630 
 17 C        7.3720    -4.6150     0.9220 C.3   1 <1>   0.2630 
 18 H        2.3430    -3.3870     2.8720 H     1 <1>   0.1500 
 19 H       -1.6380    -2.6800     1.6150 H     1 <1>   0.1500 
 20 H       -1.1480    -3.6400    -0.5700 H     1 <1>   0.1500 
 21 H        2.8990    -5.5200    -1.0470 H     1 <1>   0.3700 
 22 H        0.7520    -5.1280    -3.2470 H     1 <1>   0.0800 
 23 H       -0.0590    -3.6900    -2.6400 H     1 <1>   0.0800 
 24 H       -0.5570    -5.2990    -2.0850 H     1 <1>   0.0800 
 25 H        4.6740    -6.9850    -1.1440 H     1 <1>   0.0800 
 26 H        5.1420    -6.5450     0.4710 H     1 <1>   0.0800 
 27 H        5.8010    -4.9900    -2.0410 H     1 <1>   0.0800 
 28 H        6.9280    -6.0140    -1.1930 H     1 <1>   0.0800 
 29 H        5.5480    -3.9560     0.2930 H     1 <1>   0.4500 
 30 H        7.8680    -3.2710    -1.4380 H     1 <1>   0.0800 
 31 H        7.1200    -2.2110    -0.2600 H     1 <1>   0.0800 
 32 H        6.2160    -2.7260    -1.6660 H     1 <1>   0.0800 
 33 H        8.3160    -4.9450     0.5220 H     1 <1>   0.0800 
 34 H        6.9370    -5.4130     1.5010 H     1 <1>   0.0800 
 35 H        7.5450    -3.7780     1.5790 H     1 <1>   0.0800 
@<TRIPOS>BOND
  1   1   2  1   
  2   2   3  ar  
  3   2   4  ar  
  4   3   5  ar  
  5   3  18  1   
  6   4   6  ar  
  7   4  19  1   
  8   5   7  ar  
  9   5   8  1   
 10   6   7  ar  
 11   6  20  1   
 12   7   9  1   
 13   8  10  2   
 14   8  11  am  
 15   9  12  1   
 16  11  13  1   
 17  11  21  1   
 18  12  22  1   
 19  12  23  1   
 20  12  24  1   
 21  13  14  1   
 22  13  25  1   
 23  13  26  1   
 24  14  15  1   
 25  14  27  1   
 26  14  28  1   
 27  15  16  1   
 28  15  17  1   
 29  15  29  1   
 30  16  30  1   
 31  16  31  1   
 32  16  32  1   
 33  17  33  1   
 34  17  34  1   
 35  17  35  1   
@<TRIPOS>SUBSTRUCTURE
  1 ****   8 GROUP 4 **** **** 0

# MOE 2024.06 (io_trps.svl 2023.06)
