@<TRIPOS>MOLECULE
NONAME
45 47 1 0 0 
SMALL
USER_CHARGES


@<TRIPOS>ATOM
  1 F       -0.1700    -2.1530     1.5310 F     1 <1>  -0.1900 
  2 C       -1.1320    -1.9840     0.6540 C.ar  1 <1>   0.1900 
  3 C       -1.0550    -2.6300    -0.5860 C.ar  1 <1>   0.1000 
  4 C       -2.1850    -1.1650     1.0100 C.ar  1 <1>  -0.1500 
  5 N       -0.0050    -3.4690    -0.9870 N.pl3 1 <1>  -0.8380 
  6 C       -2.1030    -2.4120    -1.4720 C.ar  1 <1>  -0.1500 
  7 C       -3.2140    -0.9690     0.1040 C.ar  1 <1>  -0.1500 
  8 C        1.3000    -2.8230    -1.3290 C.3   1 <1>   0.2090 
  9 C        0.0740    -4.8220    -0.3570 C.3   1 <1>   0.2090 
 10 C       -3.1690    -1.5930    -1.1340 C.ar  1 <1>  -0.1500 
 11 C        2.3230    -2.9250    -0.1770 C.3   1 <1>   0.3430 
 12 C        1.1230    -4.8810     0.7760 C.3   1 <1>   0.3430 
 13 N        2.4620    -4.3280     0.3620 N.4   1 <1>  -0.9590 
 14 C        3.4460    -4.3860     1.4750 C.3   1 <1>   0.4860 
 15 C        4.8090    -4.0050     0.9300 C.ar  1 <1>  -0.1430 
 16 C        5.4620    -4.8490     0.0440 C.ar  1 <1>  -0.1500 
 17 C        5.4120    -2.8130     1.3010 C.ar  1 <1>  -0.1500 
 18 C        6.6960    -4.5210    -0.4910 C.ar  1 <1>   0.0830 
 19 C        6.6480    -2.4690     0.7810 C.ar  1 <1>  -0.1500 
 20 O        7.1910    -5.4540    -1.3530 O.3   1 <1>  -0.3630 
 21 C        7.2950    -3.3070    -0.1140 C.ar  1 <1>   0.0830 
 22 C        8.5130    -5.4220    -1.8460 C.3   1 <1>   0.0400 
 23 O        8.4900    -2.8900    -0.5850 O.3   1 <1>  -0.5330 
 24 H       -2.2030    -0.6890     1.9740 H     1 <1>   0.1500 
 25 H       -2.0780    -2.8910    -2.4340 H     1 <1>   0.1500 
 26 H       -4.0470    -0.3340     0.3580 H     1 <1>   0.1500 
 27 H        1.1340    -1.7850    -1.5640 H     1 <1>   0.0800 
 28 H        1.7010    -3.2910    -2.2110 H     1 <1>   0.0800 
 29 H        0.3190    -5.5450    -1.1150 H     1 <1>   0.0800 
 30 H       -0.8920    -5.0870     0.0410 H     1 <1>   0.0800 
 31 H       -3.9690    -1.4400    -1.8380 H     1 <1>   0.1500 
 32 H        2.0050    -2.2650     0.6120 H     1 <1>   0.0800 
 33 H        3.2780    -2.5720    -0.5320 H     1 <1>   0.0800 
 34 H        1.2300    -5.9040     1.0960 H     1 <1>   0.0800 
 35 H        0.7430    -4.3150     1.6100 H     1 <1>   0.0800 
 36 H        2.8340    -4.9030    -0.4030 H     1 <1>   0.4500 
 37 H        3.4940    -5.3850     1.8790 H     1 <1>   0.0800 
 38 H        3.1590    -3.7100     2.2640 H     1 <1>   0.0800 
 39 H        5.0300    -5.7890    -0.2500 H     1 <1>   0.1500 
 40 H        4.9350    -2.1420     1.9970 H     1 <1>   0.1500 
 41 H        7.1050    -1.5420     1.0800 H     1 <1>   0.1500 
 42 H        8.6860    -6.3230    -2.4040 H     1 <1>   0.0800 
 43 H        9.1950    -5.3680    -1.0150 H     1 <1>   0.0800 
 44 H        8.6250    -4.5680    -2.4890 H     1 <1>   0.0800 
 45 H        8.7800    -2.0390    -0.2110 H     1 <1>   0.4500 
@<TRIPOS>BOND
  1   1   2  1   
  2   2   3  ar  
  3   2   4  ar  
  4   3   5  1   
  5   3   6  ar  
  6   4   7  ar  
  7   4  24  1   
  8   5   8  1   
  9   5   9  1   
 10   6  10  ar  
 11   6  25  1   
 12   7  10  ar  
 13   7  26  1   
 14   8  11  1   
 15   8  27  1   
 16   8  28  1   
 17   9  12  1   
 18   9  29  1   
 19   9  30  1   
 20  10  31  1   
 21  11  13  1   
 22  11  32  1   
 23  11  33  1   
 24  12  13  1   
 25  12  34  1   
 26  12  35  1   
 27  13  14  1   
 28  13  36  1   
 29  14  15  1   
 30  14  37  1   
 31  14  38  1   
 32  15  16  ar  
 33  15  17  ar  
 34  16  18  ar  
 35  16  39  1   
 36  17  19  ar  
 37  17  40  1   
 38  18  20  1   
 39  18  21  ar  
 40  19  21  ar  
 41  19  41  1   
 42  20  22  1   
 43  21  23  1   
 44  22  42  1   
 45  22  43  1   
 46  22  44  1   
 47  23  45  1   
@<TRIPOS>SUBSTRUCTURE
  1 ****  11 GROUP 4 **** **** 0

# MOE 2024.06 (io_trps.svl 2023.06)
