@<TRIPOS>MOLECULE
NONAME
58 60 1 0 0 
SMALL
USER_CHARGES


@<TRIPOS>ATOM
  1 O       -0.6600     0.0030    -0.7310 O.3   1 <1>  -0.3630 
  2 C       -1.7550    -0.4450    -0.0610 C.ar  1 <1>   0.0830 
  3 C       -0.8780     0.3460    -2.0800 C.3   1 <1>   0.0400 
  4 C       -2.1760    -1.7730    -0.2040 C.ar  1 <1>   0.0830 
  5 C       -2.4970     0.4200     0.7540 C.ar  1 <1>   0.0830 
  6 O       -1.5170    -2.7040    -0.9410 O.3   1 <1>  -0.3630 
  7 C       -3.3390    -2.2030     0.4120 C.ar  1 <1>  -0.1500 
  8 O       -2.1860     1.7210     0.9970 O.3   1 <1>  -0.3630 
  9 C       -3.6550    -0.0330     1.3630 C.ar  1 <1>  -0.1500 
 10 C       -0.1370    -2.8960    -0.7030 C.3   1 <1>   0.0400 
 11 C       -4.0910    -1.3380     1.1900 C.ar  1 <1>  -0.1430 
 12 C       -0.8400     2.0990     1.2040 C.3   1 <1>   0.0400 
 13 C       -5.3780    -1.8070     1.8370 C.3   1 <1>   0.4860 
 14 N       -6.4280    -1.8810     0.7880 N.4   1 <1>  -0.9590 
 15 C       -6.7190    -0.5230     0.1880 C.3   1 <1>   0.3430 
 16 C       -7.6890    -2.5280     1.3010 C.3   1 <1>   0.3430 
 17 C       -7.8160    -0.5650    -0.8970 C.3   1 <1>   0.2090 
 18 C       -8.7800    -2.6390     0.2170 C.3   1 <1>   0.2090 
 19 N       -9.0190    -1.3270    -0.4470 N.pl3 1 <1>  -0.8380 
 20 C      -10.1680    -0.6260    -0.0750 C.ar  1 <1>   0.1000 
 21 C      -11.3920    -0.8360    -0.7210 C.ar  1 <1>  -0.1430 
 22 C      -10.1030     0.2830     0.9760 C.ar  1 <1>  -0.1500 
 23 C      -12.5270    -0.1530    -0.2900 C.ar  1 <1>  -0.1430 
 24 C      -11.4810    -1.8130    -1.8960 C.3   1 <1>  -0.0970 
 25 C      -11.2250     0.9680     1.3910 C.ar  1 <1>  -0.1500 
 26 C      -12.4340     0.7470     0.7600 C.ar  1 <1>  -0.1500 
 27 C      -13.8920    -0.3570    -0.9350 C.3   1 <1>  -0.0970 
 28 H       -1.2240    -0.5240    -2.6120 H     1 <1>   0.0800 
 29 H       -1.6110     1.1320    -2.1250 H     1 <1>   0.0800 
 30 H        0.0530     0.6860    -2.4970 H     1 <1>   0.0800 
 31 H       -3.6320    -3.2290     0.2690 H     1 <1>   0.1500 
 32 H       -4.2030     0.6620     1.9760 H     1 <1>   0.1500 
 33 H        0.4230    -2.1540    -1.2430 H     1 <1>   0.0800 
 34 H        0.0560    -2.8190     0.3520 H     1 <1>   0.0800 
 35 H        0.1310    -3.8760    -1.0560 H     1 <1>   0.0800 
 36 H       -0.8310     3.0150     1.7670 H     1 <1>   0.0800 
 37 H       -0.3700     2.2570     0.2510 H     1 <1>   0.0800 
 38 H       -0.3340     1.3250     1.7530 H     1 <1>   0.0800 
 39 H       -5.6720    -1.1220     2.6150 H     1 <1>   0.0800 
 40 H       -5.2200    -2.7790     2.2760 H     1 <1>   0.0800 
 41 H       -6.0530    -2.4600     0.0260 H     1 <1>   0.4500 
 42 H       -5.8220    -0.1120    -0.2450 H     1 <1>   0.0800 
 43 H       -7.0430     0.1490     0.9650 H     1 <1>   0.0800 
 44 H       -8.0900    -1.9440     2.1130 H     1 <1>   0.0800 
 45 H       -7.4720    -3.5140     1.6770 H     1 <1>   0.0800 
 46 H       -7.4260    -1.0240    -1.7880 H     1 <1>   0.0800 
 47 H       -8.1050     0.4410    -1.1540 H     1 <1>   0.0800 
 48 H       -9.6970    -2.9830     0.6670 H     1 <1>   0.0800 
 49 H       -8.4910    -3.3620    -0.5250 H     1 <1>   0.0800 
 50 H       -9.1740     0.4570     1.4780 H     1 <1>   0.1500 
 51 H      -10.5330    -1.9230    -2.3880 H     1 <1>   0.0800 
 52 H      -12.1760    -1.4650    -2.6360 H     1 <1>   0.0800 
 53 H      -11.8000    -2.7760    -1.5420 H     1 <1>   0.0800 
 54 H      -11.1670     1.6710     2.2030 H     1 <1>   0.1500 
 55 H      -13.3050     1.2840     1.0950 H     1 <1>   0.1500 
 56 H      -14.1150    -1.4060    -1.0110 H     1 <1>   0.0800 
 57 H      -13.9000     0.0780    -1.9180 H     1 <1>   0.0800 
 58 H      -14.6680     0.1060    -0.3530 H     1 <1>   0.0800 
@<TRIPOS>BOND
  1   1   2  1   
  2   1   3  1   
  3   2   4  ar  
  4   2   5  ar  
  5   3  28  1   
  6   3  29  1   
  7   3  30  1   
  8   4   6  1   
  9   4   7  ar  
 10   5   8  1   
 11   5   9  ar  
 12   6  10  1   
 13   7  11  ar  
 14   7  31  1   
 15   8  12  1   
 16   9  11  ar  
 17   9  32  1   
 18  10  33  1   
 19  10  34  1   
 20  10  35  1   
 21  11  13  1   
 22  12  36  1   
 23  12  37  1   
 24  12  38  1   
 25  13  14  1   
 26  13  39  1   
 27  13  40  1   
 28  14  15  1   
 29  14  16  1   
 30  14  41  1   
 31  15  17  1   
 32  15  42  1   
 33  15  43  1   
 34  16  18  1   
 35  16  44  1   
 36  16  45  1   
 37  17  19  1   
 38  17  46  1   
 39  17  47  1   
 40  18  19  1   
 41  18  48  1   
 42  18  49  1   
 43  19  20  1   
 44  20  21  ar  
 45  20  22  ar  
 46  21  23  ar  
 47  21  24  1   
 48  22  25  ar  
 49  22  50  1   
 50  23  26  ar  
 51  23  27  1   
 52  24  51  1   
 53  24  52  1   
 54  24  53  1   
 55  25  26  ar  
 56  25  54  1   
 57  26  55  1   
 58  27  56  1   
 59  27  57  1   
 60  27  58  1   
@<TRIPOS>SUBSTRUCTURE
  1 ****  15 GROUP 4 **** **** 0

# MOE 2024.06 (io_trps.svl 2023.06)
