@<TRIPOS>MOLECULE
NONAME
46 47 1 0 0 
SMALL
USER_CHARGES


@<TRIPOS>ATOM
  1 S        0.0770     0.1570     0.1690 S.o2  1 <1>   1.3330 
  2 O        0.2740    -1.2280     0.5360 O.2   1 <1>  -0.6500 
  3 O       -0.7220     0.4850    -0.9910 O.2   1 <1>  -0.6500 
  4 N        1.6040     0.8640    -0.0490 N.am  1 <1>  -0.8490 
  5 C       -0.5660     1.0240     1.6090 C.3   1 <1>  -0.0550 
  6 C        1.5230     2.1370    -0.7760 C.3   1 <1>   0.1960 
  7 C        2.5280    -0.0570    -0.7190 C.3   1 <1>   0.1960 
  8 C       -1.9680     0.5690     2.0520 C.3   1 <1>  -0.2400 
  9 C        2.8900     2.8240    -0.7820 C.3   1 <1>  -0.1600 
 10 C        3.9390     0.5360    -0.7440 C.3   1 <1>  -0.1600 
 11 C        3.9570     1.9180    -1.4190 C.3   1 <1>  -0.0190 
 12 C        5.3420     2.5560    -1.3890 C.2   1 <1>   0.5690 
 13 O        5.8850     2.8200    -2.4330 O.2   1 <1>  -0.5700 
 14 N        5.9320     2.8080    -0.1900 N.am  1 <1>  -0.7300 
 15 C        7.2640     3.4350    -0.0200 C.3   1 <1>   0.1400 
 16 C        8.3270     2.3560     0.1840 C.3   1 <1>  -0.0170 
 17 C        9.6850     2.9960     0.4200 C.ar  1 <1>  -0.1440 
 18 C       10.4540     3.4080    -0.6570 C.ar  1 <1>  -0.1500 
 19 C       10.1640     3.1800     1.7080 C.ar  1 <1>  -0.1500 
 20 C       11.6900     3.9970    -0.4500 C.ar  1 <1>  -0.1500 
 21 C       11.3990     3.7680     1.9170 C.ar  1 <1>  -0.1500 
 22 C       12.1630     4.1770     0.8380 C.ar  1 <1>  -0.1500 
 23 H       -0.6020     2.0750     1.3980 H     1 <1>   0.0800 
 24 H        0.1140     0.8810     2.4260 H     1 <1>   0.0800 
 25 H        0.8070     2.7860    -0.3020 H     1 <1>   0.0800 
 26 H        1.1960     1.9630    -1.7890 H     1 <1>   0.0800 
 27 H        2.1850    -0.2570    -1.7220 H     1 <1>   0.0800 
 28 H        2.5660    -0.9940    -0.1870 H     1 <1>   0.0800 
 29 H       -2.6770     0.7230     1.2570 H     1 <1>   0.0800 
 30 H       -2.2860     1.1260     2.9160 H     1 <1>   0.0800 
 31 H       -1.9540    -0.4790     2.3010 H     1 <1>   0.0800 
 32 H        3.1590     3.0680     0.2310 H     1 <1>   0.0800 
 33 H        2.8240     3.7430    -1.3370 H     1 <1>   0.0800 
 34 H        4.5950    -0.1320    -1.2750 H     1 <1>   0.0800 
 35 H        4.2940     0.6070     0.2690 H     1 <1>   0.0800 
 36 H        3.6950     1.7800    -2.4550 H     1 <1>   0.0800 
 37 H        5.4460     2.5450     0.6680 H     1 <1>   0.3700 
 38 H        7.2430     4.0970     0.8290 H     1 <1>   0.0800 
 39 H        7.5070     4.0170    -0.8940 H     1 <1>   0.0800 
 40 H        8.3730     1.7330    -0.6910 H     1 <1>   0.0800 
 41 H        8.0650     1.7410     1.0260 H     1 <1>   0.0800 
 42 H       10.0930     3.2720    -1.6620 H     1 <1>   0.1500 
 43 H        9.5790     2.8660     2.5550 H     1 <1>   0.1500 
 44 H       12.2810     4.3130    -1.2900 H     1 <1>   0.1500 
 45 H       11.7670     3.9080     2.9190 H     1 <1>   0.1500 
 46 H       13.1240     4.6340     1.0000 H     1 <1>   0.1500 
@<TRIPOS>BOND
  1   1   2  2   
  2   1   3  2   
  3   1   4  am  
  4   1   5  1   
  5   4   6  1   
  6   4   7  1   
  7   5   8  1   
  8   5  23  1   
  9   5  24  1   
 10   6   9  1   
 11   6  25  1   
 12   6  26  1   
 13   7  10  1   
 14   7  27  1   
 15   7  28  1   
 16   8  29  1   
 17   8  30  1   
 18   8  31  1   
 19   9  11  1   
 20   9  32  1   
 21   9  33  1   
 22  10  11  1   
 23  10  34  1   
 24  10  35  1   
 25  11  12  1   
 26  11  36  1   
 27  12  13  2   
 28  12  14  am  
 29  14  15  1   
 30  14  37  1   
 31  15  16  1   
 32  15  38  1   
 33  15  39  1   
 34  16  17  1   
 35  16  40  1   
 36  16  41  1   
 37  17  18  ar  
 38  17  19  ar  
 39  18  20  ar  
 40  18  42  1   
 41  19  21  ar  
 42  19  43  1   
 43  20  22  ar  
 44  20  44  1   
 45  21  22  ar  
 46  21  45  1   
 47  22  46  1   
@<TRIPOS>SUBSTRUCTURE
  1 ****  14 GROUP 4 **** **** 0

# MOE 2024.06 (io_trps.svl 2023.06)
