@<TRIPOS>MOLECULE
NONAME
41 43 1 0 0 
SMALL
USER_CHARGES


@<TRIPOS>ATOM
  1 O        0.5770     1.0370    -1.8830 O.2   1 <1>  -0.5700 
  2 C        0.9570     1.5640    -0.8570 C.2   1 <1>   0.5440 
  3 N        0.0390     2.1790    -0.0520 N.am  1 <1>  -0.7300 
  4 C        2.3620     1.5250    -0.4860 C.ar  1 <1>   0.0860 
  5 C       -1.4070     2.2900    -0.3220 C.3   1 <1>   0.2200 
  6 C        3.1870     0.4870    -0.9200 C.ar  1 <1>  -0.1500 
  7 C        2.9510     2.5100     0.3090 C.ar  1 <1>  -0.1500 
  8 C       -1.7580     3.7820    -0.3510 C.3   1 <1>  -0.1600 
  9 C       -2.1490     1.4710     0.7430 C.3   1 <1>  -0.1600 
 10 C        4.5240     0.4250    -0.5740 C.ar  1 <1>  -0.1500 
 11 C        4.2880     2.4550     0.6610 C.ar  1 <1>  -0.1500 
 12 C       -3.2530     4.0950    -0.5370 C.3   1 <1>  -0.1600 
 13 C       -3.6250     1.2430     0.3820 C.3   1 <1>  -0.1600 
 14 C        5.0940     1.4090     0.2250 C.ar  1 <1>  -0.0230 
 15 C       -4.0770     3.7980     0.7240 C.3   1 <1>  -0.1600 
 16 C       -4.5850     2.3530     0.8390 C.3   1 <1>  -0.1600 
 17 N        6.4650     1.3490     0.5820 N.pl3 1 <1>   0.3260 
 18 C        7.1720     0.3160     1.0600 C.2   1 <1>   0.0360 
 19 C        7.3970     2.3100     0.5380 C.2   1 <1>   0.0370 
 20 N        8.4030     0.6190     1.2820 N.2   1 <1>  -0.3380 
 21 N        8.5480     1.9030     0.9470 N.2   1 <1>  -0.3380 
 22 H        0.3240     2.5180     0.8650 H     1 <1>   0.3700 
 23 H       -1.6180     1.8690    -1.2910 H     1 <1>   0.0800 
 24 H        2.7620    -0.2830    -1.5440 H     1 <1>   0.1500 
 25 H        2.3560     3.3390     0.6500 H     1 <1>   0.1500 
 26 H       -1.2240     4.2230    -1.1750 H     1 <1>   0.0800 
 27 H       -1.4120     4.2530     0.5520 H     1 <1>   0.0800 
 28 H       -2.0650     1.9310     1.7110 H     1 <1>   0.0800 
 29 H       -1.6810     0.5040     0.7910 H     1 <1>   0.0800 
 30 H        5.1230    -0.3940    -0.9360 H     1 <1>   0.1500 
 31 H        4.7030     3.2320     1.2800 H     1 <1>   0.1500 
 32 H       -3.6510     3.5690    -1.3880 H     1 <1>   0.0800 
 33 H       -3.3380     5.1480    -0.7470 H     1 <1>   0.0800 
 34 H       -3.9510     0.3220     0.8330 H     1 <1>   0.0800 
 35 H       -3.7140     1.1100    -0.6830 H     1 <1>   0.0800 
 36 H       -4.9360     4.4470     0.7330 H     1 <1>   0.0800 
 37 H       -3.4980     4.0450     1.5970 H     1 <1>   0.0800 
 38 H       -4.8490     2.1780     1.8680 H     1 <1>   0.0800 
 39 H       -5.4920     2.2590     0.2660 H     1 <1>   0.0800 
 40 H        6.7360    -0.6500     1.2330 H     1 <1>   0.1500 
 41 H        7.1840     3.3040     0.1910 H     1 <1>   0.1500 
@<TRIPOS>BOND
  1   1   2  2   
  2   2   3  am  
  3   2   4  1   
  4   3   5  1   
  5   3  22  1   
  6   4   6  ar  
  7   4   7  ar  
  8   5   8  1   
  9   5   9  1   
 10   5  23  1   
 11   6  10  ar  
 12   6  24  1   
 13   7  11  ar  
 14   7  25  1   
 15   8  12  1   
 16   8  26  1   
 17   8  27  1   
 18   9  13  1   
 19   9  28  1   
 20   9  29  1   
 21  10  14  ar  
 22  10  30  1   
 23  11  14  ar  
 24  11  31  1   
 25  12  15  1   
 26  12  32  1   
 27  12  33  1   
 28  13  16  1   
 29  13  34  1   
 30  13  35  1   
 31  14  17  1   
 32  15  16  1   
 33  15  36  1   
 34  15  37  1   
 35  16  38  1   
 36  16  39  1   
 37  17  18  1   
 38  17  19  1   
 39  18  20  2   
 40  18  40  1   
 41  19  21  2   
 42  19  41  1   
 43  20  21  1   
@<TRIPOS>SUBSTRUCTURE
  1 ****   4 GROUP 4 **** **** 0

# MOE 2024.06 (io_trps.svl 2023.06)
