@<TRIPOS>MOLECULE
NONAME
38 38 1 0 0 
SMALL
USER_CHARGES


@<TRIPOS>ATOM
  1 CL      -0.5240     0.1630     1.6250 Cl    1 <1>  -0.1770 
  2 C       -1.8920    -0.6380     0.9000 C.ar  1 <1>   0.1770 
  3 C       -2.2010    -0.3890    -0.4230 C.ar  1 <1>  -0.1500 
  4 C       -2.6480    -1.5100     1.6600 C.ar  1 <1>  -0.1500 
  5 C       -3.2910    -1.0220    -0.9970 C.ar  1 <1>  -0.1500 
  6 C       -3.7370    -2.1420     1.0830 C.ar  1 <1>  -0.1500 
  7 C       -4.0660    -1.8970    -0.2450 C.ar  1 <1>  -0.1430 
  8 C       -5.2710    -2.5810    -0.8660 C.3   1 <1>   0.4870 
  9 N       -6.5090    -2.0630    -0.2280 N.4   1 <1>  -0.9590 
 10 C       -7.7110    -2.8770    -0.5810 C.3   1 <1>   0.3430 
 11 C       -6.6880    -0.5800    -0.3160 C.3   1 <1>   0.3430 
 12 C       -7.9720    -3.9920     0.4620 C.3   1 <1>   0.2000 
 13 C       -7.3370    -0.0180     0.9760 C.3   1 <1>   0.2000 
 14 O       -6.7750    -4.5880     0.8310 O.3   1 <1>  -0.6800 
 15 C       -8.8800    -5.0930    -0.0790 C.3   1 <1>  -0.2400 
 16 O       -6.9820    -0.8170     2.0580 O.3   1 <1>  -0.6800 
 17 C       -8.8650     0.0210     0.9350 C.3   1 <1>  -0.2400 
 18 H       -1.5900     0.2910    -0.9910 H     1 <1>   0.1500 
 19 H       -2.3830    -1.6890     2.6870 H     1 <1>   0.1500 
 20 H       -3.5210    -0.8260    -2.0310 H     1 <1>   0.1500 
 21 H       -4.3220    -2.8250     1.6790 H     1 <1>   0.1500 
 22 H       -5.1920    -3.6450    -0.7040 H     1 <1>   0.0800 
 23 H       -5.2940    -2.3990    -1.9270 H     1 <1>   0.0800 
 24 H       -6.3680    -2.2160     0.7900 H     1 <1>   0.4500 
 25 H       -7.5770    -3.3260    -1.5510 H     1 <1>   0.0800 
 26 H       -8.5840    -2.2500    -0.6340 H     1 <1>   0.0800 
 27 H       -7.2720    -0.3110    -1.1800 H     1 <1>   0.0800 
 28 H       -5.7250    -0.1090    -0.4160 H     1 <1>   0.0800 
 29 H       -8.4080    -3.5590     1.3470 H     1 <1>   0.0800 
 30 H       -6.9590     0.9760     1.1520 H     1 <1>   0.0800 
 31 H       -6.9430    -5.3360     1.4430 H     1 <1>   0.4000 
 32 H       -8.4350    -5.5700    -0.9360 H     1 <1>   0.0800 
 33 H       -9.8270    -4.6790    -0.3750 H     1 <1>   0.0800 
 34 H       -9.0670    -5.8330     0.6790 H     1 <1>   0.0800 
 35 H       -7.2690    -0.3980     2.8990 H     1 <1>   0.4000 
 36 H       -9.2850    -0.9660     0.8860 H     1 <1>   0.0800 
 37 H       -9.1980     0.5820     0.0800 H     1 <1>   0.0800 
 38 H       -9.2440     0.5140     1.8140 H     1 <1>   0.0800 
@<TRIPOS>BOND
  1   1   2  1   
  2   2   3  ar  
  3   2   4  ar  
  4   3   5  ar  
  5   3  18  1   
  6   4   6  ar  
  7   4  19  1   
  8   5   7  ar  
  9   5  20  1   
 10   6   7  ar  
 11   6  21  1   
 12   7   8  1   
 13   8   9  1   
 14   8  22  1   
 15   8  23  1   
 16   9  10  1   
 17   9  11  1   
 18   9  24  1   
 19  10  12  1   
 20  10  25  1   
 21  10  26  1   
 22  11  13  1   
 23  11  27  1   
 24  11  28  1   
 25  12  14  1   
 26  12  15  1   
 27  12  29  1   
 28  13  16  1   
 29  13  17  1   
 30  13  30  1   
 31  14  31  1   
 32  15  32  1   
 33  15  33  1   
 34  15  34  1   
 35  16  35  1   
 36  17  36  1   
 37  17  37  1   
 38  17  38  1   
@<TRIPOS>SUBSTRUCTURE
  1 ****   9 GROUP 4 **** **** 0

# MOE 2024.06 (io_trps.svl 2023.06)
