@<TRIPOS>MOLECULE
NONAME
32 32 1 0 0 
SMALL
USER_CHARGES


@<TRIPOS>ATOM
  1 S       -0.2760     2.8040     0.2610 S.3   1 <1>  -0.4100 
  2 C       -1.2830     1.3920    -0.2540 C.3   1 <1>   0.0700 
  3 C       -2.7230     1.6590     0.1870 C.3   1 <1>  -0.1600 
  4 C       -3.6490     0.5020    -0.2130 C.3   1 <1>  -0.1600 
  5 C       -5.0880     0.7680     0.2280 C.3   1 <1>   0.1200 
  6 O       -5.8760    -0.3290    -0.1700 O.3   1 <1>  -0.3630 
  7 C       -7.2100    -0.3940     0.0900 C.ar  1 <1>   0.0830 
  8 C       -7.9070    -1.5310    -0.3250 C.ar  1 <1>  -0.1440 
  9 C       -7.8840     0.6280     0.7540 C.ar  1 <1>  -0.1500 
 10 C       -9.2690    -1.6410    -0.0520 C.ar  1 <1>  -0.1430 
 11 C       -7.1660    -2.6480    -1.0640 C.3   1 <1>  -0.0970 
 12 C       -9.2360     0.5170     1.0110 C.ar  1 <1>  -0.1500 
 13 C       -9.9220    -0.6140     0.6110 C.ar  1 <1>  -0.1500 
 14 C      -10.0800    -2.8660    -0.4540 C.3   1 <1>  -0.0970 
 15 H        0.9690     2.4560    -0.1800 H     1 <1>   0.1800 
 16 H       -0.8770     0.5160     0.2210 H     1 <1>   0.0800 
 17 H       -1.2020     1.3110    -1.3240 H     1 <1>   0.0800 
 18 H       -3.0670     2.5710    -0.2700 H     1 <1>   0.0800 
 19 H       -2.7450     1.7860     1.2560 H     1 <1>   0.0800 
 20 H       -3.3070    -0.4090     0.2470 H     1 <1>   0.0800 
 21 H       -3.6300     0.3790    -1.2820 H     1 <1>   0.0800 
 22 H       -5.4750     1.6530    -0.2470 H     1 <1>   0.0800 
 23 H       -5.1490     0.8580     1.2990 H     1 <1>   0.0800 
 24 H       -7.3790     1.5150     1.0800 H     1 <1>   0.1500 
 25 H       -7.7990    -3.1250    -1.7880 H     1 <1>   0.0800 
 26 H       -6.3150    -2.2660    -1.5970 H     1 <1>   0.0800 
 27 H       -6.8260    -3.3820    -0.3570 H     1 <1>   0.0800 
 28 H       -9.7560     1.3070     1.5230 H     1 <1>   0.1500 
 29 H      -10.9750    -0.6870     0.8210 H     1 <1>   0.1500 
 30 H       -9.5850    -3.7630    -0.1270 H     1 <1>   0.0800 
 31 H      -10.1930    -2.8950    -1.5230 H     1 <1>   0.0800 
 32 H      -11.0580    -2.8450    -0.0100 H     1 <1>   0.0800 
@<TRIPOS>BOND
  1   1   2  1   
  2   1  15  1   
  3   2   3  1   
  4   2  16  1   
  5   2  17  1   
  6   3   4  1   
  7   3  18  1   
  8   3  19  1   
  9   4   5  1   
 10   4  20  1   
 11   4  21  1   
 12   5   6  1   
 13   5  22  1   
 14   5  23  1   
 15   6   7  1   
 16   7   8  ar  
 17   7   9  ar  
 18   8  10  ar  
 19   8  11  1   
 20   9  12  ar  
 21   9  24  1   
 22  10  13  ar  
 23  10  14  1   
 24  11  25  1   
 25  11  26  1   
 26  11  27  1   
 27  12  13  ar  
 28  12  28  1   
 29  13  29  1   
 30  14  30  1   
 31  14  31  1   
 32  14  32  1   
@<TRIPOS>SUBSTRUCTURE
  1 ****   6 GROUP 4 **** **** 0

# MOE 2024.06 (io_trps.svl 2023.06)
