@<TRIPOS>MOLECULE
NONAME
34 35 1 0 0 
SMALL
USER_CHARGES


@<TRIPOS>ATOM
  1 F       -0.9840    -1.4080     1.5820 F     1 <1>  -0.1900 
  2 C       -1.9770    -1.7020     0.7860 C.ar  1 <1>   0.1900 
  3 C       -2.1930    -3.0230     0.4490 C.ar  1 <1>  -0.1500 
  4 C       -2.7760    -0.6830     0.3100 C.ar  1 <1>  -0.1500 
  5 C       -3.2470    -3.3320    -0.3940 C.ar  1 <1>  -0.1500 
  6 C       -3.8270    -1.0050    -0.5310 C.ar  1 <1>  -0.1500 
  7 C       -4.0780    -2.3260    -0.8930 C.ar  1 <1>  -0.1430 
  8 C       -5.2650    -2.6050    -1.8360 C.3   1 <1>   0.5340 
  9 N       -6.5630    -2.1390    -1.2260 N.pl3 1 <1>  -0.4870 
 10 C       -5.3400    -4.0150    -2.3460 C.1   1 <1>   0.3570 
 11 N       -7.0440    -0.8960    -1.5350 N.2   1 <1>  -0.5030 
 12 C       -7.3120    -2.7600    -0.0940 C.3   1 <1>   0.2700 
 13 N       -5.3620    -5.0910    -2.7220 N.1   1 <1>  -0.5570 
 14 C       -7.9770    -0.5920    -0.7490 C.2   1 <1>   0.3280 
 15 C       -8.2860    -1.6350     0.2920 C.3   1 <1>  -0.0990 
 16 C       -8.0880    -3.9900    -0.5790 C.3   1 <1>  -0.2400 
 17 C       -6.3990    -3.1250     1.0800 C.3   1 <1>  -0.2400 
 18 C       -8.7670     0.6960    -0.7710 C.3   1 <1>  -0.1790 
 19 H       -1.5490    -3.7900     0.8400 H     1 <1>   0.1500 
 20 H       -2.5790     0.3360     0.5940 H     1 <1>   0.1500 
 21 H       -3.4030    -4.3680    -0.6460 H     1 <1>   0.1500 
 22 H       -4.4610    -0.2170    -0.9050 H     1 <1>   0.1500 
 23 H       -5.1060    -1.9960    -2.7080 H     1 <1>   0.0800 
 24 H       -8.0870    -1.2470     1.2730 H     1 <1>   0.0800 
 25 H       -9.3130    -1.9420     0.2280 H     1 <1>   0.0800 
 26 H       -8.6500    -3.7520    -1.4650 H     1 <1>   0.0800 
 27 H       -8.7720    -4.3190     0.1820 H     1 <1>   0.0800 
 28 H       -7.4270    -4.8080    -0.7930 H     1 <1>   0.0800 
 29 H       -5.8160    -2.2730     1.3830 H     1 <1>   0.0800 
 30 H       -5.7420    -3.9310     0.8140 H     1 <1>   0.0800 
 31 H       -6.9900    -3.4460     1.9190 H     1 <1>   0.0800 
 32 H       -9.8080     0.4850    -0.9290 H     1 <1>   0.0800 
 33 H       -8.4140     1.3240    -1.5690 H     1 <1>   0.0800 
 34 H       -8.6450     1.2160     0.1610 H     1 <1>   0.0800 
@<TRIPOS>BOND
  1   1   2  1   
  2   2   3  ar  
  3   2   4  ar  
  4   3   5  ar  
  5   3  19  1   
  6   4   6  ar  
  7   4  20  1   
  8   5   7  ar  
  9   5  21  1   
 10   6   7  ar  
 11   6  22  1   
 12   7   8  1   
 13   8   9  1   
 14   8  10  1   
 15   8  23  1   
 16   9  11  1   
 17   9  12  1   
 18  10  13  3   
 19  11  14  2   
 20  12  15  1   
 21  12  16  1   
 22  12  17  1   
 23  14  15  1   
 24  14  18  1   
 25  15  24  1   
 26  15  25  1   
 27  16  26  1   
 28  16  27  1   
 29  16  28  1   
 30  17  29  1   
 31  17  30  1   
 32  17  31  1   
 33  18  32  1   
 34  18  33  1   
 35  18  34  1   
@<TRIPOS>SUBSTRUCTURE
  1 ****   7 GROUP 4 **** **** 0

# MOE 2024.06 (io_trps.svl 2023.06)
