@<TRIPOS>MOLECULE
NONAME
56 57 1 0 0 
SMALL
USER_CHARGES


@<TRIPOS>ATOM
  1 S       -0.7130     0.0750     1.2800 S.o2  1 <1>   1.4470 
  2 O       -1.4710    -0.1790     2.4880 O.2   1 <1>  -0.6500 
  3 O        0.6580    -0.3880     1.2380 O.2   1 <1>  -0.6500 
  4 N       -1.5550    -0.7900     0.0860 N.am  1 <1>  -0.8490 
  5 C       -0.7970     1.8260     0.7250 C.ar  1 <1>  -0.0090 
  6 C       -2.9790    -0.4250     0.0510 C.3   1 <1>   0.1960 
  7 C       -1.3700    -2.2340     0.2500 C.3   1 <1>   0.1960 
  8 C       -0.4360     2.1830    -0.5840 C.ar  1 <1>  -0.1440 
  9 C       -1.2170     2.8600     1.5770 C.ar  1 <1>  -0.1430 
 10 C       -3.6960    -1.1220    -1.1110 C.3   1 <1>  -0.0190 
 11 C       -2.0210    -2.9890    -0.9140 C.3   1 <1>  -0.1600 
 12 C       -0.5450     3.4930    -1.0220 C.ar  1 <1>  -0.1500 
 13 C        0.0950     1.1780    -1.6040 C.3   1 <1>  -0.0970 
 14 C       -1.3160     4.1640     1.1190 C.ar  1 <1>  -0.1500 
 15 C       -1.5800     2.6360     3.0420 C.3   1 <1>  -0.0970 
 16 C       -5.1550    -0.6920    -1.1300 C.2   1 <1>   0.5690 
 17 C       -3.5120    -2.6510    -1.0410 C.3   1 <1>  -0.1600 
 18 C       -0.9910     4.4900    -0.1800 C.ar  1 <1>  -0.1430 
 19 O       -5.5130     0.0740    -1.9900 O.2   1 <1>  -0.5700 
 20 N       -5.9990    -1.1620    -0.1700 N.am  1 <1>  -0.7300 
 21 C       -1.1090     5.9200    -0.6750 C.3   1 <1>  -0.0970 
 22 C       -7.4230    -0.8010     0.0440 C.3   1 <1>   0.2200 
 23 C       -8.2360    -0.8090    -1.2630 C.3   1 <1>   0.1200 
 24 C       -7.4740     0.5510     0.7550 C.3   1 <1>  -0.2400 
 25 O       -9.5990    -0.7610    -0.9580 O.3   1 <1>  -0.5600 
 26 C      -10.4190    -0.6960    -2.0790 C.3   1 <1>   0.0400 
 27 H       -3.0780     0.6400    -0.0770 H     1 <1>   0.0800 
 28 H       -3.4480    -0.6940     0.9840 H     1 <1>   0.0800 
 29 H       -1.7960    -2.5530     1.1880 H     1 <1>   0.0800 
 30 H       -0.3170    -2.4650     0.2660 H     1 <1>   0.0800 
 31 H       -3.2470    -0.7690    -2.0230 H     1 <1>   0.0800 
 32 H       -1.9010    -4.0470    -0.7620 H     1 <1>   0.0800 
 33 H       -1.5080    -2.7280    -1.8230 H     1 <1>   0.0800 
 34 H       -0.2780     3.7480    -2.0330 H     1 <1>   0.1500 
 35 H        0.8040     0.5070    -1.1580 H     1 <1>   0.0800 
 36 H        0.5980     1.6800    -2.4110 H     1 <1>   0.0800 
 37 H       -0.7160     0.6090    -2.0220 H     1 <1>   0.0800 
 38 H       -1.6500     4.9450     1.7800 H     1 <1>   0.1500 
 39 H       -2.5040     2.0920     3.1170 H     1 <1>   0.0800 
 40 H       -1.7010     3.5680     3.5630 H     1 <1>   0.0800 
 41 H       -0.8020     2.0870     3.5430 H     1 <1>   0.0800 
 42 H       -3.9180    -3.1080    -1.9270 H     1 <1>   0.0800 
 43 H       -4.0320    -3.0500    -0.1880 H     1 <1>   0.0800 
 44 H       -5.6270    -1.7920     0.5400 H     1 <1>   0.3700 
 45 H       -0.1660     6.4230    -0.5610 H     1 <1>   0.0800 
 46 H       -1.8570     6.4520    -0.1160 H     1 <1>   0.0800 
 47 H       -1.3890     5.9350    -1.7130 H     1 <1>   0.0800 
 48 H       -7.8530    -1.5490     0.6880 H     1 <1>   0.0800 
 49 H       -8.0450    -1.7130    -1.8130 H     1 <1>   0.0800 
 50 H       -7.9900     0.0490    -1.8650 H     1 <1>   0.0800 
 51 H       -7.0560     1.3180     0.1280 H     1 <1>   0.0800 
 52 H       -6.9330     0.5100     1.6820 H     1 <1>   0.0800 
 53 H       -8.4960     0.8090     0.9680 H     1 <1>   0.0800 
 54 H      -11.4410    -0.6670    -1.7460 H     1 <1>   0.0800 
 55 H      -10.2590    -1.5690    -2.6880 H     1 <1>   0.0800 
 56 H      -10.1920     0.1990    -2.6330 H     1 <1>   0.0800 
@<TRIPOS>BOND
  1   1   2  2   
  2   1   3  2   
  3   1   4  am  
  4   1   5  1   
  5   4   6  1   
  6   4   7  1   
  7   5   8  ar  
  8   5   9  ar  
  9   6  10  1   
 10   6  27  1   
 11   6  28  1   
 12   7  11  1   
 13   7  29  1   
 14   7  30  1   
 15   8  12  ar  
 16   8  13  1   
 17   9  14  ar  
 18   9  15  1   
 19  10  16  1   
 20  10  17  1   
 21  10  31  1   
 22  11  17  1   
 23  11  32  1   
 24  11  33  1   
 25  12  18  ar  
 26  12  34  1   
 27  13  35  1   
 28  13  36  1   
 29  13  37  1   
 30  14  18  ar  
 31  14  38  1   
 32  15  39  1   
 33  15  40  1   
 34  15  41  1   
 35  16  19  2   
 36  16  20  am  
 37  17  42  1   
 38  17  43  1   
 39  18  21  1   
 40  20  22  1   
 41  20  44  1   
 42  21  45  1   
 43  21  46  1   
 44  21  47  1   
 45  22  23  1   
 46  22  24  1   
 47  22  48  1   
 48  23  25  1   
 49  23  49  1   
 50  23  50  1   
 51  24  51  1   
 52  24  52  1   
 53  24  53  1   
 54  25  26  1   
 55  26  54  1   
 56  26  55  1   
 57  26  56  1   
@<TRIPOS>SUBSTRUCTURE
  1 ****   6 GROUP 4 **** **** 0

# MOE 2024.06 (io_trps.svl 2023.06)
