@<TRIPOS>MOLECULE
NONAME
40 41 1 0 0 
SMALL
USER_CHARGES


@<TRIPOS>ATOM
  1 CL      -1.1360    -1.9600     2.8390 Cl    1 <1>  -0.1770 
  2 C       -1.1540    -2.1400     1.0970 C.ar  1 <1>   0.1770 
  3 C       -2.2710    -1.7200     0.3730 C.ar  1 <1>   0.1170 
  4 C       -0.0490    -2.7000     0.4860 C.ar  1 <1>  -0.1500 
  5 N       -3.3750    -1.1540     1.0320 N.am  1 <1>  -0.5470 
  6 C       -2.2400    -1.8640    -1.0140 C.ar  1 <1>  -0.1500 
  7 C       -0.0580    -2.8370    -0.8890 C.ar  1 <1>   0.1770 
  8 C       -4.6520    -0.9320     0.6170 C.2   1 <1>   0.6900 
  9 C       -1.1400    -2.4230    -1.6440 C.ar  1 <1>  -0.1500 
 10 CL       1.3240    -3.5430    -1.6870 Cl    1 <1>  -0.1770 
 11 O       -5.1720     0.1030     0.9830 O.2   1 <1>  -0.5700 
 12 N       -5.3400    -1.8300    -0.1630 N.am  1 <1>  -0.6600 
 13 C       -5.1020    -3.2980    -0.1080 C.3   1 <1>   0.1400 
 14 C       -6.5890    -1.4280    -0.8630 C.3   1 <1>   0.1400 
 15 C       -6.2980    -3.9900     0.5500 C.3   1 <1>  -0.1600 
 16 C       -7.7920    -2.0990    -0.1980 C.3   1 <1>  -0.1600 
 17 C       -7.6290    -3.6310    -0.1440 C.3   1 <1>  -0.0190 
 18 C       -8.8400    -4.2910     0.5150 C.2   1 <1>   0.6590 
 19 O       -8.7780    -4.8620     1.5750 O.2   1 <1>  -0.5700 
 20 O       -9.9760    -4.2030    -0.1660 O.3   1 <1>  -0.4300 
 21 C      -11.1710    -4.7610     0.3250 C.3   1 <1>   0.1200 
 22 C      -12.2770    -4.4790    -0.6870 C.3   1 <1>  -0.2400 
 23 H        0.7980    -3.0200     1.0630 H     1 <1>   0.1500 
 24 H       -3.1600    -0.5980     1.8600 H     1 <1>   0.3700 
 25 H       -3.0780    -1.5320    -1.6030 H     1 <1>   0.1500 
 26 H       -1.1160    -2.5360    -2.7140 H     1 <1>   0.1500 
 27 H       -4.2160    -3.5220     0.4600 H     1 <1>   0.0800 
 28 H       -4.9620    -3.6690    -1.1090 H     1 <1>   0.0800 
 29 H       -6.5230    -1.7260    -1.8950 H     1 <1>   0.0800 
 30 H       -6.7090    -0.3570    -0.8350 H     1 <1>   0.0800 
 31 H       -6.3380    -3.6970     1.5850 H     1 <1>   0.0800 
 32 H       -6.1520    -5.0560     0.5210 H     1 <1>   0.0800 
 33 H       -8.6820    -1.8450    -0.7470 H     1 <1>   0.0800 
 34 H       -7.9000    -1.7070     0.7990 H     1 <1>   0.0800 
 35 H       -7.5870    -4.0000    -1.1530 H     1 <1>   0.0800 
 36 H      -11.3930    -4.3080     1.2770 H     1 <1>   0.0800 
 37 H      -11.0250    -5.8210     0.4550 H     1 <1>   0.0800 
 38 H      -12.4020    -3.4190    -0.8130 H     1 <1>   0.0800 
 39 H      -13.2040    -4.8940    -0.3360 H     1 <1>   0.0800 
 40 H      -12.0370    -4.9300    -1.6340 H     1 <1>   0.0800 
@<TRIPOS>BOND
  1   1   2  1   
  2   2   3  ar  
  3   2   4  ar  
  4   3   5  1   
  5   3   6  ar  
  6   4   7  ar  
  7   4  23  1   
  8   5   8  am  
  9   5  24  1   
 10   6   9  ar  
 11   6  25  1   
 12   7   9  ar  
 13   7  10  1   
 14   8  11  2   
 15   8  12  am  
 16   9  26  1   
 17  12  13  1   
 18  12  14  1   
 19  13  15  1   
 20  13  27  1   
 21  13  28  1   
 22  14  16  1   
 23  14  29  1   
 24  14  30  1   
 25  15  17  1   
 26  15  31  1   
 27  15  32  1   
 28  16  17  1   
 29  16  33  1   
 30  16  34  1   
 31  17  18  1   
 32  17  35  1   
 33  18  19  2   
 34  18  20  1   
 35  20  21  1   
 36  21  22  1   
 37  21  36  1   
 38  21  37  1   
 39  22  38  1   
 40  22  39  1   
 41  22  40  1   
@<TRIPOS>SUBSTRUCTURE
  1 ****  13 GROUP 4 **** **** 0

# MOE 2024.06 (io_trps.svl 2023.06)
