@<TRIPOS>MOLECULE
NONAME
36 37 1 0 0 
SMALL
USER_CHARGES


@<TRIPOS>ATOM
  1 BR       0.7960    -0.5030    -1.9390 Br    1 <1>  -0.1110 
  2 C        0.1070    -1.9820    -0.9180 C.ar  1 <1>   0.1110 
  3 C       -1.0640    -2.5840    -1.3240 C.ar  1 <1>  -0.1500 
  4 C        0.8040    -2.3980     0.1990 C.ar  1 <1>  -0.1500 
  5 C       -1.5900    -3.6530    -0.5990 C.ar  1 <1>   0.0860 
  6 C        0.3020    -3.4660     0.9190 C.ar  1 <1>  -0.1500 
  7 C       -0.8700    -4.1000     0.5250 C.ar  1 <1>   0.0830 
  8 C       -2.8490    -4.2220    -1.0250 C.2   1 <1>   0.5440 
  9 O       -1.2550    -5.1430     1.2970 O.3   1 <1>  -0.3630 
 10 O       -2.8690    -4.8940    -2.0400 O.2   1 <1>  -0.5700 
 11 N       -4.0210    -4.0210    -0.3240 N.am  1 <1>  -0.6600 
 12 C       -1.6660    -6.3590     0.7070 C.3   1 <1>   0.1200 
 13 C       -5.3260    -4.5670    -0.7930 C.3   1 <1>   0.1400 
 14 C       -4.1040    -3.2520     0.9500 C.3   1 <1>   0.1400 
 15 C       -1.3330    -7.4880     1.6760 C.3   1 <1>  -0.2400 
 16 C       -6.3320    -3.4230    -0.9630 C.3   1 <1>  -0.1600 
 17 C       -5.0980    -2.0970     0.7920 C.3   1 <1>  -0.1600 
 18 C       -6.4730    -2.5940     0.3210 C.3   1 <1>  -0.1600 
 19 H       -1.5790    -2.2300    -2.2000 H     1 <1>   0.1500 
 20 H        1.7130    -1.9020     0.4920 H     1 <1>   0.1500 
 21 H        0.8200    -3.8210     1.7930 H     1 <1>   0.1500 
 22 H       -1.1450    -6.4900    -0.2270 H     1 <1>   0.0800 
 23 H       -2.7270    -6.3150     0.5320 H     1 <1>   0.0800 
 24 H       -5.6910    -5.2710    -0.0650 H     1 <1>   0.0800 
 25 H       -5.2130    -5.0860    -1.7290 H     1 <1>   0.0800 
 26 H       -3.1450    -2.8570     1.2330 H     1 <1>   0.0800 
 27 H       -4.4330    -3.9130     1.7330 H     1 <1>   0.0800 
 28 H       -0.2730    -7.5200     1.8560 H     1 <1>   0.0800 
 29 H       -1.6390    -8.4280     1.2550 H     1 <1>   0.0800 
 30 H       -1.8520    -7.3420     2.6060 H     1 <1>   0.0800 
 31 H       -7.2890    -3.8300    -1.2380 H     1 <1>   0.0800 
 32 H       -6.0010    -2.7920    -1.7700 H     1 <1>   0.0800 
 33 H       -4.7030    -1.3940     0.0790 H     1 <1>   0.0800 
 34 H       -5.2020    -1.5870     1.7330 H     1 <1>   0.0800 
 35 H       -6.9160    -3.2010     1.0910 H     1 <1>   0.0800 
 36 H       -7.1220    -1.7540     0.1430 H     1 <1>   0.0800 
@<TRIPOS>BOND
  1   1   2  1   
  2   2   3  ar  
  3   2   4  ar  
  4   3   5  ar  
  5   3  19  1   
  6   4   6  ar  
  7   4  20  1   
  8   5   7  ar  
  9   5   8  1   
 10   6   7  ar  
 11   6  21  1   
 12   7   9  1   
 13   8  10  2   
 14   8  11  am  
 15   9  12  1   
 16  11  13  1   
 17  11  14  1   
 18  12  15  1   
 19  12  22  1   
 20  12  23  1   
 21  13  16  1   
 22  13  24  1   
 23  13  25  1   
 24  14  17  1   
 25  14  26  1   
 26  14  27  1   
 27  15  28  1   
 28  15  29  1   
 29  15  30  1   
 30  16  18  1   
 31  16  31  1   
 32  16  32  1   
 33  17  18  1   
 34  17  33  1   
 35  17  34  1   
 36  18  35  1   
 37  18  36  1   
@<TRIPOS>SUBSTRUCTURE
  1 ****   5 GROUP 4 **** **** 0

# MOE 2024.06 (io_trps.svl 2023.06)
