@<TRIPOS>MOLECULE
NONAME
40 43 1 0 0 
SMALL
USER_CHARGES


@<TRIPOS>ATOM
  1 O       -0.6820    -0.0350     2.5190 O.2   1 <1>  -0.5700 
  2 C       -1.0760    -0.6950     1.5920 C.2   1 <1>   0.5690 
  3 N       -0.6930    -1.9680     1.2500 N.am  1 <1>  -0.4200 
  4 C       -2.0740    -0.2520     0.5570 C.3   1 <1>  -0.0190 
  5 C       -1.5700    -2.5090     0.3440 C.2   1 <1>   0.5690 
  6 C        0.5270    -2.6300     1.7440 C.3   1 <1>   0.2840 
  7 C       -3.1270     0.8870     0.4740 C.3   1 <1>   0.0580 
  8 C       -2.7640    -1.5930     0.2870 C.3   1 <1>  -0.0190 
  9 O       -1.4650    -3.5530    -0.2450 O.2   1 <1>  -0.5700 
 10 C        1.7640    -2.0160     1.0920 C.ar  1 <1>  -0.1440 
 11 C       -4.5310     0.3910     0.8410 C.2   1 <1>  -0.2880 
 12 C       -3.2810     1.1080    -1.0590 C.3   1 <1>  -0.1600 
 13 C       -3.9180    -1.3640    -0.7230 C.3   1 <1>   0.0580 
 14 C        2.3370    -2.5150    -0.0780 C.ar  1 <1>  -0.1440 
 15 C        2.3350    -0.9090     1.7060 C.ar  1 <1>  -0.1500 
 16 C       -4.9540    -0.7050     0.1920 C.2   1 <1>  -0.2880 
 17 C       -3.5590    -0.2660    -1.7660 C.3   1 <1>  -0.1600 
 18 C        3.4630    -1.8970    -0.6040 C.ar  1 <1>  -0.1500 
 19 C        1.7730    -3.7190    -0.8210 C.3   1 <1>  -0.0970 
 20 C        3.4570    -0.3000     1.1750 C.ar  1 <1>  -0.1500 
 21 C        4.0230    -0.7960     0.0170 C.ar  1 <1>  -0.1500 
 22 H       -1.3970    -0.0540    -0.2590 H     1 <1>   0.0800 
 23 H        0.4690    -3.6850     1.5480 H     1 <1>   0.0800 
 24 H        0.5810    -2.5000     2.8110 H     1 <1>   0.0800 
 25 H       -2.8320     1.7840     0.9920 H     1 <1>   0.0800 
 26 H       -3.2640    -1.8970     1.1940 H     1 <1>   0.0800 
 27 H       -5.0850     0.9780     1.5550 H     1 <1>   0.1500 
 28 H       -2.4020     1.5710    -1.4730 H     1 <1>   0.0800 
 29 H       -4.1060     1.7780    -1.2370 H     1 <1>   0.0800 
 30 H       -4.2720    -2.2830    -1.1590 H     1 <1>   0.0800 
 31 H        1.9040    -0.5070     2.6070 H     1 <1>   0.1500 
 32 H       -5.9190    -1.1780     0.2700 H     1 <1>   0.1500 
 33 H       -2.6960    -0.5780    -2.3280 H     1 <1>   0.0800 
 34 H       -4.3750    -0.1500    -2.4590 H     1 <1>   0.0800 
 35 H        3.9140    -2.2690    -1.5060 H     1 <1>   0.1500 
 36 H        1.5660    -4.5290    -0.1480 H     1 <1>   0.0800 
 37 H        2.4710    -4.0770    -1.5560 H     1 <1>   0.0800 
 38 H        0.8680    -3.4430    -1.3300 H     1 <1>   0.0800 
 39 H        3.8860     0.5570     1.6630 H     1 <1>   0.1500 
 40 H        4.8960    -0.3260    -0.4000 H     1 <1>   0.1500 
@<TRIPOS>BOND
  1   1   2  2   
  2   2   3  am  
  3   2   4  1   
  4   3   5  am  
  5   3   6  1   
  6   4   7  1   
  7   4   8  1   
  8   4  22  1   
  9   5   8  1   
 10   5   9  2   
 11   6  10  1   
 12   6  23  1   
 13   6  24  1   
 14   7  11  1   
 15   7  12  1   
 16   7  25  1   
 17   8  13  1   
 18   8  26  1   
 19  10  14  ar  
 20  10  15  ar  
 21  11  16  2   
 22  11  27  1   
 23  12  17  1   
 24  12  28  1   
 25  12  29  1   
 26  13  16  1   
 27  13  17  1   
 28  13  30  1   
 29  14  18  ar  
 30  14  19  1   
 31  15  20  ar  
 32  15  31  1   
 33  16  32  1   
 34  17  33  1   
 35  17  34  1   
 36  18  21  ar  
 37  18  35  1   
 38  19  36  1   
 39  19  37  1   
 40  19  38  1   
 41  20  21  ar  
 42  20  39  1   
 43  21  40  1   
@<TRIPOS>SUBSTRUCTURE
  1 ****   3 GROUP 4 **** **** 0

# MOE 2024.06 (io_trps.svl 2023.06)
