@<TRIPOS>MOLECULE
NONAME
32 32 1 0 0 
SMALL
USER_CHARGES


@<TRIPOS>ATOM
  1 BR       0.0720    -1.3150     0.1380 Br    1 <1>  -0.1110 
  2 C        1.9850    -1.4990     0.0210 C.ar  1 <1>   0.1110 
  3 C        2.6010    -2.5020     0.7440 C.ar  1 <1>  -0.1500 
  4 C        2.6900    -0.6220    -0.7840 C.ar  1 <1>  -0.1500 
  5 C        3.9750    -2.6140     0.6440 C.ar  1 <1>   0.1770 
  6 C        4.0680    -0.7490    -0.8720 C.ar  1 <1>  -0.1500 
  7 CL       4.7740    -3.8790     1.5540 Cl    1 <1>  -0.1770 
  8 C        4.7230    -1.7510    -0.1550 C.ar  1 <1>   0.0830 
  9 O        6.0700    -1.9350    -0.1940 O.3   1 <1>  -0.3630 
 10 C        6.9210    -1.1080    -0.9790 C.3   1 <1>   0.1810 
 11 C        8.3800    -1.5280    -0.8430 C.2   1 <1>   0.5690 
 12 O        9.2070    -0.9020    -1.4630 O.2   1 <1>  -0.5700 
 13 N        8.6880    -2.5810    -0.0360 N.am  1 <1>  -0.7300 
 14 C        9.9870    -3.1810     0.2680 C.3   1 <1>   0.3000 
 15 C       10.8880    -2.1440     0.9380 C.3   1 <1>  -0.2400 
 16 C        9.7180    -4.3320     1.2350 C.3   1 <1>  -0.2400 
 17 C       10.6170    -3.7210    -1.0160 C.3   1 <1>  -0.2400 
 18 H        2.0340    -3.1720     1.3630 H     1 <1>   0.1500 
 19 H        2.1670     0.1440    -1.3290 H     1 <1>   0.1500 
 20 H        4.6050    -0.0620    -1.5000 H     1 <1>   0.1500 
 21 H        6.8150    -0.0930    -0.6450 H     1 <1>   0.0800 
 22 H        6.6250    -1.1920    -2.0080 H     1 <1>   0.0800 
 23 H        7.9030    -3.0330     0.4380 H     1 <1>   0.3700 
 24 H       10.4140    -1.7430     1.8150 H     1 <1>   0.0800 
 25 H       11.1070    -1.3390     0.2600 H     1 <1>   0.0800 
 26 H       11.8200    -2.5950     1.2280 H     1 <1>   0.0800 
 27 H        9.2620    -3.9680     2.1380 H     1 <1>   0.0800 
 28 H       10.6420    -4.8160     1.4970 H     1 <1>   0.0800 
 29 H        9.0730    -5.0630     0.7820 H     1 <1>   0.0800 
 30 H       10.8350    -2.9180    -1.6970 H     1 <1>   0.0800 
 31 H        9.9530    -4.4160    -1.4970 H     1 <1>   0.0800 
 32 H       11.5380    -4.2260    -0.7930 H     1 <1>   0.0800 
@<TRIPOS>BOND
  1   1   2  1   
  2   2   3  ar  
  3   2   4  ar  
  4   3   5  ar  
  5   3  18  1   
  6   4   6  ar  
  7   4  19  1   
  8   5   7  1   
  9   5   8  ar  
 10   6   8  ar  
 11   6  20  1   
 12   8   9  1   
 13   9  10  1   
 14  10  11  1   
 15  10  21  1   
 16  10  22  1   
 17  11  12  2   
 18  11  13  am  
 19  13  14  1   
 20  13  23  1   
 21  14  15  1   
 22  14  16  1   
 23  14  17  1   
 24  15  24  1   
 25  15  25  1   
 26  15  26  1   
 27  16  27  1   
 28  16  28  1   
 29  16  29  1   
 30  17  30  1   
 31  17  31  1   
 32  17  32  1   
@<TRIPOS>SUBSTRUCTURE
  1 ****   9 GROUP 4 **** **** 0

# MOE 2024.06 (io_trps.svl 2023.06)
