@<TRIPOS>MOLECULE
NONAME
40 41 1 0 0 
SMALL
USER_CHARGES


@<TRIPOS>ATOM
  1 S        0.1080    -0.4380     0.7130 S.o2  1 <1>   1.4470 
  2 O        0.2690    -1.0050     2.0350 O.2   1 <1>  -0.6500 
  3 O        0.4390     0.9620     0.5360 O.2   1 <1>  -0.6500 
  4 N        1.2160    -1.2330    -0.3000 N.am  1 <1>  -0.8490 
  5 C       -1.5510    -0.8860     0.0440 C.ar  1 <1>  -0.0090 
  6 C        1.1830    -0.6810    -1.6680 C.3   1 <1>   0.1960 
  7 C        2.5770    -1.1760     0.2630 C.3   1 <1>   0.1960 
  8 C       -1.8500    -2.2150    -0.3110 C.ar  1 <1>  -0.1440 
  9 C       -2.5530     0.0850    -0.1370 C.ar  1 <1>  -0.1430 
 10 C        1.9290    -1.5710    -2.6690 C.3   1 <1>   0.0700 
 11 C        3.5420    -2.1310    -0.4500 C.3   1 <1>   0.0700 
 12 C       -3.0490    -2.5280    -0.9470 C.ar  1 <1>  -0.1430 
 13 C       -0.8830    -3.3660    -0.0070 C.3   1 <1>  -0.0960 
 14 C       -3.7490    -0.2370    -0.7730 C.ar  1 <1>  -0.1430 
 15 C       -2.3580     1.5170     0.3730 C.3   1 <1>  -0.0970 
 16 S        3.6760    -1.6670    -2.1980 S.3   1 <1>  -0.4600 
 17 C       -3.9770    -1.5350    -1.1770 C.ar  1 <1>  -0.1500 
 18 C       -3.4010    -3.9360    -1.4150 C.3   1 <1>  -0.0970 
 19 C       -4.8480     0.7820    -1.0590 C.3   1 <1>  -0.0970 
 20 H        1.6080     0.3100    -1.6800 H     1 <1>   0.0800 
 21 H        0.1610    -0.6040    -1.9980 H     1 <1>   0.0800 
 22 H        2.5500    -1.4630     1.3010 H     1 <1>   0.0800 
 23 H        2.9560    -0.1680     0.2140 H     1 <1>   0.0800 
 24 H        1.8910    -1.1580    -3.6610 H     1 <1>   0.0800 
 25 H        1.5330    -2.5700    -2.6710 H     1 <1>   0.0800 
 26 H        3.1840    -3.1440    -0.4060 H     1 <1>   0.0800 
 27 H        4.5290    -2.0720    -0.0300 H     1 <1>   0.0800 
 28 H       -0.2920    -3.1770     0.8680 H     1 <1>   0.0800 
 29 H       -0.2260    -3.5270    -0.8420 H     1 <1>   0.0800 
 30 H       -1.4080    -4.2800     0.1960 H     1 <1>   0.0800 
 31 H       -1.8820     1.5160     1.3360 H     1 <1>   0.0800 
 32 H       -3.2850     2.0390     0.5110 H     1 <1>   0.0800 
 33 H       -1.7570     2.0790    -0.3200 H     1 <1>   0.0800 
 34 H       -4.9000    -1.7810    -1.6700 H     1 <1>   0.1500 
 35 H       -2.5800    -4.3690    -1.9570 H     1 <1>   0.0800 
 36 H       -4.2550    -3.9260    -2.0680 H     1 <1>   0.0800 
 37 H       -3.6350    -4.5570    -0.5680 H     1 <1>   0.0800 
 38 H       -4.4340     1.6540    -1.5340 H     1 <1>   0.0800 
 39 H       -5.3290     1.0710    -0.1420 H     1 <1>   0.0800 
 40 H       -5.5960     0.3760    -1.7160 H     1 <1>   0.0800 
@<TRIPOS>BOND
  1   1   2  2   
  2   1   3  2   
  3   1   4  am  
  4   1   5  1   
  5   4   6  1   
  6   4   7  1   
  7   5   8  ar  
  8   5   9  ar  
  9   6  10  1   
 10   6  20  1   
 11   6  21  1   
 12   7  11  1   
 13   7  22  1   
 14   7  23  1   
 15   8  12  ar  
 16   8  13  1   
 17   9  14  ar  
 18   9  15  1   
 19  10  16  1   
 20  10  24  1   
 21  10  25  1   
 22  11  16  1   
 23  11  26  1   
 24  11  27  1   
 25  12  17  ar  
 26  12  18  1   
 27  13  28  1   
 28  13  29  1   
 29  13  30  1   
 30  14  17  ar  
 31  14  19  1   
 32  15  31  1   
 33  15  32  1   
 34  15  33  1   
 35  17  34  1   
 36  18  35  1   
 37  18  36  1   
 38  18  37  1   
 39  19  38  1   
 40  19  39  1   
 41  19  40  1   
@<TRIPOS>SUBSTRUCTURE
  1 ****   5 GROUP 4 **** **** 0

# MOE 2024.06 (io_trps.svl 2023.06)
