@<TRIPOS>MOLECULE
NONAME
55 57 1 0 0 
SMALL
USER_CHARGES


@<TRIPOS>ATOM
  1 S        0.0980    -0.0710     0.6700 S.o2  1 <1>   1.4470 
  2 O        0.1630    -1.4790     0.3520 O.2   1 <1>  -0.6500 
  3 O       -0.3070     0.3650     1.9870 O.2   1 <1>  -0.6500 
  4 N       -1.0040     0.5500    -0.4340 N.am  1 <1>  -0.9140 
  5 C        1.6500     0.7450     0.2060 C.ar  1 <1>  -0.0090 
  6 C       -2.3810     0.6340     0.0380 C.3   1 <1>   0.1960 
  7 C        1.7350     2.1300     0.1460 C.ar  1 <1>  -0.1500 
  8 C        2.7920     0.0120    -0.0930 C.ar  1 <1>  -0.1500 
  9 C       -3.0480    -0.7500     0.1670 C.3   1 <1>  -0.0800 
 10 C        2.9150     2.7630    -0.2010 C.ar  1 <1>  -0.1500 
 11 C        3.9770     0.6380    -0.4400 C.ar  1 <1>  -0.1500 
 12 C       -3.0130    -1.5470    -1.1480 C.3   1 <1>  -0.2400 
 13 C       -4.5040    -0.5810     0.6210 C.3   1 <1>  -0.2400 
 14 C        4.0450     2.0190    -0.4950 C.ar  1 <1>  -0.1430 
 15 C        5.3410     2.7200    -0.8640 C.3   1 <1>  -0.0170 
 16 C        6.0960     3.1380     0.4030 C.3   1 <1>  -0.0990 
 17 C        7.3760     3.8610     0.0520 C.2   1 <1>   0.5690 
 18 O        7.2940     5.0110    -0.2990 O.2   1 <1>  -0.5700 
 19 N        8.5500     3.1670     0.1500 N.am  1 <1>  -0.5470 
 20 C        9.8750     3.5390    -0.1360 C.ar  1 <1>   0.1170 
 21 C       10.9030     2.7730     0.4020 C.ar  1 <1>  -0.1500 
 22 C       10.2070     4.6240    -0.9450 C.ar  1 <1>  -0.1500 
 23 C       12.2250     3.0810     0.1450 C.ar  1 <1>   0.0830 
 24 C       11.5300     4.9450    -1.2010 C.ar  1 <1>  -0.1500 
 25 O       13.1950     2.2950     0.6780 O.3   1 <1>  -0.3620 
 26 C       12.5430     4.1800    -0.6540 C.ar  1 <1>   0.0830 
 27 C       14.5020     2.4480     0.1550 C.3   1 <1>   0.1200 
 28 O       13.8360     4.5190    -0.9050 O.3   1 <1>  -0.3630 
 29 C       14.8160     3.9330    -0.0700 C.3   1 <1>   0.1200 
 30 H       -0.9950    -0.1330    -1.1890 H     1 <1>   0.4200 
 31 H       -2.9420     1.2210    -0.6700 H     1 <1>   0.0800 
 32 H       -2.4170     1.1540     0.9820 H     1 <1>   0.0800 
 33 H        0.8630     2.7190     0.3740 H     1 <1>   0.1500 
 34 H        2.7550    -1.0650    -0.0540 H     1 <1>   0.1500 
 35 H       -2.5380    -1.3140     0.9300 H     1 <1>   0.0800 
 36 H        2.9500     3.8390    -0.2380 H     1 <1>   0.1500 
 37 H        4.8440     0.0410    -0.6670 H     1 <1>   0.1500 
 38 H       -3.4640    -0.9850    -1.9470 H     1 <1>   0.0800 
 39 H       -3.5530    -2.4710    -1.0340 H     1 <1>   0.0800 
 40 H       -2.0030    -1.7960    -1.4200 H     1 <1>   0.0800 
 41 H       -5.0730    -0.0330    -0.1100 H     1 <1>   0.0800 
 42 H       -4.5450    -0.0530     1.5570 H     1 <1>   0.0800 
 43 H       -4.9650    -1.5440     0.7610 H     1 <1>   0.0800 
 44 H        5.1230     3.5920    -1.4570 H     1 <1>   0.0800 
 45 H        5.9560     2.0680    -1.4590 H     1 <1>   0.0800 
 46 H        6.3090     2.2730     1.0040 H     1 <1>   0.0800 
 47 H        5.4810     3.8020     0.9840 H     1 <1>   0.0800 
 48 H        8.4620     2.2280     0.5300 H     1 <1>   0.3700 
 49 H       10.6840     1.9280     1.0270 H     1 <1>   0.1500 
 50 H        9.4350     5.2290    -1.3830 H     1 <1>   0.1500 
 51 H       11.7780     5.7870    -1.8220 H     1 <1>   0.1500 
 52 H       14.5560     1.9100    -0.7740 H     1 <1>   0.0800 
 53 H       15.1920     2.0130     0.8560 H     1 <1>   0.0800 
 54 H       15.7720     4.0550    -0.5460 H     1 <1>   0.0800 
 55 H       14.8170     4.4620     0.8670 H     1 <1>   0.0800 
@<TRIPOS>BOND
  1   1   2  2   
  2   1   3  2   
  3   1   4  am  
  4   1   5  1   
  5   4   6  1   
  6   4  30  1   
  7   5   7  ar  
  8   5   8  ar  
  9   6   9  1   
 10   6  31  1   
 11   6  32  1   
 12   7  10  ar  
 13   7  33  1   
 14   8  11  ar  
 15   8  34  1   
 16   9  12  1   
 17   9  13  1   
 18   9  35  1   
 19  10  14  ar  
 20  10  36  1   
 21  11  14  ar  
 22  11  37  1   
 23  12  38  1   
 24  12  39  1   
 25  12  40  1   
 26  13  41  1   
 27  13  42  1   
 28  13  43  1   
 29  14  15  1   
 30  15  16  1   
 31  15  44  1   
 32  15  45  1   
 33  16  17  1   
 34  16  46  1   
 35  16  47  1   
 36  17  18  2   
 37  17  19  am  
 38  19  20  1   
 39  19  48  1   
 40  20  21  ar  
 41  20  22  ar  
 42  21  23  ar  
 43  21  49  1   
 44  22  24  ar  
 45  22  50  1   
 46  23  25  1   
 47  23  26  ar  
 48  24  26  ar  
 49  24  51  1   
 50  25  27  1   
 51  26  28  1   
 52  27  29  1   
 53  27  52  1   
 54  27  53  1   
 55  28  29  1   
 56  29  54  1   
 57  29  55  1   
@<TRIPOS>SUBSTRUCTURE
  1 ****  15 GROUP 4 **** **** 0

# MOE 2024.06 (io_trps.svl 2023.06)
