@<TRIPOS>MOLECULE
NONAME
42 43 1 0 0 
SMALL
USER_CHARGES


@<TRIPOS>ATOM
  1 O        0.4540    -0.3620    -0.9140 O.2   1 <1>  -0.5700 
  2 C        0.4300    -1.5670    -0.7690 C.2   1 <1>   0.7800 
  3 O       -0.7080    -2.1810    -0.4510 O.3   1 <1>  -0.4300 
  4 N        1.5570    -2.3380    -0.8910 N.am  1 <1>  -0.6600 
  5 C       -1.9090    -1.4540    -0.3210 C.3   1 <1>   0.1200 
  6 C        2.8800    -1.7340    -1.2250 C.3   1 <1>   0.1400 
  7 C        1.5950    -3.7920    -0.5560 C.3   1 <1>   0.1400 
  8 C       -3.0190    -2.4340     0.0470 C.3   1 <1>  -0.2400 
  9 C        3.8910    -2.0050    -0.0970 C.3   1 <1>   0.3430 
 10 C        2.6180    -4.0540     0.5680 C.3   1 <1>   0.3430 
 11 N        3.9710    -3.4720     0.2540 N.4   1 <1>  -0.9590 
 12 C        4.9440    -3.7120     1.3540 C.3   1 <1>   0.4860 
 13 C        6.3190    -3.3140     0.8610 C.ar  1 <1>  -0.1440 
 14 C        6.9950    -4.1180    -0.0470 C.ar  1 <1>  -0.1500 
 15 C        6.9080    -2.1390     1.3050 C.ar  1 <1>  -0.1500 
 16 C        8.2420    -3.7460    -0.5220 C.ar  1 <1>  -0.1440 
 17 C        8.1530    -1.7670     0.8340 C.ar  1 <1>  -0.1500 
 18 C        8.8160    -2.5670    -0.0790 C.ar  1 <1>  -0.1500 
 19 C        8.9910    -4.6200    -1.5140 C.3   1 <1>  -0.0970 
 20 H       -2.1180    -0.9690    -1.2610 H     1 <1>   0.0800 
 21 H       -1.7800    -0.7100     0.4470 H     1 <1>   0.0800 
 22 H        2.7880    -0.6700    -1.3670 H     1 <1>   0.0800 
 23 H        3.2400    -2.1510    -2.1490 H     1 <1>   0.0800 
 24 H        1.8640    -4.3510    -1.4350 H     1 <1>   0.0800 
 25 H        0.6270    -4.1380    -0.2360 H     1 <1>   0.0800 
 26 H       -3.1320    -3.1740    -0.7250 H     1 <1>   0.0800 
 27 H       -3.9480    -1.9040     0.1500 H     1 <1>   0.0800 
 28 H       -2.7950    -2.9160     0.9810 H     1 <1>   0.0800 
 29 H        3.5920    -1.4390     0.7690 H     1 <1>   0.0800 
 30 H        4.8610    -1.6470    -0.4050 H     1 <1>   0.0800 
 31 H        2.7010    -5.1170     0.7250 H     1 <1>   0.0800 
 32 H        2.2380    -3.6140     1.4760 H     1 <1>   0.0800 
 33 H        4.3520    -3.9480    -0.5730 H     1 <1>   0.4500 
 34 H        4.9530    -4.7550     1.6250 H     1 <1>   0.0800 
 35 H        4.6800    -3.1320     2.2230 H     1 <1>   0.0800 
 36 H        6.5650    -5.0430    -0.3890 H     1 <1>   0.1500 
 37 H        6.4140    -1.5030     2.0200 H     1 <1>   0.1500 
 38 H        8.6150    -0.8560     1.1770 H     1 <1>   0.1500 
 39 H        9.7870    -2.2700    -0.4390 H     1 <1>   0.1500 
 40 H        8.3310    -5.3240    -1.9870 H     1 <1>   0.0800 
 41 H        9.7670    -5.1630    -1.0050 H     1 <1>   0.0800 
 42 H        9.4410    -4.0110    -2.2780 H     1 <1>   0.0800 
@<TRIPOS>BOND
  1   1   2  2   
  2   2   3  1   
  3   2   4  am  
  4   3   5  1   
  5   4   6  1   
  6   4   7  1   
  7   5   8  1   
  8   5  20  1   
  9   5  21  1   
 10   6   9  1   
 11   6  22  1   
 12   6  23  1   
 13   7  10  1   
 14   7  24  1   
 15   7  25  1   
 16   8  26  1   
 17   8  27  1   
 18   8  28  1   
 19   9  11  1   
 20   9  29  1   
 21   9  30  1   
 22  10  11  1   
 23  10  31  1   
 24  10  32  1   
 25  11  12  1   
 26  11  33  1   
 27  12  13  1   
 28  12  34  1   
 29  12  35  1   
 30  13  14  ar  
 31  13  15  ar  
 32  14  16  ar  
 33  14  36  1   
 34  15  17  ar  
 35  15  37  1   
 36  16  18  ar  
 37  16  19  1   
 38  17  18  ar  
 39  17  38  1   
 40  18  39  1   
 41  19  40  1   
 42  19  41  1   
 43  19  42  1   
@<TRIPOS>SUBSTRUCTURE
  1 ****   9 GROUP 4 **** **** 0

# MOE 2024.06 (io_trps.svl 2023.06)
