@<TRIPOS>MOLECULE
NONAME
41 45 1 0 0 
SMALL
USER_CHARGES


@<TRIPOS>ATOM
  1 CL      -0.2500     0.3810    -0.1330 Cl    1 <1>  -0.1770 
  2 C       -1.8310     1.1220    -0.1340 C.ar  1 <1>   0.1770 
  3 C       -1.9740     2.4680    -0.4620 C.ar  1 <1>   0.0860 
  4 C       -2.9170     0.3350     0.1990 C.ar  1 <1>  -0.1500 
  5 C       -0.8440     3.2920    -0.8140 C.2   1 <1>   0.6340 
  6 C       -3.2630     2.9960    -0.4500 C.ar  1 <1>  -0.1500 
  7 C       -4.1840     0.8890     0.2110 C.ar  1 <1>  -0.1500 
  8 O       -0.6510     3.6600    -1.9480 O.2   1 <1>  -0.5700 
  9 O        0.0030     3.7230     0.1250 O.3   1 <1>  -0.4300 
 10 C       -4.3720     2.2300    -0.1110 C.ar  1 <1>   0.1170 
 11 C       -0.2320     3.6000     1.5120 C.3   1 <1>   0.0400 
 12 N       -5.6600     2.8030    -0.0900 N.am  1 <1>  -0.2370 
 13 C       -5.9980     4.0000     0.5230 C.2   1 <1>   0.5690 
 14 C       -6.7920     2.2780    -0.6960 C.2   1 <1>   0.5690 
 15 O       -5.2570     4.8400     0.9650 O.2   1 <1>  -0.5700 
 16 C       -7.4970     4.0600     0.5890 C.3   1 <1>  -0.0190 
 17 O       -6.9530     1.1700    -1.1370 O.2   1 <1>  -0.5700 
 18 C       -7.8070     3.3830    -0.7530 C.3   1 <1>  -0.0190 
 19 C       -8.6390     5.0990     0.7130 C.3   1 <1>   0.1530 
 20 C       -9.3120     3.6430    -0.9400 C.3   1 <1>   0.1530 
 21 C       -9.7730     4.2390     1.2600 C.2   1 <1>  -0.2880 
 22 C       -9.1950     5.1570    -0.7100 C.3   1 <1>  -0.1900 
 23 C      -10.1220     3.3570     0.3190 C.2   1 <1>  -0.2880 
 24 C      -10.2200     6.1500    -1.1490 C.3   1 <1>  -0.2000 
 25 C       -8.8240     6.1840    -1.7310 C.3   1 <1>  -0.2000 
 26 H       -2.7700    -0.7030     0.4430 H     1 <1>   0.1500 
 27 H       -3.3920     4.0340    -0.7110 H     1 <1>   0.1500 
 28 H       -5.0320     0.2740     0.4660 H     1 <1>   0.1500 
 29 H        0.5500     4.1260     2.0300 H     1 <1>   0.0800 
 30 H       -0.2100     2.5590     1.7850 H     1 <1>   0.0800 
 31 H       -1.1850     4.0390     1.7500 H     1 <1>   0.0800 
 32 H       -7.6750     3.3590     1.3910 H     1 <1>   0.0800 
 33 H       -7.3730     3.9650    -1.5530 H     1 <1>   0.0800 
 34 H       -8.4480     6.0300     1.2190 H     1 <1>   0.0800 
 35 H       -9.7540     3.3720    -1.8830 H     1 <1>   0.0800 
 36 H      -10.1280     4.3770     2.2680 H     1 <1>   0.1500 
 37 H      -10.8440     2.5580     0.3300 H     1 <1>   0.1500 
 38 H      -10.5180     6.9240    -0.4630 H     1 <1>   0.1000 
 39 H      -11.0340     5.8130    -1.7670 H     1 <1>   0.1000 
 40 H       -8.7040     5.8960    -2.7620 H     1 <1>   0.1000 
 41 H       -8.1760     6.9970    -1.4510 H     1 <1>   0.1000 
@<TRIPOS>BOND
  1   1   2  1   
  2   2   3  ar  
  3   2   4  ar  
  4   3   5  1   
  5   3   6  ar  
  6   4   7  ar  
  7   4  26  1   
  8   5   8  2   
  9   5   9  1   
 10   6  10  ar  
 11   6  27  1   
 12   7  10  ar  
 13   7  28  1   
 14   9  11  1   
 15  10  12  1   
 16  11  29  1   
 17  11  30  1   
 18  11  31  1   
 19  12  13  am  
 20  12  14  am  
 21  13  15  2   
 22  13  16  1   
 23  14  17  2   
 24  14  18  1   
 25  16  18  1   
 26  16  19  1   
 27  16  32  1   
 28  18  20  1   
 29  18  33  1   
 30  19  21  1   
 31  19  22  1   
 32  19  34  1   
 33  20  22  1   
 34  20  23  1   
 35  20  35  1   
 36  21  23  2   
 37  21  36  1   
 38  22  24  1   
 39  22  25  1   
 40  23  37  1   
 41  24  25  1   
 42  24  38  1   
 43  24  39  1   
 44  25  40  1   
 45  25  41  1   
@<TRIPOS>SUBSTRUCTURE
  1 ****  12 GROUP 4 **** **** 0

# MOE 2024.06 (io_trps.svl 2023.06)
