@<TRIPOS>MOLECULE
NONAME
38 39 1 0 0 
SMALL
USER_CHARGES


@<TRIPOS>ATOM
  1 S       -0.2010    -0.6680    -0.1500 S.3   1 <1>  -0.0800 
  2 C        0.4980     0.9310    -0.3360 C.2   1 <1>   0.1040 
  3 C       -1.8580    -0.0520    -0.0460 C.2   1 <1>  -0.0450 
  4 N        1.8770     1.0870    -0.4850 N.am  1 <1>  -0.4940 
  5 C       -0.4850     1.8850    -0.3140 C.2   1 <1>  -0.0860 
  6 C       -3.0060    -0.8730     0.1500 C.2   1 <1>   0.4740 
  7 C       -1.8000     1.3090    -0.1810 C.2   1 <1>  -0.1810 
  8 C        2.9780     0.2850    -0.4120 C.2   1 <1>   0.5690 
  9 C       -0.1840     3.2930    -0.4000 C.2   1 <1>   0.8060 
 10 N       -3.1740    -2.1710     0.2510 N.2   1 <1>  -0.8000 
 11 C       -4.3020    -0.0870     0.2950 C.3   1 <1>  -0.0990 
 12 C       -3.1000     2.1090    -0.1910 C.3   1 <1>   0.0210 
 13 O        4.0540     0.7730    -0.6550 O.2   1 <1>  -0.5700 
 14 C        2.8990    -1.1890    -0.0200 C.3   1 <1>  -0.0990 
 15 O        0.8800     3.7200    -0.8120 O.2   1 <1>  -0.5700 
 16 O       -1.0950     4.1830     0.0130 O.3   1 <1>  -0.4300 
 17 O       -2.1650    -2.8480     0.1460 O.3   1 <1>  -0.6500 
 18 C       -4.3060     1.2170    -0.5240 C.3   1 <1>  -0.1600 
 19 C        4.2600    -1.8800     0.1810 C.3   1 <1>  -0.2400 
 20 C       -0.8500     5.5710    -0.0210 C.3   1 <1>   0.1200 
 21 C       -2.0950     6.2810     0.5000 C.3   1 <1>  -0.2400 
 22 H        2.1530     2.0470    -0.7180 H     1 <1>   0.3700 
 23 H       -5.1200    -0.7090    -0.0220 H     1 <1>   0.0800 
 24 H       -4.4390     0.1280     1.3380 H     1 <1>   0.0800 
 25 H       -3.2380     2.5610     0.7760 H     1 <1>   0.0800 
 26 H       -3.0510     2.8900    -0.9290 H     1 <1>   0.0800 
 27 H        2.3420    -1.2670     0.8960 H     1 <1>   0.0800 
 28 H        2.3590    -1.7130    -0.7870 H     1 <1>   0.0800 
 29 H       -4.2640     0.9550    -1.5680 H     1 <1>   0.0800 
 30 H       -5.2210     1.7550    -0.3520 H     1 <1>   0.0800 
 31 H        4.8170    -1.3820     0.9550 H     1 <1>   0.0800 
 32 H        4.8310    -1.8460    -0.7300 H     1 <1>   0.0800 
 33 H        4.1140    -2.9070     0.4620 H     1 <1>   0.0800 
 34 H       -0.6390     5.8570    -1.0380 H     1 <1>   0.0800 
 35 H        0.0040     5.7820     0.6000 H     1 <1>   0.0800 
 36 H       -1.9370     7.3450     0.4890 H     1 <1>   0.0800 
 37 H       -2.3010     5.9760     1.5110 H     1 <1>   0.0800 
 38 H       -2.9410     6.0550    -0.1240 H     1 <1>   0.0800 
@<TRIPOS>BOND
  1   1   2  1   
  2   1   3  1   
  3   2   4  1   
  4   2   5  2   
  5   3   6  1   
  6   3   7  2   
  7   4   8  am  
  8   4  22  1   
  9   5   7  1   
 10   5   9  1   
 11   6  10  2   
 12   6  11  1   
 13   7  12  1   
 14   8  13  2   
 15   8  14  1   
 16   9  15  2   
 17   9  16  1   
 18  10  17  1   
 19  11  18  1   
 20  11  23  1   
 21  11  24  1   
 22  12  18  1   
 23  12  25  1   
 24  12  26  1   
 25  14  19  1   
 26  14  27  1   
 27  14  28  1   
 28  16  20  1   
 29  18  29  1   
 30  18  30  1   
 31  19  31  1   
 32  19  32  1   
 33  19  33  1   
 34  20  21  1   
 35  20  34  1   
 36  20  35  1   
 37  21  36  1   
 38  21  37  1   
 39  21  38  1   
@<TRIPOS>SUBSTRUCTURE
  1 ****   5 GROUP 4 **** **** 0

# MOE 2024.06 (io_trps.svl 2023.06)
