@<TRIPOS>MOLECULE
NONAME
45 47 1 0 0 
SMALL
USER_CHARGES


@<TRIPOS>ATOM
  1 N        1.6650     0.1490     1.2110 N.ar  1 <1>  -0.6200 
  2 C        1.3430     1.0380     0.2770 C.ar  1 <1>   0.4100 
  3 C        0.7930     0.0310     2.2030 C.ar  1 <1>   0.1600 
  4 N        2.2350     1.1770    -0.7650 N.pl3 1 <1>  -0.8380 
  5 C        0.1860     1.8090     0.3030 C.ar  1 <1>  -0.1500 
  6 C       -0.3820     0.7520     2.3160 C.ar  1 <1>  -0.1500 
  7 C        3.5470     1.7870    -0.4000 C.3   1 <1>   0.2090 
  8 C        2.3450    -0.0050    -1.6700 C.3   1 <1>   0.2090 
  9 C       -0.7060     1.6730     1.3400 C.ar  1 <1>  -0.1500 
 10 C        4.5410     0.7260     0.1230 C.3   1 <1>   0.3430 
 11 C        3.3550    -1.0410    -1.1280 C.3   1 <1>   0.3430 
 12 N        4.7070    -0.4410    -0.8260 N.4   1 <1>  -0.9590 
 13 C        5.6220    -1.4780    -0.2790 C.3   1 <1>   0.3430 
 14 C        7.0610    -0.9660    -0.2750 C.3   1 <1>  -0.1600 
 15 C        8.0400    -2.0610     0.1650 C.3   1 <1>  -0.0170 
 16 C        9.4520    -1.5040     0.1590 C.ar  1 <1>  -0.1430 
 17 C        9.9910    -0.9490     1.3100 C.ar  1 <1>  -0.1500 
 18 C       10.2110    -1.5370    -1.0010 C.ar  1 <1>  -0.1500 
 19 C       11.2740    -0.4290     1.3000 C.ar  1 <1>  -0.1500 
 20 C       11.4940    -1.0160    -1.0120 C.ar  1 <1>  -0.1500 
 21 C       12.0250    -0.4610     0.1390 C.ar  1 <1>  -0.1500 
 22 H        1.0270    -0.6820     2.9750 H     1 <1>   0.1500 
 23 H        0.0060     2.5040    -0.4950 H     1 <1>   0.1500 
 24 H       -1.0370     0.5960     3.1550 H     1 <1>   0.1500 
 25 H        3.3930     2.5300     0.3640 H     1 <1>   0.0800 
 26 H        3.9600     2.2860    -1.2600 H     1 <1>   0.0800 
 27 H        2.6420     0.3230    -2.6500 H     1 <1>   0.0800 
 28 H        1.3780    -0.4720    -1.7620 H     1 <1>   0.0800 
 29 H       -1.6110     2.2540     1.3900 H     1 <1>   0.1500 
 30 H        4.1700     0.3670     1.0690 H     1 <1>   0.0800 
 31 H        5.4910     1.1990     0.2990 H     1 <1>   0.0800 
 32 H        3.4580    -1.8380    -1.8460 H     1 <1>   0.0800 
 33 H        2.9410    -1.4620    -0.2260 H     1 <1>   0.0800 
 34 H        5.0970    -0.0810    -1.7050 H     1 <1>   0.4500 
 35 H        5.5700    -2.3640    -0.8920 H     1 <1>   0.0800 
 36 H        5.3210    -1.7450     0.7230 H     1 <1>   0.0800 
 37 H        7.1620    -0.1370     0.4010 H     1 <1>   0.0800 
 38 H        7.3350    -0.6420    -1.2640 H     1 <1>   0.0800 
 39 H        7.9880    -2.9040    -0.5030 H     1 <1>   0.0800 
 40 H        7.7960    -2.4080     1.1540 H     1 <1>   0.0800 
 41 H        9.4220    -0.9190     2.2220 H     1 <1>   0.1500 
 42 H        9.8140    -1.9670    -1.9030 H     1 <1>   0.1500 
 43 H       11.6900     0.0000     2.1950 H     1 <1>   0.1500 
 44 H       12.0800    -1.0440    -1.9140 H     1 <1>   0.1500 
 45 H       13.0220    -0.0570     0.1310 H     1 <1>   0.1500 
@<TRIPOS>BOND
  1   1   2  ar  
  2   1   3  ar  
  3   2   4  1   
  4   2   5  ar  
  5   3   6  ar  
  6   3  22  1   
  7   4   7  1   
  8   4   8  1   
  9   5   9  ar  
 10   5  23  1   
 11   6   9  ar  
 12   6  24  1   
 13   7  10  1   
 14   7  25  1   
 15   7  26  1   
 16   8  11  1   
 17   8  27  1   
 18   8  28  1   
 19   9  29  1   
 20  10  12  1   
 21  10  30  1   
 22  10  31  1   
 23  11  12  1   
 24  11  32  1   
 25  11  33  1   
 26  12  13  1   
 27  12  34  1   
 28  13  14  1   
 29  13  35  1   
 30  13  36  1   
 31  14  15  1   
 32  14  37  1   
 33  14  38  1   
 34  15  16  1   
 35  15  39  1   
 36  15  40  1   
 37  16  17  ar  
 38  16  18  ar  
 39  17  19  ar  
 40  17  41  1   
 41  18  20  ar  
 42  18  42  1   
 43  19  21  ar  
 44  19  43  1   
 45  20  21  ar  
 46  20  44  1   
 47  21  45  1   
@<TRIPOS>SUBSTRUCTURE
  1 ****  10 GROUP 4 **** **** 0

# MOE 2024.06 (io_trps.svl 2023.06)
