@<TRIPOS>MOLECULE
NONAME
40 40 1 0 0 
SMALL
USER_CHARGES


@<TRIPOS>ATOM
  1 O       -8.2120     0.8760    -0.0550 O.3   1 <1>  -0.3630 
  2 C       -8.2930    -0.4820     0.0020 C.ar  1 <1>   0.0820 
  3 C       -6.9910     1.5590     0.0630 C.3   1 <1>   0.1200 
  4 C       -9.5550    -1.0690    -0.1050 C.ar  1 <1>  -0.1440 
  5 C       -7.1660    -1.2840     0.1670 C.ar  1 <1>  -0.1500 
  6 C       -7.3020     3.0520    -0.0320 C.3   1 <1>  -0.1600 
  7 C       -9.6730    -2.4550    -0.0290 C.ar  1 <1>  -0.1440 
  8 C      -10.8010    -0.2030    -0.2960 C.3   1 <1>  -0.0960 
  9 C       -7.2860    -2.6590     0.2340 C.ar  1 <1>  -0.1430 
 10 C       -6.0260     3.8800     0.0930 C.3   1 <1>   0.3430 
 11 C       -8.5390    -3.2350     0.1360 C.ar  1 <1>  -0.1500 
 12 C      -11.0220    -3.1570    -0.1180 C.3   1 <1>  -0.0970 
 13 C       -6.0590    -3.5370     0.4100 C.3   1 <1>  -0.0970 
 14 N       -6.3240     5.3300    -0.1010 N.4   1 <1>  -0.9590 
 15 C       -5.0630     6.1030    -0.3250 C.3   1 <1>   0.2630 
 16 C       -7.0920     5.9130     1.0460 C.3   1 <1>   0.2630 
 17 H       -6.3490     1.2400    -0.7410 H     1 <1>   0.0800 
 18 H       -6.5580     1.3080     1.0160 H     1 <1>   0.0800 
 19 H       -6.1860    -0.8590     0.2440 H     1 <1>   0.1500 
 20 H       -7.9870     3.2990     0.7590 H     1 <1>   0.0800 
 21 H       -7.7670     3.2410    -0.9840 H     1 <1>   0.0800 
 22 H      -10.5570     0.7750    -0.6660 H     1 <1>   0.0800 
 23 H      -11.3110    -0.0940     0.6440 H     1 <1>   0.0800 
 24 H      -11.4700    -0.6500    -1.0070 H     1 <1>   0.0800 
 25 H       -5.3270     3.5540    -0.6600 H     1 <1>   0.0800 
 26 H       -5.5760     3.7210     1.0610 H     1 <1>   0.0800 
 27 H       -8.6300    -4.3050     0.1880 H     1 <1>   0.1500 
 28 H      -11.7190    -2.7130     0.5700 H     1 <1>   0.0800 
 29 H      -10.9320    -4.1990     0.1270 H     1 <1>   0.0800 
 30 H      -11.4110    -3.0760    -1.1160 H     1 <1>   0.0800 
 31 H       -5.2660    -2.9900     0.8880 H     1 <1>   0.0800 
 32 H       -5.7180    -3.8800    -0.5490 H     1 <1>   0.0800 
 33 H       -6.2960    -4.3900     1.0200 H     1 <1>   0.0800 
 34 H       -6.9050     5.4140    -0.9510 H     1 <1>   0.4500 
 35 H       -4.4240     6.0370     0.5400 H     1 <1>   0.0800 
 36 H       -5.2880     7.1410    -0.5090 H     1 <1>   0.0800 
 37 H       -4.5310     5.7130    -1.1780 H     1 <1>   0.0800 
 38 H       -6.5310     5.8160     1.9610 H     1 <1>   0.0800 
 39 H       -8.0360     5.4060     1.1660 H     1 <1>   0.0800 
 40 H       -7.2890     6.9590     0.8720 H     1 <1>   0.0800 
@<TRIPOS>BOND
  1   1   2  1   
  2   1   3  1   
  3   2   4  ar  
  4   2   5  ar  
  5   3   6  1   
  6   3  17  1   
  7   3  18  1   
  8   4   7  ar  
  9   4   8  1   
 10   5   9  ar  
 11   5  19  1   
 12   6  10  1   
 13   6  20  1   
 14   6  21  1   
 15   7  11  ar  
 16   7  12  1   
 17   8  22  1   
 18   8  23  1   
 19   8  24  1   
 20   9  11  ar  
 21   9  13  1   
 22  10  14  1   
 23  10  25  1   
 24  10  26  1   
 25  11  27  1   
 26  12  28  1   
 27  12  29  1   
 28  12  30  1   
 29  13  31  1   
 30  13  32  1   
 31  13  33  1   
 32  14  15  1   
 33  14  16  1   
 34  14  34  1   
 35  15  35  1   
 36  15  36  1   
 37  15  37  1   
 38  16  38  1   
 39  16  39  1   
 40  16  40  1   
@<TRIPOS>SUBSTRUCTURE
  1 ****   1 GROUP 4 **** **** 0

# MOE 2024.06 (io_trps.svl 2023.06)
