@<TRIPOS>MOLECULE
NONAME
49 51 1 0 0 
SMALL
USER_CHARGES


@<TRIPOS>ATOM
  1 O       -6.1730    -0.9780     1.0160 O.2   1 <1>  -0.5700 
  2 C       -5.5430    -0.7340     0.0160 C.2   1 <1>   0.5690 
  3 N       -4.7890    -1.6790    -0.6320 N.am  1 <1>  -0.5470 
  4 C       -5.6150     0.7070    -0.5240 C.3   1 <1>   0.4040 
  5 C       -4.5970    -3.0100    -0.2380 C.ar  1 <1>   0.1170 
  6 N       -6.7470     1.5170     0.0710 N.4   1 <1>  -0.9590 
  7 C       -5.6770    -3.9290    -0.2550 C.ar  1 <1>   0.0000 
  8 C       -3.3570    -3.4670     0.1590 C.ar  1 <1>  -0.1440 
  9 C       -8.0810     1.0250    -0.3870 C.3   1 <1>   0.3430 
 10 C       -6.5760     2.9860    -0.1200 C.3   1 <1>   0.3430 
 11 C       -5.4160    -5.2490     0.1650 C.ar  1 <1>   0.3100 
 12 C       -6.9910    -3.6210    -0.6800 C.ar  1 <1>  -0.1500 
 13 C       -3.2170    -4.8120     0.5520 C.ar  1 <1>   0.1670 
 14 C       -2.1340    -2.5410     0.2000 C.3   1 <1>  -0.0970 
 15 C       -9.1860     1.7470     0.3860 C.3   1 <1>  -0.1600 
 16 C       -7.6610     3.7340     0.6570 C.3   1 <1>  -0.1600 
 17 N       -4.1950    -5.6660     0.5570 N.ar  1 <1>  -0.6200 
 18 C       -6.4620    -6.1860     0.1680 C.ar  1 <1>  -0.1500 
 19 C       -7.9910    -4.5560    -0.6720 C.ar  1 <1>  -0.1500 
 20 C       -1.8800    -5.3900     1.0140 C.3   1 <1>  -0.0170 
 21 C       -9.0690     3.2710     0.2620 C.3   1 <1>  -0.1600 
 22 C       -7.7260    -5.8570    -0.2390 C.ar  1 <1>  -0.1500 
 23 C       -1.0970    -6.0070    -0.1520 C.3   1 <1>  -0.2400 
 24 H       -4.1860    -1.3890    -1.4030 H     1 <1>   0.3700 
 25 H       -5.7170     0.6750    -1.5940 H     1 <1>   0.0800 
 26 H       -4.6790     1.1850    -0.2900 H     1 <1>   0.0800 
 27 H       -6.7250     1.3130     1.0850 H     1 <1>   0.4500 
 28 H       -8.1640    -0.0370    -0.2110 H     1 <1>   0.0800 
 29 H       -8.2000     1.2100    -1.4420 H     1 <1>   0.0800 
 30 H       -6.6540     3.2300    -1.1680 H     1 <1>   0.0800 
 31 H       -5.6060     3.2980     0.2330 H     1 <1>   0.0800 
 32 H       -7.2130    -2.6300    -1.0180 H     1 <1>   0.1500 
 33 H       -2.3120    -1.5830    -0.2460 H     1 <1>   0.0800 
 34 H       -1.3110    -2.9880    -0.3260 H     1 <1>   0.0800 
 35 H       -1.8420    -2.3770     1.2220 H     1 <1>   0.0800 
 36 H       -9.1410     1.4570     1.4220 H     1 <1>   0.0800 
 37 H      -10.1430     1.4300     0.0070 H     1 <1>   0.0800 
 38 H       -7.5670     4.7890     0.4640 H     1 <1>   0.0800 
 39 H       -7.5100     3.5870     1.7120 H     1 <1>   0.0800 
 40 H       -6.2320    -7.1810     0.5020 H     1 <1>   0.1500 
 41 H       -8.9880    -4.3090    -0.9940 H     1 <1>   0.1500 
 42 H       -2.0730    -6.1590     1.7420 H     1 <1>   0.0800 
 43 H       -1.2830    -4.6470     1.5080 H     1 <1>   0.0800 
 44 H       -9.8010     3.7460     0.8940 H     1 <1>   0.0800 
 45 H       -9.2750     3.5670    -0.7540 H     1 <1>   0.0800 
 46 H       -8.5180    -6.5860    -0.2320 H     1 <1>   0.1500 
 47 H       -1.6770    -6.7940    -0.6020 H     1 <1>   0.0800 
 48 H       -0.1700    -6.4220     0.2020 H     1 <1>   0.0800 
 49 H       -0.8840    -5.2680    -0.9030 H     1 <1>   0.0800 
@<TRIPOS>BOND
  1   1   2  2   
  2   2   3  am  
  3   2   4  1   
  4   3   5  1   
  5   3  24  1   
  6   4   6  1   
  7   4  25  1   
  8   4  26  1   
  9   5   7  ar  
 10   5   8  ar  
 11   6   9  1   
 12   6  10  1   
 13   6  27  1   
 14   7  11  ar  
 15   7  12  ar  
 16   8  13  ar  
 17   8  14  1   
 18   9  15  1   
 19   9  28  1   
 20   9  29  1   
 21  10  16  1   
 22  10  30  1   
 23  10  31  1   
 24  11  17  ar  
 25  11  18  ar  
 26  12  19  ar  
 27  12  32  1   
 28  13  17  ar  
 29  13  20  1   
 30  14  33  1   
 31  14  34  1   
 32  14  35  1   
 33  15  21  1   
 34  15  36  1   
 35  15  37  1   
 36  16  21  1   
 37  16  38  1   
 38  16  39  1   
 39  18  22  ar  
 40  18  40  1   
 41  19  22  ar  
 42  19  41  1   
 43  20  23  1   
 44  20  42  1   
 45  20  43  1   
 46  21  44  1   
 47  21  45  1   
 48  22  46  1   
 49  23  47  1   
 50  23  48  1   
 51  23  49  1   
@<TRIPOS>SUBSTRUCTURE
  1 ****   3 GROUP 4 **** **** 0

# MOE 2024.06 (io_trps.svl 2023.06)
