@<TRIPOS>MOLECULE
NONAME
44 45 1 0 0 
SMALL
USER_CHARGES


@<TRIPOS>ATOM
  1 F        0.4380    -0.0170    -0.9830 F     1 <1>  -0.1900 
  2 C        1.3490     0.8570    -0.6290 C.ar  1 <1>   0.1900 
  3 C        1.0050     2.1000    -0.0840 C.ar  1 <1>   0.0830 
  4 C        2.6650     0.4800    -0.8230 C.ar  1 <1>  -0.1500 
  5 O       -0.2510     2.5780     0.1520 O.3   1 <1>  -0.3630 
  6 C        2.0400     2.9570     0.2610 C.ar  1 <1>  -0.1500 
  7 C        3.6790     1.3550    -0.4700 C.ar  1 <1>  -0.1500 
  8 C       -1.4140     1.8450    -0.1420 C.3   1 <1>   0.1200 
  9 C        3.3640     2.5910     0.0710 C.ar  1 <1>  -0.1500 
 10 C       -2.6160     2.7040     0.2530 C.3   1 <1>  -0.1600 
 11 C       -3.9420     1.9830    -0.0310 C.3   1 <1>  -0.1600 
 12 C       -5.1260     2.8670     0.3630 C.3   1 <1>   0.3430 
 13 N       -6.4110     2.2140    -0.0070 N.4   1 <1>  -0.9590 
 14 C       -7.5280     3.2140    -0.0250 C.3   1 <1>   0.3430 
 15 C       -6.7530     1.0520     0.8620 C.3   1 <1>   0.3430 
 16 C       -8.9160     2.5520    -0.1560 C.3   1 <1>  -0.0800 
 17 C       -7.9020     0.2590     0.2250 C.3   1 <1>  -0.1600 
 18 C       -8.8310     1.1030    -0.6670 C.3   1 <1>  -0.1600 
 19 C       -9.8270     3.3840    -1.0680 C.3   1 <1>  -0.2400 
 20 H        2.8920    -0.4830    -1.2440 H     1 <1>   0.1500 
 21 H        1.8030     3.9180     0.6810 H     1 <1>   0.1500 
 22 H        4.7080     1.0760    -0.6160 H     1 <1>   0.1500 
 23 H       -1.3910     0.9310     0.4250 H     1 <1>   0.0800 
 24 H       -1.4230     1.6330    -1.1980 H     1 <1>   0.0800 
 25 H        4.1510     3.2720     0.3460 H     1 <1>   0.1500 
 26 H       -2.5750     3.6250    -0.3040 H     1 <1>   0.0800 
 27 H       -2.5430     2.9320     1.3030 H     1 <1>   0.0800 
 28 H       -3.9580     1.0640     0.5270 H     1 <1>   0.0800 
 29 H       -3.9950     1.7550    -1.0820 H     1 <1>   0.0800 
 30 H       -5.0390     3.8080    -0.1560 H     1 <1>   0.0800 
 31 H       -5.1020     3.0660     1.4230 H     1 <1>   0.0800 
 32 H       -6.3260     1.8490    -0.9650 H     1 <1>   0.4500 
 33 H       -7.3810     3.8860    -0.8560 H     1 <1>   0.0800 
 34 H       -7.5110     3.8030     0.8780 H     1 <1>   0.0800 
 35 H       -7.0570     1.4110     1.8320 H     1 <1>   0.0800 
 36 H       -5.9010     0.4040     0.9930 H     1 <1>   0.0800 
 37 H       -9.3650     2.5360     0.8230 H     1 <1>   0.0800 
 38 H       -8.4760    -0.1830     1.0210 H     1 <1>   0.0800 
 39 H       -7.4980    -0.5550    -0.3530 H     1 <1>   0.0800 
 40 H       -8.4520     1.1040    -1.6760 H     1 <1>   0.0800 
 41 H       -9.8110     0.6560    -0.6930 H     1 <1>   0.0800 
 42 H       -9.4340     3.4330    -2.0690 H     1 <1>   0.0800 
 43 H       -9.9300     4.3870    -0.6890 H     1 <1>   0.0800 
 44 H      -10.8100     2.9460    -1.1130 H     1 <1>   0.0800 
@<TRIPOS>BOND
  1   1   2  1   
  2   2   3  ar  
  3   2   4  ar  
  4   3   5  1   
  5   3   6  ar  
  6   4   7  ar  
  7   4  20  1   
  8   5   8  1   
  9   6   9  ar  
 10   6  21  1   
 11   7   9  ar  
 12   7  22  1   
 13   8  10  1   
 14   8  23  1   
 15   8  24  1   
 16   9  25  1   
 17  10  11  1   
 18  10  26  1   
 19  10  27  1   
 20  11  12  1   
 21  11  28  1   
 22  11  29  1   
 23  12  13  1   
 24  12  30  1   
 25  12  31  1   
 26  13  14  1   
 27  13  15  1   
 28  13  32  1   
 29  14  16  1   
 30  14  33  1   
 31  14  34  1   
 32  15  17  1   
 33  15  35  1   
 34  15  36  1   
 35  16  18  1   
 36  16  19  1   
 37  16  37  1   
 38  17  18  1   
 39  17  38  1   
 40  17  39  1   
 41  18  40  1   
 42  18  41  1   
 43  19  42  1   
 44  19  43  1   
 45  19  44  1   
@<TRIPOS>SUBSTRUCTURE
  1 ****  10 GROUP 4 **** **** 0

# MOE 2024.06 (io_trps.svl 2023.06)
