@<TRIPOS>MOLECULE
NONAME
52 54 1 0 0 
SMALL
USER_CHARGES


@<TRIPOS>ATOM
  1 F        0.5590     1.6570    -0.0770 F     1 <1>  -0.3400 
  2 C        1.5420     1.0460    -0.7280 C.3   1 <1>   1.1640 
  3 F        1.4170    -0.2480    -0.4550 F     1 <1>  -0.3400 
  4 F        1.2750     1.1820    -2.0210 F     1 <1>  -0.3400 
  5 C        2.9320     1.5920    -0.3660 C.ar  1 <1>  -0.1440 
  6 C        4.0610     0.7920    -0.5000 C.ar  1 <1>  -0.1500 
  7 C        3.0950     2.8970     0.0920 C.ar  1 <1>  -0.1500 
  8 C        5.3300     1.2600    -0.1840 C.ar  1 <1>   0.1000 
  9 C        4.3530     3.3790     0.4080 C.ar  1 <1>  -0.1500 
 10 N        6.4280     0.4150    -0.3250 N.pl3 1 <1>  -0.8380 
 11 C        5.4620     2.5670     0.2710 C.ar  1 <1>  -0.1500 
 12 C        7.6900     0.8980    -0.9640 C.3   1 <1>   0.2090 
 13 C        6.5430    -0.7680     0.5790 C.3   1 <1>   0.2090 
 14 C        8.8340     1.0240     0.0650 C.3   1 <1>   0.3430 
 15 C        7.7050    -0.5970     1.5810 C.3   1 <1>   0.3430 
 16 N        9.0010    -0.2200     0.9080 N.4   1 <1>  -0.9590 
 17 C       10.1190    -0.0880     1.8820 C.3   1 <1>   0.4860 
 18 C       11.4020     0.1450     1.1080 C.ar  1 <1>  -0.1430 
 19 C       11.9060    -0.8560     0.2930 C.ar  1 <1>  -0.1500 
 20 C       12.0700     1.3580     1.1910 C.ar  1 <1>  -0.1500 
 21 C       13.0500    -0.6660    -0.4640 C.ar  1 <1>   0.0830 
 22 C       13.2260     1.5720     0.4480 C.ar  1 <1>   0.0830 
 23 O       13.3950    -1.7460    -1.2220 O.3   1 <1>  -0.3630 
 24 C       13.7120     0.5670    -0.3870 C.ar  1 <1>   0.0830 
 25 O       13.9260     2.7440     0.4870 O.3   1 <1>  -0.3630 
 26 C       14.6180    -1.8300    -1.9210 C.3   1 <1>   0.0400 
 27 O       14.8250     0.8670    -1.0950 O.3   1 <1>  -0.5330 
 28 C       13.7150     3.6990     1.5060 C.3   1 <1>   0.0400 
 29 H        3.9700    -0.2150    -0.8660 H     1 <1>   0.1500 
 30 H        2.2430     3.5480     0.2030 H     1 <1>   0.1500 
 31 H        4.4630     4.3910     0.7600 H     1 <1>   0.1500 
 32 H        6.4290     2.9540     0.5240 H     1 <1>   0.1500 
 33 H        7.5190     1.8520    -1.4340 H     1 <1>   0.0800 
 34 H        7.9760     0.2080    -1.7390 H     1 <1>   0.0800 
 35 H        6.6990    -1.6520    -0.0150 H     1 <1>   0.0800 
 36 H        5.6230    -0.8990     1.1240 H     1 <1>   0.0800 
 37 H        8.6190     1.8640     0.7030 H     1 <1>   0.0800 
 38 H        9.7500     1.2370    -0.4620 H     1 <1>   0.0800 
 39 H        7.8270    -1.5150     2.1310 H     1 <1>   0.0800 
 40 H        7.4260     0.1730     2.2810 H     1 <1>   0.0800 
 41 H        9.2570    -0.9750     0.2590 H     1 <1>   0.4500 
 42 H       10.2140    -0.9900     2.4650 H     1 <1>   0.0800 
 43 H        9.9360     0.7360     2.5520 H     1 <1>   0.0800 
 44 H       11.4240    -1.8160     0.2240 H     1 <1>   0.1500 
 45 H       11.6870     2.1340     1.8280 H     1 <1>   0.1500 
 46 H       14.6960    -2.8130    -2.3480 H     1 <1>   0.0800 
 47 H       15.4280    -1.6640    -1.2320 H     1 <1>   0.0800 
 48 H       14.6250    -1.0910    -2.7030 H     1 <1>   0.0800 
 49 H       15.1100     1.7780    -0.8750 H     1 <1>   0.4500 
 50 H       14.4630     4.4650     1.4050 H     1 <1>   0.0800 
 51 H       13.8150     3.2190     2.4630 H     1 <1>   0.0800 
 52 H       12.7380     4.1310     1.3870 H     1 <1>   0.0800 
@<TRIPOS>BOND
  1   1   2  1   
  2   2   3  1   
  3   2   4  1   
  4   2   5  1   
  5   5   6  ar  
  6   5   7  ar  
  7   6   8  ar  
  8   6  29  1   
  9   7   9  ar  
 10   7  30  1   
 11   8  10  1   
 12   8  11  ar  
 13   9  11  ar  
 14   9  31  1   
 15  10  12  1   
 16  10  13  1   
 17  11  32  1   
 18  12  14  1   
 19  12  33  1   
 20  12  34  1   
 21  13  15  1   
 22  13  35  1   
 23  13  36  1   
 24  14  16  1   
 25  14  37  1   
 26  14  38  1   
 27  15  16  1   
 28  15  39  1   
 29  15  40  1   
 30  16  17  1   
 31  16  41  1   
 32  17  18  1   
 33  17  42  1   
 34  17  43  1   
 35  18  19  ar  
 36  18  20  ar  
 37  19  21  ar  
 38  19  44  1   
 39  20  22  ar  
 40  20  45  1   
 41  21  23  1   
 42  21  24  ar  
 43  22  24  ar  
 44  22  25  1   
 45  23  26  1   
 46  24  27  1   
 47  25  28  1   
 48  26  46  1   
 49  26  47  1   
 50  26  48  1   
 51  27  49  1   
 52  28  50  1   
 53  28  51  1   
 54  28  52  1   
@<TRIPOS>SUBSTRUCTURE
  1 ****  14 GROUP 4 **** **** 0

# MOE 2024.06 (io_trps.svl 2023.06)
