@<TRIPOS>MOLECULE
NONAME
44 46 1 0 0 
SMALL
USER_CHARGES


@<TRIPOS>ATOM
  1 BR      -3.1230    -0.3490     3.6910 Br    1 <1>  -0.1110 
  2 C       -3.1210     0.7550     2.1170 C.ar  1 <1>   0.1110 
  3 C       -3.9740     0.4290     1.0800 C.ar  1 <1>  -0.1500 
  4 C       -2.2720     1.8430     2.0640 C.ar  1 <1>  -0.1500 
  5 C       -3.9840     1.2280    -0.0560 C.ar  1 <1>  -0.1440 
  6 C       -2.2790     2.6300     0.9260 C.ar  1 <1>  -0.1500 
  7 C       -3.1290     2.3230    -0.1270 C.ar  1 <1>  -0.1500 
  8 C       -4.9230     0.9140    -1.2050 C.3   1 <1>   0.4870 
  9 N       -6.3060     1.2750    -0.7960 N.4   1 <1>  -0.9590 
 10 C       -7.3270     0.8230    -1.8120 C.3   1 <1>   0.3430 
 11 C       -6.4380     2.7560    -0.5180 C.3   1 <1>   0.3430 
 12 C       -8.7670     1.2100    -1.4140 C.3   1 <1>   0.2090 
 13 C       -7.8710     3.1570    -0.1130 C.3   1 <1>   0.2090 
 14 N       -8.8620     2.6680    -1.1150 N.pl3 1 <1>  -0.8380 
 15 C      -10.1540     3.1590    -0.9620 C.ar  1 <1>   0.1000 
 16 C      -10.9380     2.8110     0.1300 C.ar  1 <1>  -0.1500 
 17 C      -10.6810     4.0170    -1.9170 C.ar  1 <1>  -0.1500 
 18 C      -12.2220     3.3040     0.2720 C.ar  1 <1>   0.0830 
 19 C      -11.9640     4.5170    -1.7860 C.ar  1 <1>  -0.1500 
 20 O      -12.9070     2.9050     1.3740 O.3   1 <1>  -0.3630 
 21 C      -12.7380     4.1640    -0.6940 C.ar  1 <1>  -0.1500 
 22 C      -14.2240     3.3500     1.6140 C.3   1 <1>   0.0400 
 23 H       -4.6030    -0.4380     1.1790 H     1 <1>   0.1500 
 24 H       -1.6210     2.0640     2.8920 H     1 <1>   0.1500 
 25 H       -1.6190     3.4790     0.8610 H     1 <1>   0.1500 
 26 H       -3.1070     2.9510    -1.0020 H     1 <1>   0.1500 
 27 H       -4.8640    -0.1380    -1.4350 H     1 <1>   0.0800 
 28 H       -4.6340     1.4720    -2.0810 H     1 <1>   0.0800 
 29 H       -6.4960     0.7920     0.0900 H     1 <1>   0.4500 
 30 H       -7.2760    -0.2450    -1.9380 H     1 <1>   0.0800 
 31 H       -7.1150     1.2800    -2.7640 H     1 <1>   0.0800 
 32 H       -6.1750     3.3140    -1.4020 H     1 <1>   0.0800 
 33 H       -5.7610     3.0450     0.2690 H     1 <1>   0.0800 
 34 H       -9.0770     0.6420    -0.5540 H     1 <1>   0.0800 
 35 H       -9.4380     0.9730    -2.2230 H     1 <1>   0.0800 
 36 H       -7.9360     4.2300    -0.0480 H     1 <1>   0.0800 
 37 H       -8.1040     2.7540     0.8580 H     1 <1>   0.0800 
 38 H      -10.5560     2.1510     0.8830 H     1 <1>   0.1500 
 39 H      -10.0780     4.2900    -2.7640 H     1 <1>   0.1500 
 40 H      -12.3600     5.1810    -2.5340 H     1 <1>   0.1500 
 41 H      -13.7310     4.5650    -0.6150 H     1 <1>   0.1500 
 42 H      -14.5630     2.9100     2.5340 H     1 <1>   0.0800 
 43 H      -14.8540     3.0310     0.8030 H     1 <1>   0.0800 
 44 H      -14.2200     4.4220     1.7020 H     1 <1>   0.0800 
@<TRIPOS>BOND
  1   1   2  1   
  2   2   3  ar  
  3   2   4  ar  
  4   3   5  ar  
  5   3  23  1   
  6   4   6  ar  
  7   4  24  1   
  8   5   7  ar  
  9   5   8  1   
 10   6   7  ar  
 11   6  25  1   
 12   7  26  1   
 13   8   9  1   
 14   8  27  1   
 15   8  28  1   
 16   9  10  1   
 17   9  11  1   
 18   9  29  1   
 19  10  12  1   
 20  10  30  1   
 21  10  31  1   
 22  11  13  1   
 23  11  32  1   
 24  11  33  1   
 25  12  14  1   
 26  12  34  1   
 27  12  35  1   
 28  13  14  1   
 29  13  36  1   
 30  13  37  1   
 31  14  15  1   
 32  15  16  ar  
 33  15  17  ar  
 34  16  18  ar  
 35  16  38  1   
 36  17  19  ar  
 37  17  39  1   
 38  18  20  1   
 39  18  21  ar  
 40  19  21  ar  
 41  19  40  1   
 42  20  22  1   
 43  21  41  1   
 44  22  42  1   
 45  22  43  1   
 46  22  44  1   
@<TRIPOS>SUBSTRUCTURE
  1 ****  13 GROUP 4 **** **** 0

# MOE 2024.06 (io_trps.svl 2023.06)
