@<TRIPOS>MOLECULE
NONAME
51 53 1 0 0 
SMALL
USER_CHARGES


@<TRIPOS>ATOM
  1 S       -0.0160    -0.0970    -0.2180 S.o2  1 <1>   1.3330 
  2 O        0.3240    -0.8580     0.9640 O.2   1 <1>  -0.6500 
  3 O        0.3310    -0.6130    -1.5230 O.2   1 <1>  -0.6500 
  4 N       -1.6910     0.1720    -0.1820 N.am  1 <1>  -0.8490 
  5 C        0.6530     1.5680    -0.0790 C.3   1 <1>  -0.0550 
  6 C       -2.2080     0.2750     1.1880 C.3   1 <1>   0.1960 
  7 C       -2.4220    -0.8310    -0.9630 C.3   1 <1>   0.1960 
  8 C        2.1900     1.6390    -0.0860 C.3   1 <1>  -0.2400 
  9 C       -3.6820     0.6830     1.1720 C.3   1 <1>  -0.1600 
 10 C       -3.9100    -0.4770    -1.0350 C.3   1 <1>  -0.1600 
 11 C       -4.5240    -0.3190     0.3650 C.3   1 <1>  -0.0190 
 12 C       -5.9940     0.0940     0.2880 C.2   1 <1>   0.5690 
 13 O       -6.2680     1.2080    -0.0850 O.2   1 <1>  -0.5700 
 14 N       -6.9340    -0.8380     0.6370 N.am  1 <1>  -0.5470 
 15 C       -8.3360    -0.7560     0.6880 C.ar  1 <1>   0.1170 
 16 C       -9.0730    -1.9330     0.6150 C.ar  1 <1>  -0.1500 
 17 C       -9.0230     0.4470     0.8290 C.ar  1 <1>  -0.1500 
 18 C      -10.4560    -1.9130     0.6720 C.ar  1 <1>  -0.1500 
 19 C      -10.4060     0.4750     0.8870 C.ar  1 <1>  -0.1500 
 20 C      -11.1270    -0.7090     0.8010 C.ar  1 <1>   0.0820 
 21 O      -12.4840    -0.7300     0.8600 O.3   1 <1>  -0.1650 
 22 C      -13.2480     0.1950     0.2240 C.ar  1 <1>   0.0820 
 23 C      -14.4500     0.5600     0.8110 C.ar  1 <1>  -0.1500 
 24 C      -12.8730     0.7610    -0.9900 C.ar  1 <1>  -0.1500 
 25 C      -15.2680     1.4940     0.1990 C.ar  1 <1>  -0.1500 
 26 C      -13.6920     1.6960    -1.5990 C.ar  1 <1>  -0.1500 
 27 C      -14.8880     2.0630    -1.0050 C.ar  1 <1>  -0.1500 
 28 H        0.2960     2.0130     0.8290 H     1 <1>   0.0800 
 29 H        0.2790     2.1550    -0.8950 H     1 <1>   0.0800 
 30 H       -1.6460     1.0140     1.7340 H     1 <1>   0.0800 
 31 H       -2.0960    -0.6710     1.6940 H     1 <1>   0.0800 
 32 H       -2.2860    -1.8050    -0.5210 H     1 <1>   0.0800 
 33 H       -2.0350    -0.8630    -1.9690 H     1 <1>   0.0800 
 34 H        2.5910     1.0760     0.7390 H     1 <1>   0.0800 
 35 H        2.5170     2.6600    -0.0030 H     1 <1>   0.0800 
 36 H        2.5740     1.2250    -1.0030 H     1 <1>   0.0800 
 37 H       -3.7650     1.6660     0.7400 H     1 <1>   0.0800 
 38 H       -4.0490     0.7370     2.1820 H     1 <1>   0.0800 
 39 H       -4.4320    -1.2440    -1.5790 H     1 <1>   0.0800 
 40 H       -4.0190     0.4430    -1.5840 H     1 <1>   0.0800 
 41 H       -4.4650    -1.2710     0.8640 H     1 <1>   0.0800 
 42 H       -6.5650    -1.7590     0.8600 H     1 <1>   0.3700 
 43 H       -8.5680    -2.8750     0.5090 H     1 <1>   0.1500 
 44 H       -8.4820     1.3730     0.9000 H     1 <1>   0.1500 
 45 H      -11.0200    -2.8270     0.6150 H     1 <1>   0.1500 
 46 H      -10.9200     1.4120     1.0040 H     1 <1>   0.1500 
 47 H      -14.7390     0.1130     1.7450 H     1 <1>   0.1500 
 48 H      -11.9500     0.4720    -1.4610 H     1 <1>   0.1500 
 49 H      -16.1990     1.7770     0.6580 H     1 <1>   0.1500 
 50 H      -13.3990     2.1360    -2.5370 H     1 <1>   0.1500 
 51 H      -15.5240     2.7890    -1.4810 H     1 <1>   0.1500 
@<TRIPOS>BOND
  1   1   2  2   
  2   1   3  2   
  3   1   4  am  
  4   1   5  1   
  5   4   6  1   
  6   4   7  1   
  7   5   8  1   
  8   5  28  1   
  9   5  29  1   
 10   6   9  1   
 11   6  30  1   
 12   6  31  1   
 13   7  10  1   
 14   7  32  1   
 15   7  33  1   
 16   8  34  1   
 17   8  35  1   
 18   8  36  1   
 19   9  11  1   
 20   9  37  1   
 21   9  38  1   
 22  10  11  1   
 23  10  39  1   
 24  10  40  1   
 25  11  12  1   
 26  11  41  1   
 27  12  13  2   
 28  12  14  am  
 29  14  15  1   
 30  14  42  1   
 31  15  16  ar  
 32  15  17  ar  
 33  16  18  ar  
 34  16  43  1   
 35  17  19  ar  
 36  17  44  1   
 37  18  20  ar  
 38  18  45  1   
 39  19  20  ar  
 40  19  46  1   
 41  20  21  1   
 42  21  22  1   
 43  22  23  ar  
 44  22  24  ar  
 45  23  25  ar  
 46  23  47  1   
 47  24  26  ar  
 48  24  48  1   
 49  25  27  ar  
 50  25  49  1   
 51  26  27  ar  
 52  26  50  1   
 53  27  51  1   
@<TRIPOS>SUBSTRUCTURE
  1 ****  12 GROUP 4 **** **** 0

# MOE 2024.06 (io_trps.svl 2023.06)
