@<TRIPOS>MOLECULE
NONAME
49 52 1 0 0 
SMALL
USER_CHARGES


@<TRIPOS>ATOM
  1 O       -5.5830     4.7260    -0.8790 O.2   1 <1>  -0.5700 
  2 C       -4.9640     3.7840    -0.4090 C.2   1 <1>   0.5440 
  3 N       -5.5490     2.5500    -0.3970 N.am  1 <1>  -0.4300 
  4 C       -3.6240     3.9660     0.1080 C.ar  1 <1>   0.0860 
  5 N       -6.9920     2.3210    -0.4650 N.am  1 <1>  -0.4300 
  6 C       -2.7370     4.8770    -0.4440 C.ar  1 <1>  -0.1500 
  7 C       -3.1310     3.2530     1.1930 C.ar  1 <1>  -0.1500 
  8 C       -7.7920     2.1290     0.6200 C.2   1 <1>   0.5690 
  9 C       -1.4620     5.0110     0.0700 C.ar  1 <1>   0.1600 
 10 C       -1.8380     3.4600     1.6340 C.ar  1 <1>   0.1600 
 11 O       -7.3100     1.8790     1.7070 O.2   1 <1>  -0.5700 
 12 C       -9.3220     2.2250     0.4420 C.3   1 <1>   0.0610 
 13 N       -0.9900     4.3180     1.0930 N.ar  1 <1>  -0.6200 
 14 C       -9.8150     1.1840    -0.5960 C.3   1 <1>  -0.1600 
 15 C       -9.7100     3.6400    -0.0560 C.3   1 <1>  -0.1600 
 16 C      -10.0720     1.9640     1.7740 C.3   1 <1>  -0.1600 
 17 C      -11.3390     1.2830    -0.8070 C.3   1 <1>   0.0000 
 18 C      -11.2330     3.7630    -0.2620 C.3   1 <1>   0.0000 
 19 C      -11.5950     2.0720     1.5820 C.3   1 <1>  -0.0800 
 20 C      -11.6820     2.7070    -1.2930 C.3   1 <1>  -0.1600 
 21 C      -12.0460     1.0340     0.5400 C.3   1 <1>  -0.1600 
 22 C      -11.7970     0.2470    -1.8410 C.3   1 <1>  -0.2400 
 23 C      -11.9420     3.4830     1.0780 C.3   1 <1>  -0.1600 
 24 C      -11.5850     5.1700    -0.7600 C.3   1 <1>  -0.2400 
 25 H       -4.9910     1.7360    -0.1220 H     1 <1>   0.3700 
 26 H       -7.4290     2.5370    -1.3670 H     1 <1>   0.3700 
 27 H       -3.0480     5.4830    -1.2770 H     1 <1>   0.1500 
 28 H       -3.7560     2.5430     1.7060 H     1 <1>   0.1500 
 29 H       -0.7930     5.7260    -0.3810 H     1 <1>   0.1500 
 30 H       -1.4800     2.8940     2.4780 H     1 <1>   0.1500 
 31 H       -9.5610     0.1960    -0.2540 H     1 <1>   0.0800 
 32 H       -9.3210     1.3390    -1.5380 H     1 <1>   0.0800 
 33 H       -9.2100     3.8570    -0.9830 H     1 <1>   0.0800 
 34 H       -9.3810     4.3710     0.6630 H     1 <1>   0.0800 
 35 H       -9.8250     0.9850     2.1450 H     1 <1>   0.0800 
 36 H       -9.7530     2.6770     2.5150 H     1 <1>   0.0800 
 37 H      -12.0930     1.8870     2.5180 H     1 <1>   0.0800 
 38 H      -11.2010     2.8940    -2.2370 H     1 <1>   0.0800 
 39 H      -12.7440     2.7870    -1.4490 H     1 <1>   0.0800 
 40 H      -11.8190     0.0440     0.8970 H     1 <1>   0.0800 
 41 H      -13.1130     1.0960     0.4110 H     1 <1>   0.0800 
 42 H      -11.3110     0.4160    -2.7860 H     1 <1>   0.0800 
 43 H      -12.8600     0.3110    -1.9900 H     1 <1>   0.0800 
 44 H      -11.5600    -0.7470    -1.5080 H     1 <1>   0.0800 
 45 H      -13.0070     3.5680     0.9540 H     1 <1>   0.0800 
 46 H      -11.6400     4.2100     1.8110 H     1 <1>   0.0800 
 47 H      -11.0950     5.3730    -1.6960 H     1 <1>   0.0800 
 48 H      -11.2720     5.9110    -0.0450 H     1 <1>   0.0800 
 49 H      -12.6470     5.2640    -0.9050 H     1 <1>   0.0800 
@<TRIPOS>BOND
  1   1   2  2   
  2   2   3  am  
  3   2   4  1   
  4   3   5  1   
  5   3  25  1   
  6   4   6  ar  
  7   4   7  ar  
  8   5   8  am  
  9   5  26  1   
 10   6   9  ar  
 11   6  27  1   
 12   7  10  ar  
 13   7  28  1   
 14   8  11  2   
 15   8  12  1   
 16   9  13  ar  
 17   9  29  1   
 18  10  13  ar  
 19  10  30  1   
 20  12  14  1   
 21  12  15  1   
 22  12  16  1   
 23  14  17  1   
 24  14  31  1   
 25  14  32  1   
 26  15  18  1   
 27  15  33  1   
 28  15  34  1   
 29  16  19  1   
 30  16  35  1   
 31  16  36  1   
 32  17  20  1   
 33  17  21  1   
 34  17  22  1   
 35  18  20  1   
 36  18  23  1   
 37  18  24  1   
 38  19  21  1   
 39  19  23  1   
 40  19  37  1   
 41  20  38  1   
 42  20  39  1   
 43  21  40  1   
 44  21  41  1   
 45  22  42  1   
 46  22  43  1   
 47  22  44  1   
 48  23  45  1   
 49  23  46  1   
 50  24  47  1   
 51  24  48  1   
 52  24  49  1   
@<TRIPOS>SUBSTRUCTURE
  1 ****   8 GROUP 4 **** **** 0

# MOE 2024.06 (io_trps.svl 2023.06)
