@<TRIPOS>MOLECULE
NONAME
35 35 1 0 0 
SMALL
USER_CHARGES


@<TRIPOS>ATOM
  1 O       -2.8720    -2.3330    -0.4600 O.3   1 <1>  -0.3630 
  2 C       -2.5610    -3.5670     0.0300 C.ar  1 <1>   0.0820 
  3 C       -4.1860    -1.8260    -0.5070 C.3   1 <1>   0.1200 
  4 C       -3.4550    -4.6110     0.3290 C.ar  1 <1>   0.0820 
  5 C       -1.2050    -3.7560     0.2300 C.ar  1 <1>  -0.1500 
  6 C       -4.1100    -0.3550    -0.9070 C.3   1 <1>  -0.2400 
  7 O       -4.7940    -4.4500     0.1230 O.3   1 <1>  -0.3620 
  8 C       -2.9440    -5.8080     0.8280 C.ar  1 <1>  -0.1500 
  9 C       -0.7050    -4.9530     0.7160 C.ar  1 <1>  -0.1440 
 10 C       -5.7490    -5.4170     0.4960 C.3   1 <1>   0.1200 
 11 C       -1.5840    -5.9790     1.0200 C.ar  1 <1>  -0.1500 
 12 C        0.7850    -5.1280     0.8930 C.3   1 <1>   0.4860 
 13 C       -7.1310    -4.8560     0.1770 C.3   1 <1>  -0.2400 
 14 N        1.3260    -5.4550    -0.4430 N.4   1 <1>  -0.9060 
 15 C        2.8080    -5.6210    -0.4690 C.3   1 <1>   0.2630 
 16 H       -4.6300    -1.9340     0.4670 H     1 <1>   0.0800 
 17 H       -4.7430    -2.3880    -1.2360 H     1 <1>   0.0800 
 18 H       -0.5520    -2.9330    -0.0020 H     1 <1>   0.1500 
 19 H       -3.5400     0.1960    -0.1810 H     1 <1>   0.0800 
 20 H       -5.1010     0.0580    -0.9520 H     1 <1>   0.0800 
 21 H       -3.6530    -0.2590    -1.8750 H     1 <1>   0.0800 
 22 H       -3.5920    -6.6290     1.0740 H     1 <1>   0.1500 
 23 H       -5.6510    -5.6060     1.5510 H     1 <1>   0.0800 
 24 H       -5.5660    -6.3150    -0.0680 H     1 <1>   0.0800 
 25 H       -1.2310    -6.9190     1.4090 H     1 <1>   0.1500 
 26 H        0.9870    -5.9240     1.5920 H     1 <1>   0.0800 
 27 H        1.2190    -4.2140     1.2670 H     1 <1>   0.0800 
 28 H       -7.3000    -3.9500     0.7330 H     1 <1>   0.0800 
 29 H       -7.8860    -5.5710     0.4490 H     1 <1>   0.0800 
 30 H       -7.2140    -4.6530    -0.8760 H     1 <1>   0.0800 
 31 H        1.0250    -4.7090    -1.0850 H     1 <1>   0.4500 
 32 H        0.8500    -6.3040    -0.7730 H     1 <1>   0.4500 
 33 H        3.2940    -4.7120    -0.1500 H     1 <1>   0.0800 
 34 H        3.1400    -5.8530    -1.4680 H     1 <1>   0.0800 
 35 H        3.1090    -6.4220     0.1870 H     1 <1>   0.0800 
@<TRIPOS>BOND
  1   1   2  1   
  2   1   3  1   
  3   2   4  ar  
  4   2   5  ar  
  5   3   6  1   
  6   3  16  1   
  7   3  17  1   
  8   4   7  1   
  9   4   8  ar  
 10   5   9  ar  
 11   5  18  1   
 12   6  19  1   
 13   6  20  1   
 14   6  21  1   
 15   7  10  1   
 16   8  11  ar  
 17   8  22  1   
 18   9  11  ar  
 19   9  12  1   
 20  10  13  1   
 21  10  23  1   
 22  10  24  1   
 23  11  25  1   
 24  12  14  1   
 25  12  26  1   
 26  12  27  1   
 27  13  28  1   
 28  13  29  1   
 29  13  30  1   
 30  14  15  1   
 31  14  31  1   
 32  14  32  1   
 33  15  33  1   
 34  15  34  1   
 35  15  35  1   
@<TRIPOS>SUBSTRUCTURE
  1 ****   2 GROUP 4 **** **** 0

# MOE 2024.06 (io_trps.svl 2023.06)
