@<TRIPOS>MOLECULE
NONAME
44 45 1 0 0 
SMALL
USER_CHARGES


@<TRIPOS>ATOM
  1 S        0.7700     0.6540     1.4140 S.o2  1 <1>   1.3330 
  2 O        1.0900    -0.1500     0.2620 O.2   1 <1>  -0.6500 
  3 O        1.7680     0.9040     2.4270 O.2   1 <1>  -0.6500 
  4 N        0.2480     2.2050     0.8650 N.am  1 <1>  -0.6930 
  5 C       -0.6850     0.0080     2.2120 C.3   1 <1>  -0.1350 
  6 C       -0.9440     2.3420     0.1600 C.ar  1 <1>   0.1990 
  7 C        1.3290     3.1950     0.5690 C.3   1 <1>   0.2570 
  8 C       -2.0160     3.0600     0.6950 C.ar  1 <1>  -0.1440 
  9 C       -1.0880     1.7510    -1.0900 C.ar  1 <1>  -0.1500 
 10 C        2.0970     2.9450    -0.7400 C.2   1 <1>   0.5690 
 11 C       -3.2010     3.1570    -0.0160 C.ar  1 <1>  -0.1500 
 12 C       -1.9050     3.7450     2.0520 C.3   1 <1>  -0.0970 
 13 C       -2.2730     1.8530    -1.7920 C.ar  1 <1>  -0.1500 
 14 O        1.6560     3.4750    -1.7360 O.2   1 <1>  -0.5700 
 15 N        3.2440     2.1860    -0.8020 N.am  1 <1>  -0.6600 
 16 C       -3.3390     2.5550    -1.2560 C.ar  1 <1>  -0.1430 
 17 C        3.8300     1.7850    -2.1180 C.3   1 <1>   0.1400 
 18 C        3.9770     1.5790     0.3510 C.3   1 <1>   0.1400 
 19 C       -4.6420     2.6720    -2.0260 C.3   1 <1>  -0.0970 
 20 C        5.3510     1.9990    -2.1250 C.3   1 <1>   0.1200 
 21 C        5.4960     1.7810     0.2060 C.3   1 <1>   0.1200 
 22 O        5.9480     1.3430    -1.0430 O.3   1 <1>  -0.5600 
 23 H       -0.4780    -0.9610     2.6220 H     1 <1>   0.0800 
 24 H       -1.4870    -0.0830     1.5060 H     1 <1>   0.0800 
 25 H       -0.9930     0.6600     3.0050 H     1 <1>   0.0800 
 26 H        2.0090     3.2440     1.3970 H     1 <1>   0.0800 
 27 H        0.8760     4.1660     0.4860 H     1 <1>   0.0800 
 28 H       -0.2610     1.2130    -1.5180 H     1 <1>   0.1500 
 29 H       -4.0280     3.7100     0.3920 H     1 <1>   0.1500 
 30 H       -1.5880     3.0430     2.8000 H     1 <1>   0.0800 
 31 H       -2.8500     4.1600     2.3550 H     1 <1>   0.0800 
 32 H       -1.1860     4.5420     1.9980 H     1 <1>   0.0800 
 33 H       -2.3570     1.3880    -2.7590 H     1 <1>   0.1500 
 34 H        3.3910     2.3510    -2.9210 H     1 <1>   0.0800 
 35 H        3.6170     0.7450    -2.2930 H     1 <1>   0.0800 
 36 H        3.7650     0.5240     0.3890 H     1 <1>   0.0800 
 37 H        3.6700     2.0150     1.2810 H     1 <1>   0.0800 
 38 H       -4.6260     3.5620    -2.6300 H     1 <1>   0.0800 
 39 H       -5.4750     2.7260    -1.3490 H     1 <1>   0.0800 
 40 H       -4.7790     1.8200    -2.6670 H     1 <1>   0.0800 
 41 H        5.5850     3.0470    -2.0680 H     1 <1>   0.0800 
 42 H        5.7760     1.5970    -3.0270 H     1 <1>   0.0800 
 43 H        6.0160     1.2170     0.9600 H     1 <1>   0.0800 
 44 H        5.7500     2.8210     0.3170 H     1 <1>   0.0800 
@<TRIPOS>BOND
  1   1   2  2   
  2   1   3  2   
  3   1   4  am  
  4   1   5  1   
  5   4   6  1   
  6   4   7  1   
  7   5  23  1   
  8   5  24  1   
  9   5  25  1   
 10   6   8  ar  
 11   6   9  ar  
 12   7  10  1   
 13   7  26  1   
 14   7  27  1   
 15   8  11  ar  
 16   8  12  1   
 17   9  13  ar  
 18   9  28  1   
 19  10  14  2   
 20  10  15  am  
 21  11  16  ar  
 22  11  29  1   
 23  12  30  1   
 24  12  31  1   
 25  12  32  1   
 26  13  16  ar  
 27  13  33  1   
 28  15  17  1   
 29  15  18  1   
 30  16  19  1   
 31  17  20  1   
 32  17  34  1   
 33  17  35  1   
 34  18  21  1   
 35  18  36  1   
 36  18  37  1   
 37  19  38  1   
 38  19  39  1   
 39  19  40  1   
 40  20  22  1   
 41  20  41  1   
 42  20  42  1   
 43  21  22  1   
 44  21  43  1   
 45  21  44  1   
@<TRIPOS>SUBSTRUCTURE
  1 ****   4 GROUP 4 **** **** 0

# MOE 2024.06 (io_trps.svl 2023.06)
