@<TRIPOS>MOLECULE
NONAME
50 51 1 0 0 
SMALL
USER_CHARGES


@<TRIPOS>ATOM
  1 O        8.8760    -2.1170     0.9790 O.2   1 <1>  -0.5700 
  2 C        9.1610    -3.1460     0.4060 C.2   1 <1>   0.7800 
  3 O       10.2620    -3.7970     0.7660 O.3   1 <1>  -0.4300 
  4 N        8.3410    -3.6630    -0.5610 N.am  1 <1>  -0.6600 
  5 C       11.0300    -4.5260    -0.1640 C.3   1 <1>   0.1200 
  6 C        7.6660    -4.9590    -0.2710 C.3   1 <1>   0.1400 
  7 C        7.4710    -2.7150    -1.3150 C.3   1 <1>   0.1400 
  8 C       12.2880    -5.0130     0.5470 C.3   1 <1>  -0.2400 
  9 C        6.3650    -4.7110     0.5220 C.3   1 <1>   0.3430 
 10 C        6.1770    -2.4380    -0.5250 C.3   1 <1>   0.3430 
 11 N        5.4640    -3.7110    -0.1540 N.4   1 <1>  -0.9590 
 12 C        4.2100    -3.4600     0.6210 C.3   1 <1>   0.3430 
 13 C        3.2270    -4.6370     0.4420 C.3   1 <1>   0.2000 
 14 O        3.3610    -5.1500    -0.8490 O.3   1 <1>  -0.6800 
 15 C        1.7570    -4.2440     0.6530 C.3   1 <1>   0.1200 
 16 O        0.9650    -5.2880     0.1800 O.3   1 <1>  -0.5600 
 17 C       -0.4110    -5.0830     0.2890 C.3   1 <1>   0.2630 
 18 C       -1.1190    -6.2740    -0.3320 C.ar  1 <1>  -0.1440 
 19 C       -1.1540    -7.4890     0.3350 C.ar  1 <1>  -0.1500 
 20 C       -1.7390    -6.1600    -1.5680 C.ar  1 <1>  -0.1500 
 21 C       -1.8050    -8.5760    -0.2220 C.ar  1 <1>  -0.1500 
 22 C       -2.3900    -7.2470    -2.1260 C.ar  1 <1>  -0.1500 
 23 C       -2.4230    -8.4550    -1.4530 C.ar  1 <1>  -0.1500 
 24 H       11.2830    -3.8720    -0.9820 H     1 <1>   0.0800 
 25 H       10.4540    -5.3580    -0.5270 H     1 <1>   0.0800 
 26 H        8.3170    -5.5910     0.3100 H     1 <1>   0.0800 
 27 H        7.4470    -5.4690    -1.1930 H     1 <1>   0.0800 
 28 H        7.2370    -3.1260    -2.2820 H     1 <1>   0.0800 
 29 H        7.9980    -1.7870    -1.4710 H     1 <1>   0.0800 
 30 H       12.8540    -4.1740     0.9120 H     1 <1>   0.0800 
 31 H       12.9030    -5.5680    -0.1370 H     1 <1>   0.0800 
 32 H       12.0270    -5.6530     1.3710 H     1 <1>   0.0800 
 33 H        6.6320    -4.3490     1.5020 H     1 <1>   0.0800 
 34 H        5.8440    -5.6470     0.6440 H     1 <1>   0.0800 
 35 H        5.5290    -1.8100    -1.1140 H     1 <1>   0.0800 
 36 H        6.4410    -1.8960     0.3700 H     1 <1>   0.0800 
 37 H        5.1110    -4.1720    -1.0170 H     1 <1>   0.4500 
 38 H        3.7340    -2.5700     0.2450 H     1 <1>   0.0800 
 39 H        4.4260    -3.3040     1.6650 H     1 <1>   0.0800 
 40 H        3.4740    -5.4260     1.1310 H     1 <1>   0.0800 
 41 H        2.5390    -5.6740    -1.0320 H     1 <1>   0.4000 
 42 H        1.5180    -3.3520     0.0980 H     1 <1>   0.0800 
 43 H        1.5480    -4.0900     1.6980 H     1 <1>   0.0800 
 44 H       -0.6720    -4.1750    -0.2280 H     1 <1>   0.0800 
 45 H       -0.6700    -4.9960     1.3300 H     1 <1>   0.0800 
 46 H       -0.6710    -7.5930     1.2910 H     1 <1>   0.1500 
 47 H       -1.7190    -5.2280    -2.1040 H     1 <1>   0.1500 
 48 H       -1.8280    -9.5160     0.3020 H     1 <1>   0.1500 
 49 H       -2.8690    -7.1530    -3.0850 H     1 <1>   0.1500 
 50 H       -2.9280    -9.3000    -1.8870 H     1 <1>   0.1500 
@<TRIPOS>BOND
  1   1   2  2   
  2   2   3  1   
  3   2   4  am  
  4   3   5  1   
  5   4   6  1   
  6   4   7  1   
  7   5   8  1   
  8   5  24  1   
  9   5  25  1   
 10   6   9  1   
 11   6  26  1   
 12   6  27  1   
 13   7  10  1   
 14   7  28  1   
 15   7  29  1   
 16   8  30  1   
 17   8  31  1   
 18   8  32  1   
 19   9  11  1   
 20   9  33  1   
 21   9  34  1   
 22  10  11  1   
 23  10  35  1   
 24  10  36  1   
 25  11  12  1   
 26  11  37  1   
 27  12  13  1   
 28  12  38  1   
 29  12  39  1   
 30  13  14  1   
 31  13  15  1   
 32  13  40  1   
 33  14  41  1   
 34  15  16  1   
 35  15  42  1   
 36  15  43  1   
 37  16  17  1   
 38  17  18  1   
 39  17  44  1   
 40  17  45  1   
 41  18  19  ar  
 42  18  20  ar  
 43  19  21  ar  
 44  19  46  1   
 45  20  22  ar  
 46  20  47  1   
 47  21  23  ar  
 48  21  48  1   
 49  22  23  ar  
 50  22  49  1   
 51  23  50  1   
@<TRIPOS>SUBSTRUCTURE
  1 ****  14 GROUP 4 **** **** 0

# MOE 2024.06 (io_trps.svl 2023.06)
