@<TRIPOS>MOLECULE
NONAME
37 39 1 0 0 
SMALL
USER_CHARGES


@<TRIPOS>ATOM
  1 S        0.5780     0.8780    -0.0110 S.3   1 <1>  -0.0800 
  2 C        0.5860    -0.8120     0.3680 C.2   1 <1>   0.4420 
  3 C       -1.1440     0.8800     0.2440 C.2   1 <1>   0.3250 
  4 N       -0.5880    -1.2460     0.6400 N.2   1 <1>  -0.3380 
  5 N        1.7380    -1.5590     0.3650 N.am  1 <1>  -0.4940 
  6 N       -1.5580    -0.2950     0.5700 N.2   1 <1>  -0.3380 
  7 C       -1.9060     2.0990     0.0830 C.ar  1 <1>   0.0530 
  8 C        3.0290    -1.2390     0.1020 C.2   1 <1>   0.7800 
  9 C       -3.2920     2.0800     0.2930 C.ar  1 <1>  -0.1500 
 10 C       -1.3210     3.3280    -0.2800 C.ar  1 <1>  -0.1500 
 11 O        3.4150    -0.1320    -0.2040 O.2   1 <1>  -0.5700 
 12 O        3.8870    -2.2490     0.2010 O.3   1 <1>  -0.4300 
 13 C       -4.0200     3.2390     0.1410 C.ar  1 <1>   0.0830 
 14 C       -2.0680     4.4870    -0.4300 C.ar  1 <1>  -0.1500 
 15 C        5.2630    -2.0560    -0.0470 C.3   1 <1>   0.1200 
 16 O       -5.3370     3.4200     0.2960 O.3   1 <1>  -0.3630 
 17 C       -3.4270     4.4150    -0.2120 C.ar  1 <1>   0.0830 
 18 C        5.9790    -3.3930     0.1480 C.3   1 <1>  -0.1600 
 19 C       -5.5970     4.7960     0.0250 C.3   1 <1>   0.4000 
 20 O       -4.3390     5.3860    -0.2950 O.3   1 <1>  -0.3630 
 21 C        7.4850    -3.2550    -0.1070 C.3   1 <1>  -0.1600 
 22 C        8.2000    -4.5950     0.0880 C.3   1 <1>  -0.2400 
 23 H        1.6080    -2.5370     0.6040 H     1 <1>   0.3700 
 24 H       -3.7950     1.1710     0.5730 H     1 <1>   0.1500 
 25 H       -0.2610     3.3920    -0.4520 H     1 <1>   0.1500 
 26 H       -1.6150     5.4230    -0.7080 H     1 <1>   0.1500 
 27 H        5.6330    -1.3160     0.6440 H     1 <1>   0.0800 
 28 H        5.3810    -1.6980    -1.0560 H     1 <1>   0.0800 
 29 H        5.5660    -4.1150    -0.5350 H     1 <1>   0.0800 
 30 H        5.8170    -3.7350     1.1550 H     1 <1>   0.0800 
 31 H       -6.0040     5.2660     0.9020 H     1 <1>   0.0800 
 32 H       -6.2600     4.8790    -0.8180 H     1 <1>   0.0800 
 33 H        7.9030    -2.5300     0.5710 H     1 <1>   0.0800 
 34 H        7.6530    -2.9080    -1.1120 H     1 <1>   0.0800 
 35 H        8.0660    -4.9520     1.0940 H     1 <1>   0.0800 
 36 H        9.2540    -4.4780    -0.0950 H     1 <1>   0.0800 
 37 H        7.8150    -5.3310    -0.5960 H     1 <1>   0.0800 
@<TRIPOS>BOND
  1   1   2  1   
  2   1   3  1   
  3   2   4  2   
  4   2   5  1   
  5   3   6  2   
  6   3   7  1   
  7   4   6  1   
  8   5   8  am  
  9   5  23  1   
 10   7   9  ar  
 11   7  10  ar  
 12   8  11  2   
 13   8  12  1   
 14   9  13  ar  
 15   9  24  1   
 16  10  14  ar  
 17  10  25  1   
 18  12  15  1   
 19  13  16  1   
 20  13  17  ar  
 21  14  17  ar  
 22  14  26  1   
 23  15  18  1   
 24  15  27  1   
 25  15  28  1   
 26  16  19  1   
 27  17  20  1   
 28  18  21  1   
 29  18  29  1   
 30  18  30  1   
 31  19  20  1   
 32  19  31  1   
 33  19  32  1   
 34  21  22  1   
 35  21  33  1   
 36  21  34  1   
 37  22  35  1   
 38  22  36  1   
 39  22  37  1   
@<TRIPOS>SUBSTRUCTURE
  1 ****   1 GROUP 4 **** **** 0

# MOE 2024.06 (io_trps.svl 2023.06)
