@<TRIPOS>MOLECULE
NONAME
46 48 1 0 0 
SMALL
USER_CHARGES


@<TRIPOS>ATOM
  1 N        0.3700     0.5580     0.6720 N.pl3 1 <1>  -0.8380 
  2 C       -0.7920     0.9220    -0.0070 C.ar  1 <1>   0.1000 
  3 C        0.4140    -0.7980     1.2890 C.3   1 <1>   0.2090 
  4 C        1.6630     1.1380     0.2030 C.3   1 <1>   0.2090 
  5 C       -1.7250     1.7780     0.5800 C.ar  1 <1>  -0.1440 
  6 C       -1.0400     0.4300    -1.2850 C.ar  1 <1>  -0.1500 
  7 C        1.2680    -1.7780     0.4560 C.3   1 <1>   0.3430 
  8 C        2.4930     0.1140    -0.5980 C.3   1 <1>   0.3430 
  9 C       -2.8750     2.1230    -0.1110 C.ar  1 <1>  -0.1500 
 10 C       -1.4930     2.3420     1.9750 C.3   1 <1>  -0.0970 
 11 C       -2.1890     0.7780    -1.9690 C.ar  1 <1>  -0.1500 
 12 N        2.6220    -1.2160     0.1080 N.4   1 <1>  -0.9590 
 13 C       -3.1090     1.6260    -1.3810 C.ar  1 <1>  -0.1500 
 14 C        3.4460    -2.1770    -0.6710 C.3   1 <1>   0.4860 
 15 C        4.8390    -1.6010    -0.8160 C.ar  1 <1>  -0.1430 
 16 C        5.7030    -1.5760     0.2700 C.ar  1 <1>  -0.1500 
 17 C        5.2560    -1.0830    -2.0340 C.ar  1 <1>  -0.1500 
 18 C        6.9680    -1.0260     0.1490 C.ar  1 <1>  -0.1430 
 19 C        6.5190    -0.5330    -2.1570 C.ar  1 <1>  -0.1500 
 20 C        7.3700    -0.5020    -1.0680 C.ar  1 <1>  -0.1500 
 21 C        7.9170    -0.9960     1.3350 C.3   1 <1>  -0.0970 
 22 H       -0.5880    -1.1830     1.3760 H     1 <1>   0.0800 
 23 H        0.8170    -0.7170     2.2840 H     1 <1>   0.0800 
 24 H        2.2260     1.4740     1.0560 H     1 <1>   0.0800 
 25 H        1.4670     1.9990    -0.4130 H     1 <1>   0.0800 
 26 H       -0.3340    -0.2270    -1.7500 H     1 <1>   0.1500 
 27 H        0.7270    -2.0000    -0.4490 H     1 <1>   0.0800 
 28 H        1.3790    -2.6960     1.0080 H     1 <1>   0.0800 
 29 H        3.4710     0.5300    -0.7810 H     1 <1>   0.0800 
 30 H        2.0150    -0.0300    -1.5520 H     1 <1>   0.0800 
 31 H       -3.5990     2.7820     0.3350 H     1 <1>   0.1500 
 32 H       -1.4340     1.5390     2.6870 H     1 <1>   0.0800 
 33 H       -2.2910     3.0010     2.2660 H     1 <1>   0.0800 
 34 H       -0.5700     2.8920     1.9960 H     1 <1>   0.0800 
 35 H       -2.3730     0.3930    -2.9570 H     1 <1>   0.1500 
 36 H        3.1310    -1.0280     0.9810 H     1 <1>   0.4500 
 37 H       -4.0060     1.9010    -1.9090 H     1 <1>   0.1500 
 38 H        3.0120    -2.3420    -1.6430 H     1 <1>   0.0800 
 39 H        3.5050    -3.1220    -0.1560 H     1 <1>   0.0800 
 40 H        5.4050    -1.9860     1.2200 H     1 <1>   0.1500 
 41 H        4.6130    -1.1020    -2.8980 H     1 <1>   0.1500 
 42 H        6.8470    -0.1310    -3.1010 H     1 <1>   0.1500 
 43 H        8.3520    -0.0720    -1.1740 H     1 <1>   0.1500 
 44 H        7.6810    -1.7760     2.0350 H     1 <1>   0.0800 
 45 H        7.8490    -0.0460     1.8350 H     1 <1>   0.0800 
 46 H        8.9310    -1.1380     1.0040 H     1 <1>   0.0800 
@<TRIPOS>BOND
  1   1   2  1   
  2   1   3  1   
  3   1   4  1   
  4   2   5  ar  
  5   2   6  ar  
  6   3   7  1   
  7   3  22  1   
  8   3  23  1   
  9   4   8  1   
 10   4  24  1   
 11   4  25  1   
 12   5   9  ar  
 13   5  10  1   
 14   6  11  ar  
 15   6  26  1   
 16   7  12  1   
 17   7  27  1   
 18   7  28  1   
 19   8  12  1   
 20   8  29  1   
 21   8  30  1   
 22   9  13  ar  
 23   9  31  1   
 24  10  32  1   
 25  10  33  1   
 26  10  34  1   
 27  11  13  ar  
 28  11  35  1   
 29  12  14  1   
 30  12  36  1   
 31  13  37  1   
 32  14  15  1   
 33  14  38  1   
 34  14  39  1   
 35  15  16  ar  
 36  15  17  ar  
 37  16  18  ar  
 38  16  40  1   
 39  17  19  ar  
 40  17  41  1   
 41  18  20  ar  
 42  18  21  1   
 43  19  20  ar  
 44  19  42  1   
 45  20  43  1   
 46  21  44  1   
 47  21  45  1   
 48  21  46  1   
@<TRIPOS>SUBSTRUCTURE
  1 ****   8 GROUP 4 **** **** 0

# MOE 2024.06 (io_trps.svl 2023.06)
