@<TRIPOS>MOLECULE
NONAME
43 45 1 0 0 
SMALL
USER_CHARGES


@<TRIPOS>ATOM
  1 CL      -1.9740     1.3080    -2.5040 Cl    1 <1>  -0.1770 
  2 C       -1.9190     1.3510    -0.7560 C.ar  1 <1>   0.1770 
  3 C       -0.9230     2.0590    -0.0960 C.ar  1 <1>  -0.1440 
  4 C       -2.8880     0.6490    -0.0620 C.ar  1 <1>  -0.1500 
  5 C       -0.9130     2.0440     1.2920 C.ar  1 <1>  -0.1500 
  6 C        0.1460     2.8410    -0.8450 C.3   1 <1>   0.2540 
  7 C       -2.8670     0.6450     1.3220 C.ar  1 <1>  -0.1500 
  8 C       -1.8790     1.3430     1.9960 C.ar  1 <1>  -0.1500 
  9 N        1.4370     2.1250    -0.8040 N.3   1 <1>  -0.8100 
 10 C        1.3590     0.8050    -1.4890 C.3   1 <1>   0.1100 
 11 C        2.5290     2.9410    -1.3800 C.3   1 <1>   0.1100 
 12 C        2.7250     0.0810    -1.5510 C.3   1 <1>   0.3430 
 13 C        3.9040     2.2340    -1.2710 C.3   1 <1>   0.3430 
 14 N        3.7570     0.8310    -0.7620 N.4   1 <1>  -0.9590 
 15 C        5.0420     0.1070    -0.5870 C.3   1 <1>   0.4860 
 16 C        4.7720    -1.2270     0.0860 C.ar  1 <1>  -0.1430 
 17 C        4.8880    -2.4070    -0.6400 C.ar  1 <1>  -0.1500 
 18 C        4.4070    -1.2760     1.4260 C.ar  1 <1>  -0.1500 
 19 C        4.6320    -3.6260    -0.0340 C.ar  1 <1>  -0.1500 
 20 C        4.1500    -2.4940     2.0340 C.ar  1 <1>  -0.1500 
 21 C        4.2640    -3.6560     1.2970 C.ar  1 <1>   0.1770 
 22 CL       3.9390    -5.1900     2.0610 Cl    1 <1>  -0.1770 
 23 H       -3.6480     0.1120    -0.6000 H     1 <1>   0.1500 
 24 H       -0.1500     2.5800     1.8300 H     1 <1>   0.1500 
 25 H        0.2580     3.8000    -0.3660 H     1 <1>   0.0800 
 26 H       -0.1470     3.0230    -1.8640 H     1 <1>   0.0800 
 27 H       -3.6170     0.1030     1.8730 H     1 <1>   0.1500 
 28 H       -1.8620     1.3400     3.0730 H     1 <1>   0.1500 
 29 H        0.9800     0.9280    -2.4890 H     1 <1>   0.0800 
 30 H        0.6680     0.1690    -0.9610 H     1 <1>   0.0800 
 31 H        2.5850     3.8860    -0.8650 H     1 <1>   0.0800 
 32 H        2.3200     3.1500    -2.4160 H     1 <1>   0.0800 
 33 H        3.0350    -0.0060    -2.5790 H     1 <1>   0.0800 
 34 H        2.6040    -0.9160    -1.1580 H     1 <1>   0.0800 
 35 H        4.5310     2.7990    -0.6020 H     1 <1>   0.0800 
 36 H        4.3760     2.2310    -2.2400 H     1 <1>   0.0800 
 37 H        3.3040     0.9370     0.1580 H     1 <1>   0.4500 
 38 H        5.7110     0.6860     0.0290 H     1 <1>   0.0800 
 39 H        5.5100    -0.0530    -1.5440 H     1 <1>   0.0800 
 40 H        5.1790    -2.3960    -1.6770 H     1 <1>   0.1500 
 41 H        4.3200    -0.3770     2.0130 H     1 <1>   0.1500 
 42 H        4.7180    -4.5490    -0.5810 H     1 <1>   0.1500 
 43 H        3.8660    -2.5490     3.0710 H     1 <1>   0.1500 
@<TRIPOS>BOND
  1   1   2  1   
  2   2   3  ar  
  3   2   4  ar  
  4   3   5  ar  
  5   3   6  1   
  6   4   7  ar  
  7   4  23  1   
  8   5   8  ar  
  9   5  24  1   
 10   6   9  1   
 11   6  25  1   
 12   6  26  1   
 13   7   8  ar  
 14   7  27  1   
 15   8  28  1   
 16   9  10  1   
 17   9  11  1   
 18  10  12  1   
 19  10  29  1   
 20  10  30  1   
 21  11  13  1   
 22  11  31  1   
 23  11  32  1   
 24  12  14  1   
 25  12  33  1   
 26  12  34  1   
 27  13  14  1   
 28  13  35  1   
 29  13  36  1   
 30  14  15  1   
 31  14  37  1   
 32  15  16  1   
 33  15  38  1   
 34  15  39  1   
 35  16  17  ar  
 36  16  18  ar  
 37  17  19  ar  
 38  17  40  1   
 39  18  20  ar  
 40  18  41  1   
 41  19  21  ar  
 42  19  42  1   
 43  20  21  ar  
 44  20  43  1   
 45  21  22  1   
@<TRIPOS>SUBSTRUCTURE
  1 ****  10 GROUP 4 **** **** 0

# MOE 2024.06 (io_trps.svl 2023.06)
