@<TRIPOS>MOLECULE
NONAME
46 47 1 0 0 
SMALL
USER_CHARGES


@<TRIPOS>ATOM
  1 O        0.3560    -5.2590    -0.3080 O.3   1 <1>  -0.3630 
  2 C       -1.0020    -5.2990    -0.1860 C.ar  1 <1>   0.0830 
  3 C        1.1790    -6.3860    -0.1580 C.3   1 <1>   0.1200 
  4 C       -1.7890    -6.4100     0.1750 C.ar  1 <1>   0.0830 
  5 C       -1.6300    -4.0950    -0.4580 C.ar  1 <1>  -0.1500 
  6 C        2.6140    -5.9490    -0.4390 C.3   1 <1>   0.3430 
  7 O       -1.1980    -7.6110     0.4590 O.3   1 <1>  -0.3630 
  8 C       -3.1720    -6.2590     0.2410 C.ar  1 <1>  -0.1500 
  9 C       -3.0030    -3.9710    -0.3840 C.ar  1 <1>  -0.1500 
 10 N        3.5650    -7.0930    -0.3050 N.4   1 <1>  -0.9060 
 11 C       -1.9410    -8.7270     0.9060 C.3   1 <1>   0.0400 
 12 C       -3.8050    -5.0500    -0.0320 C.ar  1 <1>   0.0280 
 13 C        4.9720    -6.7230    -0.5440 C.3   1 <1>   0.4230 
 14 C       -5.2460    -4.9480     0.0520 C.2   1 <1>  -0.1780 
 15 C        5.7930    -8.0050    -0.5780 C.3   1 <1>  -0.1600 
 16 C        5.5250    -6.0040     0.6830 C.3   1 <1>  -0.1600 
 17 C       -6.0080    -3.8430     0.0090 C.2   1 <1>  -0.2880 
 18 C        6.0250    -8.3950     0.8870 C.3   1 <1>  -0.1600 
 19 C        5.8550    -7.1040     1.7000 C.3   1 <1>  -0.1600 
 20 C       -7.5230    -3.8360     0.1030 C.3   1 <1>  -0.1020 
 21 H        1.0750    -6.7390     0.8530 H     1 <1>   0.0800 
 22 H        0.8550    -7.1290    -0.8660 H     1 <1>   0.0800 
 23 H       -1.0340    -3.2440    -0.7330 H     1 <1>   0.1500 
 24 H        2.8770    -5.1690     0.2570 H     1 <1>   0.0800 
 25 H        2.6650    -5.5490    -1.4390 H     1 <1>   0.0800 
 26 H       -3.8030    -7.0830     0.5100 H     1 <1>   0.1500 
 27 H       -3.4520    -3.0210    -0.6070 H     1 <1>   0.1500 
 28 H        3.3080    -7.8400    -0.9580 H     1 <1>   0.4500 
 29 H        3.5210    -7.4900     0.6410 H     1 <1>   0.4500 
 30 H       -1.2570    -9.5340     1.0960 H     1 <1>   0.0800 
 31 H       -2.6370    -9.0160     0.1380 H     1 <1>   0.0800 
 32 H       -2.4560    -8.4650     1.8140 H     1 <1>   0.0800 
 33 H        5.0790    -6.1470    -1.4510 H     1 <1>   0.0800 
 34 H       -5.7340    -5.9010     0.1650 H     1 <1>   0.1500 
 35 H        5.3340    -8.7930    -1.1510 H     1 <1>   0.0800 
 36 H        6.7470    -7.7820    -1.0260 H     1 <1>   0.0800 
 37 H        6.4440    -5.5180     0.3990 H     1 <1>   0.0800 
 38 H        4.8670    -5.2540     1.0850 H     1 <1>   0.0800 
 39 H       -5.6020    -2.8510    -0.0950 H     1 <1>   0.1500 
 40 H        5.3020    -9.1280     1.2050 H     1 <1>   0.0800 
 41 H        7.0100    -8.8110     1.0200 H     1 <1>   0.0800 
 42 H        6.7570    -6.8650     2.2400 H     1 <1>   0.0800 
 43 H        5.0550    -7.2170     2.4120 H     1 <1>   0.0800 
 44 H       -7.9440    -3.3990    -0.7840 H     1 <1>   0.0800 
 45 H       -7.8350    -3.2590     0.9560 H     1 <1>   0.0800 
 46 H       -7.9050    -4.8370     0.2080 H     1 <1>   0.0800 
@<TRIPOS>BOND
  1   1   2  1   
  2   1   3  1   
  3   2   4  ar  
  4   2   5  ar  
  5   3   6  1   
  6   3  21  1   
  7   3  22  1   
  8   4   7  1   
  9   4   8  ar  
 10   5   9  ar  
 11   5  23  1   
 12   6  10  1   
 13   6  24  1   
 14   6  25  1   
 15   7  11  1   
 16   8  12  ar  
 17   8  26  1   
 18   9  12  ar  
 19   9  27  1   
 20  10  13  1   
 21  10  28  1   
 22  10  29  1   
 23  11  30  1   
 24  11  31  1   
 25  11  32  1   
 26  12  14  1   
 27  13  15  1   
 28  13  16  1   
 29  13  33  1   
 30  14  17  2   
 31  14  34  1   
 32  15  18  1   
 33  15  35  1   
 34  15  36  1   
 35  16  19  1   
 36  16  37  1   
 37  16  38  1   
 38  17  20  1   
 39  17  39  1   
 40  18  19  1   
 41  18  40  1   
 42  18  41  1   
 43  19  42  1   
 44  19  43  1   
 45  20  44  1   
 46  20  45  1   
 47  20  46  1   
@<TRIPOS>SUBSTRUCTURE
  1 ****   1 GROUP 4 **** **** 0

# MOE 2024.06 (io_trps.svl 2023.06)
