@<TRIPOS>MOLECULE
NONAME
52 53 1 0 0 
SMALL
USER_CHARGES


@<TRIPOS>ATOM
  1 O       -1.1170    -0.7340    -0.8370 O.2   1 <1>  -0.5700 
  2 C       -0.6370    -1.6960    -0.2960 C.2   1 <1>   0.6590 
  3 O        0.6120    -1.7240     0.1410 O.3   1 <1>  -0.4300 
  4 C       -1.4530    -2.9650    -0.0690 C.3   1 <1>  -0.0190 
  5 C        1.4660    -0.6120    -0.0070 C.3   1 <1>   0.1200 
  6 C       -2.0150    -3.5070    -1.3990 C.3   1 <1>  -0.1600 
  7 C       -2.5940    -2.7050     0.9350 C.3   1 <1>  -0.1600 
  8 C        2.8190    -0.9700     0.6000 C.3   1 <1>  -0.2400 
  9 C       -2.9500    -4.6950    -1.1890 C.3   1 <1>   0.3430 
 10 C       -3.5130    -3.9140     1.0880 C.3   1 <1>   0.3430 
 11 N       -4.0310    -4.2990    -0.2490 N.4   1 <1>  -0.9590 
 12 C       -5.1130    -5.3100    -0.1230 C.3   1 <1>   0.3430 
 13 C       -6.0200    -5.3460    -1.3630 C.3   1 <1>  -0.1600 
 14 C       -6.6170    -3.9940    -1.8550 C.3   1 <1>   0.1800 
 15 C       -6.5420    -2.8980    -0.7850 C.2   1 <1>  -0.0400 
 16 C       -5.8730    -3.5350    -3.1220 C.3   1 <1>  -0.2400 
 17 C       -8.0920    -4.1920    -2.2340 C.3   1 <1>  -0.2400 
 18 O       -7.0300    -3.1440     0.4170 O.3   1 <1>  -0.2800 
 19 C       -6.0200    -1.6490    -0.8230 C.2   1 <1>  -0.1500 
 20 C       -6.8430    -2.0730     1.1610 C.2   1 <1>  -0.0400 
 21 C       -6.2170    -1.1110     0.4530 C.2   1 <1>  -0.1500 
 22 C       -7.3430    -2.0810     2.5890 C.3   1 <1>  -0.0600 
 23 H       -0.7950    -3.7080     0.3490 H     1 <1>   0.0800 
 24 H        1.0240     0.2290     0.5020 H     1 <1>   0.0800 
 25 H        1.5600    -0.3890    -1.0570 H     1 <1>   0.0800 
 26 H       -1.1990    -3.8080    -2.0340 H     1 <1>   0.0800 
 27 H       -2.5490    -2.7280    -1.9160 H     1 <1>   0.0800 
 28 H       -3.1790    -1.8600     0.6150 H     1 <1>   0.0800 
 29 H       -2.1750    -2.4580     1.8950 H     1 <1>   0.0800 
 30 H        2.7100    -1.1980     1.6450 H     1 <1>   0.0800 
 31 H        3.4910    -0.1370     0.5010 H     1 <1>   0.0800 
 32 H        3.2440    -1.8140     0.0880 H     1 <1>   0.0800 
 33 H       -2.3990    -5.5290    -0.7840 H     1 <1>   0.0800 
 34 H       -3.3710    -4.9930    -2.1360 H     1 <1>   0.0800 
 35 H       -4.3350    -3.6560     1.7380 H     1 <1>   0.0800 
 36 H       -2.9720    -4.7370     1.5260 H     1 <1>   0.0800 
 37 H       -4.4960    -3.4520    -0.6150 H     1 <1>   0.4500 
 38 H       -5.7270    -5.0600     0.7280 H     1 <1>   0.0800 
 39 H       -4.6920    -6.2860     0.0530 H     1 <1>   0.0800 
 40 H       -6.8340    -5.9980    -1.0970 H     1 <1>   0.0800 
 41 H       -5.5070    -5.8440    -2.1650 H     1 <1>   0.0800 
 42 H       -6.3120    -2.6300    -3.5050 H     1 <1>   0.0800 
 43 H       -5.9410    -4.2810    -3.8950 H     1 <1>   0.0800 
 44 H       -4.8370    -3.3440    -2.9210 H     1 <1>   0.0800 
 45 H       -8.5110    -3.2700    -2.5990 H     1 <1>   0.0800 
 46 H       -8.6660    -4.4950    -1.3760 H     1 <1>   0.0800 
 47 H       -8.1980    -4.9410    -3.0000 H     1 <1>   0.0800 
 48 H       -5.5510    -1.1230    -1.6380 H     1 <1>   0.1500 
 49 H       -5.9290    -0.1220     0.7650 H     1 <1>   0.1500 
 50 H       -8.4070    -2.2370     2.5990 H     1 <1>   0.0800 
 51 H       -7.1270    -1.1420     3.0650 H     1 <1>   0.0800 
 52 H       -6.8710    -2.8720     3.1430 H     1 <1>   0.0800 
@<TRIPOS>BOND
  1   1   2  2   
  2   2   3  1   
  3   2   4  1   
  4   3   5  1   
  5   4   6  1   
  6   4   7  1   
  7   4  23  1   
  8   5   8  1   
  9   5  24  1   
 10   5  25  1   
 11   6   9  1   
 12   6  26  1   
 13   6  27  1   
 14   7  10  1   
 15   7  28  1   
 16   7  29  1   
 17   8  30  1   
 18   8  31  1   
 19   8  32  1   
 20   9  11  1   
 21   9  33  1   
 22   9  34  1   
 23  10  11  1   
 24  10  35  1   
 25  10  36  1   
 26  11  12  1   
 27  11  37  1   
 28  12  13  1   
 29  12  38  1   
 30  12  39  1   
 31  13  14  1   
 32  13  40  1   
 33  13  41  1   
 34  14  15  1   
 35  14  16  1   
 36  14  17  1   
 37  15  18  1   
 38  15  19  2   
 39  16  42  1   
 40  16  43  1   
 41  16  44  1   
 42  17  45  1   
 43  17  46  1   
 44  17  47  1   
 45  18  20  1   
 46  19  21  1   
 47  19  48  1   
 48  20  21  2   
 49  20  22  1   
 50  21  49  1   
 51  22  50  1   
 52  22  51  1   
 53  22  52  1   
@<TRIPOS>SUBSTRUCTURE
  1 ****  11 GROUP 4 **** **** 0

# MOE 2024.06 (io_trps.svl 2023.06)
