@<TRIPOS>MOLECULE
NONAME
37 37 1 0 0 
SMALL
USER_CHARGES


@<TRIPOS>ATOM
  1 O        0.3870     0.0340     0.0030 O.3   1 <1>  -0.5600 
  2 C        1.5820     0.6850     0.3460 C.3   1 <1>   0.4800 
  3 C       -0.8110     0.7100    -0.2530 C.3   1 <1>   0.2800 
  4 C        2.6650    -0.3040     0.0600 C.1   1 <1>  -0.2000 
  5 C        1.8140     1.9390    -0.5160 C.3   1 <1>  -0.1600 
  6 C        1.6080     0.9780     1.8490 C.3   1 <1>  -0.2400 
  7 C       -0.5830     1.9660    -1.1180 C.3   1 <1>  -0.1600 
  8 C       -1.5280     1.0250     1.0650 C.3   1 <1>  -0.2400 
  9 C       -1.6610    -0.2950    -1.0310 C.3   1 <1>  -0.2400 
 10 C        3.5180    -1.0990    -0.1800 C.1   1 <1>  -0.2000 
 11 C        0.5750     2.8300    -0.6190 C.3   1 <1>  -0.1600 
 12 C        4.5500    -2.1220    -0.4990 C.3   1 <1>   0.4000 
 13 O        4.3290    -2.4980    -1.8020 O.3   1 <1>  -0.6800 
 14 C        4.4160    -3.3530     0.4080 C.3   1 <1>  -0.1600 
 15 C        5.4480    -4.4530     0.1090 C.3   1 <1>  -0.2400 
 16 H        2.0960     1.6260    -1.5070 H     1 <1>   0.0800 
 17 H        2.6390     2.5010    -0.1160 H     1 <1>   0.0800 
 18 H        1.2910     0.1090     2.3970 H     1 <1>   0.0800 
 19 H        0.9920     1.8140     2.1040 H     1 <1>   0.0800 
 20 H        2.6110     1.2210     2.1520 H     1 <1>   0.0800 
 21 H       -1.4860     2.5500    -1.1490 H     1 <1>   0.0800 
 22 H       -0.3700     1.6590    -2.1270 H     1 <1>   0.0800 
 23 H       -1.0910     1.8610     1.5700 H     1 <1>   0.0800 
 24 H       -1.5110     0.1640     1.7100 H     1 <1>   0.0800 
 25 H       -2.5540     1.2800     0.8700 H     1 <1>   0.0800 
 26 H       -1.1560    -0.5900    -1.9330 H     1 <1>   0.0800 
 27 H       -2.6090     0.1370    -1.2960 H     1 <1>   0.0800 
 28 H       -1.8390    -1.1710    -0.4320 H     1 <1>   0.0800 
 29 H        0.7580     3.6340    -1.3110 H     1 <1>   0.0800 
 30 H        0.3400     3.2600     0.3380 H     1 <1>   0.0800 
 31 H        5.5390    -1.7020    -0.4340 H     1 <1>   0.0800 
 32 H        3.3640    -2.4990    -1.9420 H     1 <1>   0.4000 
 33 H        3.4210    -3.7530     0.3190 H     1 <1>   0.0800 
 34 H        4.5420    -3.0340     1.4270 H     1 <1>   0.0800 
 35 H        5.3200    -4.8250    -0.8930 H     1 <1>   0.0800 
 36 H        5.3240    -5.2720     0.7950 H     1 <1>   0.0800 
 37 H        6.4470    -4.0680     0.2070 H     1 <1>   0.0800 
@<TRIPOS>BOND
  1   1   2  1   
  2   1   3  1   
  3   2   4  1   
  4   2   5  1   
  5   2   6  1   
  6   3   7  1   
  7   3   8  1   
  8   3   9  1   
  9   4  10  3   
 10   5  11  1   
 11   5  16  1   
 12   5  17  1   
 13   6  18  1   
 14   6  19  1   
 15   6  20  1   
 16   7  11  1   
 17   7  21  1   
 18   7  22  1   
 19   8  23  1   
 20   8  24  1   
 21   8  25  1   
 22   9  26  1   
 23   9  27  1   
 24   9  28  1   
 25  10  12  1   
 26  11  29  1   
 27  11  30  1   
 28  12  13  1   
 29  12  14  1   
 30  12  31  1   
 31  13  32  1   
 32  14  15  1   
 33  14  33  1   
 34  14  34  1   
 35  15  35  1   
 36  15  36  1   
 37  15  37  1   
@<TRIPOS>SUBSTRUCTURE
  1 ****   4 GROUP 4 **** **** 0

# MOE 2024.06 (io_trps.svl 2023.06)
