@<TRIPOS>MOLECULE
NONAME
42 44 1 0 0 
SMALL
USER_CHARGES


@<TRIPOS>ATOM
  1 O       -4.5990     0.7440    -0.2950 O.3   1 <1>  -0.3630 
  2 C       -3.7130     1.7400    -0.5810 C.ar  1 <1>   0.0830 
  3 C       -4.3590    -0.2530     0.6790 C.3   1 <1>   0.1200 
  4 C       -4.1230     2.7160    -1.4870 C.ar  1 <1>  -0.1440 
  5 C       -2.4460     1.8260    -0.0110 C.ar  1 <1>  -0.1500 
  6 C       -4.6660     0.3160     2.0650 C.3   1 <1>  -0.2400 
  7 C       -3.2690     3.7580    -1.8180 C.ar  1 <1>  -0.1500 
  8 C       -5.5060     2.6480    -2.1040 C.3   1 <1>   0.4860 
  9 C       -1.6020     2.8700    -0.3440 C.ar  1 <1>  -0.1500 
 10 C       -2.0120     3.8340    -1.2470 C.ar  1 <1>  -0.1500 
 11 N       -6.5000     2.6770    -1.0060 N.4   1 <1>  -0.9590 
 12 C       -7.8680     2.3040    -1.4370 C.3   1 <1>   0.4860 
 13 C       -6.4960     3.9470    -0.2290 C.3   1 <1>   0.3430 
 14 C       -8.7990     2.2600    -0.2350 C.ar  1 <1>  -0.1430 
 15 C       -7.2160     3.7330     1.1030 C.3   1 <1>  -0.0170 
 16 C       -8.5040     2.9360     0.9470 C.ar  1 <1>  -0.1430 
 17 C       -9.9770     1.5320    -0.3290 C.ar  1 <1>  -0.1500 
 18 C       -9.3870     2.8740     2.0130 C.ar  1 <1>  -0.1500 
 19 C      -10.8530     1.4750     0.7390 C.ar  1 <1>  -0.1500 
 20 C      -10.5590     2.1470     1.9100 C.ar  1 <1>  -0.1500 
 21 H       -3.3470    -0.6100     0.5930 H     1 <1>   0.0800 
 22 H       -5.0220    -1.0740     0.4680 H     1 <1>   0.0800 
 23 H       -2.0910     1.0970     0.6920 H     1 <1>   0.1500 
 24 H       -4.0260     1.1500     2.2910 H     1 <1>   0.0800 
 25 H       -4.4990    -0.4440     2.8080 H     1 <1>   0.0800 
 26 H       -5.6950     0.6220     2.1250 H     1 <1>   0.0800 
 27 H       -3.5650     4.5190    -2.5210 H     1 <1>   0.1500 
 28 H       -5.5930     1.7270    -2.6570 H     1 <1>   0.0800 
 29 H       -5.6600     3.4760    -2.7760 H     1 <1>   0.0800 
 30 H       -0.6210     2.9320     0.0970 H     1 <1>   0.1500 
 31 H       -1.3470     4.6420    -1.5050 H     1 <1>   0.1500 
 32 H       -6.1770     1.9340    -0.3630 H     1 <1>   0.4500 
 33 H       -7.8530     1.3350    -1.9070 H     1 <1>   0.0800 
 34 H       -8.2420     3.0240    -2.1450 H     1 <1>   0.0800 
 35 H       -6.9990     4.7170    -0.7900 H     1 <1>   0.0800 
 36 H       -5.4840     4.2680    -0.0360 H     1 <1>   0.0800 
 37 H       -7.4320     4.6920     1.5400 H     1 <1>   0.0800 
 38 H       -6.5600     3.2110     1.7760 H     1 <1>   0.0800 
 39 H      -10.2290     1.0020    -1.2320 H     1 <1>   0.1500 
 40 H       -9.1710     3.3900     2.9330 H     1 <1>   0.1500 
 41 H      -11.7670     0.9100     0.6610 H     1 <1>   0.1500 
 42 H      -11.2420     2.1030     2.7420 H     1 <1>   0.1500 
@<TRIPOS>BOND
  1   1   2  1   
  2   1   3  1   
  3   2   4  ar  
  4   2   5  ar  
  5   3   6  1   
  6   3  21  1   
  7   3  22  1   
  8   4   7  ar  
  9   4   8  1   
 10   5   9  ar  
 11   5  23  1   
 12   6  24  1   
 13   6  25  1   
 14   6  26  1   
 15   7  10  ar  
 16   7  27  1   
 17   8  11  1   
 18   8  28  1   
 19   8  29  1   
 20   9  10  ar  
 21   9  30  1   
 22  10  31  1   
 23  11  12  1   
 24  11  13  1   
 25  11  32  1   
 26  12  14  1   
 27  12  33  1   
 28  12  34  1   
 29  13  15  1   
 30  13  35  1   
 31  13  36  1   
 32  14  16  ar  
 33  14  17  ar  
 34  15  16  1   
 35  15  37  1   
 36  15  38  1   
 37  16  18  ar  
 38  17  19  ar  
 39  17  39  1   
 40  18  20  ar  
 41  18  40  1   
 42  19  20  ar  
 43  19  41  1   
 44  20  42  1   
@<TRIPOS>SUBSTRUCTURE
  1 ****  11 GROUP 4 **** **** 0

# MOE 2024.06 (io_trps.svl 2023.06)
