@<TRIPOS>MOLECULE
NONAME
45 46 1 0 0 
SMALL
USER_CHARGES


@<TRIPOS>ATOM
  1 O       -0.1440     0.2080    -0.8770 O.2   1 <1>  -0.5700 
  2 C       -0.1400    -0.7610    -0.1440 C.2   1 <1>   0.6900 
  3 N       -1.2850    -1.3420     0.3070 N.am  1 <1>  -0.5470 
  4 N        1.0310    -1.3180     0.2520 N.am  1 <1>  -0.7300 
  5 C       -2.6490    -1.0310     0.1590 C.ar  1 <1>   0.1170 
  6 C        2.3720    -0.8440    -0.1310 C.3   1 <1>   0.2200 
  7 C       -3.5870    -2.0070     0.5170 C.ar  1 <1>   0.0830 
  8 C       -3.1050     0.1950    -0.3100 C.ar  1 <1>  -0.1500 
  9 C        3.0780    -1.9950    -0.8570 C.3   1 <1>  -0.1600 
 10 C        3.0780    -0.3490     1.1380 C.3   1 <1>  -0.1600 
 11 O       -3.1010    -3.1990     0.9860 O.3   1 <1>  -0.3630 
 12 C       -4.9480    -1.7440     0.3920 C.ar  1 <1>  -0.1500 
 13 C       -4.4590     0.4580    -0.4340 C.ar  1 <1>   0.0830 
 14 C        4.5340    -1.7130    -1.2630 C.3   1 <1>  -0.1600 
 15 C        4.3450     0.4630     0.8240 C.3   1 <1>  -0.1600 
 16 C       -3.9710    -4.2660     1.2980 C.3   1 <1>   0.0400 
 17 C       -5.3840    -0.5190    -0.0820 C.ar  1 <1>  -0.1500 
 18 O       -4.8030     1.6870    -0.9020 O.3   1 <1>  -0.3630 
 19 C        5.4900    -1.7170    -0.0610 C.3   1 <1>  -0.1600 
 20 C        5.6260    -0.3690     0.6630 C.3   1 <1>  -0.1600 
 21 C       -6.1520     2.0420    -1.1020 C.3   1 <1>   0.0400 
 22 H       -1.1520    -2.2480     0.7470 H     1 <1>   0.3700 
 23 H        1.0180    -2.0650     0.9380 H     1 <1>   0.3700 
 24 H        2.2710    -0.0170    -0.8160 H     1 <1>   0.0800 
 25 H       -2.4110     0.9660    -0.5840 H     1 <1>   0.1500 
 26 H        2.5200    -2.2010    -1.7530 H     1 <1>   0.0800 
 27 H        3.0490    -2.8790    -0.2460 H     1 <1>   0.0800 
 28 H        3.3080    -1.1680     1.7960 H     1 <1>   0.0800 
 29 H        2.3980     0.3090     1.6500 H     1 <1>   0.0800 
 30 H       -5.6870    -2.4750     0.6580 H     1 <1>   0.1500 
 31 H        4.6080    -0.7860    -1.8070 H     1 <1>   0.0800 
 32 H        4.8410    -2.4990    -1.9310 H     1 <1>   0.0800 
 33 H        4.5090     1.1670     1.6220 H     1 <1>   0.0800 
 34 H        4.1810     1.0450    -0.0680 H     1 <1>   0.0800 
 35 H       -3.3750    -5.1030     1.6130 H     1 <1>   0.0800 
 36 H       -4.5320    -4.5290     0.4190 H     1 <1>   0.0800 
 37 H       -4.6240    -3.9630     2.0980 H     1 <1>   0.0800 
 38 H       -6.4390    -0.3440    -0.1670 H     1 <1>   0.1500 
 39 H        6.4700    -2.0040    -0.4040 H     1 <1>   0.0800 
 40 H        5.1790    -2.4710     0.6410 H     1 <1>   0.0800 
 41 H        6.0390    -0.5600     1.6390 H     1 <1>   0.0800 
 42 H        6.3460     0.2340     0.1360 H     1 <1>   0.0800 
 43 H       -6.1780     3.0450    -1.4880 H     1 <1>   0.0800 
 44 H       -6.6670     2.0000    -0.1590 H     1 <1>   0.0800 
 45 H       -6.5900     1.3650    -1.8140 H     1 <1>   0.0800 
@<TRIPOS>BOND
  1   1   2  2   
  2   2   3  am  
  3   2   4  am  
  4   3   5  1   
  5   3  22  1   
  6   4   6  1   
  7   4  23  1   
  8   5   7  ar  
  9   5   8  ar  
 10   6   9  1   
 11   6  10  1   
 12   6  24  1   
 13   7  11  1   
 14   7  12  ar  
 15   8  13  ar  
 16   8  25  1   
 17   9  14  1   
 18   9  26  1   
 19   9  27  1   
 20  10  15  1   
 21  10  28  1   
 22  10  29  1   
 23  11  16  1   
 24  12  17  ar  
 25  12  30  1   
 26  13  17  ar  
 27  13  18  1   
 28  14  19  1   
 29  14  31  1   
 30  14  32  1   
 31  15  20  1   
 32  15  33  1   
 33  15  34  1   
 34  16  35  1   
 35  16  36  1   
 36  16  37  1   
 37  17  38  1   
 38  18  21  1   
 39  19  20  1   
 40  19  39  1   
 41  19  40  1   
 42  20  41  1   
 43  20  42  1   
 44  21  43  1   
 45  21  44  1   
 46  21  45  1   
@<TRIPOS>SUBSTRUCTURE
  1 ****   2 GROUP 4 **** **** 0

# MOE 2024.06 (io_trps.svl 2023.06)
