@<TRIPOS>MOLECULE
NONAME
43 44 1 0 0 
SMALL
USER_CHARGES


@<TRIPOS>ATOM
  1 S       -0.3470     0.1230     0.6730 S.o2  1 <1>   1.3330 
  2 O       -0.7190     0.6390     1.9700 O.2   1 <1>  -0.6500 
  3 O        0.8130    -0.7280     0.5410 O.2   1 <1>  -0.6500 
  4 N       -1.6840    -0.7030     0.0390 N.am  1 <1>  -0.8490 
  5 C       -0.1440     1.4800    -0.4610 C.3   1 <1>  -0.1350 
  6 C       -2.9600    -0.0490     0.3820 C.3   1 <1>   0.1960 
  7 C       -1.6950    -2.1030     0.4790 C.3   1 <1>   0.1960 
  8 C       -4.1260    -0.7260    -0.3530 C.3   1 <1>  -0.0190 
  9 C       -2.8230    -2.8760    -0.2150 C.3   1 <1>  -0.1600 
 10 C       -5.4420    -0.0220    -0.0540 C.2   1 <1>   0.5690 
 11 C       -4.1900    -2.2190     0.0160 C.3   1 <1>  -0.1600 
 12 O       -5.5730     0.5990     0.9730 O.2   1 <1>  -0.5700 
 13 N       -6.4500    -0.1240    -0.9590 N.am  1 <1>  -0.7300 
 14 C       -7.7790     0.5180    -0.8070 C.3   1 <1>   0.1400 
 15 C       -8.7610    -0.4590    -0.1610 C.3   1 <1>  -0.0170 
 16 C      -10.1240     0.1960    -0.0090 C.ar  1 <1>  -0.1440 
 17 C      -11.1290    -0.0360    -0.9360 C.ar  1 <1>  -0.1500 
 18 C      -10.3700     1.0390     1.0640 C.ar  1 <1>  -0.1500 
 19 C      -12.3660     0.5690    -0.7920 C.ar  1 <1>  -0.1500 
 20 C      -11.6060     1.6440     1.2090 C.ar  1 <1>  -0.1500 
 21 C      -12.6050     1.4090     0.2810 C.ar  1 <1>  -0.1500 
 22 H        0.7130     2.0610    -0.1830 H     1 <1>   0.0800 
 23 H       -1.0070     2.1150    -0.4470 H     1 <1>   0.0800 
 24 H        0.0010     1.1070    -1.4550 H     1 <1>   0.0800 
 25 H       -2.9280     0.9890     0.1010 H     1 <1>   0.0800 
 26 H       -3.1220    -0.0970     1.4480 H     1 <1>   0.0800 
 27 H       -1.8160    -2.1470     1.5500 H     1 <1>   0.0800 
 28 H       -0.7570    -2.5730     0.2300 H     1 <1>   0.0800 
 29 H       -3.9390    -0.6330    -1.4080 H     1 <1>   0.0800 
 30 H       -2.8390    -3.8850     0.1560 H     1 <1>   0.0800 
 31 H       -2.6100    -2.9180    -1.2690 H     1 <1>   0.0800 
 32 H       -4.9410    -2.7170    -0.5720 H     1 <1>   0.0800 
 33 H       -4.4610    -2.3140     1.0550 H     1 <1>   0.0800 
 34 H       -6.3230    -0.6890    -1.8000 H     1 <1>   0.3700 
 35 H       -8.1440     0.8250    -1.7720 H     1 <1>   0.0800 
 36 H       -7.6880     1.3950    -0.1880 H     1 <1>   0.0800 
 37 H       -8.3940    -0.7440     0.8090 H     1 <1>   0.0800 
 38 H       -8.8480    -1.3430    -0.7650 H     1 <1>   0.0800 
 39 H      -10.9560    -0.6870    -1.7740 H     1 <1>   0.1500 
 40 H       -9.5980     1.2270     1.7910 H     1 <1>   0.1500 
 41 H      -13.1420     0.3850    -1.5140 H     1 <1>   0.1500 
 42 H      -11.7900     2.2970     2.0450 H     1 <1>   0.1500 
 43 H      -13.5660     1.8800     0.3940 H     1 <1>   0.1500 
@<TRIPOS>BOND
  1   1   2  2   
  2   1   3  2   
  3   1   4  am  
  4   1   5  1   
  5   4   6  1   
  6   4   7  1   
  7   5  22  1   
  8   5  23  1   
  9   5  24  1   
 10   6   8  1   
 11   6  25  1   
 12   6  26  1   
 13   7   9  1   
 14   7  27  1   
 15   7  28  1   
 16   8  10  1   
 17   8  11  1   
 18   8  29  1   
 19   9  11  1   
 20   9  30  1   
 21   9  31  1   
 22  10  12  2   
 23  10  13  am  
 24  11  32  1   
 25  11  33  1   
 26  13  14  1   
 27  13  34  1   
 28  14  15  1   
 29  14  35  1   
 30  14  36  1   
 31  15  16  1   
 32  15  37  1   
 33  15  38  1   
 34  16  17  ar  
 35  16  18  ar  
 36  17  19  ar  
 37  17  39  1   
 38  18  20  ar  
 39  18  40  1   
 40  19  21  ar  
 41  19  41  1   
 42  20  21  ar  
 43  20  42  1   
 44  21  43  1   
@<TRIPOS>SUBSTRUCTURE
  1 ****  10 GROUP 4 **** **** 0

# MOE 2024.06 (io_trps.svl 2023.06)
