@<TRIPOS>MOLECULE
NONAME
56 58 1 0 0 
SMALL
USER_CHARGES


@<TRIPOS>ATOM
  1 O       -0.4880    -1.0820     2.2670 O.2   1 <1>  -0.5700 
  2 C       -0.6930    -0.9990     1.0660 C.2   1 <1>   0.5440 
  3 N        0.3050    -0.4800     0.2680 N.am  1 <1>  -0.6600 
  4 C       -1.9320    -1.5030     0.5070 C.ar  1 <1>   0.0860 
  5 C        1.7170    -0.8740     0.5700 C.3   1 <1>   0.2200 
  6 C        0.1160     0.7420    -0.5890 C.3   1 <1>   0.2200 
  7 C       -3.1690    -1.2970     1.1420 C.ar  1 <1>   0.1170 
  8 C       -1.9190    -2.2180    -0.6920 C.ar  1 <1>  -0.1500 
  9 C        2.7190    -0.1540    -0.3460 C.3   1 <1>  -0.1600 
 10 C        1.8710    -2.3890     0.4030 C.3   1 <1>  -0.2400 
 11 C        1.1160     1.8190    -0.1430 C.3   1 <1>  -0.1600 
 12 C       -1.3000     1.3280    -0.5360 C.3   1 <1>  -0.2400 
 13 N       -3.2460    -0.5510     2.3250 N.am  1 <1>  -0.5470 
 14 C       -4.3230    -1.8480     0.5920 C.ar  1 <1>  -0.1500 
 15 C       -3.0750    -2.7360    -1.2410 C.ar  1 <1>  -0.1500 
 16 C        2.5820     1.3720    -0.2710 C.3   1 <1>  -0.1600 
 17 C       -4.0190     0.5240     2.6530 C.2   1 <1>   0.5690 
 18 C       -4.2830    -2.5560    -0.5920 C.ar  1 <1>  -0.1500 
 19 O       -3.9170     1.0230     3.7450 O.2   1 <1>  -0.5700 
 20 C       -5.0110     1.1330     1.6660 C.3   1 <1>   0.1810 
 21 O       -4.3610     1.5100     0.4640 O.3   1 <1>  -0.3630 
 22 C       -5.1490     2.0200    -0.5020 C.ar  1 <1>   0.0820 
 23 C       -5.1960     3.3940    -0.7100 C.ar  1 <1>  -0.1440 
 24 C       -5.8960     1.1580    -1.2910 C.ar  1 <1>  -0.1500 
 25 C       -6.0220     3.8930    -1.7060 C.ar  1 <1>  -0.1500 
 26 C       -4.3580     4.3400     0.1370 C.3   1 <1>  -0.0970 
 27 C       -6.7150     1.6670    -2.2820 C.ar  1 <1>  -0.1500 
 28 C       -6.7800     3.0350    -2.4870 C.ar  1 <1>  -0.1500 
 29 H        1.9340    -0.6080     1.5930 H     1 <1>   0.0800 
 30 H        0.3270     0.4730    -1.6110 H     1 <1>   0.0800 
 31 H       -0.9800    -2.3690    -1.1960 H     1 <1>   0.1500 
 32 H        2.5580    -0.4800    -1.3590 H     1 <1>   0.0800 
 33 H        3.7220    -0.4320    -0.0750 H     1 <1>   0.0800 
 34 H        1.6100    -2.6870    -0.5960 H     1 <1>   0.0800 
 35 H        1.2460    -2.9100     1.1060 H     1 <1>   0.0800 
 36 H        2.8880    -2.6770     0.5950 H     1 <1>   0.0800 
 37 H        0.9080     2.0620     0.8860 H     1 <1>   0.0800 
 38 H        0.9740     2.7150    -0.7190 H     1 <1>   0.0800 
 39 H       -1.5870     1.5470     0.4770 H     1 <1>   0.0800 
 40 H       -2.0120     0.6610    -0.9830 H     1 <1>   0.0800 
 41 H       -1.3390     2.2440    -1.0970 H     1 <1>   0.0800 
 42 H       -2.4340    -0.6610     2.9490 H     1 <1>   0.3700 
 43 H       -5.2610    -1.7280     1.1000 H     1 <1>   0.1500 
 44 H       -3.0380    -3.2840    -2.1680 H     1 <1>   0.1500 
 45 H        3.0190     1.8030    -1.1550 H     1 <1>   0.0800 
 46 H        3.1300     1.7420     0.5780 H     1 <1>   0.0800 
 47 H       -5.1840    -2.9710    -1.0090 H     1 <1>   0.1500 
 48 H       -5.4480     2.0160     2.0950 H     1 <1>   0.0800 
 49 H       -5.7880     0.4310     1.4360 H     1 <1>   0.0800 
 50 H       -5.8280     0.0980    -1.1310 H     1 <1>   0.1500 
 51 H       -6.0790     4.9530    -1.8820 H     1 <1>   0.1500 
 52 H       -4.7270     4.3520     1.1460 H     1 <1>   0.0800 
 53 H       -4.3890     5.3400    -0.2550 H     1 <1>   0.0800 
 54 H       -3.3340     4.0100     0.1480 H     1 <1>   0.0800 
 55 H       -7.2980     1.0020    -2.8950 H     1 <1>   0.1500 
 56 H       -7.4180     3.4330    -3.2560 H     1 <1>   0.1500 
@<TRIPOS>BOND
  1   1   2  2   
  2   2   3  am  
  3   2   4  1   
  4   3   5  1   
  5   3   6  1   
  6   4   7  ar  
  7   4   8  ar  
  8   5   9  1   
  9   5  10  1   
 10   5  29  1   
 11   6  11  1   
 12   6  12  1   
 13   6  30  1   
 14   7  13  1   
 15   7  14  ar  
 16   8  15  ar  
 17   8  31  1   
 18   9  16  1   
 19   9  32  1   
 20   9  33  1   
 21  10  34  1   
 22  10  35  1   
 23  10  36  1   
 24  11  16  1   
 25  11  37  1   
 26  11  38  1   
 27  12  39  1   
 28  12  40  1   
 29  12  41  1   
 30  13  17  am  
 31  13  42  1   
 32  14  18  ar  
 33  14  43  1   
 34  15  18  ar  
 35  15  44  1   
 36  16  45  1   
 37  16  46  1   
 38  17  19  2   
 39  17  20  1   
 40  18  47  1   
 41  20  21  1   
 42  20  48  1   
 43  20  49  1   
 44  21  22  1   
 45  22  23  ar  
 46  22  24  ar  
 47  23  25  ar  
 48  23  26  1   
 49  24  27  ar  
 50  24  50  1   
 51  25  28  ar  
 52  25  51  1   
 53  26  52  1   
 54  26  53  1   
 55  26  54  1   
 56  27  28  ar  
 57  27  55  1   
 58  28  56  1   
@<TRIPOS>SUBSTRUCTURE
  1 ****  12 GROUP 4 **** **** 0

# MOE 2024.06 (io_trps.svl 2023.06)
