@<TRIPOS>MOLECULE
NONAME
52 55 1 0 0 
SMALL
USER_CHARGES


@<TRIPOS>ATOM
  1 N       -0.1560    -0.1890     0.4970 N.4   1 <1>  -0.9590 
  2 C        1.1130    -0.9560     0.6860 C.3   1 <1>   0.4230 
  3 C       -1.2350    -1.0360    -0.1060 C.3   1 <1>   0.3430 
  4 C       -0.0310     1.1130    -0.2400 C.3   1 <1>   0.3430 
  5 C        2.0460    -0.2200     1.6500 C.3   1 <1>  -0.1600 
  6 C        1.8340    -1.2430    -0.6370 C.3   1 <1>  -0.1600 
  7 C       -2.5770    -0.3080    -0.0130 C.3   1 <1>  -0.1600 
  8 C       -1.3470     1.8870    -0.1480 C.3   1 <1>  -0.1600 
  9 C        3.3250    -1.0270     1.8810 C.3   1 <1>   0.3430 
 10 C        3.1160    -2.0390    -0.3870 C.3   1 <1>   0.3430 
 11 C       -2.5260     1.0680    -0.6860 C.3   1 <1>  -0.1600 
 12 N        3.9940    -1.3110     0.5780 N.4   1 <1>  -0.9590 
 13 C        5.2740    -2.0520     0.8230 C.3   1 <1>   0.3430 
 14 C        6.2010    -1.9910    -0.4060 C.3   1 <1>  -0.0800 
 15 C        7.6680    -2.6640    -0.0430 C.3   1 <1>   0.0580 
 16 C        6.5230    -0.4020    -0.9550 C.3   1 <1>  -0.1600 
 17 C        9.2280    -2.2650     0.0530 C.2   1 <1>  -0.2880 
 18 C        7.7900    -1.4320    -0.5360 C.3   1 <1>  -0.1600 
 19 C        8.1660    -0.2120    -0.9180 C.3   1 <1>   0.0580 
 20 C        9.4880    -0.9810    -0.4050 C.2   1 <1>  -0.2880 
 21 H       -0.5120     0.0610     1.4310 H     1 <1>   0.4500 
 22 H        0.8630    -1.9040     1.1380 H     1 <1>   0.0800 
 23 H       -1.3080    -1.9770     0.4160 H     1 <1>   0.0800 
 24 H       -1.0110    -1.2370    -1.1420 H     1 <1>   0.0800 
 25 H        0.1990     0.9280    -1.2770 H     1 <1>   0.0800 
 26 H        0.7570     1.7130     0.1840 H     1 <1>   0.0800 
 27 H        1.5560    -0.0870     2.5980 H     1 <1>   0.0800 
 28 H        2.3160     0.7490     1.2710 H     1 <1>   0.0800 
 29 H        2.0930    -0.3330    -1.1480 H     1 <1>   0.0800 
 30 H        1.2030    -1.8250    -1.2850 H     1 <1>   0.0800 
 31 H       -2.8600    -0.2020     1.0210 H     1 <1>   0.0800 
 32 H       -3.3350    -0.9060    -0.4900 H     1 <1>   0.0800 
 33 H       -1.2610     2.7970    -0.7170 H     1 <1>   0.0800 
 34 H       -1.5300     2.1680     0.8750 H     1 <1>   0.0800 
 35 H        3.0860    -1.9540     2.3780 H     1 <1>   0.0800 
 36 H        3.9910    -0.4690     2.5220 H     1 <1>   0.0800 
 37 H        3.6350    -2.1820    -1.3230 H     1 <1>   0.0800 
 38 H        2.8700    -3.0130     0.0080 H     1 <1>   0.0800 
 39 H       -3.4490     1.5960    -0.5100 H     1 <1>   0.0800 
 40 H       -2.4220     0.9440    -1.7520 H     1 <1>   0.0800 
 41 H        4.2760    -0.4150     0.1530 H     1 <1>   0.4500 
 42 H        5.0720    -3.0810     1.0760 H     1 <1>   0.0800 
 43 H        5.7950    -1.6040     1.6540 H     1 <1>   0.0800 
 44 H        5.7480    -2.5670    -1.2010 H     1 <1>   0.0800 
 45 H        7.7010    -3.5250    -0.6980 H     1 <1>   0.0800 
 46 H        6.0690     0.3490    -0.3260 H     1 <1>   0.0800 
 47 H        6.1490    -0.2580    -1.9600 H     1 <1>   0.0800 
 48 H        9.9250    -2.9890     0.4450 H     1 <1>   0.1500 
 49 H        7.9600    -1.8480    -1.6160 H     1 <1>   0.0800 
 50 H        7.7090    -1.0070     0.6040 H     1 <1>   0.0800 
 51 H        8.4060    -0.0070    -1.9530 H     1 <1>   0.0800 
 52 H       10.4340    -0.4650    -0.4550 H     1 <1>   0.1500 
@<TRIPOS>BOND
  1   1   2  1   
  2   1   3  1   
  3   1   4  1   
  4   1  21  1   
  5   2   5  1   
  6   2   6  1   
  7   2  22  1   
  8   3   7  1   
  9   3  23  1   
 10   3  24  1   
 11   4   8  1   
 12   4  25  1   
 13   4  26  1   
 14   5   9  1   
 15   5  27  1   
 16   5  28  1   
 17   6  10  1   
 18   6  29  1   
 19   6  30  1   
 20   7  11  1   
 21   7  31  1   
 22   7  32  1   
 23   8  11  1   
 24   8  33  1   
 25   8  34  1   
 26   9  12  1   
 27   9  35  1   
 28   9  36  1   
 29  10  12  1   
 30  10  37  1   
 31  10  38  1   
 32  11  39  1   
 33  11  40  1   
 34  12  13  1   
 35  12  41  1   
 36  13  14  1   
 37  13  42  1   
 38  13  43  1   
 39  14  15  1   
 40  14  16  1   
 41  14  44  1   
 42  15  17  1   
 43  15  18  1   
 44  15  45  1   
 45  16  19  1   
 46  16  46  1   
 47  16  47  1   
 48  17  20  2   
 49  17  48  1   
 50  18  19  1   
 51  18  49  1   
 52  18  50  1   
 53  19  20  1   
 54  19  51  1   
 55  20  52  1   
@<TRIPOS>SUBSTRUCTURE
  1 ****  12 GROUP 4 **** **** 0

# MOE 2024.06 (io_trps.svl 2023.06)
