@<TRIPOS>MOLECULE
NONAME
13 13 1 0 0 
SMALL
USER_CHARGES


@<TRIPOS>ATOM
  1 O       -0.0210    -0.4310     0.3340 O.2   1 <1>  -0.5700 
  2 C        0.0420    -1.6290     0.1920 C.2   1 <1>   0.5690 
  3 N        1.2420    -2.2290     0.1200 N.am  1 <1>  -0.5060 
  4 C       -1.2550    -2.4000     0.1030 C.3   1 <1>  -0.1790 
  5 C        1.6070    -3.5530    -0.0370 C.2   1 <1>   0.8140 
  6 N        0.8120    -4.5530    -0.1540 N.2   1 <1>  -0.6190 
  7 N        2.8490    -3.8770    -0.0780 N.2   1 <1>  -0.6190 
  8 N        1.5880    -5.5780    -0.2760 N.2   1 <1>  -0.2500 
  9 N        2.8230    -5.1680    -0.2300 N.2   1 <1>  -0.2500 
 10 H        2.0620    -1.6460     0.1870 H     1 <1>   0.3700 
 11 H       -1.3020    -3.1200     0.9000 H     1 <1>   0.0800 
 12 H       -1.3050    -2.9140    -0.8380 H     1 <1>   0.0800 
 13 H       -2.0900    -1.7310     0.1840 H     1 <1>   0.0800 
@<TRIPOS>BOND
  1   1   2  2   
  2   2   3  am  
  3   2   4  1   
  4   3   5  1   
  5   3  10  1   
  6   4  11  1   
  7   4  12  1   
  8   4  13  1   
  9   5   6  1   
 10   5   7  2   
 11   6   8  1   
 12   7   9  1   
 13   8   9  2   
@<TRIPOS>SUBSTRUCTURE
  1 ****   5 GROUP 4 **** **** 0

# MOE 2024.06 (io_trps.svl 2023.06)
