@<TRIPOS>MOLECULE
NONAME
43 45 1 0 0 
SMALL
USER_CHARGES


@<TRIPOS>ATOM
  1 O       -0.4980     0.2820     0.3750 O.2   1 <1>  -0.5700 
  2 C       -1.0050     1.3890     0.4020 C.2   1 <1>   0.5440 
  3 N       -0.1930     2.4970     0.5520 N.am  1 <1>  -0.6600 
  4 C       -2.4430     1.5000     0.2670 C.ar  1 <1>   0.0860 
  5 C       -0.6060     3.8830     0.1900 C.3   1 <1>   0.1400 
  6 C        1.2410     2.3670     0.9400 C.3   1 <1>   0.1400 
  7 C       -3.1170     0.8690    -0.7770 C.ar  1 <1>  -0.1500 
  8 C       -3.2150     2.2250     1.1760 C.ar  1 <1>  -0.1500 
  9 C        0.2800     4.4100    -0.9430 C.3   1 <1>  -0.1600 
 10 C        2.1350     2.8780    -0.1940 C.3   1 <1>  -0.1600 
 11 C       -4.4870     0.9740    -0.9210 C.ar  1 <1>  -0.1500 
 12 C       -4.5840     2.3330     1.0350 C.ar  1 <1>  -0.1500 
 13 C        1.7720     4.3140    -0.5950 C.3   1 <1>  -0.1600 
 14 C       -5.2460     1.7140    -0.0220 C.ar  1 <1>   0.1170 
 15 N       -6.6300     1.7870    -0.2010 N.am  1 <1>  -0.5470 
 16 C       -7.5440     2.7410     0.1860 C.2   1 <1>   0.7150 
 17 O       -7.1540     3.7820     0.6810 O.2   1 <1>  -0.5700 
 18 C       -8.9500     2.4750    -0.0280 C.2   1 <1>   0.0550 
 19 O       -9.8630     3.4300     0.1290 O.3   1 <1>  -0.2800 
 20 C       -9.5960     1.3310    -0.3980 C.2   1 <1>  -0.1500 
 21 C      -11.0510     2.9390    -0.1270 C.2   1 <1>  -0.0400 
 22 C      -10.9560     1.6350    -0.4620 C.2   1 <1>  -0.1500 
 23 C      -12.2540     3.8490    -0.0120 C.3   1 <1>  -0.0600 
 24 H       -0.5070     4.5140     1.0570 H     1 <1>   0.0800 
 25 H       -1.6330     3.9090    -0.1300 H     1 <1>   0.0800 
 26 H        1.4860     1.3420     1.1610 H     1 <1>   0.0800 
 27 H        1.4130     2.9460     1.8310 H     1 <1>   0.0800 
 28 H       -2.5430     0.2880    -1.4800 H     1 <1>   0.1500 
 29 H       -2.7250     2.7060     2.0050 H     1 <1>   0.1500 
 30 H        0.0230     5.4340    -1.1490 H     1 <1>   0.0800 
 31 H        0.0800     3.8380    -1.8320 H     1 <1>   0.0800 
 32 H        2.0230     2.2220    -1.0400 H     1 <1>   0.0800 
 33 H        3.1630     2.8360     0.1190 H     1 <1>   0.0800 
 34 H       -4.9690     0.4770    -1.7440 H     1 <1>   0.1500 
 35 H       -5.1430     2.9000     1.7580 H     1 <1>   0.1500 
 36 H        1.9930     4.9800     0.2220 H     1 <1>   0.0800 
 37 H        2.3650     4.6160    -1.4410 H     1 <1>   0.0800 
 38 H       -7.0320     1.0490    -0.7720 H     1 <1>   0.3700 
 39 H       -9.1820     0.3610    -0.6030 H     1 <1>   0.1500 
 40 H      -11.7440     0.9530    -0.7260 H     1 <1>   0.1500 
 41 H      -12.3250     4.2290     0.9910 H     1 <1>   0.0800 
 42 H      -13.1540     3.3110    -0.2490 H     1 <1>   0.0800 
 43 H      -12.1490     4.6750    -0.6910 H     1 <1>   0.0800 
@<TRIPOS>BOND
  1   1   2  2   
  2   2   3  am  
  3   2   4  1   
  4   3   5  1   
  5   3   6  1   
  6   4   7  ar  
  7   4   8  ar  
  8   5   9  1   
  9   5  24  1   
 10   5  25  1   
 11   6  10  1   
 12   6  26  1   
 13   6  27  1   
 14   7  11  ar  
 15   7  28  1   
 16   8  12  ar  
 17   8  29  1   
 18   9  13  1   
 19   9  30  1   
 20   9  31  1   
 21  10  13  1   
 22  10  32  1   
 23  10  33  1   
 24  11  14  ar  
 25  11  34  1   
 26  12  14  ar  
 27  12  35  1   
 28  13  36  1   
 29  13  37  1   
 30  14  15  1   
 31  15  16  am  
 32  15  38  1   
 33  16  17  2   
 34  16  18  1   
 35  18  19  1   
 36  18  20  2   
 37  19  21  1   
 38  20  22  1   
 39  20  39  1   
 40  21  22  2   
 41  21  23  1   
 42  22  40  1   
 43  23  41  1   
 44  23  42  1   
 45  23  43  1   
@<TRIPOS>SUBSTRUCTURE
  1 ****  12 GROUP 4 **** **** 0

# MOE 2024.06 (io_trps.svl 2023.06)
