@<TRIPOS>MOLECULE
Structure1679
37 37 1 0 0 
SMALL
USER_CHARGES


@<TRIPOS>ATOM
  1 CL      -0.3010     2.1010     2.5600 Cl    1 <1>  -0.1770 
  2 C        1.2520     1.7930     1.8260 C.ar  1 <1>   0.1770 
  3 C        2.3990     1.9340     2.5840 C.ar  1 <1>  -0.1500 
  4 C        1.3110     1.4150     0.4990 C.ar  1 <1>  -0.1500 
  5 C        3.6300     1.6930     1.9980 C.ar  1 <1>  -0.1500 
  6 C        2.5460     1.1750    -0.0800 C.ar  1 <1>  -0.1500 
  7 C        3.7130     1.3140     0.6640 C.ar  1 <1>  -0.1430 
  8 C        5.0850     1.0660     0.0310 C.3   1 <1>   0.3640 
  9 N        5.1940     1.7550    -1.2620 N.am  1 <1>  -0.7300 
 10 C        5.2980    -0.4200    -0.1820 C.3   1 <1>  -0.2660 
 11 C        5.1080     3.0840    -1.4680 C.2   1 <1>   0.7800 
 12 C        6.6880    -0.6330    -0.6830 C.2   1 <1>   0.9060 
 13 O        5.3180     3.5660    -2.5620 O.2   1 <1>  -0.5700 
 14 O        4.7740     3.8450    -0.4240 O.3   1 <1>  -0.4300 
 15 O        7.5610    -0.9490     0.1260 O.co2 1 <1>  -0.9000 
 16 O        6.9060    -0.4360    -1.8820 O.co2 1 <1>  -0.9000 
 17 C        4.5320     5.2310    -0.4100 C.3   1 <1>   0.2800 
 18 C        4.1440     5.5470     1.0350 C.3   1 <1>  -0.2400 
 19 C        3.3580     5.5700    -1.3350 C.3   1 <1>  -0.2400 
 20 C        5.8090     5.9950    -0.7740 C.3   1 <1>  -0.2400 
 21 H        2.3270     2.2290     3.6140 H     1 <1>   0.1500 
 22 H        0.4080     1.3110    -0.0720 H     1 <1>   0.1500 
 23 H        4.5290     1.8030     2.5800 H     1 <1>   0.1500 
 24 H        2.6080     0.8850    -1.1150 H     1 <1>   0.1500 
 25 H        5.8600     1.4400     0.6810 H     1 <1>   0.0800 
 26 H        5.7550     1.2120    -1.9400 H     1 <1>   0.3700 
 27 H        4.5980    -0.8140    -0.8920 H     1 <1>   0.0800 
 28 H        5.1880    -0.9440     0.7470 H     1 <1>   0.0800 
 29 H        3.9300     6.5940     1.1460 H     1 <1>   0.0800 
 30 H        3.2680     4.9870     1.3130 H     1 <1>   0.0800 
 31 H        4.9480     5.2890     1.7000 H     1 <1>   0.0800 
 32 H        2.5070     4.9580    -1.0940 H     1 <1>   0.0800 
 33 H        3.6220     5.4180    -2.3650 H     1 <1>   0.0800 
 34 H        3.0820     6.6020    -1.2170 H     1 <1>   0.0800 
 35 H        6.6250     5.6730    -0.1530 H     1 <1>   0.0800 
 36 H        5.6610     7.0490    -0.6290 H     1 <1>   0.0800 
 37 H        6.0700     5.8410    -1.8050 H     1 <1>   0.0800 
@<TRIPOS>BOND
  1   1   2  1   
  2   2   3  ar  
  3   2   4  ar  
  4   3   5  ar  
  5   3  21  1   
  6   4   6  ar  
  7   4  22  1   
  8   5   7  ar  
  9   5  23  1   
 10   6   7  ar  
 11   6  24  1   
 12   7   8  1   
 13   8   9  1   
 14   8  10  1   
 15   8  25  1   
 16   9  11  am  
 17   9  26  1   
 18  10  12  1   
 19  10  27  1   
 20  10  28  1   
 21  11  13  2   
 22  11  14  1   
 23  12  15  ar  
 24  12  16  ar  
 25  14  17  1   
 26  17  18  1   
 27  17  19  1   
 28  17  20  1   
 29  18  29  1   
 30  18  30  1   
 31  18  31  1   
 32  19  32  1   
 33  19  33  1   
 34  19  34  1   
 35  20  35  1   
 36  20  36  1   
 37  20  37  1   
@<TRIPOS>SUBSTRUCTURE
  1 ****   7 GROUP 4 **** **** 0

# MOE 2024.06 (io_trps.svl 2023.06)
