@<TRIPOS>MOLECULE
NONAME
53 56 1 0 0 
SMALL
USER_CHARGES


@<TRIPOS>ATOM
  1 O       -1.0940     1.2280    -2.6460 O.2   1 <1>  -0.5700 
  2 C       -0.9100     1.3370    -1.4570 C.2   1 <1>   0.5690 
  3 N       -1.6800     0.6870    -0.5460 N.am  1 <1>  -0.7300 
  4 C        0.2210     2.2370    -0.9750 C.3   1 <1>   0.1810 
  5 C       -2.8720    -0.1440    -0.8410 C.3   1 <1>   0.1400 
  6 O        0.2160     2.3700     0.4420 O.3   1 <1>  -0.3620 
  7 C       -4.1470     0.4090    -0.1670 C.3   1 <1>   0.0000 
  8 C        1.1350     3.1380     1.0770 C.ar  1 <1>   0.0830 
  9 C       -5.3370    -0.5130    -0.5190 C.3   1 <1>  -0.1600 
 10 C       -4.4710     1.8340    -0.6730 C.3   1 <1>  -0.1600 
 11 C       -4.0010     0.4500     1.3730 C.3   1 <1>  -0.1600 
 12 C        1.0380     3.2130     2.4580 C.ar  1 <1>  -0.1500 
 13 C        2.1470     3.8370     0.4230 C.ar  1 <1>  -0.1500 
 14 C       -6.6450    -0.0080     0.1230 C.3   1 <1>   0.0000 
 15 C       -5.7670     2.3690    -0.0300 C.3   1 <1>   0.0000 
 16 C       -5.2950     0.9690     2.0250 C.3   1 <1>  -0.0800 
 17 C        1.9360     3.9750     3.1840 C.ar  1 <1>  -0.1500 
 18 C        3.0440     4.5990     1.1520 C.ar  1 <1>  -0.1500 
 19 C       -6.9280     1.4190    -0.3880 C.3   1 <1>  -0.1600 
 20 C       -6.4610     0.0370     1.6540 C.3   1 <1>  -0.1600 
 21 C       -7.8070    -0.9400    -0.2420 C.3   1 <1>  -0.2400 
 22 C       -5.5920     2.3860     1.5020 C.3   1 <1>  -0.1600 
 23 C       -6.0650     3.7830    -0.5430 C.3   1 <1>  -0.2400 
 24 C        2.9400     4.6680     2.5310 C.ar  1 <1>  -0.1500 
 25 H       -1.4870     0.8630     0.4440 H     1 <1>   0.3700 
 26 H        0.1020     3.2130    -1.4080 H     1 <1>   0.0800 
 27 H        1.1610     1.8120    -1.2740 H     1 <1>   0.0800 
 28 H       -2.6860    -1.1460    -0.4960 H     1 <1>   0.0800 
 29 H       -3.0220    -0.1860    -1.9070 H     1 <1>   0.0800 
 30 H       -5.1330    -1.5130    -0.1770 H     1 <1>   0.0800 
 31 H       -5.4570    -0.5540    -1.5880 H     1 <1>   0.0800 
 32 H       -4.5740     1.8210    -1.7440 H     1 <1>   0.0800 
 33 H       -3.6590     2.4990    -0.4370 H     1 <1>   0.0800 
 34 H       -3.7790    -0.5340     1.7470 H     1 <1>   0.0800 
 35 H       -3.1890     1.0970     1.6530 H     1 <1>   0.0800 
 36 H        0.2560     2.6730     2.9600 H     1 <1>   0.1500 
 37 H        2.2540     3.8050    -0.6450 H     1 <1>   0.1500 
 38 H       -5.1780     0.9950     3.0950 H     1 <1>   0.0800 
 39 H        1.8550     4.0280     4.2560 H     1 <1>   0.1500 
 40 H        3.8260     5.1390     0.6470 H     1 <1>   0.1500 
 41 H       -7.0640     1.4010    -1.4550 H     1 <1>   0.0800 
 42 H       -7.8410     1.7840     0.0500 H     1 <1>   0.0800 
 43 H       -6.2650    -0.9520     2.0290 H     1 <1>   0.0800 
 44 H       -7.3650     0.3890     2.1200 H     1 <1>   0.0800 
 45 H       -7.9400    -0.9760    -1.3080 H     1 <1>   0.0800 
 46 H       -8.7220    -0.5910     0.2030 H     1 <1>   0.0800 
 47 H       -7.6150    -1.9370     0.1120 H     1 <1>   0.0800 
 48 H       -6.4870     2.7600     1.9680 H     1 <1>   0.0800 
 49 H       -4.7850     3.0450     1.7710 H     1 <1>   0.0800 
 50 H       -6.1860     3.7770    -1.6120 H     1 <1>   0.0800 
 51 H       -5.2570     4.4500    -0.2960 H     1 <1>   0.0800 
 52 H       -6.9680     4.1620    -0.0990 H     1 <1>   0.0800 
 53 H        3.6400     5.2600     3.0940 H     1 <1>   0.1500 
@<TRIPOS>BOND
  1   1   2  2   
  2   2   3  am  
  3   2   4  1   
  4   3   5  1   
  5   3  25  1   
  6   4   6  1   
  7   4  26  1   
  8   4  27  1   
  9   5   7  1   
 10   5  28  1   
 11   5  29  1   
 12   6   8  1   
 13   7   9  1   
 14   7  10  1   
 15   7  11  1   
 16   8  12  ar  
 17   8  13  ar  
 18   9  14  1   
 19   9  30  1   
 20   9  31  1   
 21  10  15  1   
 22  10  32  1   
 23  10  33  1   
 24  11  16  1   
 25  11  34  1   
 26  11  35  1   
 27  12  17  ar  
 28  12  36  1   
 29  13  18  ar  
 30  13  37  1   
 31  14  19  1   
 32  14  20  1   
 33  14  21  1   
 34  15  19  1   
 35  15  22  1   
 36  15  23  1   
 37  16  20  1   
 38  16  22  1   
 39  16  38  1   
 40  17  24  ar  
 41  17  39  1   
 42  18  24  ar  
 43  18  40  1   
 44  19  41  1   
 45  19  42  1   
 46  20  43  1   
 47  20  44  1   
 48  21  45  1   
 49  21  46  1   
 50  21  47  1   
 51  22  48  1   
 52  22  49  1   
 53  23  50  1   
 54  23  51  1   
 55  23  52  1   
 56  24  53  1   
@<TRIPOS>SUBSTRUCTURE
  1 ****   3 GROUP 4 **** **** 0

# MOE 2024.06 (io_trps.svl 2023.06)
