@<TRIPOS>MOLECULE
NONAME
31 31 1 0 0 
SMALL
USER_CHARGES


@<TRIPOS>ATOM
  1 BR      -0.5250     0.9540    -1.5210 Br    1 <1>  -0.1110 
  2 C       -1.9550     1.4680    -0.3430 C.ar  1 <1>   0.1110 
  3 C       -3.0200     0.6030    -0.1770 C.ar  1 <1>  -0.1500 
  4 C       -1.8820     2.6860     0.3040 C.ar  1 <1>  -0.1500 
  5 C       -4.0560     0.9730     0.6680 C.ar  1 <1>  -0.1440 
  6 C       -2.9170     3.0470     1.1490 C.ar  1 <1>  -0.1500 
  7 C       -3.9960     2.1950     1.3300 C.ar  1 <1>  -0.1500 
  8 C       -5.2440     0.0580     0.8610 C.3   1 <1>   0.4870 
  9 N       -6.2710     0.4900    -0.1060 N.4   1 <1>  -0.9060 
 10 C       -7.5270    -0.2660    -0.2170 C.3   1 <1>   0.5030 
 11 C       -8.5340     0.6430    -0.9720 C.3   1 <1>   0.1200 
 12 C       -7.2560    -1.5540    -0.9930 C.3   1 <1>  -0.2400 
 13 C       -8.0690    -0.5860     1.1810 C.3   1 <1>  -0.2400 
 14 O       -8.4010     1.9700    -0.5380 O.3   1 <1>  -0.6800 
 15 H       -3.0150    -0.3340    -0.7060 H     1 <1>   0.1500 
 16 H       -1.0360     3.3330     0.1500 H     1 <1>   0.1500 
 17 H       -2.8790     3.9920     1.6660 H     1 <1>   0.1500 
 18 H       -4.7850     2.5020     1.9970 H     1 <1>   0.1500 
 19 H       -5.6140     0.1390     1.8700 H     1 <1>   0.0800 
 20 H       -4.9550    -0.9640     0.6730 H     1 <1>   0.0800 
 21 H       -5.8400     0.5820    -1.0280 H     1 <1>   0.4500 
 22 H       -6.5830     1.4490     0.1220 H     1 <1>   0.4500 
 23 H       -9.5470     0.3210    -0.7970 H     1 <1>   0.0800 
 24 H       -8.3470     0.6220    -2.0320 H     1 <1>   0.0800 
 25 H       -8.1740    -2.1010    -1.1220 H     1 <1>   0.0800 
 26 H       -6.8600    -1.3410    -1.9710 H     1 <1>   0.0800 
 27 H       -6.5690    -2.1910    -0.4650 H     1 <1>   0.0800 
 28 H       -7.4340    -1.2710     1.7130 H     1 <1>   0.0800 
 29 H       -8.1930     0.3140     1.7590 H     1 <1>   0.0800 
 30 H       -9.0350    -1.0530     1.0970 H     1 <1>   0.0800 
 31 H       -9.1020     2.5400    -0.9280 H     1 <1>   0.4000 
@<TRIPOS>BOND
  1   1   2  1   
  2   2   3  ar  
  3   2   4  ar  
  4   3   5  ar  
  5   3  15  1   
  6   4   6  ar  
  7   4  16  1   
  8   5   7  ar  
  9   5   8  1   
 10   6   7  ar  
 11   6  17  1   
 12   7  18  1   
 13   8   9  1   
 14   8  19  1   
 15   8  20  1   
 16   9  10  1   
 17   9  21  1   
 18   9  22  1   
 19  10  11  1   
 20  10  12  1   
 21  10  13  1   
 22  11  14  1   
 23  11  23  1   
 24  11  24  1   
 25  12  25  1   
 26  12  26  1   
 27  12  27  1   
 28  13  28  1   
 29  13  29  1   
 30  13  30  1   
 31  14  31  1   
@<TRIPOS>SUBSTRUCTURE
  1 ****   5 GROUP 4 **** **** 0

# MOE 2024.06 (io_trps.svl 2023.06)
