@<TRIPOS>MOLECULE
NONAME
36 37 1 0 0 
SMALL
USER_CHARGES


@<TRIPOS>ATOM
  1 S        0.1090     0.0960    -0.6970 S.o2  1 <1>   1.4470 
  2 O        0.2630     0.0200    -2.1320 O.2   1 <1>  -0.6500 
  3 O        0.3010     1.3530    -0.0120 O.2   1 <1>  -0.6500 
  4 N        1.2570    -0.9830    -0.1280 N.am  1 <1>  -0.9140 
  5 C       -1.4570    -0.6620    -0.1860 C.ar  1 <1>  -0.0090 
  6 C        2.5850    -0.4110    -0.0400 C.3   1 <1>   0.2760 
  7 C       -2.4710    -0.9160    -1.1030 C.ar  1 <1>  -0.1500 
  8 C       -1.6820    -1.0040     1.1430 C.ar  1 <1>  -0.1500 
  9 C        3.6170    -1.4420    -0.5460 C.3   1 <1>  -0.0800 
 10 C        2.8560    -0.0280     1.4210 C.3   1 <1>  -0.1600 
 11 C       -3.6670    -1.4930    -0.7110 C.ar  1 <1>  -0.1500 
 12 C       -2.8740    -1.5820     1.5440 C.ar  1 <1>  -0.1500 
 13 C        5.0480    -0.9050    -0.3580 C.3   1 <1>  -0.1600 
 14 C        3.4010    -1.8090    -2.0260 C.3   1 <1>  -0.2400 
 15 C        4.2850     0.5000     1.6060 C.3   1 <1>  -0.1600 
 16 C       -3.8690    -1.8270     0.6160 C.ar  1 <1>  -0.1500 
 17 C        5.3180    -0.5150     1.1020 C.3   1 <1>  -0.1600 
 18 H        1.3150    -1.6550    -0.8870 H     1 <1>   0.4200 
 19 H        2.6610     0.4710    -0.6580 H     1 <1>   0.0800 
 20 H       -2.3240    -0.6580    -2.1390 H     1 <1>   0.1500 
 21 H       -0.9110    -0.8140     1.8710 H     1 <1>   0.1500 
 22 H        3.5230    -2.3360     0.0490 H     1 <1>   0.0800 
 23 H        2.7150    -0.8920     2.0470 H     1 <1>   0.0800 
 24 H        2.1610     0.7310     1.7320 H     1 <1>   0.0800 
 25 H       -4.4390    -1.6810    -1.4370 H     1 <1>   0.1500 
 26 H       -3.0270    -1.8390     2.5790 H     1 <1>   0.1500 
 27 H        5.1950    -0.0420    -0.9860 H     1 <1>   0.0800 
 28 H        5.7600    -1.6540    -0.6570 H     1 <1>   0.0800 
 29 H        3.4250    -0.9260    -2.6410 H     1 <1>   0.0800 
 30 H        2.4590    -2.3030    -2.1760 H     1 <1>   0.0800 
 31 H        4.1760    -2.4770    -2.3600 H     1 <1>   0.0800 
 32 H        4.4600     0.7070     2.6480 H     1 <1>   0.0800 
 33 H        4.3960     1.4240     1.0640 H     1 <1>   0.0800 
 34 H       -4.7970    -2.2760     0.9250 H     1 <1>   0.1500 
 35 H        6.3050    -0.0950     1.1860 H     1 <1>   0.0800 
 36 H        5.2820    -1.3960     1.7190 H     1 <1>   0.0800 
@<TRIPOS>BOND
  1   1   2  2   
  2   1   3  2   
  3   1   4  am  
  4   1   5  1   
  5   4   6  1   
  6   4  18  1   
  7   5   7  ar  
  8   5   8  ar  
  9   6   9  1   
 10   6  10  1   
 11   6  19  1   
 12   7  11  ar  
 13   7  20  1   
 14   8  12  ar  
 15   8  21  1   
 16   9  13  1   
 17   9  14  1   
 18   9  22  1   
 19  10  15  1   
 20  10  23  1   
 21  10  24  1   
 22  11  16  ar  
 23  11  25  1   
 24  12  16  ar  
 25  12  26  1   
 26  13  17  1   
 27  13  27  1   
 28  13  28  1   
 29  14  29  1   
 30  14  30  1   
 31  14  31  1   
 32  15  17  1   
 33  15  32  1   
 34  15  33  1   
 35  16  34  1   
 36  17  35  1   
 37  17  36  1   
@<TRIPOS>SUBSTRUCTURE
  1 ****   4 GROUP 4 **** **** 0

# MOE 2024.06 (io_trps.svl 2023.06)
