@<TRIPOS>MOLECULE
NONAME
36 36 1 0 0 
SMALL
USER_CHARGES


@<TRIPOS>ATOM
  1 S        0.1530     0.2040    -0.3410 S.o2  1 <1>   1.3330 
  2 O       -0.4460     1.5140    -0.2790 O.2   1 <1>  -0.6500 
  3 O        1.3090    -0.0560    -1.1600 O.2   1 <1>  -0.6500 
  4 N       -1.0260    -0.8860    -0.9490 N.am  1 <1>  -0.7570 
  5 C        0.4450    -0.4350     1.3140 C.3   1 <1>  -0.0550 
  6 C       -2.3830    -0.9790    -0.6890 C.ar  1 <1>   0.1990 
  7 C        1.5100     0.3350     2.1130 C.3   1 <1>  -0.2400 
  8 C       -3.1240    -1.9590    -1.3380 C.ar  1 <1>  -0.1500 
  9 C       -3.0530    -0.1440     0.2010 C.ar  1 <1>  -0.1500 
 10 C       -4.4790    -2.0980    -1.1090 C.ar  1 <1>  -0.1500 
 11 C       -4.4080    -0.2850     0.4290 C.ar  1 <1>  -0.1500 
 12 C       -5.1640    -1.2630    -0.2240 C.ar  1 <1>   0.0860 
 13 C       -6.5890    -1.4150    -0.0040 C.2   1 <1>   0.5440 
 14 O       -7.1280    -2.4930    -0.1630 O.2   1 <1>  -0.5700 
 15 N       -7.3550    -0.3450     0.3720 N.am  1 <1>  -0.7300 
 16 C       -8.7990    -0.3740     0.6360 C.3   1 <1>   0.2200 
 17 C       -9.4940     0.4670    -0.4280 C.3   1 <1>  -0.2400 
 18 C       -9.0380     0.1880     2.0320 C.3   1 <1>  -0.2400 
 19 H       -0.6350    -1.4060    -1.7300 H     1 <1>   0.4200 
 20 H        0.7500    -1.4610     1.2400 H     1 <1>   0.0800 
 21 H       -0.4760    -0.4110     1.8640 H     1 <1>   0.0800 
 22 H        2.4550     0.3030     1.5980 H     1 <1>   0.0800 
 23 H        1.6340    -0.1000     3.0890 H     1 <1>   0.0800 
 24 H        1.2170     1.3650     2.2270 H     1 <1>   0.0800 
 25 H       -2.6350    -2.6210    -2.0290 H     1 <1>   0.1500 
 26 H       -2.5210     0.6310     0.7210 H     1 <1>   0.1500 
 27 H       -5.0320    -2.8680    -1.6220 H     1 <1>   0.1500 
 28 H       -4.8890     0.3720     1.1310 H     1 <1>   0.1500 
 29 H       -6.9390     0.5840     0.3860 H     1 <1>   0.3700 
 30 H       -9.1630    -1.3890     0.5890 H     1 <1>   0.0800 
 31 H       -9.1490     1.4850    -0.4000 H     1 <1>   0.0800 
 32 H      -10.5560     0.4590    -0.2630 H     1 <1>   0.0800 
 33 H       -9.3030     0.0510    -1.4020 H     1 <1>   0.0800 
 34 H       -8.6870     1.2010     2.1040 H     1 <1>   0.0800 
 35 H       -8.5300    -0.4190     2.7600 H     1 <1>   0.0800 
 36 H      -10.0900     0.1710     2.2560 H     1 <1>   0.0800 
@<TRIPOS>BOND
  1   1   2  2   
  2   1   3  2   
  3   1   4  am  
  4   1   5  1   
  5   4   6  1   
  6   4  19  1   
  7   5   7  1   
  8   5  20  1   
  9   5  21  1   
 10   6   8  ar  
 11   6   9  ar  
 12   7  22  1   
 13   7  23  1   
 14   7  24  1   
 15   8  10  ar  
 16   8  25  1   
 17   9  11  ar  
 18   9  26  1   
 19  10  12  ar  
 20  10  27  1   
 21  11  12  ar  
 22  11  28  1   
 23  12  13  1   
 24  13  14  2   
 25  13  15  am  
 26  15  16  1   
 27  15  29  1   
 28  16  17  1   
 29  16  18  1   
 30  16  30  1   
 31  17  31  1   
 32  17  32  1   
 33  17  33  1   
 34  18  34  1   
 35  18  35  1   
 36  18  36  1   
@<TRIPOS>SUBSTRUCTURE
  1 ****  11 GROUP 4 **** **** 0

# MOE 2024.06 (io_trps.svl 2023.06)
