@<TRIPOS>MOLECULE
NONAME
42 43 1 0 0 
SMALL
USER_CHARGES


@<TRIPOS>ATOM
  1 O       -0.6170     0.5990    -0.5770 O.3   1 <1>  -0.3620 
  2 C       -0.2340     1.8870    -0.7600 C.ar  1 <1>   0.0830 
  3 C       -0.0190    -0.2110     0.4090 C.3   1 <1>   0.2580 
  4 C       -1.1490     2.7520    -1.3540 C.ar  1 <1>  -0.1440 
  5 C        1.0150     2.3600    -0.3690 C.ar  1 <1>  -0.1500 
  6 C       -1.0090    -1.3160     0.7160 C.2   1 <1>  -0.2880 
  7 C       -0.8130     4.0840    -1.5420 C.ar  1 <1>  -0.1500 
  8 C       -2.5110     2.2410    -1.7930 C.3   1 <1>   0.4870 
  9 C        1.3390     3.6910    -0.5590 C.ar  1 <1>  -0.1500 
 10 C       -1.6280    -1.4990     1.8870 C.2   1 <1>  -0.3000 
 11 C        0.4270     4.5520    -1.1420 C.ar  1 <1>  -0.1500 
 12 N       -3.2090     1.6320    -0.6260 N.4   1 <1>  -0.9590 
 13 C       -4.4190     0.8340    -0.9590 C.3   1 <1>   0.4230 
 14 C       -3.4520     2.6520     0.4360 C.3   1 <1>   0.3430 
 15 C       -4.9330     0.1420     0.3110 C.3   1 <1>  -0.1600 
 16 C       -4.0910    -0.2230    -2.0150 C.3   1 <1>  -0.2400 
 17 C       -3.9390     1.9700     1.7130 C.3   1 <1>  -0.1600 
 18 C       -5.1920     1.1300     1.4550 C.3   1 <1>  -0.1600 
 19 H        0.1690     0.3830     1.2870 H     1 <1>   0.0800 
 20 H        0.9050    -0.6060     0.0210 H     1 <1>   0.0800 
 21 H        1.7470     1.7100     0.0750 H     1 <1>   0.1500 
 22 H       -1.1680    -1.9640    -0.1300 H     1 <1>   0.1500 
 23 H       -1.5020     4.7720    -2.0010 H     1 <1>   0.1500 
 24 H       -2.3550     1.5020    -2.5610 H     1 <1>   0.0800 
 25 H       -3.0990     3.0450    -2.2030 H     1 <1>   0.0800 
 26 H        2.3060     4.0590    -0.2560 H     1 <1>   0.1500 
 27 H       -2.3240    -2.2990     2.0790 H     1 <1>   0.1500 
 28 H       -1.4900    -0.8780     2.7560 H     1 <1>   0.1500 
 29 H        0.6880     5.5870    -1.2890 H     1 <1>   0.1500 
 30 H       -2.5120     0.9690    -0.2470 H     1 <1>   0.4500 
 31 H       -5.1900     1.4880    -1.3350 H     1 <1>   0.0800 
 32 H       -4.1930     3.3580     0.0990 H     1 <1>   0.0800 
 33 H       -2.5420     3.1900     0.6490 H     1 <1>   0.0800 
 34 H       -4.2190    -0.5970     0.6320 H     1 <1>   0.0800 
 35 H       -5.8490    -0.3760     0.0860 H     1 <1>   0.0800 
 36 H       -3.2430    -0.8140    -1.7190 H     1 <1>   0.0800 
 37 H       -3.9070     0.2240    -2.9750 H     1 <1>   0.0800 
 38 H       -4.9320    -0.8840    -2.1370 H     1 <1>   0.0800 
 39 H       -4.1570     2.7220     2.4520 H     1 <1>   0.0800 
 40 H       -3.1520     1.3500     2.1070 H     1 <1>   0.0800 
 41 H       -5.4630     0.5920     2.3480 H     1 <1>   0.0800 
 42 H       -6.0150     1.7750     1.1960 H     1 <1>   0.0800 
@<TRIPOS>BOND
  1   1   2  1   
  2   1   3  1   
  3   2   4  ar  
  4   2   5  ar  
  5   3   6  1   
  6   3  19  1   
  7   3  20  1   
  8   4   7  ar  
  9   4   8  1   
 10   5   9  ar  
 11   5  21  1   
 12   6  10  2   
 13   6  22  1   
 14   7  11  ar  
 15   7  23  1   
 16   8  12  1   
 17   8  24  1   
 18   8  25  1   
 19   9  11  ar  
 20   9  26  1   
 21  10  27  1   
 22  10  28  1   
 23  11  29  1   
 24  12  13  1   
 25  12  14  1   
 26  12  30  1   
 27  13  15  1   
 28  13  16  1   
 29  13  31  1   
 30  14  17  1   
 31  14  32  1   
 32  14  33  1   
 33  15  18  1   
 34  15  34  1   
 35  15  35  1   
 36  16  36  1   
 37  16  37  1   
 38  16  38  1   
 39  17  18  1   
 40  17  39  1   
 41  17  40  1   
 42  18  41  1   
 43  18  42  1   
@<TRIPOS>SUBSTRUCTURE
  1 ****  12 GROUP 4 **** **** 0

# MOE 2024.06 (io_trps.svl 2023.06)
