@<TRIPOS>MOLECULE
NONAME
47 49 1 0 0 
SMALL
USER_CHARGES


@<TRIPOS>ATOM
  1 BR       1.9410    -1.2950    -2.3690 Br    1 <1>  -0.1110 
  2 C        0.6610    -2.3610    -1.4060 C.ar  1 <1>   0.1110 
  3 C       -0.5000    -2.7440    -2.0510 C.ar  1 <1>  -0.1500 
  4 C        0.9340    -2.7130    -0.1000 C.ar  1 <1>  -0.1500 
  5 C       -1.4270    -3.5090    -1.3580 C.ar  1 <1>  -0.1440 
  6 C        0.0080    -3.4780     0.5880 C.ar  1 <1>  -0.1500 
  7 C       -1.1740    -3.8780    -0.0360 C.ar  1 <1>   0.0830 
  8 C       -2.7110    -3.9430    -2.0410 C.3   1 <1>   0.4870 
  9 O       -2.1240    -4.6210     0.5960 O.3   1 <1>  -0.3630 
 10 N       -3.8560    -3.3980    -1.2760 N.4   1 <1>  -0.9590 
 11 C       -1.8870    -5.1820     1.8730 C.3   1 <1>   0.0400 
 12 C       -5.1530    -4.0040    -1.6660 C.3   1 <1>   0.4860 
 13 C       -3.9240    -1.9090    -1.2820 C.3   1 <1>   0.3430 
 14 C       -6.2740    -3.4550    -0.7980 C.ar  1 <1>  -0.1430 
 15 C       -4.8680    -1.4310    -0.1770 C.3   1 <1>  -0.0170 
 16 C       -6.1520    -2.2470    -0.1160 C.ar  1 <1>  -0.1430 
 17 C       -7.4510    -4.1820    -0.6930 C.ar  1 <1>  -0.1500 
 18 C       -7.2100    -1.7770     0.6460 C.ar  1 <1>  -0.1500 
 19 C       -8.5030    -3.7230     0.0800 C.ar  1 <1>   0.0830 
 20 C       -8.3910    -2.4930     0.7360 C.ar  1 <1>   0.0830 
 21 O       -9.6010    -4.5140     0.1550 O.3   1 <1>  -0.3630 
 22 O       -9.3940    -1.9490     1.4660 O.3   1 <1>  -0.3620 
 23 C       -9.9640    -4.9890     1.4340 C.3   1 <1>   0.0400 
 24 C      -10.5450    -1.5520     0.7530 C.3   1 <1>   0.0400 
 25 H       -0.6510    -2.4430    -3.0730 H     1 <1>   0.1500 
 26 H        1.8520    -2.3950     0.3650 H     1 <1>   0.1500 
 27 H        0.2300    -3.7470     1.6050 H     1 <1>   0.1500 
 28 H       -2.7510    -5.0200    -2.0470 H     1 <1>   0.0800 
 29 H       -2.7340    -3.5880    -3.0580 H     1 <1>   0.0800 
 30 H       -3.6710    -3.6880    -0.3000 H     1 <1>   0.4500 
 31 H       -2.7380    -5.7830     2.1430 H     1 <1>   0.0800 
 32 H       -1.7620    -4.3900     2.5900 H     1 <1>   0.0800 
 33 H       -1.0070    -5.8010     1.8290 H     1 <1>   0.0800 
 34 H       -5.1070    -5.0750    -1.5490 H     1 <1>   0.0800 
 35 H       -5.3680    -3.7830    -2.6990 H     1 <1>   0.0800 
 36 H       -4.2880    -1.5670    -2.2370 H     1 <1>   0.0800 
 37 H       -2.9460    -1.4860    -1.1180 H     1 <1>   0.0800 
 38 H       -5.1020    -0.3940    -0.3430 H     1 <1>   0.0800 
 39 H       -4.3630    -1.5010     0.7710 H     1 <1>   0.0800 
 40 H       -7.5760    -5.1200    -1.2040 H     1 <1>   0.1500 
 41 H       -7.1370    -0.8450     1.1790 H     1 <1>   0.1500 
 42 H      -10.7340    -5.7300     1.3120 H     1 <1>   0.0800 
 43 H      -10.3360    -4.1740     2.0280 H     1 <1>   0.0800 
 44 H       -9.1010    -5.4290     1.9020 H     1 <1>   0.0800 
 45 H      -11.2200    -1.0790     1.4430 H     1 <1>   0.0800 
 46 H      -11.0130    -2.4160     0.3170 H     1 <1>   0.0800 
 47 H      -10.2550    -0.8560    -0.0140 H     1 <1>   0.0800 
@<TRIPOS>BOND
  1   1   2  1   
  2   2   3  ar  
  3   2   4  ar  
  4   3   5  ar  
  5   3  25  1   
  6   4   6  ar  
  7   4  26  1   
  8   5   7  ar  
  9   5   8  1   
 10   6   7  ar  
 11   6  27  1   
 12   7   9  1   
 13   8  10  1   
 14   8  28  1   
 15   8  29  1   
 16   9  11  1   
 17  10  12  1   
 18  10  13  1   
 19  10  30  1   
 20  11  31  1   
 21  11  32  1   
 22  11  33  1   
 23  12  14  1   
 24  12  34  1   
 25  12  35  1   
 26  13  15  1   
 27  13  36  1   
 28  13  37  1   
 29  14  16  ar  
 30  14  17  ar  
 31  15  16  1   
 32  15  38  1   
 33  15  39  1   
 34  16  18  ar  
 35  17  19  ar  
 36  17  40  1   
 37  18  20  ar  
 38  18  41  1   
 39  19  20  ar  
 40  19  21  1   
 41  20  22  1   
 42  21  23  1   
 43  22  24  1   
 44  23  42  1   
 45  23  43  1   
 46  23  44  1   
 47  24  45  1   
 48  24  46  1   
 49  24  47  1   
@<TRIPOS>SUBSTRUCTURE
  1 ****  10 GROUP 4 **** **** 0

# MOE 2024.06 (io_trps.svl 2023.06)
