@<TRIPOS>MOLECULE
NONAME
40 41 1 0 0 
SMALL
USER_CHARGES


@<TRIPOS>ATOM
  1 CL      -0.2100    -0.4560     1.5950 Cl    1 <1>  -0.1770 
  2 C       -1.6970    -1.0270     0.8860 C.ar  1 <1>   0.1770 
  3 C       -2.2310    -0.3610    -0.2000 C.ar  1 <1>  -0.1500 
  4 C       -2.3200    -2.1390     1.4190 C.ar  1 <1>  -0.1500 
  5 C       -3.4140    -0.8130    -0.7600 C.ar  1 <1>  -0.1500 
  6 C       -3.5020    -2.5900     0.8570 C.ar  1 <1>  -0.1500 
  7 C       -4.0590    -1.9250    -0.2300 C.ar  1 <1>  -0.1430 
  8 C       -5.3630    -2.4090    -0.8390 C.3   1 <1>   0.4870 
  9 N       -6.4920    -2.0750     0.0940 N.4   1 <1>  -0.9590 
 10 C       -7.7890    -2.7540    -0.2490 C.3   1 <1>   0.4230 
 11 C       -6.6020    -0.5750     0.1900 C.3   1 <1>   0.2630 
 12 C       -8.8880    -2.3560     0.7510 C.3   1 <1>  -0.1600 
 13 C       -7.6210    -4.2830    -0.2410 C.3   1 <1>  -0.1600 
 14 C      -10.1970    -3.1070     0.4990 C.3   1 <1>   0.3430 
 15 C       -8.9470    -5.0100    -0.4780 C.3   1 <1>   0.3430 
 16 N       -9.9560    -4.5760     0.5270 N.4   1 <1>  -0.9590 
 17 C      -11.2450    -5.3150     0.3190 C.3   1 <1>   0.2630 
 18 H       -1.7180     0.4990    -0.5980 H     1 <1>   0.1500 
 19 H       -1.8740    -2.6410     2.2600 H     1 <1>   0.1500 
 20 H       -3.8140    -0.2870    -1.6120 H     1 <1>   0.1500 
 21 H       -3.9670    -3.4660     1.2790 H     1 <1>   0.1500 
 22 H       -5.2870    -3.4720    -0.9870 H     1 <1>   0.0800 
 23 H       -5.5160    -1.9420    -1.7980 H     1 <1>   0.0800 
 24 H       -6.1760    -2.4000     1.0190 H     1 <1>   0.4500 
 25 H       -8.0960    -2.4450    -1.2370 H     1 <1>   0.0800 
 26 H       -6.9190    -0.1560    -0.7520 H     1 <1>   0.0800 
 27 H       -5.6480    -0.1420     0.4500 H     1 <1>   0.0800 
 28 H       -7.3060    -0.2890     0.9530 H     1 <1>   0.0800 
 29 H       -9.1130    -1.3090     0.6600 H     1 <1>   0.0800 
 30 H       -8.5680    -2.5460     1.7600 H     1 <1>   0.0800 
 31 H       -7.2090    -4.6130     0.6970 H     1 <1>   0.0800 
 32 H       -6.9570    -4.5930    -1.0270 H     1 <1>   0.0800 
 33 H      -10.6020    -2.8230    -0.4600 H     1 <1>   0.0800 
 34 H      -10.9180    -2.8390     1.2560 H     1 <1>   0.0800 
 35 H       -8.7930    -6.0760    -0.4050 H     1 <1>   0.0800 
 36 H       -9.3090    -4.7940    -1.4720 H     1 <1>   0.0800 
 37 H       -9.6180    -4.8360     1.4680 H     1 <1>   0.4500 
 38 H      -11.6600    -5.0900    -0.6500 H     1 <1>   0.0800 
 39 H      -11.9650    -5.0360     1.0730 H     1 <1>   0.0800 
 40 H      -11.0840    -6.3800     0.3840 H     1 <1>   0.0800 
@<TRIPOS>BOND
  1   1   2  1   
  2   2   3  ar  
  3   2   4  ar  
  4   3   5  ar  
  5   3  18  1   
  6   4   6  ar  
  7   4  19  1   
  8   5   7  ar  
  9   5  20  1   
 10   6   7  ar  
 11   6  21  1   
 12   7   8  1   
 13   8   9  1   
 14   8  22  1   
 15   8  23  1   
 16   9  10  1   
 17   9  11  1   
 18   9  24  1   
 19  10  12  1   
 20  10  13  1   
 21  10  25  1   
 22  11  26  1   
 23  11  27  1   
 24  11  28  1   
 25  12  14  1   
 26  12  29  1   
 27  12  30  1   
 28  13  15  1   
 29  13  31  1   
 30  13  32  1   
 31  14  16  1   
 32  14  33  1   
 33  14  34  1   
 34  15  16  1   
 35  15  35  1   
 36  15  36  1   
 37  16  17  1   
 38  16  37  1   
 39  17  38  1   
 40  17  39  1   
 41  17  40  1   
@<TRIPOS>SUBSTRUCTURE
  1 ****   9 GROUP 4 **** **** 0

# MOE 2024.06 (io_trps.svl 2023.06)
