@<TRIPOS>MOLECULE
NONAME
52 55 1 0 0 
SMALL
USER_CHARGES


@<TRIPOS>ATOM
  1 O       -0.6960    -0.5850    -0.6670 O.3   1 <1>  -0.3630 
  2 C       -1.9540    -0.9010    -0.2590 C.ar  1 <1>   0.0830 
  3 C        0.2660    -1.5720    -0.9670 C.3   1 <1>   0.0400 
  4 C       -2.8010     0.1460     0.0810 C.ar  1 <1>  -0.1440 
  5 C       -2.4130    -2.2120    -0.1700 C.ar  1 <1>  -0.1500 
  6 C       -4.0910    -0.1280     0.4970 C.ar  1 <1>  -0.1500 
  7 C       -2.3150     1.5880     0.0010 C.3   1 <1>  -0.0960 
  8 C       -3.7060    -2.4880     0.2470 C.ar  1 <1>  -0.1430 
  9 C       -4.5510    -1.4340     0.5760 C.ar  1 <1>  -0.1430 
 10 C       -4.1500    -3.9440     0.3380 C.3   1 <1>  -0.0970 
 11 C       -5.9800    -1.6700     1.0040 C.3   1 <1>   0.4860 
 12 N       -6.7840    -1.5900    -0.2320 N.4   1 <1>  -0.9060 
 13 C       -8.2210    -1.8690    -0.1240 C.3   1 <1>   0.5030 
 14 C       -8.9010    -0.8740     0.8380 C.3   1 <1>  -0.1600 
 15 C       -8.8250    -1.7060    -1.5310 C.3   1 <1>  -0.1600 
 16 C       -8.4610    -3.3120     0.3650 C.3   1 <1>  -0.1600 
 17 C      -10.4150    -1.1540     0.8910 C.3   1 <1>  -0.0800 
 18 C      -10.3390    -1.9870    -1.4930 C.3   1 <1>  -0.0800 
 19 C       -9.9740    -3.5990     0.4160 C.3   1 <1>  -0.0800 
 20 C      -11.0100    -0.9980    -0.5210 C.3   1 <1>  -0.1600 
 21 C      -10.6470    -2.5990     1.3760 C.3   1 <1>  -0.1600 
 22 C      -10.5730    -3.4240    -0.9920 C.3   1 <1>  -0.1600 
 23 H        1.1800    -1.0740    -1.2360 H     1 <1>   0.0800 
 24 H       -0.0840    -2.1620    -1.7940 H     1 <1>   0.0800 
 25 H        0.4250    -2.1810    -0.0950 H     1 <1>   0.0800 
 26 H       -1.7630    -3.0270    -0.4230 H     1 <1>   0.1500 
 27 H       -4.7330     0.6950     0.7630 H     1 <1>   0.1500 
 28 H       -1.4650     1.7200     0.6470 H     1 <1>   0.0800 
 29 H       -3.0810     2.2810     0.2960 H     1 <1>   0.0800 
 30 H       -2.0150     1.8150    -1.0070 H     1 <1>   0.0800 
 31 H       -3.3560    -4.6060     0.0370 H     1 <1>   0.0800 
 32 H       -4.9910    -4.1300    -0.3030 H     1 <1>   0.0800 
 33 H       -4.4110    -4.1910     1.3520 H     1 <1>   0.0800 
 34 H       -6.2850    -0.9140     1.7090 H     1 <1>   0.0800 
 35 H       -6.0750    -2.6390     1.4640 H     1 <1>   0.0800 
 36 H       -6.3640    -2.2340    -0.9080 H     1 <1>   0.4500 
 37 H       -6.6510    -0.6570    -0.6290 H     1 <1>   0.4500 
 38 H       -8.7440     0.1360     0.5040 H     1 <1>   0.0800 
 39 H       -8.5070    -0.9710     1.8330 H     1 <1>   0.0800 
 40 H       -8.6680    -0.7050    -1.8930 H     1 <1>   0.0800 
 41 H       -8.3640    -2.3920    -2.2200 H     1 <1>   0.0800 
 42 H       -8.0590    -3.4570     1.3510 H     1 <1>   0.0800 
 43 H       -7.9940    -4.0170    -0.3010 H     1 <1>   0.0800 
 44 H      -10.8960    -0.4640     1.5650 H     1 <1>   0.0800 
 45 H      -10.7620    -1.8720    -2.4770 H     1 <1>   0.0800 
 46 H      -10.1480    -4.6060     0.7610 H     1 <1>   0.0800 
 47 H      -10.8760     0.0120    -0.8700 H     1 <1>   0.0800 
 48 H      -12.0710    -1.1860    -0.4900 H     1 <1>   0.0800 
 49 H      -11.7040    -2.7990     1.4220 H     1 <1>   0.0800 
 50 H      -10.2570    -2.7210     2.3720 H     1 <1>   0.0800 
 51 H      -10.1290    -4.1300    -1.6730 H     1 <1>   0.0800 
 52 H      -11.6300    -3.6300    -0.9640 H     1 <1>   0.0800 
@<TRIPOS>BOND
  1   1   2  1   
  2   1   3  1   
  3   2   4  ar  
  4   2   5  ar  
  5   3  23  1   
  6   3  24  1   
  7   3  25  1   
  8   4   6  ar  
  9   4   7  1   
 10   5   8  ar  
 11   5  26  1   
 12   6   9  ar  
 13   6  27  1   
 14   7  28  1   
 15   7  29  1   
 16   7  30  1   
 17   8   9  ar  
 18   8  10  1   
 19   9  11  1   
 20  10  31  1   
 21  10  32  1   
 22  10  33  1   
 23  11  12  1   
 24  11  34  1   
 25  11  35  1   
 26  12  13  1   
 27  12  36  1   
 28  12  37  1   
 29  13  14  1   
 30  13  15  1   
 31  13  16  1   
 32  14  17  1   
 33  14  38  1   
 34  14  39  1   
 35  15  18  1   
 36  15  40  1   
 37  15  41  1   
 38  16  19  1   
 39  16  42  1   
 40  16  43  1   
 41  17  20  1   
 42  17  21  1   
 43  17  44  1   
 44  18  20  1   
 45  18  22  1   
 46  18  45  1   
 47  19  21  1   
 48  19  22  1   
 49  19  46  1   
 50  20  47  1   
 51  20  48  1   
 52  21  49  1   
 53  21  50  1   
 54  22  51  1   
 55  22  52  1   
@<TRIPOS>SUBSTRUCTURE
  1 ****  12 GROUP 4 **** **** 0

# MOE 2024.06 (io_trps.svl 2023.06)
