@<TRIPOS>MOLECULE
NONAME
51 53 1 0 0 
SMALL
USER_CHARGES


@<TRIPOS>ATOM
  1 O        0.0290    -0.1030     0.7960 O.2   1 <1>  -0.5700 
  2 C       -0.0740     0.9640     0.2250 C.2   1 <1>   0.6900 
  3 N       -1.2330     1.6840     0.2490 N.am  1 <1>  -0.5470 
  4 N        0.9720     1.4960    -0.4780 N.am  1 <1>  -0.5470 
  5 C       -2.5170     1.4140     0.7580 C.ar  1 <1>   0.1170 
  6 C        2.3000     1.0620    -0.5980 C.ar  1 <1>   0.1170 
  7 C       -3.4000     2.4880     0.9190 C.ar  1 <1>   0.0830 
  8 C       -2.9510     0.1350     1.0900 C.ar  1 <1>  -0.1500 
  9 C        2.9420     0.3210     0.3880 C.ar  1 <1>  -0.1500 
 10 C        3.0170     1.3900    -1.7420 C.ar  1 <1>  -0.1500 
 11 O       -2.9430     3.7300     0.5680 O.3   1 <1>  -0.3630 
 12 C       -4.6820     2.2690     1.4140 C.ar  1 <1>  -0.1500 
 13 C       -4.2260    -0.0770     1.5820 C.ar  1 <1>  -0.1500 
 14 C        4.2530    -0.0890     0.2340 C.ar  1 <1>  -0.1500 
 15 C        4.3310     0.9860    -1.9020 C.ar  1 <1>  -0.1500 
 16 C       -3.7340     4.8820     0.7690 C.3   1 <1>   0.0400 
 17 C       -5.0910     0.9890     1.7460 C.ar  1 <1>  -0.1500 
 18 C        4.9600     0.2440    -0.9120 C.ar  1 <1>  -0.1430 
 19 C        6.4010    -0.2000    -1.0800 C.3   1 <1>   0.4860 
 20 N        7.2590     0.5900    -0.1550 N.4   1 <1>  -0.9590 
 21 C        7.2430     2.0440    -0.4960 C.3   1 <1>   0.3430 
 22 C        8.6420     0.0400    -0.0880 C.3   1 <1>   0.3430 
 23 C        8.0220     2.8290     0.5620 C.3   1 <1>  -0.1600 
 24 C        9.4430     0.7880     0.9790 C.3   1 <1>  -0.1600 
 25 C        9.4530     2.3020     0.7260 C.3   1 <1>  -0.1600 
 26 H       -1.1410     2.6650    -0.0050 H     1 <1>   0.3700 
 27 H        0.6960     2.2340    -1.1170 H     1 <1>   0.3700 
 28 H       -2.2960    -0.7070     0.9650 H     1 <1>   0.1500 
 29 H        2.4100     0.0580     1.2860 H     1 <1>   0.1500 
 30 H        2.5390     1.9590    -2.5190 H     1 <1>   0.1500 
 31 H       -5.3780     3.0740     1.5490 H     1 <1>   0.1500 
 32 H       -4.5420    -1.0740     1.8370 H     1 <1>   0.1500 
 33 H        4.7020    -0.6740     1.0180 H     1 <1>   0.1500 
 34 H        4.8490     1.2530    -2.8080 H     1 <1>   0.1500 
 35 H       -3.1650     5.7380     0.4540 H     1 <1>   0.0800 
 36 H       -3.9700     4.9660     1.8150 H     1 <1>   0.0800 
 37 H       -4.6280     4.8010     0.1760 H     1 <1>   0.0800 
 38 H       -6.0830     0.8210     2.1290 H     1 <1>   0.1500 
 39 H        6.7170    -0.0540    -2.1000 H     1 <1>   0.0800 
 40 H        6.4740    -1.2500    -0.8470 H     1 <1>   0.0800 
 41 H        6.8360     0.5080     0.7770 H     1 <1>   0.4500 
 42 H        6.2280     2.4080    -0.5310 H     1 <1>   0.0800 
 43 H        7.6940     2.1990    -1.4620 H     1 <1>   0.0800 
 44 H        9.1270     0.1540    -1.0450 H     1 <1>   0.0800 
 45 H        8.6140    -1.0100     0.1570 H     1 <1>   0.0800 
 46 H        7.5000     2.7740     1.5020 H     1 <1>   0.0800 
 47 H        8.0550     3.8660     0.2760 H     1 <1>   0.0800 
 48 H       10.4550     0.4220     0.9810 H     1 <1>   0.0800 
 49 H        9.0250     0.5820     1.9500 H     1 <1>   0.0800 
 50 H        9.9380     2.8070     1.5450 H     1 <1>   0.0800 
 51 H       10.0180     2.5130    -0.1670 H     1 <1>   0.0800 
@<TRIPOS>BOND
  1   1   2  2   
  2   2   3  am  
  3   2   4  am  
  4   3   5  1   
  5   3  26  1   
  6   4   6  1   
  7   4  27  1   
  8   5   7  ar  
  9   5   8  ar  
 10   6   9  ar  
 11   6  10  ar  
 12   7  11  1   
 13   7  12  ar  
 14   8  13  ar  
 15   8  28  1   
 16   9  14  ar  
 17   9  29  1   
 18  10  15  ar  
 19  10  30  1   
 20  11  16  1   
 21  12  17  ar  
 22  12  31  1   
 23  13  17  ar  
 24  13  32  1   
 25  14  18  ar  
 26  14  33  1   
 27  15  18  ar  
 28  15  34  1   
 29  16  35  1   
 30  16  36  1   
 31  16  37  1   
 32  17  38  1   
 33  18  19  1   
 34  19  20  1   
 35  19  39  1   
 36  19  40  1   
 37  20  21  1   
 38  20  22  1   
 39  20  41  1   
 40  21  23  1   
 41  21  42  1   
 42  21  43  1   
 43  22  24  1   
 44  22  44  1   
 45  22  45  1   
 46  23  25  1   
 47  23  46  1   
 48  23  47  1   
 49  24  25  1   
 50  24  48  1   
 51  24  49  1   
 52  25  50  1   
 53  25  51  1   
@<TRIPOS>SUBSTRUCTURE
  1 ****   6 GROUP 4 **** **** 0

# MOE 2024.06 (io_trps.svl 2023.06)
