@<TRIPOS>MOLECULE
NONAME
42 42 1 0 0 
SMALL
USER_CHARGES


@<TRIPOS>ATOM
  1 S       -0.9590    -0.4390    -0.9010 S.3   1 <1>  -0.4600 
  2 C       -0.3630    -1.5360     0.4170 C.3   1 <1>   0.1500 
  3 C       -0.2140     1.1730    -0.5260 C.3   1 <1>   0.0700 
  4 C        0.8200    -2.3670    -0.1100 C.3   1 <1>  -0.1600 
  5 C       -1.5490    -2.4170     0.8040 C.3   1 <1>  -0.2400 
  6 C       -1.0230     1.8230     0.5950 C.3   1 <1>  -0.2400 
  7 C        2.1020    -1.5620    -0.4080 C.3   1 <1>  -0.0800 
  8 C        3.1770    -2.4560    -1.0350 C.3   1 <1>  -0.0990 
  9 C        2.7020    -0.9050     0.8410 C.3   1 <1>  -0.0990 
 10 C        4.5220    -1.7650    -1.1890 C.2   1 <1>   0.4140 
 11 C        3.9210    -0.0870     0.4670 C.2   1 <1>   0.4140 
 12 O        5.3150    -2.3860    -1.8750 O.2   1 <1>  -0.5700 
 13 C        4.8070    -0.5530    -0.5240 C.3   1 <1>  -0.7150 
 14 O        4.0250     0.9690     1.0660 O.2   1 <1>  -0.5700 
 15 C        5.9600     0.1840    -0.8690 C.2   1 <1>   0.4140 
 16 O        6.3600     0.2960    -2.0170 O.2   1 <1>  -0.5700 
 17 C        6.7810     0.9190     0.1860 C.3   1 <1>  -0.0990 
 18 C        8.2980     0.7200     0.0210 C.3   1 <1>  -0.1600 
 19 C        9.0840     1.4230     1.1330 C.3   1 <1>  -0.2400 
 20 H       -0.0790    -0.9220     1.2520 H     1 <1>   0.0800 
 21 H       -0.2600     1.7570    -1.4290 H     1 <1>   0.0800 
 22 H        0.8130     1.0210    -0.2460 H     1 <1>   0.0800 
 23 H        0.5070    -2.8700    -1.0090 H     1 <1>   0.0800 
 24 H        1.0560    -3.1250     0.6160 H     1 <1>   0.0800 
 25 H       -1.8750    -2.9980    -0.0410 H     1 <1>   0.0800 
 26 H       -2.3660    -1.8030     1.1380 H     1 <1>   0.0800 
 27 H       -1.2730    -3.0840     1.6000 H     1 <1>   0.0800 
 28 H       -2.0500     1.9300     0.2940 H     1 <1>   0.0800 
 29 H       -0.6220     2.7960     0.8120 H     1 <1>   0.0800 
 30 H       -0.9780     1.2270     1.4880 H     1 <1>   0.0800 
 31 H        1.8790    -0.7900    -1.1250 H     1 <1>   0.0800 
 32 H        2.8520    -2.7770    -2.0070 H     1 <1>   0.0800 
 33 H        3.3330    -3.3300    -0.4300 H     1 <1>   0.0800 
 34 H        2.9980    -1.6480     1.5570 H     1 <1>   0.0800 
 35 H        1.9900    -0.2520     1.3060 H     1 <1>   0.0800 
 36 H        6.4980     0.5600     1.1580 H     1 <1>   0.0800 
 37 H        6.5370     1.9620     0.1270 H     1 <1>   0.0800 
 38 H        8.6020     1.1070    -0.9370 H     1 <1>   0.0800 
 39 H        8.5130    -0.3350     0.0320 H     1 <1>   0.0800 
 40 H        8.8830     2.4790     1.1180 H     1 <1>   0.0800 
 41 H       10.1380     1.2680     0.9900 H     1 <1>   0.0800 
 42 H        8.8030     1.0290     2.0930 H     1 <1>   0.0800 
@<TRIPOS>BOND
  1   1   2  1   
  2   1   3  1   
  3   2   4  1   
  4   2   5  1   
  5   2  20  1   
  6   3   6  1   
  7   3  21  1   
  8   3  22  1   
  9   4   7  1   
 10   4  23  1   
 11   4  24  1   
 12   5  25  1   
 13   5  26  1   
 14   5  27  1   
 15   6  28  1   
 16   6  29  1   
 17   6  30  1   
 18   7   8  1   
 19   7   9  1   
 20   7  31  1   
 21   8  10  1   
 22   8  32  1   
 23   8  33  1   
 24   9  11  1   
 25   9  34  1   
 26   9  35  1   
 27  10  12  2   
 28  10  13  1   
 29  11  13  1   
 30  11  14  2   
 31  13  15  1   
 32  15  16  2   
 33  15  17  1   
 34  17  18  1   
 35  17  36  1   
 36  17  37  1   
 37  18  19  1   
 38  18  38  1   
 39  18  39  1   
 40  19  40  1   
 41  19  41  1   
 42  19  42  1   
@<TRIPOS>SUBSTRUCTURE
  1 ****  11 GROUP 4 **** **** 0

# MOE 2024.06 (io_trps.svl 2023.06)
