@<TRIPOS>MOLECULE
NONAME
43 44 1 0 0 
SMALL
USER_CHARGES


@<TRIPOS>ATOM
  1 CL      -0.4400    -0.8090     0.1080 Cl    1 <1>  -0.1770 
  2 C       -2.1020    -1.2290    -0.2430 C.ar  1 <1>   0.1770 
  3 C       -2.8870    -1.8460     0.7210 C.ar  1 <1>  -0.1440 
  4 C       -2.6010    -0.9300    -1.4980 C.ar  1 <1>  -0.1500 
  5 C       -4.1980    -2.1610     0.4000 C.ar  1 <1>  -0.1500 
  6 C       -2.3300    -2.1770     2.0980 C.3   1 <1>  -0.0960 
  7 C       -3.9120    -1.2480    -1.8080 C.ar  1 <1>  -0.1500 
  8 C       -4.7170    -1.8660    -0.8530 C.ar  1 <1>   0.0820 
  9 O       -6.0120    -2.2070    -1.0670 O.3   1 <1>  -0.3630 
 10 C       -6.6440    -1.9570    -2.3150 C.3   1 <1>   0.1810 
 11 C       -8.1000    -2.4230    -2.3140 C.2   1 <1>   0.5690 
 12 O       -8.4770    -3.0360    -3.2840 O.2   1 <1>  -0.5700 
 13 N       -8.9740    -2.1490    -1.2820 N.am  1 <1>  -0.6600 
 14 C       -8.6700    -1.2540    -0.1210 C.3   1 <1>   0.1400 
 15 C      -10.3010    -2.8390    -1.2110 C.3   1 <1>   0.1400 
 16 C       -9.8410    -0.2930     0.1750 C.3   1 <1>   0.3430 
 17 C      -11.4380    -1.8420    -0.9290 C.3   1 <1>   0.3430 
 18 N      -11.1580    -1.0080     0.2930 N.4   1 <1>  -0.9590 
 19 C      -12.2600    -0.0670     0.5900 C.3   1 <1>   0.4810 
 20 C      -13.4020    -0.8850     1.1450 C.2   1 <1>  -0.2880 
 21 C      -13.7480    -0.9480     2.4350 C.2   1 <1>  -0.3000 
 22 H       -1.9630    -0.4540    -2.2210 H     1 <1>   0.1500 
 23 H       -4.8320    -2.6460     1.1200 H     1 <1>   0.1500 
 24 H       -1.4980    -2.8530     2.0030 H     1 <1>   0.0800 
 25 H       -3.0760    -2.6400     2.7170 H     1 <1>   0.0800 
 26 H       -1.9920    -1.2790     2.5830 H     1 <1>   0.0800 
 27 H       -4.2750    -1.0110    -2.7900 H     1 <1>   0.1500 
 28 H       -6.1030    -2.4930    -3.0740 H     1 <1>   0.0800 
 29 H       -6.6040    -0.9030    -2.5160 H     1 <1>   0.0800 
 30 H       -7.7940    -0.6620    -0.3180 H     1 <1>   0.0800 
 31 H       -8.4650    -1.8580     0.7460 H     1 <1>   0.0800 
 32 H      -10.2700    -3.5830    -0.4340 H     1 <1>   0.0800 
 33 H      -10.5150    -3.3510    -2.1340 H     1 <1>   0.0800 
 34 H       -9.8940     0.4280    -0.6240 H     1 <1>   0.0800 
 35 H       -9.6310     0.2420     1.0870 H     1 <1>   0.0800 
 36 H      -12.3560    -2.3910    -0.8000 H     1 <1>   0.0800 
 37 H      -11.5520    -1.2050    -1.7900 H     1 <1>   0.0800 
 38 H      -11.1130    -1.6450     1.0990 H     1 <1>   0.4500 
 39 H      -12.5640     0.4740    -0.2920 H     1 <1>   0.0800 
 40 H      -11.9430     0.6410     1.3390 H     1 <1>   0.0800 
 41 H      -13.9420    -1.4280     0.3870 H     1 <1>   0.1500 
 42 H      -14.5740    -1.5360     2.8060 H     1 <1>   0.1500 
 43 H      -13.2550    -0.4240     3.2380 H     1 <1>   0.1500 
@<TRIPOS>BOND
  1   1   2  1   
  2   2   3  ar  
  3   2   4  ar  
  4   3   5  ar  
  5   3   6  1   
  6   4   7  ar  
  7   4  22  1   
  8   5   8  ar  
  9   5  23  1   
 10   6  24  1   
 11   6  25  1   
 12   6  26  1   
 13   7   8  ar  
 14   7  27  1   
 15   8   9  1   
 16   9  10  1   
 17  10  11  1   
 18  10  28  1   
 19  10  29  1   
 20  11  12  2   
 21  11  13  am  
 22  13  14  1   
 23  13  15  1   
 24  14  16  1   
 25  14  30  1   
 26  14  31  1   
 27  15  17  1   
 28  15  32  1   
 29  15  33  1   
 30  16  18  1   
 31  16  34  1   
 32  16  35  1   
 33  17  18  1   
 34  17  36  1   
 35  17  37  1   
 36  18  19  1   
 37  18  38  1   
 38  19  20  1   
 39  19  39  1   
 40  19  40  1   
 41  20  21  2   
 42  20  41  1   
 43  21  42  1   
 44  21  43  1   
@<TRIPOS>SUBSTRUCTURE
  1 ****  14 GROUP 4 **** **** 0

# MOE 2024.06 (io_trps.svl 2023.06)
