@<TRIPOS>MOLECULE
NONAME
40 42 1 0 0 
SMALL
USER_CHARGES


@<TRIPOS>ATOM
  1 CL       0.1260     0.0210     0.4990 Cl    1 <1>  -0.1770 
  2 C        1.7540     0.6470     0.4140 C.ar  1 <1>   0.1770 
  3 C        2.0620     1.8310     1.0560 C.ar  1 <1>  -0.1500 
  4 C        2.7130    -0.0500    -0.2980 C.ar  1 <1>  -0.1500 
  5 C        3.3540     2.3230     0.9850 C.ar  1 <1>  -0.1500 
  6 C        4.0020     0.4500    -0.3620 C.ar  1 <1>  -0.1500 
  7 C        4.3410     1.6380     0.2800 C.ar  1 <1>   0.1170 
  8 N        5.6600     2.0970     0.1730 N.am  1 <1>  -0.5470 
  9 C        6.4240     2.9480     0.9340 C.2   1 <1>   0.5440 
 10 O        5.9600     3.4260     1.9530 O.2   1 <1>  -0.5700 
 11 C        7.7680     3.2840     0.5170 C.ar  1 <1>   0.0860 
 12 C        8.5730     2.4260    -0.2700 C.ar  1 <1>   0.4100 
 13 C        8.3060     4.5140     0.8770 C.ar  1 <1>  -0.1500 
 14 N        9.7770     2.7690    -0.7270 N.ar  1 <1>  -0.6200 
 15 N        8.1750     1.1390    -0.6110 N.pl3 1 <1>  -0.8380 
 16 C        9.5610     4.8470     0.4240 C.ar  1 <1>  -0.1500 
 17 C       10.2420     3.9480    -0.3740 C.ar  1 <1>   0.1600 
 18 C        8.4510     0.6020    -1.9790 C.3   1 <1>   0.2090 
 19 C        8.1160     0.1110     0.4710 C.3   1 <1>   0.2090 
 20 C        9.6960    -0.2930    -1.9820 C.3   1 <1>  -0.1600 
 21 C        9.3820    -0.7500     0.4640 C.3   1 <1>  -0.1600 
 22 C        9.6260    -1.3860    -0.9090 C.3   1 <1>  -0.1600 
 23 H        1.3010     2.3590     1.6030 H     1 <1>   0.1500 
 24 H        2.4480    -0.9680    -0.7900 H     1 <1>   0.1500 
 25 H        3.5910     3.2470     1.4800 H     1 <1>   0.1500 
 26 H        4.7510    -0.0870    -0.9140 H     1 <1>   0.1500 
 27 H        6.2460     1.6080    -0.5170 H     1 <1>   0.3700 
 28 H        7.7440     5.1940     1.4940 H     1 <1>   0.1500 
 29 H       10.0070     5.7910     0.6800 H     1 <1>   0.1500 
 30 H       11.2200     4.2160    -0.7370 H     1 <1>   0.1500 
 31 H        8.5930     1.4180    -2.6690 H     1 <1>   0.0800 
 32 H        7.6000     0.0330    -2.3080 H     1 <1>   0.0800 
 33 H        7.2510    -0.5130     0.3200 H     1 <1>   0.0800 
 34 H        8.0180     0.5900     1.4310 H     1 <1>   0.0800 
 35 H       10.5610     0.3240    -1.8090 H     1 <1>   0.0800 
 36 H        9.8080    -0.7420    -2.9520 H     1 <1>   0.0800 
 37 H        9.2930    -1.5190     1.2100 H     1 <1>   0.0800 
 38 H       10.2200    -0.1290     0.7300 H     1 <1>   0.0800 
 39 H       10.5480    -1.9400    -0.8950 H     1 <1>   0.0800 
 40 H        8.8260    -2.0690    -1.1400 H     1 <1>   0.0800 
@<TRIPOS>BOND
  1   1   2  1   
  2   2   3  ar  
  3   2   4  ar  
  4   3   5  ar  
  5   3  23  1   
  6   4   6  ar  
  7   4  24  1   
  8   5   7  ar  
  9   5  25  1   
 10   6   7  ar  
 11   6  26  1   
 12   7   8  1   
 13   8   9  am  
 14   8  27  1   
 15   9  10  2   
 16   9  11  1   
 17  11  12  ar  
 18  11  13  ar  
 19  12  14  ar  
 20  12  15  1   
 21  13  16  ar  
 22  13  28  1   
 23  14  17  ar  
 24  15  18  1   
 25  15  19  1   
 26  16  17  ar  
 27  16  29  1   
 28  17  30  1   
 29  18  20  1   
 30  18  31  1   
 31  18  32  1   
 32  19  21  1   
 33  19  33  1   
 34  19  34  1   
 35  20  22  1   
 36  20  35  1   
 37  20  36  1   
 38  21  22  1   
 39  21  37  1   
 40  21  38  1   
 41  22  39  1   
 42  22  40  1   
@<TRIPOS>SUBSTRUCTURE
  1 ****   8 GROUP 4 **** **** 0

# MOE 2024.06 (io_trps.svl 2023.06)
