@<TRIPOS>MOLECULE
NONAME
34 35 1 0 0 
SMALL
USER_CHARGES


@<TRIPOS>ATOM
  1 S        0.1900     1.1980    -0.3320 S.o2  1 <1>   1.5760 
  2 O        0.0670     1.6800     1.0210 O.2   1 <1>  -0.6500 
  3 O        1.0000     1.8650    -1.3200 O.2   1 <1>  -0.6500 
  4 N        0.6080    -0.4360    -0.3230 N.am  1 <1>  -0.8490 
  5 N       -1.3510     1.0650    -1.0540 N.am  1 <1>  -0.7570 
  6 C        2.0640    -0.6230    -0.4210 C.3   1 <1>   0.1960 
  7 C        0.1100    -1.1420     0.8720 C.3   1 <1>   0.1960 
  8 C       -2.4890     0.5270    -0.4720 C.ar  1 <1>   0.1990 
  9 C        2.4360    -2.1170    -0.4020 C.3   1 <1>   0.1200 
 10 C        0.5260    -2.6240     0.8530 C.3   1 <1>   0.1200 
 11 C       -3.1950    -0.4650    -1.1410 C.ar  1 <1>  -0.1500 
 12 C       -2.9480     0.9490     0.7700 C.ar  1 <1>  -0.1500 
 13 O        1.9160    -2.7420     0.7370 O.3   1 <1>  -0.5600 
 14 C       -4.3230    -1.0380    -0.5800 C.ar  1 <1>  -0.1500 
 15 C       -4.0720     0.3790     1.3370 C.ar  1 <1>  -0.1500 
 16 C       -4.7670    -0.6180     0.6710 C.ar  1 <1>   0.0820 
 17 O       -5.8590    -1.1270     1.3000 O.3   1 <1>  -0.3630 
 18 C       -6.6760    -2.0880     0.6700 C.3   1 <1>   0.0400 
 19 H       -1.2060     0.8990    -2.0400 H     1 <1>   0.4200 
 20 H        2.5570    -0.1240     0.3970 H     1 <1>   0.0800 
 21 H        2.4240    -0.1910    -1.3400 H     1 <1>   0.0800 
 22 H       -0.9620    -1.0850     0.9140 H     1 <1>   0.0800 
 23 H        0.5010    -0.6860     1.7660 H     1 <1>   0.0800 
 24 H        3.5050    -2.2340    -0.3810 H     1 <1>   0.0800 
 25 H        2.0490    -2.6130    -1.2750 H     1 <1>   0.0800 
 26 H        0.0650    -3.1340     0.0260 H     1 <1>   0.0800 
 27 H        0.2300    -3.1050     1.7680 H     1 <1>   0.0800 
 28 H       -2.8560    -0.7950    -2.1050 H     1 <1>   0.1500 
 29 H       -2.4260     1.7290     1.2950 H     1 <1>   0.1500 
 30 H       -4.8400    -1.8050    -1.1260 H     1 <1>   0.1500 
 31 H       -4.4220     0.7060     2.3000 H     1 <1>   0.1500 
 32 H       -7.4900    -2.3210     1.3330 H     1 <1>   0.0800 
 33 H       -6.0950    -2.9730     0.4820 H     1 <1>   0.0800 
 34 H       -7.0600    -1.6750    -0.2460 H     1 <1>   0.0800 
@<TRIPOS>BOND
  1   1   2  2   
  2   1   3  2   
  3   1   4  am  
  4   1   5  am  
  5   4   6  1   
  6   4   7  1   
  7   5   8  1   
  8   5  19  1   
  9   6   9  1   
 10   6  20  1   
 11   6  21  1   
 12   7  10  1   
 13   7  22  1   
 14   7  23  1   
 15   8  11  ar  
 16   8  12  ar  
 17   9  13  1   
 18   9  24  1   
 19   9  25  1   
 20  10  13  1   
 21  10  26  1   
 22  10  27  1   
 23  11  14  ar  
 24  11  28  1   
 25  12  15  ar  
 26  12  29  1   
 27  14  16  ar  
 28  14  30  1   
 29  15  16  ar  
 30  15  31  1   
 31  16  17  1   
 32  17  18  1   
 33  18  32  1   
 34  18  33  1   
 35  18  34  1   
@<TRIPOS>SUBSTRUCTURE
  1 ****   8 GROUP 4 **** **** 0

# MOE 2024.06 (io_trps.svl 2023.06)
