@<TRIPOS>MOLECULE
NONAME
46 47 1 0 0 
SMALL
USER_CHARGES


@<TRIPOS>ATOM
  1 O       -3.6920     4.1910     1.0320 O.3   1 <1>  -0.5600 
  2 C       -4.5230     4.9920     0.2420 C.3   1 <1>   0.1200 
  3 C       -4.3230     3.0790     1.5990 C.3   1 <1>   0.1200 
  4 C       -5.0970     4.1750    -0.9330 C.3   1 <1>   0.3430 
  5 C       -4.8730     2.1590     0.4940 C.3   1 <1>   0.3430 
  6 N       -5.7610     2.9160    -0.4550 N.4   1 <1>  -0.9590 
  7 C       -6.2770     2.0650    -1.5760 C.3   1 <1>   0.3430 
  8 C       -7.2580     0.9910    -1.0750 C.3   1 <1>   0.1200 
  9 O       -7.9240     1.4740     0.0760 O.3   1 <1>  -0.3630 
 10 C       -9.2760     1.5130     0.0510 C.ar  1 <1>   0.0820 
 11 C       -9.9160     2.7400    -0.1160 C.ar  1 <1>  -0.1440 
 12 C      -10.0110     0.3410     0.2170 C.ar  1 <1>  -0.1440 
 13 C      -11.3010     2.7770    -0.1310 C.ar  1 <1>  -0.1500 
 14 C       -9.1360     4.0370    -0.2960 C.3   1 <1>   0.1220 
 15 C      -11.3930     0.4070     0.1880 C.ar  1 <1>  -0.1500 
 16 C       -9.3450    -1.0090     0.4480 C.3   1 <1>  -0.0970 
 17 C      -12.0430     1.6170     0.0140 C.ar  1 <1>  -0.1440 
 18 C       -8.3630     4.4210     0.9580 C.2   1 <1>  -0.2880 
 19 C      -13.5600     1.6730    -0.0070 C.3   1 <1>  -0.0970 
 20 C       -8.0420     5.6710     1.3040 C.2   1 <1>  -0.3000 
 21 H       -3.9310     5.8100    -0.1300 H     1 <1>   0.0800 
 22 H       -5.3080     5.3910     0.8590 H     1 <1>   0.0800 
 23 H       -5.1110     3.4190     2.2490 H     1 <1>   0.0800 
 24 H       -3.5930     2.5540     2.1910 H     1 <1>   0.0800 
 25 H       -4.2880     3.9290    -1.6000 H     1 <1>   0.0800 
 26 H       -5.8030     4.7820    -1.4740 H     1 <1>   0.0800 
 27 H       -5.4250     1.3520     0.9480 H     1 <1>   0.0800 
 28 H       -4.0400     1.7360    -0.0430 H     1 <1>   0.0800 
 29 H       -6.5970     3.1850     0.0960 H     1 <1>   0.4500 
 30 H       -5.4620     1.5980    -2.1050 H     1 <1>   0.0800 
 31 H       -6.8030     2.6890    -2.2790 H     1 <1>   0.0800 
 32 H       -6.7310     0.0970    -0.7960 H     1 <1>   0.0800 
 33 H       -7.9780     0.7460    -1.8380 H     1 <1>   0.0800 
 34 H      -11.8160     3.7140    -0.2540 H     1 <1>   0.1500 
 35 H       -9.8030     4.8400    -0.5590 H     1 <1>   0.0800 
 36 H       -8.4570     3.9150    -1.1180 H     1 <1>   0.0800 
 37 H      -11.9760    -0.4900     0.3100 H     1 <1>   0.1500 
 38 H       -8.5050    -0.9040     1.1100 H     1 <1>   0.0800 
 39 H       -9.0120    -1.4210    -0.4870 H     1 <1>   0.0800 
 40 H      -10.0360    -1.6990     0.8980 H     1 <1>   0.0800 
 41 H       -8.1120     3.5740     1.5760 H     1 <1>   0.1500 
 42 H      -13.8990     2.4760    -0.6370 H     1 <1>   0.0800 
 43 H      -13.9300     1.8320     0.9890 H     1 <1>   0.0800 
 44 H      -13.9650     0.7520    -0.3860 H     1 <1>   0.0800 
 45 H       -7.5150     5.9300     2.2080 H     1 <1>   0.1500 
 46 H       -8.2910     6.5470     0.7280 H     1 <1>   0.1500 
@<TRIPOS>BOND
  1   1   2  1   
  2   1   3  1   
  3   2   4  1   
  4   2  21  1   
  5   2  22  1   
  6   3   5  1   
  7   3  23  1   
  8   3  24  1   
  9   4   6  1   
 10   4  25  1   
 11   4  26  1   
 12   5   6  1   
 13   5  27  1   
 14   5  28  1   
 15   6   7  1   
 16   6  29  1   
 17   7   8  1   
 18   7  30  1   
 19   7  31  1   
 20   8   9  1   
 21   8  32  1   
 22   8  33  1   
 23   9  10  1   
 24  10  11  ar  
 25  10  12  ar  
 26  11  13  ar  
 27  11  14  1   
 28  12  15  ar  
 29  12  16  1   
 30  13  17  ar  
 31  13  34  1   
 32  14  18  1   
 33  14  35  1   
 34  14  36  1   
 35  15  17  ar  
 36  15  37  1   
 37  16  38  1   
 38  16  39  1   
 39  16  40  1   
 40  17  19  1   
 41  18  20  2   
 42  18  41  1   
 43  19  42  1   
 44  19  43  1   
 45  19  44  1   
 46  20  45  1   
 47  20  46  1   
@<TRIPOS>SUBSTRUCTURE
  1 ****   9 GROUP 4 **** **** 0

# MOE 2024.06 (io_trps.svl 2023.06)
