@<TRIPOS>MOLECULE
NONAME
36 37 1 0 0 
SMALL
USER_CHARGES


@<TRIPOS>ATOM
  1 CL       7.0770     2.0680     0.4790 Cl    1 <1>  -0.1770 
  2 C        5.4590     1.4280     0.2630 C.ar  1 <1>   0.1770 
  3 C        4.4240     2.2970    -0.0570 C.ar  1 <1>  -0.1440 
  4 C        5.2460     0.0630     0.4150 C.ar  1 <1>  -0.1440 
  5 C        3.1490     1.7810    -0.2280 C.ar  1 <1>  -0.1500 
  6 C        4.6680     3.7900    -0.2200 C.3   1 <1>  -0.0960 
  7 C        3.9630    -0.4320     0.2420 C.ar  1 <1>  -0.1500 
  8 C        6.3880    -0.8800     0.7640 C.3   1 <1>  -0.0960 
  9 C        2.9150     0.4190    -0.0730 C.ar  1 <1>   0.0830 
 10 O        1.6880    -0.1370    -0.2450 O.3   1 <1>  -0.2320 
 11 C        0.5100     0.3790     0.1390 C.2   1 <1>   0.7800 
 12 O        0.4720     1.3960     0.8060 O.2   1 <1>  -0.5700 
 13 N       -0.6310    -0.2840    -0.2450 N.am  1 <1>  -0.6600 
 14 C       -1.9810     0.1740     0.1810 C.3   1 <1>   0.1400 
 15 C       -0.6290    -1.5170    -1.0790 C.3   1 <1>   0.1400 
 16 C       -2.6880    -0.9490     0.9480 C.3   1 <1>  -0.1600 
 17 C       -1.3220    -2.6530    -0.3190 C.3   1 <1>  -0.1600 
 18 C       -2.7330    -2.2520     0.1350 C.3   1 <1>  -0.1600 
 19 H        2.3350     2.4360    -0.4820 H     1 <1>   0.1500 
 20 H        5.0650     4.1980     0.6920 H     1 <1>   0.0800 
 21 H        3.7560     4.3080    -0.4550 H     1 <1>   0.0800 
 22 H        5.3730     3.9630    -1.0140 H     1 <1>   0.0800 
 23 H        3.7630    -1.4830     0.3500 H     1 <1>   0.1500 
 24 H        6.8240    -0.5950     1.7050 H     1 <1>   0.0800 
 25 H        7.1460    -0.8360     0.0020 H     1 <1>   0.0800 
 26 H        6.0420    -1.8950     0.8420 H     1 <1>   0.0800 
 27 H       -2.5530     0.4370    -0.6930 H     1 <1>   0.0800 
 28 H       -1.9090     1.0470     0.8070 H     1 <1>   0.0800 
 29 H        0.3730    -1.8140    -1.3340 H     1 <1>   0.0800 
 30 H       -1.1590    -1.3170    -1.9950 H     1 <1>   0.0800 
 31 H       -3.6880    -0.6380     1.1900 H     1 <1>   0.0800 
 32 H       -2.1650    -1.1160     1.8730 H     1 <1>   0.0800 
 33 H       -0.7250    -2.9110     0.5390 H     1 <1>   0.0800 
 34 H       -1.3800    -3.5210    -0.9510 H     1 <1>   0.0800 
 35 H       -3.3600    -2.1110    -0.7290 H     1 <1>   0.0800 
 36 H       -3.1610    -3.0380     0.7330 H     1 <1>   0.0800 
@<TRIPOS>BOND
  1   1   2  1   
  2   2   3  ar  
  3   2   4  ar  
  4   3   5  ar  
  5   3   6  1   
  6   4   7  ar  
  7   4   8  1   
  8   5   9  ar  
  9   5  19  1   
 10   6  20  1   
 11   6  21  1   
 12   6  22  1   
 13   7   9  ar  
 14   7  23  1   
 15   8  24  1   
 16   8  25  1   
 17   8  26  1   
 18   9  10  1   
 19  10  11  1   
 20  11  12  2   
 21  11  13  am  
 22  13  14  1   
 23  13  15  1   
 24  14  16  1   
 25  14  27  1   
 26  14  28  1   
 27  15  17  1   
 28  15  29  1   
 29  15  30  1   
 30  16  18  1   
 31  16  31  1   
 32  16  32  1   
 33  17  18  1   
 34  17  33  1   
 35  17  34  1   
 36  18  35  1   
 37  18  36  1   
@<TRIPOS>SUBSTRUCTURE
  1 ****  10 GROUP 4 **** **** 0

# MOE 2024.06 (io_trps.svl 2023.06)
