@<TRIPOS>MOLECULE
NONAME
40 41 1 0 0 
SMALL
USER_CHARGES


@<TRIPOS>ATOM
  1 S       -1.1940    -0.0330     0.1900 S.3   1 <1>  -0.0800 
  2 C       -1.8390     0.9710    -1.1000 C.2   1 <1>  -0.1400 
  3 C        0.3020     0.8820     0.2140 C.2   1 <1>  -0.1400 
  4 C       -0.9470     1.9160    -1.4560 C.2   1 <1>  -0.1500 
  5 C       -3.2300     0.6370    -1.5810 C.3   1 <1>   0.5230 
  6 C        0.2700     1.8630    -0.7060 C.2   1 <1>  -0.1500 
  7 C        1.3630     0.4590     1.2080 C.3   1 <1>  -0.0600 
  8 N       -4.1490     0.7790    -0.4070 N.4   1 <1>  -0.9590 
  9 C       -5.4220    -0.0080    -0.5150 C.3   1 <1>   0.4230 
 10 C       -4.3270     2.2480    -0.1330 C.3   1 <1>   0.2630 
 11 C       -6.3250     0.2600     0.7000 C.3   1 <1>  -0.1600 
 12 C       -5.1080    -1.5120    -0.5990 C.3   1 <1>  -0.1600 
 13 C       -7.5770    -0.6190     0.6930 C.3   1 <1>   0.3430 
 14 C       -6.3760    -2.3680    -0.5840 C.3   1 <1>   0.3430 
 15 N       -7.1910    -2.0550     0.6210 N.4   1 <1>  -0.9590 
 16 C       -8.4140    -2.9240     0.6620 C.3   1 <1>   0.2630 
 17 H       -1.0730     2.6640    -2.2220 H     1 <1>   0.1500 
 18 H       -3.2230    -0.3720    -1.9540 H     1 <1>   0.0800 
 19 H       -3.5220     1.3000    -2.3790 H     1 <1>   0.0800 
 20 H        1.0660     2.5650    -0.8950 H     1 <1>   0.1500 
 21 H        2.2260     1.0940     1.1230 H     1 <1>   0.0800 
 22 H        1.6620    -0.5560     1.0180 H     1 <1>   0.0800 
 23 H        0.9810     0.5290     2.2110 H     1 <1>   0.0800 
 24 H       -3.5920     0.4040     0.3760 H     1 <1>   0.4500 
 25 H       -5.9480     0.2920    -1.4090 H     1 <1>   0.0800 
 26 H       -4.8980     2.7150    -0.9190 H     1 <1>   0.0800 
 27 H       -3.3660     2.7370    -0.0730 H     1 <1>   0.0800 
 28 H       -4.8330     2.4040     0.8050 H     1 <1>   0.0800 
 29 H       -6.6630     1.2800     0.6930 H     1 <1>   0.0800 
 30 H       -5.7870     0.0890     1.6150 H     1 <1>   0.0800 
 31 H       -4.4800    -1.8110     0.2230 H     1 <1>   0.0800 
 32 H       -4.5930    -1.7390    -1.5130 H     1 <1>   0.0800 
 33 H       -8.1970    -0.3660    -0.1530 H     1 <1>   0.0800 
 34 H       -8.1490    -0.4370     1.5900 H     1 <1>   0.0800 
 35 H       -6.1050    -3.4130    -0.5820 H     1 <1>   0.0800 
 36 H       -6.9560    -2.1770    -1.4740 H     1 <1>   0.0800 
 37 H       -6.6360    -2.2880     1.4620 H     1 <1>   0.4500 
 38 H       -9.0440    -2.7320    -0.1920 H     1 <1>   0.0800 
 39 H       -8.9830    -2.7310     1.5580 H     1 <1>   0.0800 
 40 H       -8.1360    -3.9660     0.6560 H     1 <1>   0.0800 
@<TRIPOS>BOND
  1   1   2  1   
  2   1   3  1   
  3   2   4  2   
  4   2   5  1   
  5   3   6  2   
  6   3   7  1   
  7   4   6  1   
  8   4  17  1   
  9   5   8  1   
 10   5  18  1   
 11   5  19  1   
 12   6  20  1   
 13   7  21  1   
 14   7  22  1   
 15   7  23  1   
 16   8   9  1   
 17   8  10  1   
 18   8  24  1   
 19   9  11  1   
 20   9  12  1   
 21   9  25  1   
 22  10  26  1   
 23  10  27  1   
 24  10  28  1   
 25  11  13  1   
 26  11  29  1   
 27  11  30  1   
 28  12  14  1   
 29  12  31  1   
 30  12  32  1   
 31  13  15  1   
 32  13  33  1   
 33  13  34  1   
 34  14  15  1   
 35  14  35  1   
 36  14  36  1   
 37  15  16  1   
 38  15  37  1   
 39  16  38  1   
 40  16  39  1   
 41  16  40  1   
@<TRIPOS>SUBSTRUCTURE
  1 ****   8 GROUP 4 **** **** 0

# MOE 2024.06 (io_trps.svl 2023.06)
