@<TRIPOS>MOLECULE
NONAME
44 45 1 0 0 
SMALL
USER_CHARGES


@<TRIPOS>ATOM
  1 O       -4.5560    -6.0170     0.5720 O.3   1 <1>  -0.5600 
  2 C       -4.5970    -4.6200     0.6050 C.3   1 <1>   0.1200 
  3 C       -3.6160    -6.5220    -0.3280 C.3   1 <1>   0.1200 
  4 C       -3.2200    -4.0560     1.0000 C.3   1 <1>   0.1100 
  5 C       -2.2060    -6.0230     0.0400 C.3   1 <1>   0.1100 
  6 N       -2.1540    -4.5410     0.0930 N.3   1 <1>  -0.8100 
  7 C       -0.8410    -4.0330     0.5050 C.3   1 <1>   0.1100 
  8 C        0.1400    -4.0980    -0.6730 C.3   1 <1>   0.3430 
  9 N        1.4520    -3.4970    -0.3170 N.4   1 <1>  -0.9060 
 10 C        2.4650    -3.6080    -1.3840 C.3   1 <1>   0.4860 
 11 C        3.7760    -3.1270    -0.8030 C.ar  1 <1>  -0.1440 
 12 C        4.3330    -3.7750     0.2980 C.ar  1 <1>   0.0820 
 13 C        4.4310    -2.0440    -1.3710 C.ar  1 <1>  -0.1500 
 14 O        3.6420    -4.8220     0.8240 O.3   1 <1>  -0.3620 
 15 C        5.5460    -3.3310     0.8160 C.ar  1 <1>  -0.1500 
 16 C        5.6350    -1.6080    -0.8480 C.ar  1 <1>  -0.1500 
 17 C        4.2210    -5.6660     1.7980 C.3   1 <1>   0.1200 
 18 C        6.1920    -2.2500     0.2420 C.ar  1 <1>  -0.1500 
 19 C        3.2300    -6.7870     2.0970 C.3   1 <1>  -0.2400 
 20 H       -5.3420    -4.3310     1.3260 H     1 <1>   0.0800 
 21 H       -4.8930    -4.2590    -0.3640 H     1 <1>   0.0800 
 22 H       -3.8850    -6.2080    -1.3220 H     1 <1>   0.0800 
 23 H       -3.6590    -7.5950    -0.2780 H     1 <1>   0.0800 
 24 H       -3.0080    -4.3490     2.0150 H     1 <1>   0.0800 
 25 H       -3.2660    -2.9810     0.9630 H     1 <1>   0.0800 
 26 H       -1.5120    -6.3910    -0.6940 H     1 <1>   0.0800 
 27 H       -1.9390    -6.4380     0.9980 H     1 <1>   0.0800 
 28 H       -0.4740    -4.6020     1.3430 H     1 <1>   0.0800 
 29 H       -0.9460    -3.0030     0.8030 H     1 <1>   0.0800 
 30 H       -0.2910    -3.5670    -1.5060 H     1 <1>   0.0800 
 31 H        0.2760    -5.1280    -0.9560 H     1 <1>   0.0800 
 32 H        1.8810    -3.9880     0.4860 H     1 <1>   0.4500 
 33 H        1.3680    -2.5120    -0.0450 H     1 <1>   0.4500 
 34 H        2.1870    -3.0090    -2.2360 H     1 <1>   0.0800 
 35 H        2.5710    -4.6350    -1.6940 H     1 <1>   0.0800 
 36 H        4.0220    -1.5290    -2.2240 H     1 <1>   0.1500 
 37 H        6.0070    -3.8040     1.6630 H     1 <1>   0.1500 
 38 H        6.1450    -0.7670    -1.2910 H     1 <1>   0.1500 
 39 H        4.4180    -5.0880     2.6850 H     1 <1>   0.0800 
 40 H        5.1400    -6.0660     1.4040 H     1 <1>   0.0800 
 41 H        7.1310    -1.9080     0.6440 H     1 <1>   0.1500 
 42 H        2.3140    -6.3860     2.4920 H     1 <1>   0.0800 
 43 H        3.6510    -7.4510     2.8310 H     1 <1>   0.0800 
 44 H        3.0280    -7.3550     1.2070 H     1 <1>   0.0800 
@<TRIPOS>BOND
  1   1   2  1   
  2   1   3  1   
  3   2   4  1   
  4   2  20  1   
  5   2  21  1   
  6   3   5  1   
  7   3  22  1   
  8   3  23  1   
  9   4   6  1   
 10   4  24  1   
 11   4  25  1   
 12   5   6  1   
 13   5  26  1   
 14   5  27  1   
 15   6   7  1   
 16   7   8  1   
 17   7  28  1   
 18   7  29  1   
 19   8   9  1   
 20   8  30  1   
 21   8  31  1   
 22   9  10  1   
 23   9  32  1   
 24   9  33  1   
 25  10  11  1   
 26  10  34  1   
 27  10  35  1   
 28  11  12  ar  
 29  11  13  ar  
 30  12  14  1   
 31  12  15  ar  
 32  13  16  ar  
 33  13  36  1   
 34  14  17  1   
 35  15  18  ar  
 36  15  37  1   
 37  16  18  ar  
 38  16  38  1   
 39  17  19  1   
 40  17  39  1   
 41  17  40  1   
 42  18  41  1   
 43  19  42  1   
 44  19  43  1   
 45  19  44  1   
@<TRIPOS>SUBSTRUCTURE
  1 ****   9 GROUP 4 **** **** 0

# MOE 2024.06 (io_trps.svl 2023.06)
