@<TRIPOS>MOLECULE
NONAME
32 32 1 0 0 
SMALL
USER_CHARGES


@<TRIPOS>ATOM
  1 CL      -0.1030     0.5200    -0.3320 Cl    1 <1>  -0.1770 
  2 C       -1.5380    -0.4710    -0.3870 C.ar  1 <1>   0.1770 
  3 C       -2.7620     0.1200    -0.6360 C.ar  1 <1>  -0.1500 
  4 C       -1.4280    -1.8330    -0.1820 C.ar  1 <1>  -0.1500 
  5 C       -3.9080    -0.6600    -0.6840 C.ar  1 <1>  -0.1440 
  6 C       -2.5670    -2.6180    -0.2240 C.ar  1 <1>  -0.1500 
  7 C       -3.8120    -2.0360    -0.4690 C.ar  1 <1>   0.0830 
  8 C       -5.2460     0.0160    -0.9630 C.3   1 <1>   0.1220 
  9 O       -4.9620    -2.7600    -0.5060 O.3   1 <1>  -0.3620 
 10 C       -5.9410     0.3670     0.3410 C.2   1 <1>  -0.2880 
 11 C       -5.0100    -4.1000    -0.0830 C.3   1 <1>   0.1200 
 12 C       -6.3390     1.5920     0.6990 C.2   1 <1>  -0.3000 
 13 C       -6.4810    -4.5230    -0.1080 C.3   1 <1>   0.3430 
 14 N       -6.6670    -5.9390     0.3410 N.4   1 <1>  -0.9060 
 15 C       -8.1050    -6.3420     0.3200 C.3   1 <1>   0.2630 
 16 H       -2.8080     1.1830    -0.7870 H     1 <1>   0.1500 
 17 H       -0.4610    -2.2640     0.0060 H     1 <1>   0.1500 
 18 H       -2.4560    -3.6730    -0.0650 H     1 <1>   0.1500 
 19 H       -5.8770    -0.6320    -1.5450 H     1 <1>   0.0800 
 20 H       -5.0890     0.9090    -1.5430 H     1 <1>   0.0800 
 21 H       -6.0840    -0.4920     0.9730 H     1 <1>   0.1500 
 22 H       -4.6100    -4.1490     0.9140 H     1 <1>   0.0800 
 23 H       -4.4240    -4.6860    -0.7690 H     1 <1>   0.0800 
 24 H       -6.8280     1.8160     1.6320 H     1 <1>   0.1500 
 25 H       -6.2120     2.4740     0.0950 H     1 <1>   0.1500 
 26 H       -6.8550    -4.4110    -1.1130 H     1 <1>   0.0800 
 27 H       -7.0390    -3.8640     0.5380 H     1 <1>   0.0800 
 28 H       -6.2960    -6.0530     1.2960 H     1 <1>   0.4500 
 29 H       -6.1280    -6.5710    -0.2670 H     1 <1>   0.4500 
 30 H       -8.6830    -5.7110     0.9770 H     1 <1>   0.0800 
 31 H       -8.2130    -7.3650     0.6470 H     1 <1>   0.0800 
 32 H       -8.5050    -6.2590    -0.6780 H     1 <1>   0.0800 
@<TRIPOS>BOND
  1   1   2  1   
  2   2   3  ar  
  3   2   4  ar  
  4   3   5  ar  
  5   3  16  1   
  6   4   6  ar  
  7   4  17  1   
  8   5   7  ar  
  9   5   8  1   
 10   6   7  ar  
 11   6  18  1   
 12   7   9  1   
 13   8  10  1   
 14   8  19  1   
 15   8  20  1   
 16   9  11  1   
 17  10  12  2   
 18  10  21  1   
 19  11  13  1   
 20  11  22  1   
 21  11  23  1   
 22  12  24  1   
 23  12  25  1   
 24  13  14  1   
 25  13  26  1   
 26  13  27  1   
 27  14  15  1   
 28  14  28  1   
 29  14  29  1   
 30  15  30  1   
 31  15  31  1   
 32  15  32  1   
@<TRIPOS>SUBSTRUCTURE
  1 ****   7 GROUP 4 **** **** 0

# MOE 2024.06 (io_trps.svl 2023.06)
