@<TRIPOS>MOLECULE
NONAME
28 28 1 0 0 
SMALL
USER_CHARGES


@<TRIPOS>ATOM
  1 I        0.5300    -0.2120    -0.7800 I     1 <1>  -0.0810 
  2 C       -1.5770     0.0000    -0.5590 C.ar  1 <1>   0.0810 
  3 C       -2.2870    -1.0200     0.0420 C.ar  1 <1>  -0.1500 
  4 C       -2.1830     1.1540    -1.0220 C.ar  1 <1>  -0.1500 
  5 C       -3.6520    -0.8560     0.1720 C.ar  1 <1>   0.1770 
  6 C       -3.5540     1.2910    -0.8780 C.ar  1 <1>  -0.1500 
  7 CL      -4.5730    -2.1380     0.9330 Cl    1 <1>  -0.1770 
  8 C       -4.3180     0.2880    -0.2770 C.ar  1 <1>   0.1170 
  9 N       -5.7150     0.3700    -0.1020 N.am  1 <1>  -0.5470 
 10 C       -6.6530     1.3110    -0.4350 C.2   1 <1>   0.5690 
 11 O       -6.3690     2.3400    -1.0000 O.2   1 <1>  -0.5700 
 12 C       -8.1380     1.0470    -0.0720 C.3   1 <1>   0.0610 
 13 C       -8.6530     2.1600     0.8600 C.3   1 <1>  -0.2400 
 14 C       -8.9950     1.0440    -1.3520 C.3   1 <1>  -0.2400 
 15 C       -8.3590    -0.3050     0.6450 C.3   1 <1>  -0.2400 
 16 H       -1.8010    -1.9100     0.3970 H     1 <1>   0.1500 
 17 H       -1.6010     1.9310    -1.4860 H     1 <1>   0.1500 
 18 H       -4.0210     2.1890    -1.2390 H     1 <1>   0.1500 
 19 H       -6.1090    -0.4470     0.3660 H     1 <1>   0.3700 
 20 H       -8.0750     2.1860     1.7670 H     1 <1>   0.0800 
 21 H       -9.6860     2.0050     1.1140 H     1 <1>   0.0800 
 22 H       -8.5630     3.1190     0.3790 H     1 <1>   0.0800 
 23 H       -8.9090     1.9900    -1.8590 H     1 <1>   0.0800 
 24 H      -10.0320     0.8760    -1.1220 H     1 <1>   0.0800 
 25 H       -8.6610     0.2740    -2.0240 H     1 <1>   0.0800 
 26 H       -9.4020    -0.4410     0.8740 H     1 <1>   0.0800 
 27 H       -8.0510    -1.1250     0.0190 H     1 <1>   0.0800 
 28 H       -7.8110    -0.3430     1.5700 H     1 <1>   0.0800 
@<TRIPOS>BOND
  1   1   2  1   
  2   2   3  ar  
  3   2   4  ar  
  4   3   5  ar  
  5   3  16  1   
  6   4   6  ar  
  7   4  17  1   
  8   5   7  1   
  9   5   8  ar  
 10   6   8  ar  
 11   6  18  1   
 12   8   9  1   
 13   9  10  am  
 14   9  19  1   
 15  10  11  2   
 16  10  12  1   
 17  12  13  1   
 18  12  14  1   
 19  12  15  1   
 20  13  20  1   
 21  13  21  1   
 22  13  22  1   
 23  14  23  1   
 24  14  24  1   
 25  14  25  1   
 26  15  26  1   
 27  15  27  1   
 28  15  28  1   
@<TRIPOS>SUBSTRUCTURE
  1 ****   8 GROUP 4 **** **** 0

# MOE 2024.06 (io_trps.svl 2023.06)
