@<TRIPOS>MOLECULE
NONAME
36 38 1 0 0 
SMALL
USER_CHARGES


@<TRIPOS>ATOM
  1 S        0.1370     0.0880    -0.6140 S.3   1 <1>  -0.0800 
  2 C        1.1060     1.4960    -0.2490 C.2   1 <1>   0.1660 
  3 C       -1.3400     1.0060    -0.3840 C.2   1 <1>  -0.1100 
  4 N        2.4550     1.4440    -0.2650 N.2   1 <1>  -0.5760 
  5 C        0.3380     2.5770     0.0300 C.2   1 <1>  -0.0860 
  6 C       -1.0800     2.2890    -0.0540 C.2   1 <1>  -0.1810 
  7 C        3.0840     2.5250     0.0410 C.2   1 <1>   0.4490 
  8 C        1.0580     3.7680     0.3490 C.2   1 <1>   0.7160 
  9 C       -2.1460     3.3550     0.2040 C.3   1 <1>   0.1010 
 10 N        2.4480     3.7130     0.3990 N.am  1 <1>  -0.4200 
 11 C        4.6060     2.3880    -0.0250 C.3   1 <1>  -0.0990 
 12 O        0.4810     4.8260     0.5690 O.2   1 <1>  -0.5700 
 13 C       -3.4940     2.7410     0.6030 C.3   1 <1>  -0.2400 
 14 C       -2.3240     4.2230    -1.0450 C.3   1 <1>  -0.2400 
 15 C        3.1380     4.9930     0.7930 C.3   1 <1>   0.1400 
 16 C        5.3630     3.6120    -0.5560 C.3   1 <1>  -0.1600 
 17 C        4.4770     4.8260     1.5160 C.3   1 <1>  -0.1600 
 18 C        5.6540     4.6250     0.5540 C.3   1 <1>  -0.1600 
 19 H       -2.2630     0.4740    -0.5290 H     1 <1>   0.1500 
 20 H       -1.8270     3.9760     1.0240 H     1 <1>   0.0800 
 21 H        4.8290     1.5680    -0.6860 H     1 <1>   0.0800 
 22 H        4.9780     2.1030     0.9420 H     1 <1>   0.0800 
 23 H       -3.9070     2.1650    -0.2050 H     1 <1>   0.0800 
 24 H       -4.1910     3.5180     0.8600 H     1 <1>   0.0800 
 25 H       -3.3670     2.1020     1.4590 H     1 <1>   0.0800 
 26 H       -2.6500     3.6210    -1.8750 H     1 <1>   0.0800 
 27 H       -1.3940     4.6920    -1.3090 H     1 <1>   0.0800 
 28 H       -3.0520     4.9930    -0.8640 H     1 <1>   0.0800 
 29 H        2.5020     5.5360     1.4720 H     1 <1>   0.0800 
 30 H        3.2620     5.6080    -0.0820 H     1 <1>   0.0800 
 31 H        4.7950     4.0690    -1.3500 H     1 <1>   0.0800 
 32 H        6.3010     3.2930    -0.9790 H     1 <1>   0.0800 
 33 H        4.4070     4.0220     2.2270 H     1 <1>   0.0800 
 34 H        4.6690     5.7220     2.0810 H     1 <1>   0.0800 
 35 H        5.9160     5.5660     0.1000 H     1 <1>   0.0800 
 36 H        6.5070     4.2950     1.1230 H     1 <1>   0.0800 
@<TRIPOS>BOND
  1   1   2  1   
  2   1   3  1   
  3   2   4  1   
  4   2   5  2   
  5   3   6  2   
  6   3  19  1   
  7   4   7  2   
  8   5   6  1   
  9   5   8  1   
 10   6   9  1   
 11   7  10  1   
 12   7  11  1   
 13   8  10  am  
 14   8  12  2   
 15   9  13  1   
 16   9  14  1   
 17   9  20  1   
 18  10  15  1   
 19  11  16  1   
 20  11  21  1   
 21  11  22  1   
 22  13  23  1   
 23  13  24  1   
 24  13  25  1   
 25  14  26  1   
 26  14  27  1   
 27  14  28  1   
 28  15  17  1   
 29  15  29  1   
 30  15  30  1   
 31  16  18  1   
 32  16  31  1   
 33  16  32  1   
 34  17  18  1   
 35  17  33  1   
 36  17  34  1   
 37  18  35  1   
 38  18  36  1   
@<TRIPOS>SUBSTRUCTURE
  1 ****   8 GROUP 4 **** **** 0

# MOE 2024.06 (io_trps.svl 2023.06)
