@<TRIPOS>MOLECULE
NONAME
41 42 1 0 0 
SMALL
USER_CHARGES


@<TRIPOS>ATOM
  1 I        1.7880    -0.0500     1.3860 I     1 <1>  -0.0810 
  2 C        0.7010    -1.7460     0.6680 C.ar  1 <1>   0.0810 
  3 C        1.0820    -2.3890    -0.5010 C.ar  1 <1>   0.0830 
  4 C       -0.3860    -2.1630     1.4140 C.ar  1 <1>  -0.1500 
  5 O        2.1380    -1.9850    -1.2390 O.3   1 <1>  -0.5330 
  6 C        0.3500    -3.4900    -0.9340 C.ar  1 <1>   0.0830 
  7 C       -1.1220    -3.2550     0.9770 C.ar  1 <1>  -0.1430 
  8 O        0.7610    -4.1010    -2.0840 O.3   1 <1>  -0.3630 
  9 C       -0.7510    -3.9130    -0.1900 C.ar  1 <1>  -0.1500 
 10 C       -2.3370    -3.7260     1.7630 C.3   1 <1>   0.2530 
 11 C        0.1980    -5.3260    -2.4990 C.3   1 <1>   0.0400 
 12 N       -3.5720    -3.5030     0.9850 N.3   1 <1>  -0.8100 
 13 C       -4.7580    -4.0580     1.6770 C.3   1 <1>   0.1100 
 14 C       -3.7810    -2.0650     0.6660 C.3   1 <1>   0.1100 
 15 C       -6.0560    -3.8870     0.8480 C.3   1 <1>   0.3430 
 16 C       -5.1200    -1.7990    -0.0640 C.3   1 <1>   0.3430 
 17 N       -5.8140    -3.0840    -0.4000 N.4   1 <1>  -0.9590 
 18 C       -7.0090    -2.8880    -1.2560 C.3   1 <1>   0.3430 
 19 C       -7.4310    -4.2200    -1.8650 C.3   1 <1>  -0.2400 
 20 H       -0.6470    -1.6390     2.3160 H     1 <1>   0.1500 
 21 H        2.2350    -2.5740    -2.0140 H     1 <1>   0.4500 
 22 H       -1.3390    -4.7530    -0.5070 H     1 <1>   0.1500 
 23 H       -2.3940    -3.2070     2.7060 H     1 <1>   0.0800 
 24 H       -2.2260    -4.7780     1.9690 H     1 <1>   0.0800 
 25 H        0.7210    -5.6540    -3.3790 H     1 <1>   0.0800 
 26 H       -0.8410    -5.1740    -2.7290 H     1 <1>   0.0800 
 27 H        0.3180    -6.0510    -1.7130 H     1 <1>   0.0800 
 28 H       -4.8840    -3.5730     2.6310 H     1 <1>   0.0800 
 29 H       -4.6060    -5.1070     1.8670 H     1 <1>   0.0800 
 30 H       -2.9800    -1.7190     0.0330 H     1 <1>   0.0800 
 31 H       -3.7500    -1.4770     1.5690 H     1 <1>   0.0800 
 32 H       -6.8040    -3.4080     1.4570 H     1 <1>   0.0800 
 33 H       -6.4260    -4.8640     0.5860 H     1 <1>   0.0800 
 34 H       -4.9190    -1.2400    -0.9630 H     1 <1>   0.0800 
 35 H       -5.7520    -1.1950     0.5650 H     1 <1>   0.0800 
 36 H       -5.0980    -3.6230    -0.9120 H     1 <1>   0.4500 
 37 H       -6.7730    -2.2000    -2.0530 H     1 <1>   0.0800 
 38 H       -7.8180    -2.4700    -0.6780 H     1 <1>   0.0800 
 39 H       -6.6220    -4.6600    -2.4200 H     1 <1>   0.0800 
 40 H       -8.2470    -4.0510    -2.5460 H     1 <1>   0.0800 
 41 H       -7.7730    -4.9060    -1.1120 H     1 <1>   0.0800 
@<TRIPOS>BOND
  1   1   2  1   
  2   2   3  ar  
  3   2   4  ar  
  4   3   5  1   
  5   3   6  ar  
  6   4   7  ar  
  7   4  20  1   
  8   5  21  1   
  9   6   8  1   
 10   6   9  ar  
 11   7   9  ar  
 12   7  10  1   
 13   8  11  1   
 14   9  22  1   
 15  10  12  1   
 16  10  23  1   
 17  10  24  1   
 18  11  25  1   
 19  11  26  1   
 20  11  27  1   
 21  12  13  1   
 22  12  14  1   
 23  13  15  1   
 24  13  28  1   
 25  13  29  1   
 26  14  16  1   
 27  14  30  1   
 28  14  31  1   
 29  15  17  1   
 30  15  32  1   
 31  15  33  1   
 32  16  17  1   
 33  16  34  1   
 34  16  35  1   
 35  17  18  1   
 36  17  36  1   
 37  18  19  1   
 38  18  37  1   
 39  18  38  1   
 40  19  39  1   
 41  19  40  1   
 42  19  41  1   
@<TRIPOS>SUBSTRUCTURE
  1 ****   7 GROUP 4 **** **** 0

# MOE 2024.06 (io_trps.svl 2023.06)
