@<TRIPOS>MOLECULE
NONAME
32 32 1 0 0 
SMALL
USER_CHARGES


@<TRIPOS>ATOM
  1 S       -0.0040    -0.1500     0.7100 S.3   1 <1>  -0.3710 
  2 C        1.5600     0.6750     0.8900 C.2   1 <1>   0.6410 
  3 C       -1.1280     1.0660    -0.1650 C.3   1 <1>  -0.0360 
  4 N        2.5240     0.0600     1.4620 N.2   1 <1>  -0.6610 
  5 N        1.6170     1.9350     0.3910 N.pl3 1 <1>  -0.5500 
  6 C       -2.5190     0.5260    -0.4290 C.2   1 <1>   0.9060 
  7 C        3.6960     0.7500     1.5670 C.2   1 <1>   0.7670 
  8 C        2.7610     2.6760     0.4630 C.2   1 <1>  -0.0380 
  9 O       -3.4040     0.7440     0.4050 O.co2 1 <1>  -0.9000 
 10 O       -2.7420    -0.0220    -1.5140 O.co2 1 <1>  -0.9000 
 11 O        4.6340     0.1770     2.1040 O.2   1 <1>  -0.5700 
 12 C        3.8300     2.0930     1.0690 C.2   1 <1>  -0.1240 
 13 C        2.6820     4.0620    -0.1580 C.3   1 <1>  -0.1020 
 14 C        5.1770     2.7970     1.2470 C.3   1 <1>  -0.0220 
 15 C        6.1040     2.5020     0.0620 C.3   1 <1>  -0.1600 
 16 C        7.4490     3.2240     0.2070 C.3   1 <1>  -0.1600 
 17 C        8.3660     2.9230    -0.9820 C.3   1 <1>  -0.2400 
 18 H       -0.6730     1.3060    -1.1050 H     1 <1>   0.0800 
 19 H       -1.2110     1.9340     0.4580 H     1 <1>   0.0800 
 20 H        0.7640     2.2880    -0.0400 H     1 <1>   0.4000 
 21 H        2.0330     4.6870     0.4290 H     1 <1>   0.0800 
 22 H        2.2850     3.9910    -1.1550 H     1 <1>   0.0800 
 23 H        3.6440     4.5320    -0.2230 H     1 <1>   0.0800 
 24 H        5.6460     2.4690     2.1600 H     1 <1>   0.0800 
 25 H        5.0360     3.8580     1.3450 H     1 <1>   0.0800 
 26 H        5.6270     2.8110    -0.8520 H     1 <1>   0.0800 
 27 H        6.2740     1.4390     0.0050 H     1 <1>   0.0800 
 28 H        7.9330     2.9040     1.1150 H     1 <1>   0.0800 
 29 H        7.2880     4.2870     0.2700 H     1 <1>   0.0800 
 30 H        8.5580     1.8660    -1.0490 H     1 <1>   0.0800 
 31 H        9.3050     3.4330    -0.8610 H     1 <1>   0.0800 
 32 H        7.9130     3.2520    -1.9000 H     1 <1>   0.0800 
@<TRIPOS>BOND
  1   1   2  1   
  2   1   3  1   
  3   2   4  2   
  4   2   5  1   
  5   3   6  1   
  6   3  18  1   
  7   3  19  1   
  8   4   7  1   
  9   5   8  1   
 10   5  20  1   
 11   6   9  ar  
 12   6  10  ar  
 13   7  11  2   
 14   7  12  1   
 15   8  12  2   
 16   8  13  1   
 17  12  14  1   
 18  13  21  1   
 19  13  22  1   
 20  13  23  1   
 21  14  15  1   
 22  14  24  1   
 23  14  25  1   
 24  15  16  1   
 25  15  26  1   
 26  15  27  1   
 27  16  17  1   
 28  16  28  1   
 29  16  29  1   
 30  17  30  1   
 31  17  31  1   
 32  17  32  1   
@<TRIPOS>SUBSTRUCTURE
  1 ****   5 GROUP 4 **** **** 0

# MOE 2024.06 (io_trps.svl 2023.06)
