@<TRIPOS>MOLECULE
NONAME
53 55 1 0 0 
SMALL
USER_CHARGES


@<TRIPOS>ATOM
  1 O        1.2410     0.1650    -1.1460 O.2   1 <1>  -0.5700 
  2 C        2.1490    -0.5430    -0.7430 C.2   1 <1>   0.6900 
  3 N        1.9210    -1.9000    -0.5420 N.am  1 <1>  -0.4200 
  4 N        3.3940     0.0020    -0.4860 N.am  1 <1>  -0.4230 
  5 C        2.9180    -2.7180    -0.0400 C.2   1 <1>   0.7150 
  6 C        0.5700    -2.4650    -0.8340 C.3   1 <1>   0.0600 
  7 C        4.4030    -0.8210    -0.0040 C.2   1 <1>   0.2900 
  8 C        3.6920     1.4470    -0.6810 C.3   1 <1>   0.0600 
  9 O        2.7080    -3.9010     0.1720 O.2   1 <1>  -0.5700 
 10 C        4.1810    -2.1340     0.2170 C.2   1 <1>  -0.2370 
 11 N        5.6550    -0.4510     0.2880 N.2   1 <1>  -0.5650 
 12 N        5.3590    -2.6330     0.6820 N.pl3 1 <1>   0.0480 
 13 C        6.1950    -1.5680     0.6920 C.2   1 <1>   0.2490 
 14 C        5.6640    -4.0300     1.0610 C.3   1 <1>   0.0960 
 15 O        7.4770    -1.7120     1.1020 O.3   1 <1>  -0.1450 
 16 C        6.0650    -4.8410    -0.1790 C.3   1 <1>  -0.1600 
 17 C        8.4580    -0.8130     0.8480 C.ar  1 <1>   0.0830 
 18 C        6.2970    -6.3300     0.1310 C.3   1 <1>  -0.0800 
 19 C        9.4010    -0.5810     1.8370 C.ar  1 <1>  -0.1500 
 20 C        8.5650    -0.1410    -0.3650 C.ar  1 <1>  -0.1500 
 21 C        7.4790    -6.5440     1.0870 C.3   1 <1>  -0.2400 
 22 C        6.5520    -7.0950    -1.1730 C.3   1 <1>  -0.2400 
 23 C       10.4320     0.3140     1.6200 C.ar  1 <1>  -0.1500 
 24 C        9.5990     0.7520    -0.5730 C.ar  1 <1>  -0.1500 
 25 C       10.5630     0.9940     0.4060 C.ar  1 <1>   0.0860 
 26 C       11.6460     1.9240     0.1620 C.2   1 <1>   0.6340 
 27 O       11.4650     3.0310    -0.2920 O.2   1 <1>  -0.5700 
 28 O       12.9120     1.5730     0.4090 O.3   1 <1>  -0.4300 
 29 C       13.3740     0.2400     0.3340 C.3   1 <1>   0.0400 
 30 H        0.1470    -1.9870    -1.7000 H     1 <1>   0.0800 
 31 H       -0.0770    -2.2990     0.0090 H     1 <1>   0.0800 
 32 H        0.6300    -3.5220    -1.0290 H     1 <1>   0.0800 
 33 H        2.8430     1.9680    -1.0850 H     1 <1>   0.0800 
 34 H        4.5210     1.5520    -1.3580 H     1 <1>   0.0800 
 35 H        3.9560     1.8860     0.2650 H     1 <1>   0.0800 
 36 H        4.7960    -4.4640     1.5240 H     1 <1>   0.0800 
 37 H        6.4630    -4.0240     1.7800 H     1 <1>   0.0800 
 38 H        6.9570    -4.4200    -0.6090 H     1 <1>   0.0800 
 39 H        5.2730    -4.7650    -0.9050 H     1 <1>   0.0800 
 40 H        5.4070    -6.7340     0.5860 H     1 <1>   0.0800 
 41 H        9.3170    -1.0980     2.7760 H     1 <1>   0.1500 
 42 H        7.8420    -0.3130    -1.1420 H     1 <1>   0.1500 
 43 H        8.3760    -6.1040     0.6870 H     1 <1>   0.0800 
 44 H        7.6530    -7.5960     1.2300 H     1 <1>   0.0800 
 45 H        7.2810    -6.1130     2.0510 H     1 <1>   0.0800 
 46 H        7.4370    -6.7290    -1.6630 H     1 <1>   0.0800 
 47 H        5.7170    -6.9840    -1.8420 H     1 <1>   0.0800 
 48 H        6.6810    -8.1440    -0.9720 H     1 <1>   0.0800 
 49 H       11.1470     0.4980     2.4030 H     1 <1>   0.1500 
 50 H        9.6670     1.2780    -1.5110 H     1 <1>   0.1500 
 51 H       14.4490     0.2610     0.3090 H     1 <1>   0.0800 
 52 H       12.9980    -0.2140    -0.5670 H     1 <1>   0.0800 
 53 H       13.0430    -0.3030     1.2010 H     1 <1>   0.0800 
@<TRIPOS>BOND
  1   1   2  2   
  2   2   3  am  
  3   2   4  am  
  4   3   5  am  
  5   3   6  1   
  6   4   7  1   
  7   4   8  1   
  8   5   9  2   
  9   5  10  1   
 10   6  30  1   
 11   6  31  1   
 12   6  32  1   
 13   7  10  2   
 14   7  11  1   
 15   8  33  1   
 16   8  34  1   
 17   8  35  1   
 18  10  12  1   
 19  11  13  2   
 20  12  13  1   
 21  12  14  1   
 22  13  15  1   
 23  14  16  1   
 24  14  36  1   
 25  14  37  1   
 26  15  17  1   
 27  16  18  1   
 28  16  38  1   
 29  16  39  1   
 30  17  19  ar  
 31  17  20  ar  
 32  18  21  1   
 33  18  22  1   
 34  18  40  1   
 35  19  23  ar  
 36  19  41  1   
 37  20  24  ar  
 38  20  42  1   
 39  21  43  1   
 40  21  44  1   
 41  21  45  1   
 42  22  46  1   
 43  22  47  1   
 44  22  48  1   
 45  23  25  ar  
 46  23  49  1   
 47  24  25  ar  
 48  24  50  1   
 49  25  26  1   
 50  26  27  2   
 51  26  28  1   
 52  28  29  1   
 53  29  51  1   
 54  29  52  1   
 55  29  53  1   
@<TRIPOS>SUBSTRUCTURE
  1 ****  13 GROUP 4 **** **** 0

# MOE 2024.06 (io_trps.svl 2023.06)
