@<TRIPOS>MOLECULE
NONAME
39 41 1 0 0 
SMALL
USER_CHARGES


@<TRIPOS>ATOM
  1 O       -2.4130    -4.2350     0.6330 O.2   1 <1>  -0.5700 
  2 C       -1.4000    -3.5370     0.3990 C.2   1 <1>   0.5410 
  3 C       -1.4490    -2.1350     0.1330 C.2   1 <1>   0.0140 
  4 C       -0.1570    -4.2050     0.4070 C.2   1 <1>  -0.1360 
  5 C       -2.6620    -1.3790     0.1030 C.2   1 <1>   0.2710 
  6 C       -0.2080    -1.5060    -0.1070 C.2   1 <1>  -0.1500 
  7 C        1.0180    -3.5490     0.1670 C.2   1 <1>  -0.1500 
  8 N       -2.6340    -0.0730    -0.1690 N.2   1 <1>  -0.6210 
  9 N       -3.8570    -1.9850     0.3540 N.pl3 1 <1>  -0.6000 
 10 C        0.9890    -2.1780    -0.0930 C.2   1 <1>  -0.1500 
 11 C       -3.7700     0.6140    -0.1800 C.2   1 <1>   0.4860 
 12 C       -5.0400    -1.3420     0.3410 C.2   1 <1>  -0.0380 
 13 N       -3.6950     1.9560    -0.4400 N.pl3 1 <1>  -0.7880 
 14 C       -5.0070    -0.0170     0.0670 C.2   1 <1>  -0.1360 
 15 C       -6.2940    -2.1410     0.6230 C.3   1 <1>  -0.1020 
 16 C       -2.4760     2.5320    -1.0870 C.3   1 <1>   0.2090 
 17 C       -4.7410     2.9240     0.0070 C.3   1 <1>   0.2090 
 18 C       -2.8120     3.8410    -1.8080 C.3   1 <1>  -0.1600 
 19 C       -4.1150     4.2800     0.3460 C.3   1 <1>  -0.1600 
 20 C       -3.3840     4.9050    -0.8550 C.3   1 <1>  -0.1600 
 21 H       -0.1740    -5.2590     0.6110 H     1 <1>   0.1500 
 22 H       -0.1960    -0.4480    -0.3090 H     1 <1>   0.1500 
 23 H        1.9610    -4.0670     0.1750 H     1 <1>   0.1500 
 24 H       -3.8080    -2.9980     0.5540 H     1 <1>   0.4000 
 25 H        1.9130    -1.6570    -0.2810 H     1 <1>   0.1500 
 26 H       -5.9070     0.5580     0.0240 H     1 <1>   0.1500 
 27 H       -6.3980    -2.9250    -0.1060 H     1 <1>   0.0800 
 28 H       -7.1630    -1.5100     0.5780 H     1 <1>   0.0800 
 29 H       -6.2340    -2.5790     1.6020 H     1 <1>   0.0800 
 30 H       -2.0780     1.8260    -1.7980 H     1 <1>   0.0800 
 31 H       -1.7290     2.7060    -0.3320 H     1 <1>   0.0800 
 32 H       -5.2380     2.5420     0.8830 H     1 <1>   0.0800 
 33 H       -5.4670     3.0440    -0.7780 H     1 <1>   0.0800 
 34 H       -3.5300     3.6200    -2.5780 H     1 <1>   0.0800 
 35 H       -1.9300     4.2230    -2.2900 H     1 <1>   0.0800 
 36 H       -3.4200     4.1320     1.1540 H     1 <1>   0.0800 
 37 H       -4.8770     4.9540     0.6960 H     1 <1>   0.0800 
 38 H       -4.0610     5.5340    -1.4070 H     1 <1>   0.0800 
 39 H       -2.5870     5.5290    -0.4860 H     1 <1>   0.0800 
@<TRIPOS>BOND
  1   1   2  2   
  2   2   3  1   
  3   2   4  1   
  4   3   5  2   
  5   3   6  1   
  6   4   7  2   
  7   4  21  1   
  8   5   8  1   
  9   5   9  1   
 10   6  10  2   
 11   6  22  1   
 12   7  10  1   
 13   7  23  1   
 14   8  11  2   
 15   9  12  1   
 16   9  24  1   
 17  10  25  1   
 18  11  13  1   
 19  11  14  1   
 20  12  14  2   
 21  12  15  1   
 22  13  16  1   
 23  13  17  1   
 24  14  26  1   
 25  15  27  1   
 26  15  28  1   
 27  15  29  1   
 28  16  18  1   
 29  16  30  1   
 30  16  31  1   
 31  17  19  1   
 32  17  32  1   
 33  17  33  1   
 34  18  20  1   
 35  18  34  1   
 36  18  35  1   
 37  19  20  1   
 38  19  36  1   
 39  19  37  1   
 40  20  38  1   
 41  20  39  1   
@<TRIPOS>SUBSTRUCTURE
  1 ****   8 GROUP 4 **** **** 0

# MOE 2024.06 (io_trps.svl 2023.06)
