@<TRIPOS>MOLECULE
NONAME
38 39 1 0 0 
SMALL
USER_CHARGES


@<TRIPOS>ATOM
  1 S        0.7420     0.2470    -1.1710 S.2   1 <1>  -0.3800 
  2 C        2.0290     0.9270    -0.4610 C.2   1 <1>   0.5000 
  3 N        2.4400     0.5370     0.7630 N.am  1 <1>  -0.5390 
  4 N        2.7090     1.9020    -1.0930 N.am  1 <1>  -0.4900 
  5 C        3.5320     1.0810     1.3940 C.2   1 <1>  -0.0410 
  6 C        3.8120     2.5070    -0.5240 C.2   1 <1>   0.6160 
  7 O        3.7810     0.6190     2.5050 O.3   1 <1>  -0.8500 
  8 C        4.2400     2.0820     0.7330 C.2   1 <1>  -0.1240 
  9 O        4.3260     3.4140    -1.1970 O.2   1 <1>  -0.5700 
 10 C        5.4660     2.6980     1.3810 C.3   1 <1>   0.1220 
 11 C        6.7400     2.0490     0.8530 C.ar  1 <1>  -0.1440 
 12 C        7.5960     2.7250    -0.0020 C.ar  1 <1>  -0.1500 
 13 C        7.0400     0.7530     1.2310 C.ar  1 <1>  -0.1500 
 14 C        8.7540     2.1220    -0.4680 C.ar  1 <1>  -0.1430 
 15 C        8.1910     0.1390     0.7740 C.ar  1 <1>  -0.1500 
 16 C        9.0590     0.8200    -0.0780 C.ar  1 <1>   0.0820 
 17 C        9.6760     2.8850    -1.4070 C.3   1 <1>  -0.0970 
 18 O       10.2050     0.2670    -0.5600 O.3   1 <1>  -0.3630 
 19 C       10.5580    -1.0630    -0.2600 C.3   1 <1>   0.1200 
 20 C       11.8740    -1.3790    -0.9720 C.3   1 <1>  -0.1600 
 21 C       12.3280    -2.8170    -0.6940 C.3   1 <1>  -0.2400 
 22 H        1.9740    -0.1940     1.2940 H     1 <1>   0.3700 
 23 H        2.4410     2.2230    -2.0120 H     1 <1>   0.3700 
 24 H        5.4140     2.5570     2.4460 H     1 <1>   0.0800 
 25 H        5.4790     3.7560     1.1960 H     1 <1>   0.0800 
 26 H        7.3470     3.7250    -0.3080 H     1 <1>   0.1500 
 27 H        6.3560     0.2270     1.8810 H     1 <1>   0.1500 
 28 H        8.3820    -0.8660     1.0930 H     1 <1>   0.1500 
 29 H        9.2920     3.8670    -1.6140 H     1 <1>   0.0800 
 30 H        9.7720     2.3490    -2.3340 H     1 <1>   0.0800 
 31 H       10.6490     2.9800    -0.9600 H     1 <1>   0.0800 
 32 H        9.7710    -1.7080    -0.6090 H     1 <1>   0.0800 
 33 H       10.6700    -1.1510     0.8060 H     1 <1>   0.0800 
 34 H       12.6320    -0.6950    -0.6310 H     1 <1>   0.0800 
 35 H       11.7420    -1.2460    -2.0320 H     1 <1>   0.0800 
 36 H       12.4810    -2.9670     0.3600 H     1 <1>   0.0800 
 37 H       13.2530    -3.0140    -1.2060 H     1 <1>   0.0800 
 38 H       11.5890    -3.5180    -1.0420 H     1 <1>   0.0800 
@<TRIPOS>BOND
  1   1   2  2   
  2   2   3  am  
  3   2   4  am  
  4   3   5  1   
  5   3  22  1   
  6   4   6  am  
  7   4  23  1   
  8   5   7  1   
  9   5   8  2   
 10   6   8  1   
 11   6   9  2   
 12   8  10  1   
 13  10  11  1   
 14  10  24  1   
 15  10  25  1   
 16  11  12  ar  
 17  11  13  ar  
 18  12  14  ar  
 19  12  26  1   
 20  13  15  ar  
 21  13  27  1   
 22  14  16  ar  
 23  14  17  1   
 24  15  16  ar  
 25  15  28  1   
 26  16  18  1   
 27  17  29  1   
 28  17  30  1   
 29  17  31  1   
 30  18  19  1   
 31  19  20  1   
 32  19  32  1   
 33  19  33  1   
 34  20  21  1   
 35  20  34  1   
 36  20  35  1   
 37  21  36  1   
 38  21  37  1   
 39  21  38  1   
@<TRIPOS>SUBSTRUCTURE
  1 ****  11 GROUP 4 **** **** 0

# MOE 2024.06 (io_trps.svl 2023.06)
