@<TRIPOS>MOLECULE
NONAME
34 34 1 0 0 
SMALL
USER_CHARGES


@<TRIPOS>ATOM
  1 S        0.3370     0.0280     0.8910 S.o2  1 <1>   1.3330 
  2 O        1.7230    -0.3770     0.9450 O.2   1 <1>  -0.6500 
  3 O       -0.6760    -0.9110     0.4790 O.2   1 <1>  -0.6500 
  4 N        0.2500     1.3970    -0.1570 N.am  1 <1>  -0.6930 
  5 C       -0.1100     0.7240     2.4670 C.3   1 <1>  -0.1350 
  6 C       -0.9750     2.0190    -0.4130 C.ar  1 <1>   0.1990 
  7 C        1.5120     2.1380    -0.4700 C.3   1 <1>   0.2570 
  8 C       -1.3770     3.1830     0.2590 C.ar  1 <1>   0.0830 
  9 C       -1.8220     1.4620    -1.3590 C.ar  1 <1>  -0.1500 
 10 C        2.3120     1.5460    -1.6370 C.2   1 <1>   0.5690 
 11 O       -0.5340     3.7010     1.2060 O.3   1 <1>  -0.3630 
 12 C       -2.6050     3.7620    -0.0450 C.ar  1 <1>  -0.1500 
 13 C       -3.0450     2.0360    -1.6570 C.ar  1 <1>  -0.1440 
 14 O        2.5340     2.2190    -2.6120 O.2   1 <1>  -0.5700 
 15 N        2.7930     0.2880    -1.5700 N.am  1 <1>  -0.8000 
 16 C       -0.7930     4.9520     1.8070 C.3   1 <1>   0.0400 
 17 C       -3.4310     3.1900    -0.9980 C.ar  1 <1>  -0.1500 
 18 C       -3.9500     1.4040    -2.6990 C.3   1 <1>  -0.0970 
 19 H       -0.0690    -0.0300     3.2270 H     1 <1>   0.0800 
 20 H       -1.1070     1.1170     2.4260 H     1 <1>   0.0800 
 21 H        0.5620     1.5180     2.7260 H     1 <1>   0.0800 
 22 H        2.1400     2.1620     0.4010 H     1 <1>   0.0800 
 23 H        1.2700     3.1550    -0.7240 H     1 <1>   0.0800 
 24 H       -1.5080     0.5640    -1.8620 H     1 <1>   0.1500 
 25 H       -2.9450     4.6530     0.4470 H     1 <1>   0.1500 
 26 H        3.3020    -0.1200    -2.3520 H     1 <1>   0.3700 
 27 H        2.6130    -0.3170    -0.7550 H     1 <1>   0.3700 
 28 H       -0.8720     5.7000     1.0380 H     1 <1>   0.0800 
 29 H        0.0280     5.1870     2.4600 H     1 <1>   0.0800 
 30 H       -1.7030     4.8860     2.3760 H     1 <1>   0.0800 
 31 H       -4.3780     3.6490    -1.2240 H     1 <1>   0.1500 
 32 H       -3.8230     0.3360    -2.7060 H     1 <1>   0.0800 
 33 H       -3.7070     1.7880    -3.6740 H     1 <1>   0.0800 
 34 H       -4.9810     1.6200    -2.4870 H     1 <1>   0.0800 
@<TRIPOS>BOND
  1   1   2  2   
  2   1   3  2   
  3   1   4  am  
  4   1   5  1   
  5   4   6  1   
  6   4   7  1   
  7   5  19  1   
  8   5  20  1   
  9   5  21  1   
 10   6   8  ar  
 11   6   9  ar  
 12   7  10  1   
 13   7  22  1   
 14   7  23  1   
 15   8  11  1   
 16   8  12  ar  
 17   9  13  ar  
 18   9  24  1   
 19  10  14  2   
 20  10  15  am  
 21  11  16  1   
 22  12  17  ar  
 23  12  25  1   
 24  13  17  ar  
 25  13  18  1   
 26  15  26  1   
 27  15  27  1   
 28  16  28  1   
 29  16  29  1   
 30  16  30  1   
 31  17  31  1   
 32  18  32  1   
 33  18  33  1   
 34  18  34  1   
@<TRIPOS>SUBSTRUCTURE
  1 ****   6 GROUP 4 **** **** 0

# MOE 2024.06 (io_trps.svl 2023.06)
