@<TRIPOS>MOLECULE
NONAME
43 45 1 0 0 
SMALL
USER_CHARGES


@<TRIPOS>ATOM
  1 O       -0.4160     2.5180     1.8020 O.2   1 <1>  -0.5700 
  2 C       -0.5690     2.7880     0.6350 C.2   1 <1>   0.5690 
  3 N        0.4160     2.9330    -0.3050 N.am  1 <1>  -0.2370 
  4 C       -1.9530     3.0430     0.0320 C.3   1 <1>   0.2510 
  5 C        1.7980     2.7440    -0.0700 C.ar  1 <1>   0.1170 
  6 C       -0.1440     3.2970    -1.5010 C.2   1 <1>   0.5690 
  7 N       -2.8390     1.8630     0.0880 N.3   1 <1>  -0.9000 
  8 C       -1.6470     3.3970    -1.4250 C.3   1 <1>  -0.0990 
  9 C        2.7340     3.6700    -0.5190 C.ar  1 <1>  -0.1500 
 10 C        2.2550     1.6250     0.6190 C.ar  1 <1>  -0.1500 
 11 O        0.4430     3.5480    -2.5220 O.2   1 <1>  -0.5700 
 12 C       -4.2510     2.1560    -0.1110 C.3   1 <1>   0.1900 
 13 C        4.0890     3.4910    -0.2920 C.ar  1 <1>  -0.1430 
 14 C        3.6050     1.4390     0.8530 C.ar  1 <1>  -0.1500 
 15 C       -4.8640     2.6990     1.1880 C.3   1 <1>  -0.1600 
 16 C       -4.9400     0.8560    -0.5330 C.3   1 <1>  -0.1600 
 17 C        4.5210     2.3710     0.3990 C.ar  1 <1>  -0.1500 
 18 C        5.0920     4.5130    -0.7940 C.3   1 <1>  -0.0970 
 19 C       -6.3810     2.8970     1.0460 C.3   1 <1>  -0.1600 
 20 C       -6.4560     1.0480    -0.6830 C.3   1 <1>  -0.1600 
 21 C       -7.0730     1.5990     0.6090 C.3   1 <1>  -0.1600 
 22 H       -2.3920     3.8790     0.5460 H     1 <1>   0.0800 
 23 H       -2.7400     1.4330     1.0190 H     1 <1>   0.3600 
 24 H       -1.9540     4.4000    -1.6540 H     1 <1>   0.0800 
 25 H       -2.0900     2.7030    -2.1160 H     1 <1>   0.0800 
 26 H        2.3980     4.5380    -1.0560 H     1 <1>   0.1500 
 27 H        1.5510     0.8950     0.9790 H     1 <1>   0.1500 
 28 H       -4.3720     2.8780    -0.9020 H     1 <1>   0.0800 
 29 H        3.9440     0.5700     1.3900 H     1 <1>   0.1500 
 30 H       -4.4200     3.6430     1.4470 H     1 <1>   0.0800 
 31 H       -4.6800     2.0050     1.9890 H     1 <1>   0.0800 
 32 H       -4.7540     0.0950     0.2050 H     1 <1>   0.0800 
 33 H       -4.5280     0.5250    -1.4700 H     1 <1>   0.0800 
 34 H        5.5700     2.2210     0.5850 H     1 <1>   0.1500 
 35 H        4.7060     5.0290    -1.6540 H     1 <1>   0.0800 
 36 H        6.0110     4.0300    -1.0740 H     1 <1>   0.0800 
 37 H        5.2980     5.2310    -0.0210 H     1 <1>   0.0800 
 38 H       -6.5750     3.6660     0.3170 H     1 <1>   0.0800 
 39 H       -6.7920     3.2240     1.9860 H     1 <1>   0.0800 
 40 H       -6.9150     0.1060    -0.9290 H     1 <1>   0.0800 
 41 H       -6.6510     1.7310    -1.4920 H     1 <1>   0.0800 
 42 H       -8.1230     1.7820     0.4580 H     1 <1>   0.0800 
 43 H       -6.9770     0.8640     1.3900 H     1 <1>   0.0800 
@<TRIPOS>BOND
  1   1   2  2   
  2   2   3  am  
  3   2   4  1   
  4   3   5  1   
  5   3   6  am  
  6   4   7  1   
  7   4   8  1   
  8   4  22  1   
  9   5   9  ar  
 10   5  10  ar  
 11   6   8  1   
 12   6  11  2   
 13   7  12  1   
 14   7  23  1   
 15   8  24  1   
 16   8  25  1   
 17   9  13  ar  
 18   9  26  1   
 19  10  14  ar  
 20  10  27  1   
 21  12  15  1   
 22  12  16  1   
 23  12  28  1   
 24  13  17  ar  
 25  13  18  1   
 26  14  17  ar  
 27  14  29  1   
 28  15  19  1   
 29  15  30  1   
 30  15  31  1   
 31  16  20  1   
 32  16  32  1   
 33  16  33  1   
 34  17  34  1   
 35  18  35  1   
 36  18  36  1   
 37  18  37  1   
 38  19  21  1   
 39  19  38  1   
 40  19  39  1   
 41  20  21  1   
 42  20  40  1   
 43  20  41  1   
 44  21  42  1   
 45  21  43  1   
@<TRIPOS>SUBSTRUCTURE
  1 ****   2 GROUP 4 **** **** 0

# MOE 2024.06 (io_trps.svl 2023.06)
