@<TRIPOS>MOLECULE
NONAME
33 33 1 0 0 
SMALL
USER_CHARGES


@<TRIPOS>ATOM
  1 S       -0.9800     0.2700    -0.6470 S.3   1 <1>  -0.3320 
  2 C       -0.5880     1.9160     0.0010 C.ar  1 <1>   0.1020 
  3 C        0.6120    -0.5990    -1.0040 C.3   1 <1>  -0.0100 
  4 C       -1.6030     2.7220     0.5410 C.ar  1 <1>   0.0860 
  5 C        0.7310     2.3480    -0.0430 C.ar  1 <1>  -0.1500 
  6 C       -3.0100     2.3630     0.6110 C.2   1 <1>   0.5440 
  7 C       -1.2140     3.9640     1.0480 C.ar  1 <1>  -0.1500 
  8 C        1.0750     3.5880     0.4620 C.ar  1 <1>  -0.1500 
  9 O       -3.6630     2.6730     1.5890 O.2   1 <1>  -0.5700 
 10 N       -3.6340     1.7220    -0.4250 N.am  1 <1>  -0.7300 
 11 C        0.0980     4.3960     1.0120 C.ar  1 <1>  -0.1500 
 12 C       -5.0260     1.2140    -0.4970 C.3   1 <1>   0.2200 
 13 C       -6.0600     2.2690    -0.0690 C.3   1 <1>   0.1200 
 14 C       -5.1160    -0.0680     0.3330 C.3   1 <1>  -0.2400 
 15 O       -7.3410     1.8430    -0.4370 O.3   1 <1>  -0.5600 
 16 C       -8.3500     2.7080    -0.0300 C.3   1 <1>   0.0400 
 17 H        0.3720    -1.6080    -1.2900 H     1 <1>   0.0800 
 18 H        1.2060    -0.5900    -0.1080 H     1 <1>   0.0800 
 19 H        1.1030    -0.0830    -1.8100 H     1 <1>   0.0800 
 20 H        1.5060     1.7410    -0.4650 H     1 <1>   0.1500 
 21 H       -1.9650     4.6030     1.4820 H     1 <1>   0.1500 
 22 H        2.0980     3.9240     0.4290 H     1 <1>   0.1500 
 23 H       -3.0120     1.2910    -1.1130 H     1 <1>   0.3700 
 24 H        0.3600     5.3610     1.4120 H     1 <1>   0.1500 
 25 H       -5.2260     0.9740    -1.5270 H     1 <1>   0.0800 
 26 H       -5.8580     3.2020    -0.5650 H     1 <1>   0.0800 
 27 H       -6.0390     2.4050     0.9980 H     1 <1>   0.0800 
 28 H       -4.9290     0.1470     1.3700 H     1 <1>   0.0800 
 29 H       -4.4030    -0.7910    -0.0180 H     1 <1>   0.0800 
 30 H       -6.1020    -0.4870     0.2450 H     1 <1>   0.0800 
 31 H       -9.2910     2.3020    -0.3600 H     1 <1>   0.0800 
 32 H       -8.1930     3.6740    -0.4780 H     1 <1>   0.0800 
 33 H       -8.3430     2.7810     1.0440 H     1 <1>   0.0800 
@<TRIPOS>BOND
  1   1   2  1   
  2   1   3  1   
  3   2   4  ar  
  4   2   5  ar  
  5   3  17  1   
  6   3  18  1   
  7   3  19  1   
  8   4   6  1   
  9   4   7  ar  
 10   5   8  ar  
 11   5  20  1   
 12   6   9  2   
 13   6  10  am  
 14   7  11  ar  
 15   7  21  1   
 16   8  11  ar  
 17   8  22  1   
 18  10  12  1   
 19  10  23  1   
 20  11  24  1   
 21  12  13  1   
 22  12  14  1   
 23  12  25  1   
 24  13  15  1   
 25  13  26  1   
 26  13  27  1   
 27  14  28  1   
 28  14  29  1   
 29  14  30  1   
 30  15  16  1   
 31  16  31  1   
 32  16  32  1   
 33  16  33  1   
@<TRIPOS>SUBSTRUCTURE
  1 ****   6 GROUP 4 **** **** 0

# MOE 2024.06 (io_trps.svl 2023.06)
