@<TRIPOS>MOLECULE
NONAME
52 53 1 0 0 
SMALL
USER_CHARGES


@<TRIPOS>ATOM
  1 O        1.0270    -2.2130    -1.7430 O.2   1 <1>  -0.5700 
  2 C        0.1040    -2.1390    -0.9540 C.2   1 <1>   0.7060 
  3 O        0.3830    -1.6830     0.2780 O.3   1 <1>  -0.4300 
  4 C       -1.2530    -2.4990    -1.2630 C.2   1 <1>  -0.1240 
  5 C        1.6820    -1.2500     0.6340 C.3   1 <1>   0.0400 
  6 C       -1.6900    -3.3480    -2.2360 C.2   1 <1>  -0.0380 
  7 C       -2.2870    -1.7890    -0.3860 C.3   1 <1>   0.3400 
  8 N       -3.0480    -3.5420    -2.4850 N.pl3 1 <1>  -0.5690 
  9 C       -0.7250    -4.1620    -3.1010 C.3   1 <1>  -0.1020 
 10 C       -3.7200    -2.3030    -0.5320 C.2   1 <1>  -0.1240 
 11 C       -2.2550    -0.2870    -0.6780 C.ar  1 <1>  -0.1430 
 12 C       -4.0090    -3.1620    -1.5490 C.2   1 <1>  -0.0380 
 13 C       -3.4870    -4.0110    -3.8400 C.3   1 <1>   0.1290 
 14 C       -4.6240    -1.7640     0.4470 C.2   1 <1>   0.7060 
 15 C       -1.8970     0.6200     0.3100 C.ar  1 <1>  -0.1500 
 16 C       -2.5840     0.1830    -1.9390 C.ar  1 <1>  -0.1500 
 17 C       -5.3960    -3.7880    -1.7180 C.3   1 <1>  -0.1020 
 18 O       -5.8250    -1.6540     0.2820 O.2   1 <1>  -0.5700 
 19 O       -4.1220    -1.3410     1.6180 O.3   1 <1>  -0.4300 
 20 C       -1.8630     1.9890     0.0560 C.ar  1 <1>   0.0830 
 21 C       -2.5640     1.5390    -2.2040 C.ar  1 <1>  -0.1500 
 22 C       -4.9390    -0.7390     2.6040 C.3   1 <1>   0.0400 
 23 O       -1.4740     2.8780     1.0160 O.3   1 <1>  -0.3630 
 24 C       -2.2200     2.4510    -1.2210 C.ar  1 <1>   0.0830 
 25 C       -0.8000     2.4600     2.1830 C.3   1 <1>   0.0400 
 26 O       -2.2530     3.7590    -1.6020 O.3   1 <1>  -0.3630 
 27 C       -2.7260     4.7450    -0.7120 C.3   1 <1>   0.0400 
 28 H        1.6660    -0.9320     1.6600 H     1 <1>   0.0800 
 29 H        1.9610    -0.4300    -0.0060 H     1 <1>   0.0800 
 30 H        2.3690    -2.0690     0.5090 H     1 <1>   0.0800 
 31 H       -1.9980    -1.9700     0.6340 H     1 <1>   0.0800 
 32 H       -0.5350    -3.6500    -4.0260 H     1 <1>   0.0800 
 33 H       -1.1300    -5.1360    -3.3060 H     1 <1>   0.0800 
 34 H        0.2110    -4.3270    -2.6040 H     1 <1>   0.0800 
 35 H       -3.5740    -5.0830    -3.8420 H     1 <1>   0.0800 
 36 H       -2.7810    -3.7070    -4.5910 H     1 <1>   0.0800 
 37 H       -4.4330    -3.5740    -4.1020 H     1 <1>   0.0800 
 38 H       -1.6470     0.2390     1.2810 H     1 <1>   0.1500 
 39 H       -2.8590    -0.5100    -2.7180 H     1 <1>   0.1500 
 40 H       -5.9780    -3.2160    -2.4170 H     1 <1>   0.0800 
 41 H       -5.9290    -3.8310    -0.7880 H     1 <1>   0.0800 
 42 H       -5.3140    -4.8020    -2.0630 H     1 <1>   0.0800 
 43 H       -2.8220     1.9000    -3.1830 H     1 <1>   0.1500 
 44 H       -4.3240    -0.4820     3.4470 H     1 <1>   0.0800 
 45 H       -5.7020    -1.4380     2.8990 H     1 <1>   0.0800 
 46 H       -5.3870     0.1470     2.1880 H     1 <1>   0.0800 
 47 H       -0.4710     3.3380     2.7100 H     1 <1>   0.0800 
 48 H        0.0490     1.8630     1.9000 H     1 <1>   0.0800 
 49 H       -1.4800     1.8990     2.7980 H     1 <1>   0.0800 
 50 H       -3.0560     5.5880    -1.2910 H     1 <1>   0.0800 
 51 H       -1.9200     5.0430    -0.0660 H     1 <1>   0.0800 
 52 H       -3.5440     4.3430    -0.1420 H     1 <1>   0.0800 
@<TRIPOS>BOND
  1   1   2  2   
  2   2   3  1   
  3   2   4  1   
  4   3   5  1   
  5   4   6  2   
  6   4   7  1   
  7   5  28  1   
  8   5  29  1   
  9   5  30  1   
 10   6   8  1   
 11   6   9  1   
 12   7  10  1   
 13   7  11  1   
 14   7  31  1   
 15   8  12  1   
 16   8  13  1   
 17   9  32  1   
 18   9  33  1   
 19   9  34  1   
 20  10  12  2   
 21  10  14  1   
 22  11  15  ar  
 23  11  16  ar  
 24  12  17  1   
 25  13  35  1   
 26  13  36  1   
 27  13  37  1   
 28  14  18  2   
 29  14  19  1   
 30  15  20  ar  
 31  15  38  1   
 32  16  21  ar  
 33  16  39  1   
 34  17  40  1   
 35  17  41  1   
 36  17  42  1   
 37  19  22  1   
 38  20  23  1   
 39  20  24  ar  
 40  21  24  ar  
 41  21  43  1   
 42  22  44  1   
 43  22  45  1   
 44  22  46  1   
 45  23  25  1   
 46  24  26  1   
 47  25  47  1   
 48  25  48  1   
 49  25  49  1   
 50  26  27  1   
 51  27  50  1   
 52  27  51  1   
 53  27  52  1   
@<TRIPOS>SUBSTRUCTURE
  1 ****  11 GROUP 4 **** **** 0

# MOE 2024.06 (io_trps.svl 2023.06)
