@<TRIPOS>MOLECULE
NONAME
55 56 1 0 0 
SMALL
USER_CHARGES


@<TRIPOS>ATOM
  1 O       -3.7930     9.0460     0.8730 O.2   1 <1>  -0.5700 
  2 C       -4.0850     8.0210     0.3080 C.2   1 <1>   0.5690 
  3 N       -3.1150     7.2870    -0.3240 N.am  1 <1>  -0.6600 
  4 C       -5.5320     7.5500     0.3530 C.3   1 <1>  -0.0990 
  5 C       -1.8290     7.9480    -0.6950 C.3   1 <1>   0.1400 
  6 C       -3.0130     5.8030    -0.2170 C.3   1 <1>   0.1400 
  7 C       -6.5280     8.6110    -0.1550 C.3   1 <1>  -0.0800 
  8 C       -0.7500     7.6010     0.3420 C.3   1 <1>   0.3430 
  9 C       -1.9040     5.4240     0.7900 C.3   1 <1>   0.3430 
 10 C       -7.9680     8.1150     0.0260 C.3   1 <1>  -0.2400 
 11 C       -6.2810     8.9550    -1.6300 C.3   1 <1>  -0.2400 
 12 N       -0.5920     6.1060     0.4990 N.4   1 <1>  -0.9590 
 13 C        0.4380     5.7830     1.5240 C.3   1 <1>   0.4860 
 14 C        1.7710     6.3110     1.0340 C.ar  1 <1>  -0.1440 
 15 C        2.4060     5.7090    -0.0420 C.ar  1 <1>  -0.1500 
 16 C        2.3580     7.4140     1.6390 C.ar  1 <1>  -0.1500 
 17 C        3.6010     6.2150    -0.5220 C.ar  1 <1>   0.0820 
 18 C        3.5540     7.9240     1.1620 C.ar  1 <1>  -0.1500 
 19 O        4.1670     5.6200    -1.5990 O.3   1 <1>  -0.3630 
 20 C        4.1850     7.3370     0.0690 C.ar  1 <1>   0.0820 
 21 C        4.8600     4.4070    -1.3910 C.3   1 <1>   0.1200 
 22 O        5.3520     7.8060    -0.4530 O.3   1 <1>  -0.3630 
 23 C        6.2470     4.6950    -0.8190 C.3   1 <1>  -0.2400 
 24 C        6.0350     8.9020     0.1130 C.3   1 <1>   0.0400 
 25 H       -5.7660     7.3070     1.3730 H     1 <1>   0.0800 
 26 H       -5.6550     6.6650    -0.2400 H     1 <1>   0.0800 
 27 H       -1.9570     9.0180    -0.7340 H     1 <1>   0.0800 
 28 H       -1.5230     7.6240    -1.6740 H     1 <1>   0.0800 
 29 H       -2.7920     5.3890    -1.1860 H     1 <1>   0.0800 
 30 H       -3.9430     5.3790     0.1170 H     1 <1>   0.0800 
 31 H       -6.4050     9.5090     0.4310 H     1 <1>   0.0800 
 32 H       -1.0350     8.0430     1.2830 H     1 <1>   0.0800 
 33 H        0.1850     8.0420     0.0360 H     1 <1>   0.0800 
 34 H       -1.7720     4.3540     0.7810 H     1 <1>   0.0800 
 35 H       -2.2400     5.7050     1.7750 H     1 <1>   0.0800 
 36 H       -8.1410     7.2220    -0.5480 H     1 <1>   0.0800 
 37 H       -8.6630     8.8700    -0.2990 H     1 <1>   0.0800 
 38 H       -8.1660     7.9050     1.0620 H     1 <1>   0.0800 
 39 H       -6.3770     8.0800    -2.2490 H     1 <1>   0.0800 
 40 H       -5.2970     9.3680    -1.7640 H     1 <1>   0.0800 
 41 H       -6.9940     9.6880    -1.9630 H     1 <1>   0.0800 
 42 H       -0.2280     5.7590    -0.3970 H     1 <1>   0.4500 
 43 H        0.5080     4.7160     1.6620 H     1 <1>   0.0800 
 44 H        0.1820     6.2360     2.4680 H     1 <1>   0.0800 
 45 H        1.9900     4.8470    -0.5310 H     1 <1>   0.1500 
 46 H        1.8950     7.8930     2.4870 H     1 <1>   0.1500 
 47 H        3.9800     8.7800     1.6510 H     1 <1>   0.1500 
 48 H        4.9490     3.9220    -2.3480 H     1 <1>   0.0800 
 49 H        4.2870     3.7810    -0.7300 H     1 <1>   0.0800 
 50 H        6.7800     5.3660    -1.4690 H     1 <1>   0.0800 
 51 H        6.8050     3.7810    -0.7360 H     1 <1>   0.0800 
 52 H        6.1680     5.1340     0.1590 H     1 <1>   0.0800 
 53 H        6.9280     9.0690    -0.4620 H     1 <1>   0.0800 
 54 H        6.2950     8.6660     1.1300 H     1 <1>   0.0800 
 55 H        5.4040     9.7710     0.0650 H     1 <1>   0.0800 
@<TRIPOS>BOND
  1   1   2  2   
  2   2   3  am  
  3   2   4  1   
  4   3   5  1   
  5   3   6  1   
  6   4   7  1   
  7   4  25  1   
  8   4  26  1   
  9   5   8  1   
 10   5  27  1   
 11   5  28  1   
 12   6   9  1   
 13   6  29  1   
 14   6  30  1   
 15   7  10  1   
 16   7  11  1   
 17   7  31  1   
 18   8  12  1   
 19   8  32  1   
 20   8  33  1   
 21   9  12  1   
 22   9  34  1   
 23   9  35  1   
 24  10  36  1   
 25  10  37  1   
 26  10  38  1   
 27  11  39  1   
 28  11  40  1   
 29  11  41  1   
 30  12  13  1   
 31  12  42  1   
 32  13  14  1   
 33  13  43  1   
 34  13  44  1   
 35  14  15  ar  
 36  14  16  ar  
 37  15  17  ar  
 38  15  45  1   
 39  16  18  ar  
 40  16  46  1   
 41  17  19  1   
 42  17  20  ar  
 43  18  20  ar  
 44  18  47  1   
 45  19  21  1   
 46  20  22  1   
 47  21  23  1   
 48  21  48  1   
 49  21  49  1   
 50  22  24  1   
 51  23  50  1   
 52  23  51  1   
 53  23  52  1   
 54  24  53  1   
 55  24  54  1   
 56  24  55  1   
@<TRIPOS>SUBSTRUCTURE
  1 ****   8 GROUP 4 **** **** 0

# MOE 2024.06 (io_trps.svl 2023.06)
