@<TRIPOS>MOLECULE
NONAME
42 43 1 0 0 
SMALL
USER_CHARGES


@<TRIPOS>ATOM
  1 BR      -0.0850    -0.1960     1.2970 Br    1 <1>  -0.1110 
  2 C       -1.9430    -0.0210     0.8200 C.ar  1 <1>   0.1110 
  3 C       -2.6560    -1.1570     0.4930 C.ar  1 <1>  -0.1500 
  4 C       -2.5120     1.2340     0.8170 C.ar  1 <1>  -0.1500 
  5 C       -3.9990    -1.0490     0.1480 C.ar  1 <1>  -0.1440 
  6 C       -3.8450     1.3440     0.4700 C.ar  1 <1>  -0.1500 
  7 C       -4.6000     0.2200     0.1350 C.ar  1 <1>   0.1170 
  8 C       -4.8360    -2.2850    -0.2110 C.3   1 <1>  -0.0160 
  9 N       -5.9480     0.3520    -0.2410 N.am  1 <1>  -0.5470 
 10 C       -4.1450    -3.6410    -0.0150 C.3   1 <1>  -0.2400 
 11 C       -6.9000     1.2540     0.1510 C.2   1 <1>   0.5690 
 12 O       -6.6920     2.1270     0.9580 O.2   1 <1>  -0.5700 
 13 C       -8.2920     1.1120    -0.4700 C.3   1 <1>  -0.0190 
 14 C       -9.0910     2.4320    -0.4600 C.3   1 <1>  -0.1600 
 15 C       -9.1000     0.0070     0.2360 C.3   1 <1>  -0.1600 
 16 C      -10.4870     2.2550    -1.0600 C.3   1 <1>   0.1400 
 17 C      -10.5000    -0.1460    -0.3680 C.3   1 <1>   0.1400 
 18 N      -11.2010     1.1660    -0.3380 N.am  1 <1>  -0.6600 
 19 C      -12.3870     1.3120     0.3370 C.2   1 <1>   0.5690 
 20 O      -12.9350     0.3860     0.8850 O.2   1 <1>  -0.5700 
 21 C      -13.0670     2.6590     0.4220 C.3   1 <1>  -0.1790 
 22 H       -2.1400    -2.0980     0.5200 H     1 <1>   0.1500 
 23 H       -1.9300     2.1000     1.0780 H     1 <1>   0.1500 
 24 H       -4.3000     2.3180     0.4570 H     1 <1>   0.1500 
 25 H       -5.1380    -2.2080    -1.2410 H     1 <1>   0.0800 
 26 H       -5.7240    -2.2820     0.3970 H     1 <1>   0.0800 
 27 H       -6.2790    -0.3850    -0.8560 H     1 <1>   0.3700 
 28 H       -3.2910    -3.7280    -0.6620 H     1 <1>   0.0800 
 29 H       -4.8290    -4.4360    -0.2510 H     1 <1>   0.0800 
 30 H       -3.8310    -3.7570     1.0080 H     1 <1>   0.0800 
 31 H       -8.1580     0.8260    -1.4980 H     1 <1>   0.0800 
 32 H       -8.5550     3.1820    -1.0150 H     1 <1>   0.0800 
 33 H       -9.1940     2.7900     0.5510 H     1 <1>   0.0800 
 34 H       -9.2010     0.2450     1.2820 H     1 <1>   0.0800 
 35 H       -8.5840    -0.9330     0.1660 H     1 <1>   0.0800 
 36 H      -10.4070     1.9900    -2.1000 H     1 <1>   0.0800 
 37 H      -11.0220     3.1850    -0.9980 H     1 <1>   0.0800 
 38 H      -11.0500    -0.8870     0.1890 H     1 <1>   0.0800 
 39 H      -10.4310    -0.4840    -1.3870 H     1 <1>   0.0800 
 40 H      -13.3310     2.9970    -0.5610 H     1 <1>   0.0800 
 41 H      -12.4130     3.3680     0.8930 H     1 <1>   0.0800 
 42 H      -13.9630     2.5750     1.0100 H     1 <1>   0.0800 
@<TRIPOS>BOND
  1   1   2  1   
  2   2   3  ar  
  3   2   4  ar  
  4   3   5  ar  
  5   3  22  1   
  6   4   6  ar  
  7   4  23  1   
  8   5   7  ar  
  9   5   8  1   
 10   6   7  ar  
 11   6  24  1   
 12   7   9  1   
 13   8  10  1   
 14   8  25  1   
 15   8  26  1   
 16   9  11  am  
 17   9  27  1   
 18  10  28  1   
 19  10  29  1   
 20  10  30  1   
 21  11  12  2   
 22  11  13  1   
 23  13  14  1   
 24  13  15  1   
 25  13  31  1   
 26  14  16  1   
 27  14  32  1   
 28  14  33  1   
 29  15  17  1   
 30  15  34  1   
 31  15  35  1   
 32  16  18  1   
 33  16  36  1   
 34  16  37  1   
 35  17  18  1   
 36  17  38  1   
 37  17  39  1   
 38  18  19  am  
 39  19  20  2   
 40  19  21  1   
 41  21  40  1   
 42  21  41  1   
 43  21  42  1   
@<TRIPOS>SUBSTRUCTURE
  1 ****  11 GROUP 4 **** **** 0

# MOE 2024.06 (io_trps.svl 2023.06)
