@<TRIPOS>MOLECULE
NONAME
32 33 1 0 0 
SMALL
USER_CHARGES


@<TRIPOS>ATOM
  1 CL      -1.8300     0.9320    -1.7740 Cl    1 <1>  -0.1770 
  2 C       -0.8840     2.0990    -0.8790 C.ar  1 <1>   0.1770 
  3 C       -1.3140     2.5190     0.3710 C.ar  1 <1>  -0.1440 
  4 C        0.2750     2.5900    -1.4490 C.ar  1 <1>  -0.1500 
  5 C       -0.5530     3.4540     1.0580 C.ar  1 <1>  -0.1500 
  6 C       -2.5890     1.9620     0.9710 C.3   1 <1>   0.4870 
  7 C        1.0240     3.5250    -0.7570 C.ar  1 <1>  -0.1500 
  8 C        0.6090     3.9550     0.4930 C.ar  1 <1>  -0.1500 
  9 N       -3.7550     2.4490     0.1840 N.4   1 <1>  -0.9590 
 10 C       -3.8790     3.9530     0.2290 C.3   1 <1>   0.3430 
 11 C       -5.0310     1.7640     0.5950 C.3   1 <1>   0.3430 
 12 C       -5.0730     4.4560    -0.6010 C.3   1 <1>   0.1400 
 13 C       -6.2470     2.2520    -0.2220 C.3   1 <1>   0.1400 
 14 N       -6.3250     3.7380    -0.2110 N.am  1 <1>  -0.6600 
 15 C       -7.4400     4.4170     0.1990 C.2   1 <1>   0.5700 
 16 O       -7.4590     5.6140     0.3390 O.2   1 <1>  -0.5700 
 17 H        0.5890     2.2470    -2.4200 H     1 <1>   0.1500 
 18 H       -0.8440     3.8030     2.0350 H     1 <1>   0.1500 
 19 H       -2.6780     2.2730     2.0000 H     1 <1>   0.0800 
 20 H       -2.5480     0.8850     0.9430 H     1 <1>   0.0800 
 21 H        1.9310     3.9170    -1.1890 H     1 <1>   0.1500 
 22 H        1.2010     4.6800     1.0280 H     1 <1>   0.1500 
 23 H       -3.5590     2.1910    -0.7950 H     1 <1>   0.4500 
 24 H       -2.9770     4.4100    -0.1450 H     1 <1>   0.0800 
 25 H       -4.0140     4.2770     1.2480 H     1 <1>   0.0800 
 26 H       -5.2240     1.9600     1.6370 H     1 <1>   0.0800 
 27 H       -4.9320     0.6980     0.4720 H     1 <1>   0.0800 
 28 H       -4.8830     4.2970    -1.6480 H     1 <1>   0.0800 
 29 H       -5.1830     5.5170    -0.4500 H     1 <1>   0.0800 
 30 H       -7.1490     1.8340     0.1940 H     1 <1>   0.0800 
 31 H       -6.1640     1.9080    -1.2390 H     1 <1>   0.0800 
 32 H       -8.3330     3.8580     0.4210 H     1 <1>   0.0600 
@<TRIPOS>BOND
  1   1   2  1   
  2   2   3  ar  
  3   2   4  ar  
  4   3   5  ar  
  5   3   6  1   
  6   4   7  ar  
  7   4  17  1   
  8   5   8  ar  
  9   5  18  1   
 10   6   9  1   
 11   6  19  1   
 12   6  20  1   
 13   7   8  ar  
 14   7  21  1   
 15   8  22  1   
 16   9  10  1   
 17   9  11  1   
 18   9  23  1   
 19  10  12  1   
 20  10  24  1   
 21  10  25  1   
 22  11  13  1   
 23  11  26  1   
 24  11  27  1   
 25  12  14  1   
 26  12  28  1   
 27  12  29  1   
 28  13  14  1   
 29  13  30  1   
 30  13  31  1   
 31  14  15  am  
 32  15  16  2   
 33  15  32  1   
@<TRIPOS>SUBSTRUCTURE
  1 ****   9 GROUP 4 **** **** 0

# MOE 2024.06 (io_trps.svl 2023.06)
