@<TRIPOS>MOLECULE
NONAME
32 33 1 0 0 
SMALL
USER_CHARGES


@<TRIPOS>ATOM
  1 S        0.0960     0.2680    -1.4990 S.3   1 <1>  -0.3320 
  2 C       -1.3640     1.1480    -0.9260 C.ar  1 <1>   0.4120 
  3 C        1.5180     0.9390    -0.5270 C.3   1 <1>   0.0700 
  4 N       -2.3420     0.3300    -0.5640 N.ar  1 <1>  -0.6200 
  5 C       -1.4050     2.5460    -0.8970 C.ar  1 <1>   0.0730 
  6 C        2.5090    -0.2030    -0.2990 C.3   1 <1>  -0.1600 
  7 C       -3.4220     0.9470    -0.1310 C.ar  1 <1>   0.1670 
  8 C       -0.3200     3.3600    -1.3460 C.1   1 <1>   0.4840 
  9 C       -2.5650     3.1460    -0.4270 C.ar  1 <1>  -0.1500 
 10 C        3.7240     0.2740     0.5070 C.3   1 <1>  -0.1600 
 11 C       -3.5840     2.3070    -0.0380 C.ar  1 <1>  -0.1440 
 12 C       -4.6550     0.2170     0.3340 C.3   1 <1>  -0.0160 
 13 N        0.5440     4.0300    -1.6720 N.1   1 <1>  -0.5570 
 14 C        4.7160    -0.8710     0.7330 C.3   1 <1>  -0.2400 
 15 C       -4.9440     2.6680     0.5090 C.3   1 <1>  -0.0170 
 16 C       -5.7080     1.3310     0.4920 C.3   1 <1>  -0.1600 
 17 H        1.1300     1.3140     0.4030 H     1 <1>   0.0800 
 18 H        1.9610     1.7330    -1.1020 H     1 <1>   0.0800 
 19 H        2.8340    -0.5820    -1.2530 H     1 <1>   0.0800 
 20 H        2.0130    -0.9980     0.2300 H     1 <1>   0.0800 
 21 H       -2.6670     4.2170    -0.3710 H     1 <1>   0.1500 
 22 H        3.4000     0.6550     1.4600 H     1 <1>   0.0800 
 23 H        4.2190     1.0710    -0.0220 H     1 <1>   0.0800 
 24 H       -4.4490    -0.2610     1.2750 H     1 <1>   0.0800 
 25 H       -4.9600    -0.5190    -0.3880 H     1 <1>   0.0800 
 26 H        4.2480    -1.6710     1.2790 H     1 <1>   0.0800 
 27 H        5.5600    -0.5190     1.2990 H     1 <1>   0.0800 
 28 H        5.0700    -1.2540    -0.2080 H     1 <1>   0.0800 
 29 H       -5.4330     3.4080    -0.1010 H     1 <1>   0.0800 
 30 H       -4.8430     3.0340     1.5160 H     1 <1>   0.0800 
 31 H       -6.2960     1.1970     1.3830 H     1 <1>   0.0800 
 32 H       -6.3610     1.3140    -0.3630 H     1 <1>   0.0800 
@<TRIPOS>BOND
  1   1   2  1   
  2   1   3  1   
  3   2   4  ar  
  4   2   5  ar  
  5   3   6  1   
  6   3  17  1   
  7   3  18  1   
  8   4   7  ar  
  9   5   8  1   
 10   5   9  ar  
 11   6  10  1   
 12   6  19  1   
 13   6  20  1   
 14   7  11  ar  
 15   7  12  1   
 16   8  13  3   
 17   9  11  ar  
 18   9  21  1   
 19  10  14  1   
 20  10  22  1   
 21  10  23  1   
 22  11  15  1   
 23  12  16  1   
 24  12  24  1   
 25  12  25  1   
 26  14  26  1   
 27  14  27  1   
 28  14  28  1   
 29  15  16  1   
 30  15  29  1   
 31  15  30  1   
 32  16  31  1   
 33  16  32  1   
@<TRIPOS>SUBSTRUCTURE
  1 ****   2 GROUP 4 **** **** 0

# MOE 2024.06 (io_trps.svl 2023.06)
