@<TRIPOS>MOLECULE
NONAME
47 48 1 0 0 
SMALL
USER_CHARGES


@<TRIPOS>ATOM
  1 CL      -2.1340     1.8150    -2.4130 Cl    1 <1>  -0.1770 
  2 C       -1.2260     2.7690    -1.2630 C.ar  1 <1>   0.1770 
  3 C       -1.5260     2.6850     0.0880 C.ar  1 <1>  -0.1440 
  4 C       -0.2270     3.6000    -1.7330 C.ar  1 <1>  -0.1500 
  5 C       -0.7950     3.4550     0.9820 C.ar  1 <1>  -0.1500 
  6 C       -2.6290     1.7660     0.5740 C.3   1 <1>   0.4870 
  7 C        0.4930     4.3660    -0.8330 C.ar  1 <1>  -0.1500 
  8 C        0.2080     4.2920     0.5200 C.ar  1 <1>  -0.1500 
  9 N       -3.9490     2.2890     0.1240 N.4   1 <1>  -0.9590 
 10 C       -4.2380     3.6480     0.6650 C.3   1 <1>   0.3430 
 11 C       -5.0440     1.3210     0.4000 C.3   1 <1>   0.3430 
 12 C       -5.5110     4.1910     0.0210 C.3   1 <1>  -0.1600 
 13 C       -6.3340     1.8150    -0.2500 C.3   1 <1>  -0.1600 
 14 C       -6.7100     3.2390     0.2040 C.3   1 <1>  -0.0190 
 15 C       -7.9240     3.7480    -0.5700 C.2   1 <1>   0.5690 
 16 O       -7.8400     3.8410    -1.7700 O.2   1 <1>  -0.5700 
 17 N       -9.0520     4.0770     0.1080 N.am  1 <1>  -0.7300 
 18 C      -10.3060     4.5590    -0.5180 C.3   1 <1>   0.1400 
 19 C      -11.4940     3.6820    -0.0920 C.3   1 <1>  -0.0800 
 20 C      -12.7690     4.1510    -0.8030 C.3   1 <1>  -0.2400 
 21 C      -11.7200     3.7000     1.4290 C.3   1 <1>  -0.2400 
 22 H       -0.0130     3.6460    -2.7870 H     1 <1>   0.1500 
 23 H       -0.9890     3.4150     2.0410 H     1 <1>   0.1500 
 24 H       -2.6030     1.6980     1.6490 H     1 <1>   0.0800 
 25 H       -2.4670     0.7800     0.1670 H     1 <1>   0.0800 
 26 H        1.2760     5.0180    -1.1850 H     1 <1>   0.1500 
 27 H        0.7770     4.8890     1.2150 H     1 <1>   0.1500 
 28 H       -3.8780     2.3870    -0.9010 H     1 <1>   0.4500 
 29 H       -3.4190     4.3180     0.4480 H     1 <1>   0.0800 
 30 H       -4.3620     3.6000     1.7350 H     1 <1>   0.0800 
 31 H       -5.1880     1.2220     1.4640 H     1 <1>   0.0800 
 32 H       -4.7930     0.3520    -0.0020 H     1 <1>   0.0800 
 33 H       -5.3290     4.3540    -1.0280 H     1 <1>   0.0800 
 34 H       -5.7460     5.1480     0.4530 H     1 <1>   0.0800 
 35 H       -7.1360     1.1410    -0.0030 H     1 <1>   0.0800 
 36 H       -6.2180     1.7900    -1.3210 H     1 <1>   0.0800 
 37 H       -6.9630     3.2080     1.2490 H     1 <1>   0.0800 
 38 H       -9.1010     3.9890     1.1230 H     1 <1>   0.3700 
 39 H      -10.2090     4.5360    -1.5920 H     1 <1>   0.0800 
 40 H      -10.4780     5.5800    -0.2230 H     1 <1>   0.0800 
 41 H      -11.2950     2.6700    -0.4060 H     1 <1>   0.0800 
 42 H      -13.0140     5.1600    -0.5220 H     1 <1>   0.0800 
 43 H      -13.5970     3.5130    -0.5460 H     1 <1>   0.0800 
 44 H      -12.6380     4.1130    -1.8710 H     1 <1>   0.0800 
 45 H      -11.8740     4.7060     1.7770 H     1 <1>   0.0800 
 46 H      -10.8810     3.2760     1.9480 H     1 <1>   0.0800 
 47 H      -12.5890     3.1170     1.6800 H     1 <1>   0.0800 
@<TRIPOS>BOND
  1   1   2  1   
  2   2   3  ar  
  3   2   4  ar  
  4   3   5  ar  
  5   3   6  1   
  6   4   7  ar  
  7   4  22  1   
  8   5   8  ar  
  9   5  23  1   
 10   6   9  1   
 11   6  24  1   
 12   6  25  1   
 13   7   8  ar  
 14   7  26  1   
 15   8  27  1   
 16   9  10  1   
 17   9  11  1   
 18   9  28  1   
 19  10  12  1   
 20  10  29  1   
 21  10  30  1   
 22  11  13  1   
 23  11  31  1   
 24  11  32  1   
 25  12  14  1   
 26  12  33  1   
 27  12  34  1   
 28  13  14  1   
 29  13  35  1   
 30  13  36  1   
 31  14  15  1   
 32  14  37  1   
 33  15  16  2   
 34  15  17  am  
 35  17  18  1   
 36  17  38  1   
 37  18  19  1   
 38  18  39  1   
 39  18  40  1   
 40  19  20  1   
 41  19  21  1   
 42  19  41  1   
 43  20  42  1   
 44  20  43  1   
 45  20  44  1   
 46  21  45  1   
 47  21  46  1   
 48  21  47  1   
@<TRIPOS>SUBSTRUCTURE
  1 ****  12 GROUP 4 **** **** 0

# MOE 2024.06 (io_trps.svl 2023.06)
