@<TRIPOS>MOLECULE
NONAME
48 49 1 0 0 
SMALL
USER_CHARGES


@<TRIPOS>ATOM
  1 S        0.1290    -0.0910    -0.3470 S.o2  1 <1>   1.3330 
  2 O       -1.0870     0.6710    -0.5120 O.2   1 <1>  -0.6500 
  3 O        0.2480    -1.0350     0.7400 O.2   1 <1>  -0.6500 
  4 N        1.4230     0.9970    -0.2350 N.am  1 <1>  -0.8490 
  5 C        0.4450    -0.9280    -1.8870 C.3   1 <1>  -0.1350 
  6 C        2.6660     0.3430     0.2110 C.3   1 <1>   0.1960 
  7 C        1.0920     2.1160     0.6550 C.3   1 <1>   0.1960 
  8 C        3.8460     1.3200     0.1180 C.3   1 <1>  -0.0190 
  9 C        2.2110     3.1640     0.6390 C.3   1 <1>  -0.1600 
 10 C        5.1570     0.6350     0.5020 C.2   1 <1>   0.5690 
 11 C        3.5700     2.5520     1.0020 C.3   1 <1>  -0.1600 
 12 O        5.0990    -0.3010     1.2660 O.2   1 <1>  -0.5700 
 13 N        6.3620     1.0660     0.0000 N.am  1 <1>  -0.6600 
 14 C        6.5860     2.2880    -0.8390 C.3   1 <1>   0.1400 
 15 C        7.6370     0.3590     0.3490 C.3   1 <1>   0.1400 
 16 C        7.5690     3.2500    -0.1530 C.3   1 <1>   0.1400 
 17 C        8.6250     1.3130     1.0370 C.3   1 <1>   0.1400 
 18 N        8.8290     2.5410     0.2120 N.am  1 <1>  -0.6600 
 19 C       10.0440     2.9280    -0.2830 C.2   1 <1>   0.7800 
 20 O       10.1740     3.8890    -1.0180 O.2   1 <1>  -0.5700 
 21 O       11.1130     2.2080     0.0580 O.3   1 <1>  -0.4300 
 22 C       12.3950     2.5500    -0.4130 C.3   1 <1>   0.1200 
 23 C       13.3910     1.5400     0.1490 C.3   1 <1>  -0.2400 
 24 H       -0.3430    -1.6250    -2.0900 H     1 <1>   0.0800 
 25 H        1.3720    -1.4630    -1.8410 H     1 <1>   0.0800 
 26 H        0.4910    -0.2160    -2.6870 H     1 <1>   0.0800 
 27 H        2.8750    -0.5120    -0.4090 H     1 <1>   0.0800 
 28 H        2.5540    -0.0060     1.2260 H     1 <1>   0.0800 
 29 H        0.9380     1.7500     1.6580 H     1 <1>   0.0800 
 30 H        0.1790     2.5870     0.3270 H     1 <1>   0.0800 
 31 H        3.9080     1.6180    -0.9110 H     1 <1>   0.0800 
 32 H        1.9690     3.9490     1.3340 H     1 <1>   0.0800 
 33 H        2.2570     3.6000    -0.3440 H     1 <1>   0.0800 
 34 H        4.3460     3.2860     0.8810 H     1 <1>   0.0800 
 35 H        3.5600     2.2480     2.0350 H     1 <1>   0.0800 
 36 H        5.6700     2.8140    -1.0270 H     1 <1>   0.0800 
 37 H        6.9940     1.9920    -1.7900 H     1 <1>   0.0800 
 38 H        8.0850    -0.0240    -0.5510 H     1 <1>   0.0800 
 39 H        7.4490    -0.4780     0.9990 H     1 <1>   0.0800 
 40 H        7.1180     3.6470     0.7390 H     1 <1>   0.0800 
 41 H        7.7770     4.0750    -0.8120 H     1 <1>   0.0800 
 42 H        9.5560     0.7980     1.2000 H     1 <1>   0.0800 
 43 H        8.2330     1.5940     1.9990 H     1 <1>   0.0800 
 44 H       12.6260     3.5480    -0.0790 H     1 <1>   0.0800 
 45 H       12.3820     2.5230    -1.4900 H     1 <1>   0.0800 
 46 H       13.3840     1.5720     1.2230 H     1 <1>   0.0800 
 47 H       14.3810     1.7780    -0.1950 H     1 <1>   0.0800 
 48 H       13.1410     0.5490    -0.1850 H     1 <1>   0.0800 
@<TRIPOS>BOND
  1   1   2  2   
  2   1   3  2   
  3   1   4  am  
  4   1   5  1   
  5   4   6  1   
  6   4   7  1   
  7   5  24  1   
  8   5  25  1   
  9   5  26  1   
 10   6   8  1   
 11   6  27  1   
 12   6  28  1   
 13   7   9  1   
 14   7  29  1   
 15   7  30  1   
 16   8  10  1   
 17   8  11  1   
 18   8  31  1   
 19   9  11  1   
 20   9  32  1   
 21   9  33  1   
 22  10  12  2   
 23  10  13  am  
 24  11  34  1   
 25  11  35  1   
 26  13  14  1   
 27  13  15  1   
 28  14  16  1   
 29  14  36  1   
 30  14  37  1   
 31  15  17  1   
 32  15  38  1   
 33  15  39  1   
 34  16  18  1   
 35  16  40  1   
 36  16  41  1   
 37  17  18  1   
 38  17  42  1   
 39  17  43  1   
 40  18  19  am  
 41  19  20  2   
 42  19  21  1   
 43  21  22  1   
 44  22  23  1   
 45  22  44  1   
 46  22  45  1   
 47  23  46  1   
 48  23  47  1   
 49  23  48  1   
@<TRIPOS>SUBSTRUCTURE
  1 ****  13 GROUP 4 **** **** 0

# MOE 2024.06 (io_trps.svl 2023.06)
