@<TRIPOS>MOLECULE
NONAME
40 42 1 0 0 
SMALL
USER_CHARGES


@<TRIPOS>ATOM
  1 I        3.2730    -1.6920     2.2940 I     1 <1>  -0.0280 
  2 C        2.9690    -0.0360     0.9950 C.2   1 <1>   0.1680 
  3 O        4.0300     0.6360     0.6190 O.3   1 <1>  -0.2800 
  4 C        1.8190     0.4410     0.4870 C.2   1 <1>  -0.1500 
  5 C        3.5830     1.6010    -0.1700 C.2   1 <1>  -0.0400 
  6 C        2.2330     1.5330    -0.2910 C.2   1 <1>  -0.1500 
  7 C        4.5650     2.5920    -0.7930 C.3   1 <1>   0.3800 
  8 O        5.3700     1.9060    -1.7150 O.3   1 <1>  -0.4300 
  9 C        5.4390     3.3810     0.2070 C.3   1 <1>   0.0610 
 10 C        6.3940     1.1360    -1.3790 C.2   1 <1>   0.6590 
 11 C        6.4210     2.3790     0.8370 C.2   1 <1>   0.4480 
 12 C        6.2410     4.5110    -0.5130 C.3   1 <1>  -0.1600 
 13 C        4.5440     4.0390     1.2950 C.3   1 <1>  -0.1600 
 14 O        6.7700     0.3070    -2.1650 O.2   1 <1>  -0.5700 
 15 C        7.1500     1.3640    -0.0580 C.3   1 <1>   0.1220 
 16 O        6.6590     2.4220     2.0110 O.2   1 <1>  -0.5700 
 17 C        5.6030     5.9150    -0.4630 C.3   1 <1>  -0.1600 
 18 C        3.5270     5.0510     0.7290 C.3   1 <1>  -0.1600 
 19 C        8.5690     1.8950    -0.3700 C.3   1 <1>  -0.2400 
 20 C        7.3240     0.0150     0.6860 C.3   1 <1>  -0.2400 
 21 C        4.0720     5.8710    -0.4540 C.3   1 <1>  -0.1600 
 22 H        0.8130     0.0890     0.6250 H     1 <1>   0.1500 
 23 H        1.5740     2.1670    -0.8590 H     1 <1>   0.1500 
 24 H        3.9870     3.2830    -1.3760 H     1 <1>   0.0800 
 25 H        6.4100     4.2470    -1.5430 H     1 <1>   0.0800 
 26 H        7.2110     4.6020    -0.0550 H     1 <1>   0.0800 
 27 H        5.1830     4.5600     1.9890 H     1 <1>   0.0800 
 28 H        4.0250     3.2900     1.8690 H     1 <1>   0.0800 
 29 H        5.9490     6.5010    -1.2980 H     1 <1>   0.0800 
 30 H        5.9310     6.4160     0.4330 H     1 <1>   0.0800 
 31 H        3.2460     5.7210     1.5240 H     1 <1>   0.0800 
 32 H        2.6320     4.5400     0.4200 H     1 <1>   0.0800 
 33 H        9.1250     1.1670    -0.9350 H     1 <1>   0.0800 
 34 H        8.5230     2.7990    -0.9500 H     1 <1>   0.0800 
 35 H        9.1020     2.0990     0.5420 H     1 <1>   0.0800 
 36 H        7.8860     0.1490     1.5930 H     1 <1>   0.0800 
 37 H        6.3670    -0.4020     0.9430 H     1 <1>   0.0800 
 38 H        7.8430    -0.6970     0.0680 H     1 <1>   0.0800 
 39 H        3.7270     5.4540    -1.3840 H     1 <1>   0.0800 
 40 H        3.6840     6.8740    -0.3990 H     1 <1>   0.0800 
@<TRIPOS>BOND
  1   1   2  1   
  2   2   3  1   
  3   2   4  2   
  4   3   5  1   
  5   4   6  1   
  6   4  22  1   
  7   5   6  2   
  8   5   7  1   
  9   6  23  1   
 10   7   8  1   
 11   7   9  1   
 12   7  24  1   
 13   8  10  1   
 14   9  11  1   
 15   9  12  1   
 16   9  13  1   
 17  10  14  2   
 18  10  15  1   
 19  11  15  1   
 20  11  16  2   
 21  12  17  1   
 22  12  25  1   
 23  12  26  1   
 24  13  18  1   
 25  13  27  1   
 26  13  28  1   
 27  15  19  1   
 28  15  20  1   
 29  17  21  1   
 30  17  29  1   
 31  17  30  1   
 32  18  21  1   
 33  18  31  1   
 34  18  32  1   
 35  19  33  1   
 36  19  34  1   
 37  19  35  1   
 38  20  36  1   
 39  20  37  1   
 40  20  38  1   
 41  21  39  1   
 42  21  40  1   
@<TRIPOS>SUBSTRUCTURE
  1 ****   7 GROUP 4 **** **** 0

# MOE 2024.06 (io_trps.svl 2023.06)
