@<TRIPOS>MOLECULE
NONAME
48 49 1 0 0 
SMALL
USER_CHARGES


@<TRIPOS>ATOM
  1 S       -0.3350     0.6670    -0.9190 S.o2  1 <1>   1.4470 
  2 O       -0.7750     1.2850    -2.1520 O.2   1 <1>  -0.6500 
  3 O       -0.2570    -0.7780    -0.8620 O.2   1 <1>  -0.6500 
  4 N       -1.4590     1.1350     0.2610 N.am  1 <1>  -0.8490 
  5 C        1.2280     1.4180    -0.3560 C.ar  1 <1>  -0.0090 
  6 C       -1.6970     2.5920     0.2600 C.3   1 <1>   0.1960 
  7 C       -2.7360     0.4240     0.0830 C.3   1 <1>   0.1960 
  8 C        1.8740     1.0550     0.8290 C.ar  1 <1>  -0.1440 
  9 C        1.8080     2.4190    -1.1300 C.ar  1 <1>  -0.1500 
 10 C       -2.6550     3.0030     1.3900 C.3   1 <1>   0.1400 
 11 C       -3.7500     0.7730     1.1890 C.3   1 <1>   0.1400 
 12 C        3.0510     1.6860     1.2040 C.ar  1 <1>  -0.1500 
 13 C        1.3240    -0.0350     1.7430 C.3   1 <1>  -0.0960 
 14 C        2.9810     3.0530    -0.7580 C.ar  1 <1>  -0.1430 
 15 N       -3.9420     2.2510     1.2900 N.am  1 <1>  -0.6600 
 16 C        3.6010     2.6790     0.4180 C.ar  1 <1>  -0.1500 
 17 C        3.5840     4.1390    -1.6300 C.3   1 <1>  -0.0970 
 18 C       -5.0910     2.8810     0.9010 C.2   1 <1>   0.6900 
 19 O       -5.0590     4.0020     0.4300 O.2   1 <1>  -0.5700 
 20 N       -6.2760     2.2450     1.0620 N.am  1 <1>  -0.7300 
 21 C       -7.5900     2.8140     0.7060 C.3   1 <1>   0.1400 
 22 C       -8.5200     1.6860     0.2610 C.3   1 <1>  -0.1600 
 23 C       -9.9020     2.2240    -0.1260 C.3   1 <1>  -0.2400 
 24 H       -2.1170     2.9030    -0.6830 H     1 <1>   0.0800 
 25 H       -0.7650     3.1130     0.3970 H     1 <1>   0.0800 
 26 H       -2.5630    -0.6390     0.1040 H     1 <1>   0.0800 
 27 H       -3.1610     0.6700    -0.8770 H     1 <1>   0.0800 
 28 H        1.3300     2.7100    -2.0500 H     1 <1>   0.1500 
 29 H       -2.8320     4.0630     1.3400 H     1 <1>   0.0800 
 30 H       -2.1960     2.7920     2.3390 H     1 <1>   0.0800 
 31 H       -3.3870     0.4000     2.1300 H     1 <1>   0.0800 
 32 H       -4.6800     0.2820     0.9700 H     1 <1>   0.0800 
 33 H        3.5520     1.4070     2.1150 H     1 <1>   0.1500 
 34 H        1.3070    -0.9790     1.2270 H     1 <1>   0.0800 
 35 H        0.3270     0.2070     2.0620 H     1 <1>   0.0800 
 36 H        1.9330    -0.1490     2.6210 H     1 <1>   0.0800 
 37 H        4.5160     3.1560     0.7250 H     1 <1>   0.1500 
 38 H        2.8300     4.5960    -2.2460 H     1 <1>   0.0800 
 39 H        4.3410     3.7160    -2.2650 H     1 <1>   0.0800 
 40 H        4.0310     4.9040    -1.0190 H     1 <1>   0.0800 
 41 H       -6.2880     1.4600     1.7080 H     1 <1>   0.3700 
 42 H       -7.4710     3.5300    -0.0910 H     1 <1>   0.0800 
 43 H       -8.0000     3.3220     1.5630 H     1 <1>   0.0800 
 44 H       -8.6320     0.9740     1.0590 H     1 <1>   0.0800 
 45 H       -8.0880     1.1870    -0.5900 H     1 <1>   0.0800 
 46 H      -10.3640     2.7160     0.7130 H     1 <1>   0.0800 
 47 H      -10.5380     1.4150    -0.4390 H     1 <1>   0.0800 
 48 H       -9.8180     2.9260    -0.9370 H     1 <1>   0.0800 
@<TRIPOS>BOND
  1   1   2  2   
  2   1   3  2   
  3   1   4  am  
  4   1   5  1   
  5   4   6  1   
  6   4   7  1   
  7   5   8  ar  
  8   5   9  ar  
  9   6  10  1   
 10   6  24  1   
 11   6  25  1   
 12   7  11  1   
 13   7  26  1   
 14   7  27  1   
 15   8  12  ar  
 16   8  13  1   
 17   9  14  ar  
 18   9  28  1   
 19  10  15  1   
 20  10  29  1   
 21  10  30  1   
 22  11  15  1   
 23  11  31  1   
 24  11  32  1   
 25  12  16  ar  
 26  12  33  1   
 27  13  34  1   
 28  13  35  1   
 29  13  36  1   
 30  14  16  ar  
 31  14  17  1   
 32  15  18  am  
 33  16  37  1   
 34  17  38  1   
 35  17  39  1   
 36  17  40  1   
 37  18  19  2   
 38  18  20  am  
 39  20  21  1   
 40  20  41  1   
 41  21  22  1   
 42  21  42  1   
 43  21  43  1   
 44  22  23  1   
 45  22  44  1   
 46  22  45  1   
 47  23  46  1   
 48  23  47  1   
 49  23  48  1   
@<TRIPOS>SUBSTRUCTURE
  1 ****   6 GROUP 4 **** **** 0

# MOE 2024.06 (io_trps.svl 2023.06)
