@<TRIPOS>MOLECULE
NONAME
47 50 1 0 0 
SMALL
USER_CHARGES


@<TRIPOS>ATOM
  1 O        0.7170    -0.6590    -1.2820 O.2   1 <1>  -0.5750 
  2 C        1.2260    -1.6600    -0.8200 C.2   1 <1>   0.6860 
  3 N        0.4300    -2.7130    -0.3770 N.am  1 <1>  -0.4260 
  4 N        2.6110    -1.7460    -0.7310 N.am  1 <1>  -0.4420 
  5 C        0.9910    -3.8490     0.1910 C.2   1 <1>   0.6990 
  6 C       -1.0510    -2.6300    -0.5370 C.3   1 <1>   0.1320 
  7 C        3.1560    -2.8790    -0.1600 C.2   1 <1>   0.4200 
  8 C        3.4800    -0.6320    -1.2150 C.3   1 <1>   0.0520 
  9 O        0.2940    -4.7660     0.5950 O.2   1 <1>  -0.5750 
 10 C        2.4160    -3.9140     0.2940 C.2   1 <1>   0.2700 
 11 C       -1.4610    -3.2250    -1.8840 C.3   1 <1>  -0.2470 
 12 N        4.4730    -3.1600     0.0510 N.pl3 1 <1>  -0.7040 
 13 N        3.3280    -4.8560     0.7910 N.pl3 1 <1>  -0.7670 
 14 C        4.5460    -4.3570     0.6270 C.cat 1 <1>   1.0690 
 15 C        3.0320    -6.1700     1.3950 C.3   1 <1>   0.3480 
 16 N        5.6640    -5.0010     1.0050 N.pl3 1 <1>  -0.5800 
 17 C        4.2840    -7.0490     1.2930 C.3   1 <1>  -0.1680 
 18 C        6.9410    -4.4730     0.7900 C.ar  1 <1>   0.3040 
 19 C        5.5600    -6.3040     1.7150 C.3   1 <1>   0.1600 
 20 C        7.5550    -4.5470    -0.4620 C.ar  1 <1>  -0.1510 
 21 C        7.5940    -3.8360     1.8380 C.ar  1 <1>  -0.1580 
 22 C        8.8000    -3.9650    -0.6430 C.ar  1 <1>  -0.1580 
 23 C        6.9010    -5.2600    -1.6430 C.3   1 <1>  -0.1050 
 24 C        8.8370    -3.2620     1.6480 C.ar  1 <1>  -0.1580 
 25 C        9.4370    -3.3240     0.4040 C.ar  1 <1>  -0.1580 
 26 H       -1.3730    -1.6040    -0.4810 H     1 <1>   0.0720 
 27 H       -1.5410    -3.1640     0.2600 H     1 <1>   0.0720 
 28 H        2.9660    -0.0500    -1.9620 H     1 <1>   0.0720 
 29 H        4.3790    -1.0220    -1.6580 H     1 <1>   0.0720 
 30 H        3.7340     0.0130    -0.3920 H     1 <1>   0.0720 
 31 H       -1.0040    -2.6790    -2.6910 H     1 <1>   0.0720 
 32 H       -2.5280    -3.1580    -1.9950 H     1 <1>   0.0720 
 33 H       -1.1810    -4.2620    -1.9420 H     1 <1>   0.0720 
 34 H        5.2860    -2.5900    -0.1700 H     1 <1>   0.4440 
 35 H        2.2080    -6.6400     0.8820 H     1 <1>   0.0720 
 36 H        2.7570    -6.0310     2.4280 H     1 <1>   0.0720 
 37 H        4.3940    -7.3930     0.2790 H     1 <1>   0.0720 
 38 H        4.1570    -7.9210     1.9090 H     1 <1>   0.0720 
 39 H        5.5450    -6.1230     2.7770 H     1 <1>   0.0720 
 40 H        6.4240    -6.9090     1.4900 H     1 <1>   0.0720 
 41 H        7.1330    -3.7860     2.8070 H     1 <1>   0.1420 
 42 H        9.2920    -4.0100    -1.6010 H     1 <1>   0.1420 
 43 H        6.5400    -6.2270    -1.3440 H     1 <1>   0.0720 
 44 H        7.6110    -5.4070    -2.4390 H     1 <1>   0.0720 
 45 H        6.0820    -4.6800    -2.0270 H     1 <1>   0.0720 
 46 H        9.3420    -2.7680     2.4630 H     1 <1>   0.1420 
 47 H       10.4060    -2.8780     0.2520 H     1 <1>   0.1420 
@<TRIPOS>BOND
  1   1   2  2   
  2   2   3  am  
  3   2   4  am  
  4   3   5  am  
  5   3   6  1   
  6   4   7  1   
  7   4   8  1   
  8   5   9  2   
  9   5  10  1   
 10   6  11  1   
 11   6  26  1   
 12   6  27  1   
 13   7  10  2   
 14   7  12  1   
 15   8  28  1   
 16   8  29  1   
 17   8  30  1   
 18  10  13  1   
 19  11  31  1   
 20  11  32  1   
 21  11  33  1   
 22  12  14  ar  
 23  12  34  1   
 24  13  14  ar  
 25  13  15  1   
 26  14  16  ar  
 27  15  17  1   
 28  15  35  1   
 29  15  36  1   
 30  16  18  1   
 31  16  19  1   
 32  17  19  1   
 33  17  37  1   
 34  17  38  1   
 35  18  20  ar  
 36  18  21  ar  
 37  19  39  1   
 38  19  40  1   
 39  20  22  ar  
 40  20  23  1   
 41  21  24  ar  
 42  21  41  1   
 43  22  25  ar  
 44  22  42  1   
 45  23  43  1   
 46  23  44  1   
 47  23  45  1   
 48  24  25  ar  
 49  24  46  1   
 50  25  47  1   
@<TRIPOS>SUBSTRUCTURE
  1 ****  12 GROUP 4 **** **** 0

# MOE 2024.06 (io_trps.svl 2023.06)
