@<TRIPOS>MOLECULE
NONAME
30 30 1 0 0 
SMALL
USER_CHARGES


@<TRIPOS>ATOM
  1 S        0.2370     0.4780     0.1060 S.o2  1 <1>   1.5010 
  2 O        0.8890     0.9240     1.3160 O.2   1 <1>  -0.6500 
  3 O        0.4100     1.1940    -1.1360 O.2   1 <1>  -0.6500 
  4 N        0.8220    -1.0530    -0.2470 N.am  1 <1>  -0.9140 
  5 C       -1.5050     0.1790     0.4200 C.2   1 <1>  -0.0630 
  6 C        2.2740    -1.1470    -0.1060 C.3   1 <1>   0.1960 
  7 C       -2.0510     0.0300     1.6870 C.2   1 <1>   0.1390 
  8 C       -2.5670     0.0150    -0.4100 C.2   1 <1>  -0.3020 
  9 C        2.7490    -2.5540    -0.4700 C.3   1 <1>   0.1200 
 10 N       -3.3290    -0.1990     1.6610 N.2   1 <1>  -0.7070 
 11 N       -3.6510    -0.2090     0.3570 N.pl3 1 <1>   0.3140 
 12 O        4.1410    -2.5760    -0.4280 O.3   1 <1>  -0.5600 
 13 C       -5.0340    -0.4390    -0.1060 C.3   1 <1>   0.0960 
 14 C        4.6960    -3.8210    -0.7020 C.3   1 <1>   0.0400 
 15 C       -5.2150    -1.8720    -0.6210 C.3   1 <1>  -0.2400 
 16 H        0.6150    -1.1470    -1.2390 H     1 <1>   0.4200 
 17 H        2.5550    -0.9410     0.9140 H     1 <1>   0.0800 
 18 H        2.7500    -0.4280    -0.7520 H     1 <1>   0.0800 
 19 H       -1.4790     0.0960     2.5990 H     1 <1>   0.1500 
 20 H       -2.6020     0.0470    -1.4830 H     1 <1>   0.1500 
 21 H        2.4370    -2.8130    -1.4670 H     1 <1>   0.0800 
 22 H        2.3690    -3.2680     0.2410 H     1 <1>   0.0800 
 23 H       -5.2570     0.2690    -0.8830 H     1 <1>   0.0800 
 24 H       -5.6990    -0.2600     0.7210 H     1 <1>   0.0800 
 25 H        5.7670    -3.7300    -0.6450 H     1 <1>   0.0800 
 26 H        4.4120    -4.1280    -1.6940 H     1 <1>   0.0800 
 27 H        4.3540    -4.5330     0.0290 H     1 <1>   0.0800 
 28 H       -4.5670    -2.0570    -1.4590 H     1 <1>   0.0800 
 29 H       -6.2320    -2.0210    -0.9350 H     1 <1>   0.0800 
 30 H       -4.9940    -2.5750     0.1630 H     1 <1>   0.0800 
@<TRIPOS>BOND
  1   1   2  2   
  2   1   3  2   
  3   1   4  am  
  4   1   5  1   
  5   4   6  1   
  6   4  16  1   
  7   5   7  1   
  8   5   8  2   
  9   6   9  1   
 10   6  17  1   
 11   6  18  1   
 12   7  10  2   
 13   7  19  1   
 14   8  11  1   
 15   8  20  1   
 16   9  12  1   
 17   9  21  1   
 18   9  22  1   
 19  10  11  1   
 20  11  13  1   
 21  12  14  1   
 22  13  15  1   
 23  13  23  1   
 24  13  24  1   
 25  14  25  1   
 26  14  26  1   
 27  14  27  1   
 28  15  28  1   
 29  15  29  1   
 30  15  30  1   
@<TRIPOS>SUBSTRUCTURE
  1 ****   4 GROUP 4 **** **** 0

# MOE 2024.06 (io_trps.svl 2023.06)
