@<TRIPOS>MOLECULE
NONAME
36 36 1 0 0 
SMALL
USER_CHARGES


@<TRIPOS>ATOM
  1 O        0.0970     0.5620    -0.1360 O.2   1 <1>  -0.5700 
  2 C        0.4930     1.7120    -0.1170 C.2   1 <1>   0.8050 
  3 O       -0.3740     2.6920     0.1450 O.3   1 <1>  -0.4300 
  4 C        1.8710     2.0470    -0.3530 C.2   1 <1>  -0.2370 
  5 C       -1.7350     2.4250     0.3950 C.3   1 <1>   0.1200 
  6 N        2.7800     1.0440    -0.5290 N.pl3 1 <1>   0.0330 
  7 C        2.5580     3.2330    -0.4540 C.2   1 <1>  -0.1810 
  8 C       -2.4380     3.7550     0.6500 C.3   1 <1>  -0.2400 
  9 C        3.9990     1.5770    -0.7140 C.2   1 <1>  -0.3320 
 10 C        3.9250     2.9510    -0.6620 C.2   1 <1>  -0.0860 
 11 C        1.9590     4.6300    -0.3980 C.3   1 <1>  -0.0590 
 12 C        5.2270     0.7100    -0.9390 C.3   1 <1>  -0.0600 
 13 C        5.0160     3.8870    -0.7910 C.2   1 <1>   0.5950 
 14 O        5.8090     3.8540    -1.7030 O.2   1 <1>  -0.5700 
 15 C        5.2270     4.9340     0.3130 C.3   1 <1>  -0.0190 
 16 C        5.3560     6.3620    -0.2470 C.3   1 <1>  -0.2400 
 17 C        6.4650     4.5970     1.1600 C.3   1 <1>  -0.2400 
 18 H       -1.8040     1.7800     1.2550 H     1 <1>   0.0800 
 19 H       -2.1500     1.9280    -0.4660 H     1 <1>   0.0800 
 20 H        2.5310     0.0470    -0.5200 H     1 <1>   0.2700 
 21 H       -2.0060     4.2440     1.5050 H     1 <1>   0.0800 
 22 H       -3.4810     3.5810     0.8460 H     1 <1>   0.0800 
 23 H       -2.3530     4.3910    -0.2120 H     1 <1>   0.0800 
 24 H        0.9450     4.6250    -0.7530 H     1 <1>   0.0800 
 25 H        2.5140     5.3000    -1.0290 H     1 <1>   0.0800 
 26 H        1.9690     4.9990     0.6110 H     1 <1>   0.0800 
 27 H        5.1130     0.1410    -1.8440 H     1 <1>   0.0800 
 28 H        5.3600     0.0330    -0.1140 H     1 <1>   0.0800 
 29 H        6.1120     1.3130    -1.0310 H     1 <1>   0.0800 
 30 H        4.3760     4.9060     0.9690 H     1 <1>   0.0800 
 31 H        6.2250     6.4370    -0.8780 H     1 <1>   0.0800 
 32 H        5.4490     7.0740     0.5540 H     1 <1>   0.0800 
 33 H        4.4920     6.6170    -0.8330 H     1 <1>   0.0800 
 34 H        7.3510     4.6160     0.5500 H     1 <1>   0.0800 
 35 H        6.3650     3.6140     1.5860 H     1 <1>   0.0800 
 36 H        6.5800     5.3070     1.9610 H     1 <1>   0.0800 
@<TRIPOS>BOND
  1   1   2  2   
  2   2   3  1   
  3   2   4  1   
  4   3   5  1   
  5   4   6  1   
  6   4   7  2   
  7   5   8  1   
  8   5  18  1   
  9   5  19  1   
 10   6   9  1   
 11   6  20  1   
 12   7  10  1   
 13   7  11  1   
 14   8  21  1   
 15   8  22  1   
 16   8  23  1   
 17   9  10  2   
 18   9  12  1   
 19  10  13  1   
 20  11  24  1   
 21  11  25  1   
 22  11  26  1   
 23  12  27  1   
 24  12  28  1   
 25  12  29  1   
 26  13  14  2   
 27  13  15  1   
 28  15  16  1   
 29  15  17  1   
 30  15  30  1   
 31  16  31  1   
 32  16  32  1   
 33  16  33  1   
 34  17  34  1   
 35  17  35  1   
 36  17  36  1   
@<TRIPOS>SUBSTRUCTURE
  1 ****   7 GROUP 4 **** **** 0

# MOE 2024.06 (io_trps.svl 2023.06)
