@<TRIPOS>MOLECULE
NONAME
36 37 1 0 0 
SMALL
USER_CHARGES


@<TRIPOS>ATOM
  1 CL      -0.1930     2.8980    -2.4920 Cl    1 <1>  -0.1770 
  2 C        0.5740     2.8180    -0.9240 C.ar  1 <1>   0.1770 
  3 C       -0.1750     2.7490     0.2600 C.ar  1 <1>   0.0860 
  4 C        1.9570     2.8170    -0.9240 C.ar  1 <1>  -0.1500 
  5 C       -1.6260     2.7580     0.3100 C.2   1 <1>   0.5440 
  6 C        0.5450     2.6630     1.4590 C.ar  1 <1>  -0.1500 
  7 C        2.6120     2.7390     0.2860 C.ar  1 <1>   0.1900 
  8 O       -2.2030     2.1250     1.1720 O.2   1 <1>  -0.5700 
  9 N       -2.3770     3.4960    -0.5610 N.am  1 <1>  -0.7300 
 10 C        1.9290     2.6600     1.4830 C.ar  1 <1>  -0.1500 
 11 F        3.9150     2.7380     0.3010 F     1 <1>  -0.1900 
 12 C       -3.8590     3.5690    -0.5780 C.3   1 <1>   0.1400 
 13 C       -4.3170     4.9410    -0.0810 C.3   1 <1>  -0.0220 
 14 C       -5.8310     5.0880    -0.1610 C.2   1 <1>  -0.2760 
 15 C       -6.4350     5.8370    -1.0890 C.2   1 <1>  -0.2880 
 16 C       -6.6060     4.3280     0.9140 C.3   1 <1>  -0.0220 
 17 C       -7.9380     6.0410    -1.1860 C.3   1 <1>  -0.0220 
 18 C       -8.1030     4.2380     0.5810 C.3   1 <1>  -0.1600 
 19 C       -8.6480     5.5870     0.0970 C.3   1 <1>  -0.1600 
 20 H        2.5120     2.8720    -1.8430 H     1 <1>   0.1500 
 21 H        0.0010     2.5980     2.3880 H     1 <1>   0.1500 
 22 H       -1.9110     3.9680    -1.3390 H     1 <1>   0.3700 
 23 H        2.4710     2.5950     2.4110 H     1 <1>   0.1500 
 24 H       -4.2700     2.7950     0.0460 H     1 <1>   0.0800 
 25 H       -4.2120     3.4100    -1.5820 H     1 <1>   0.0800 
 26 H       -3.8580     5.6990    -0.6910 H     1 <1>   0.0800 
 27 H       -3.9930     5.0860     0.9350 H     1 <1>   0.0800 
 28 H       -5.8960     6.3660    -1.8570 H     1 <1>   0.1500 
 29 H       -6.4780     4.8380     1.8530 H     1 <1>   0.0800 
 30 H       -6.2230     3.3300     1.0270 H     1 <1>   0.0800 
 31 H       -8.3090     5.4810    -2.0260 H     1 <1>   0.0800 
 32 H       -8.1510     7.0820    -1.3560 H     1 <1>   0.0800 
 33 H       -8.6450     3.9110     1.4510 H     1 <1>   0.0800 
 34 H       -8.2450     3.5040    -0.1940 H     1 <1>   0.0800 
 35 H       -9.7060     5.5160    -0.0820 H     1 <1>   0.0800 
 36 H       -8.4880     6.3240     0.8660 H     1 <1>   0.0800 
@<TRIPOS>BOND
  1   1   2  1   
  2   2   3  ar  
  3   2   4  ar  
  4   3   5  1   
  5   3   6  ar  
  6   4   7  ar  
  7   4  20  1   
  8   5   8  2   
  9   5   9  am  
 10   6  10  ar  
 11   6  21  1   
 12   7  10  ar  
 13   7  11  1   
 14   9  12  1   
 15   9  22  1   
 16  10  23  1   
 17  12  13  1   
 18  12  24  1   
 19  12  25  1   
 20  13  14  1   
 21  13  26  1   
 22  13  27  1   
 23  14  15  2   
 24  14  16  1   
 25  15  17  1   
 26  15  28  1   
 27  16  18  1   
 28  16  29  1   
 29  16  30  1   
 30  17  19  1   
 31  17  31  1   
 32  17  32  1   
 33  18  19  1   
 34  18  33  1   
 35  18  34  1   
 36  19  35  1   
 37  19  36  1   
@<TRIPOS>SUBSTRUCTURE
  1 ****   9 GROUP 4 **** **** 0

# MOE 2024.06 (io_trps.svl 2023.06)
