@<TRIPOS>MOLECULE
NONAME
49 50 1 0 0 
SMALL
USER_CHARGES


@<TRIPOS>ATOM
  1 S        0.9850     1.1240     1.9820 S.o2  1 <1>   1.3330 
  2 O        2.1900     1.7570     2.4670 O.2   1 <1>  -0.6500 
  3 O        1.0360    -0.1980     1.4130 O.2   1 <1>  -0.6500 
  4 N        0.3400     2.1920     0.7830 N.am  1 <1>  -0.6930 
  5 C       -0.2540     1.1960     3.2580 C.3   1 <1>  -0.1350 
  6 C       -0.7700     1.8420     0.0280 C.ar  1 <1>   0.1990 
  7 C        1.2860     3.1870     0.1870 C.3   1 <1>   0.2570 
  8 C       -1.9750     2.5040     0.2240 C.ar  1 <1>  -0.1500 
  9 C       -0.7010     0.8420    -0.9390 C.ar  1 <1>  -0.1500 
 10 C        2.3930     2.5800    -0.6810 C.2   1 <1>   0.5690 
 11 C       -3.0660     2.1460    -0.5390 C.ar  1 <1>   0.1900 
 12 C       -1.8080     0.4950    -1.6970 C.ar  1 <1>  -0.1500 
 13 O        2.3150     2.7140    -1.8790 O.2   1 <1>  -0.5700 
 14 N        3.4410     1.9500    -0.0690 N.am  1 <1>  -0.5470 
 15 F       -4.1970     2.7690    -0.3460 F     1 <1>  -0.1900 
 16 C       -3.0110     1.1520    -1.4980 C.ar  1 <1>  -0.1500 
 17 C        4.5990     1.4080    -0.6440 C.ar  1 <1>   0.1170 
 18 C        5.8510     2.0030    -0.4260 C.ar  1 <1>  -0.1430 
 19 C        4.5100     0.2460    -1.4170 C.ar  1 <1>  -0.1430 
 20 C        6.9740     1.4320    -1.0070 C.ar  1 <1>  -0.1500 
 21 C        6.0790     3.2680     0.4190 C.3   1 <1>   0.0630 
 22 C        5.6490    -0.2980    -1.9840 C.ar  1 <1>  -0.1500 
 23 C        3.1810    -0.4620    -1.6520 C.3   1 <1>  -0.0970 
 24 C        6.8790     0.2930    -1.7820 C.ar  1 <1>  -0.1500 
 25 C        5.6530     3.1000     1.8840 C.3   1 <1>  -0.2400 
 26 C        5.4450     4.5120    -0.2140 C.3   1 <1>  -0.2400 
 27 H        0.0400     0.5850     4.0890 H     1 <1>   0.0800 
 28 H       -1.1920     0.8360     2.8830 H     1 <1>   0.0800 
 29 H       -0.3790     2.2040     3.5980 H     1 <1>   0.0800 
 30 H        1.7420     3.7620     0.9730 H     1 <1>   0.0800 
 31 H        0.7270     3.8710    -0.4260 H     1 <1>   0.0800 
 32 H       -2.0580     3.2840     0.9560 H     1 <1>   0.1500 
 33 H        0.2330     0.3310    -1.0970 H     1 <1>   0.1500 
 34 H       -1.7310    -0.2820    -2.4390 H     1 <1>   0.1500 
 35 H        3.3970     1.8770     0.9550 H     1 <1>   0.3700 
 36 H       -3.8860     0.9030    -2.0730 H     1 <1>   0.1500 
 37 H        7.9460     1.8700    -0.8630 H     1 <1>   0.1500 
 38 H        7.1390     3.4550     0.4430 H     1 <1>   0.0800 
 39 H        5.5850    -1.1860    -2.5870 H     1 <1>   0.1500 
 40 H        2.6540    -0.5830    -0.7230 H     1 <1>   0.0800 
 41 H        3.3310    -1.4370    -2.0780 H     1 <1>   0.0800 
 42 H        2.5760     0.1140    -2.3280 H     1 <1>   0.0800 
 43 H        7.7610    -0.1330    -2.2270 H     1 <1>   0.1500 
 44 H        4.5860     3.0860     1.9890 H     1 <1>   0.0800 
 45 H        6.0350     3.9150     2.4720 H     1 <1>   0.0800 
 46 H        6.0510     2.1810     2.2760 H     1 <1>   0.0800 
 47 H        4.3750     4.4640    -0.1860 H     1 <1>   0.0800 
 48 H        5.7540     4.5940    -1.2410 H     1 <1>   0.0800 
 49 H        5.7610     5.3970     0.3100 H     1 <1>   0.0800 
@<TRIPOS>BOND
  1   1   2  2   
  2   1   3  2   
  3   1   4  am  
  4   1   5  1   
  5   4   6  1   
  6   4   7  1   
  7   5  27  1   
  8   5  28  1   
  9   5  29  1   
 10   6   8  ar  
 11   6   9  ar  
 12   7  10  1   
 13   7  30  1   
 14   7  31  1   
 15   8  11  ar  
 16   8  32  1   
 17   9  12  ar  
 18   9  33  1   
 19  10  13  2   
 20  10  14  am  
 21  11  15  1   
 22  11  16  ar  
 23  12  16  ar  
 24  12  34  1   
 25  14  17  1   
 26  14  35  1   
 27  16  36  1   
 28  17  18  ar  
 29  17  19  ar  
 30  18  20  ar  
 31  18  21  1   
 32  19  22  ar  
 33  19  23  1   
 34  20  24  ar  
 35  20  37  1   
 36  21  25  1   
 37  21  26  1   
 38  21  38  1   
 39  22  24  ar  
 40  22  39  1   
 41  23  40  1   
 42  23  41  1   
 43  23  42  1   
 44  24  43  1   
 45  25  44  1   
 46  25  45  1   
 47  25  46  1   
 48  26  47  1   
 49  26  48  1   
 50  26  49  1   
@<TRIPOS>SUBSTRUCTURE
  1 ****  10 GROUP 4 **** **** 0

# MOE 2024.06 (io_trps.svl 2023.06)
