@<TRIPOS>MOLECULE
NONAME
45 47 1 0 0 
SMALL
USER_CHARGES


@<TRIPOS>ATOM
  1 CL       0.9440    -1.8720    -1.2540 Cl    1 <1>  -0.1770 
  2 C       -0.0860    -2.6730    -0.0920 C.ar  1 <1>   0.1770 
  3 C       -1.3810    -3.0400    -0.4490 C.ar  1 <1>   0.0830 
  4 C        0.4100    -2.9280     1.1690 C.ar  1 <1>  -0.1500 
  5 O       -1.8320    -2.7760    -1.6980 O.3   1 <1>  -0.1590 
  6 C       -2.2130    -3.6800     0.4800 C.ar  1 <1>   0.0860 
  7 C       -0.4140    -3.5620     2.0820 C.ar  1 <1>   0.1770 
  8 C       -3.0500    -3.1430    -2.1010 C.2   1 <1>  -0.0730 
  9 C       -3.5500    -4.0330     0.0790 C.2   1 <1>   0.4690 
 10 C       -1.7010    -3.9350     1.7570 C.ar  1 <1>  -0.1500 
 11 CL       0.1950    -3.8930     3.6820 Cl    1 <1>  -0.1770 
 12 C       -3.9210    -3.7600    -1.2730 C.2   1 <1>  -0.1240 
 13 O       -4.3600    -4.5090     0.8550 O.2   1 <1>  -0.5700 
 14 C       -5.3030    -4.2040    -1.7230 C.3   1 <1>   0.4810 
 15 N       -6.3480    -3.6250    -0.8360 N.4   1 <1>  -0.9590 
 16 C       -7.6690    -4.2990    -1.0350 C.3   1 <1>   0.3430 
 17 C       -6.4380    -2.1390    -0.9330 C.3   1 <1>   0.3430 
 18 C       -8.7030    -3.8070    -0.0150 C.3   1 <1>  -0.0190 
 19 C       -7.4260    -1.6200     0.1140 C.3   1 <1>  -0.1600 
 20 C      -10.0350    -4.4650    -0.3240 C.2   1 <1>   0.6590 
 21 C       -8.8100    -2.2690    -0.0330 C.3   1 <1>  -0.1600 
 22 O      -10.2170    -5.0460    -1.3630 O.2   1 <1>  -0.5700 
 23 O      -10.9640    -4.3600     0.6110 O.3   1 <1>  -0.4300 
 24 C      -12.2460    -4.9230     0.4460 C.3   1 <1>   0.1200 
 25 C      -13.0650    -4.6080     1.6930 C.3   1 <1>  -0.2400 
 26 H        1.4110    -2.6430     1.4390 H     1 <1>   0.1500 
 27 H       -3.2440    -2.9010    -3.1350 H     1 <1>   0.1500 
 28 H       -2.3130    -4.4270     2.4950 H     1 <1>   0.1500 
 29 H       -5.3480    -5.2810    -1.6740 H     1 <1>   0.0800 
 30 H       -5.4760    -3.9050    -2.7450 H     1 <1>   0.0800 
 31 H       -6.0170    -3.8590     0.1230 H     1 <1>   0.4500 
 32 H       -7.5600    -5.3670    -0.9360 H     1 <1>   0.0800 
 33 H       -8.0360    -4.0940    -2.0290 H     1 <1>   0.0800 
 34 H       -6.7760    -1.8560    -1.9170 H     1 <1>   0.0800 
 35 H       -5.4710    -1.6950    -0.7620 H     1 <1>   0.0800 
 36 H       -8.4020    -4.1350     0.9630 H     1 <1>   0.0800 
 37 H       -7.5210    -0.5530     0.0060 H     1 <1>   0.0800 
 38 H       -7.0330    -1.8070     1.0990 H     1 <1>   0.0800 
 39 H       -9.4530    -1.9400     0.7690 H     1 <1>   0.0800 
 40 H       -9.2590    -1.9500    -0.9600 H     1 <1>   0.0800 
 41 H      -12.1400    -5.9860     0.3120 H     1 <1>   0.0800 
 42 H      -12.6990    -4.4920    -0.4320 H     1 <1>   0.0800 
 43 H      -12.5980    -5.0350     2.5630 H     1 <1>   0.0800 
 44 H      -14.0500    -5.0260     1.5950 H     1 <1>   0.0800 
 45 H      -13.1570    -3.5440     1.8200 H     1 <1>   0.0800 
@<TRIPOS>BOND
  1   1   2  1   
  2   2   3  ar  
  3   2   4  ar  
  4   3   5  1   
  5   3   6  ar  
  6   4   7  ar  
  7   4  26  1   
  8   5   8  1   
  9   6   9  1   
 10   6  10  ar  
 11   7  10  ar  
 12   7  11  1   
 13   8  12  2   
 14   8  27  1   
 15   9  12  1   
 16   9  13  2   
 17  10  28  1   
 18  12  14  1   
 19  14  15  1   
 20  14  29  1   
 21  14  30  1   
 22  15  16  1   
 23  15  17  1   
 24  15  31  1   
 25  16  18  1   
 26  16  32  1   
 27  16  33  1   
 28  17  19  1   
 29  17  34  1   
 30  17  35  1   
 31  18  20  1   
 32  18  21  1   
 33  18  36  1   
 34  19  21  1   
 35  19  37  1   
 36  19  38  1   
 37  20  22  2   
 38  20  23  1   
 39  21  39  1   
 40  21  40  1   
 41  23  24  1   
 42  24  25  1   
 43  24  41  1   
 44  24  42  1   
 45  25  43  1   
 46  25  44  1   
 47  25  45  1   
@<TRIPOS>SUBSTRUCTURE
  1 ****  15 GROUP 4 **** **** 0

# MOE 2024.06 (io_trps.svl 2023.06)
