@<TRIPOS>MOLECULE
NONAME
53 56 1 0 0 
SMALL
USER_CHARGES


@<TRIPOS>ATOM
  1 O        0.2310     1.0480    -1.3990 O.2   1 <1>  -0.5700 
  2 C       -0.1170     1.9820    -0.7150 C.2   1 <1>   0.5690 
  3 N       -1.3680     2.1600    -0.1870 N.am  1 <1>  -0.2370 
  4 C        0.7990     3.1750    -0.3960 C.3   1 <1>   0.2510 
  5 C       -2.3990     1.1920    -0.1960 C.ar  1 <1>   0.1170 
  6 C       -1.4630     3.4230     0.3310 C.2   1 <1>   0.5690 
  7 N        1.8650     2.9340     0.6210 N.3   1 <1>  -0.8100 
  8 C       -0.1920     4.2090     0.1530 C.3   1 <1>  -0.0990 
  9 C       -2.1350    -0.1290     0.1500 C.ar  1 <1>  -0.1500 
 10 C       -3.7010     1.5310    -0.5490 C.ar  1 <1>  -0.1500 
 11 O       -2.4300     3.9130     0.8560 O.2   1 <1>  -0.5700 
 12 C        2.8320     4.0680     0.6580 C.3   1 <1>   0.1100 
 13 C        2.6080     1.6650     0.3670 C.3   1 <1>   0.1100 
 14 C       -3.1380    -1.0820     0.1420 C.ar  1 <1>  -0.1500 
 15 C       -4.7060     0.5800    -0.5570 C.ar  1 <1>  -0.1500 
 16 C        3.9530     3.8530     1.6910 C.3   1 <1>   0.2090 
 17 C        3.7530     1.4240     1.3700 C.3   1 <1>   0.2090 
 18 C       -4.4310    -0.7330    -0.2130 C.ar  1 <1>  -0.1430 
 19 N        4.6820     2.5900     1.3860 N.pl3 1 <1>  -0.8380 
 20 C       -5.5330    -1.7760    -0.2200 C.3   1 <1>  -0.0970 
 21 C        5.8540     2.5770     0.6580 C.ar  1 <1>   0.7200 
 22 N        6.2940     3.7440     0.1860 N.ar  1 <1>  -0.6200 
 23 N        6.4400     1.3950     0.4810 N.ar  1 <1>  -0.6200 
 24 C        7.4070     3.7150    -0.5020 C.ar  1 <1>   0.1670 
 25 C        7.5500     1.3880    -0.2100 C.ar  1 <1>   0.1670 
 26 C        8.0840     2.5420    -0.7310 C.ar  1 <1>  -0.1500 
 27 C        7.9190     5.0350    -1.0360 C.3   1 <1>  -0.0970 
 28 C        8.2230     0.0470    -0.4110 C.3   1 <1>  -0.0970 
 29 H        1.2420     3.5170    -1.3150 H     1 <1>   0.0800 
 30 H       -0.3620     4.9940    -0.5600 H     1 <1>   0.0800 
 31 H        0.1070     4.6230     1.0980 H     1 <1>   0.0800 
 32 H       -1.1360    -0.4190     0.4240 H     1 <1>   0.1500 
 33 H       -3.9360     2.5460    -0.8150 H     1 <1>   0.1500 
 34 H        2.3230     4.9810     0.9040 H     1 <1>   0.0800 
 35 H        3.2900     4.1920    -0.3100 H     1 <1>   0.0800 
 36 H        3.0210     1.6740    -0.6270 H     1 <1>   0.0800 
 37 H        1.9370     0.8280     0.4410 H     1 <1>   0.0800 
 38 H       -2.9080    -2.0970     0.4140 H     1 <1>   0.1500 
 39 H       -5.7060     0.8690    -0.8300 H     1 <1>   0.1500 
 40 H        3.5220     3.7850     2.6740 H     1 <1>   0.0800 
 41 H        4.6210     4.6960     1.6900 H     1 <1>   0.0800 
 42 H        4.2660     0.5160     1.1100 H     1 <1>   0.0800 
 43 H        3.3400     1.2890     2.3540 H     1 <1>   0.0800 
 44 H       -5.1310    -2.7460    -0.4530 H     1 <1>   0.0800 
 45 H       -6.2770    -1.5320    -0.9560 H     1 <1>   0.0800 
 46 H       -6.0010    -1.8160     0.7470 H     1 <1>   0.0800 
 47 H        8.9960     2.5270    -1.2960 H     1 <1>   0.1500 
 48 H        8.0900     5.7100    -0.2170 H     1 <1>   0.0800 
 49 H        7.1840     5.4660    -1.6920 H     1 <1>   0.0800 
 50 H        8.8370     4.9040    -1.5780 H     1 <1>   0.0800 
 51 H        7.5550    -0.6150    -0.9300 H     1 <1>   0.0800 
 52 H        8.4600    -0.3800     0.5460 H     1 <1>   0.0800 
 53 H        9.1280     0.1490    -0.9810 H     1 <1>   0.0800 
@<TRIPOS>BOND
  1   1   2  2   
  2   2   3  am  
  3   2   4  1   
  4   3   5  1   
  5   3   6  am  
  6   4   7  1   
  7   4   8  1   
  8   4  29  1   
  9   5   9  ar  
 10   5  10  ar  
 11   6   8  1   
 12   6  11  2   
 13   7  12  1   
 14   7  13  1   
 15   8  30  1   
 16   8  31  1   
 17   9  14  ar  
 18   9  32  1   
 19  10  15  ar  
 20  10  33  1   
 21  12  16  1   
 22  12  34  1   
 23  12  35  1   
 24  13  17  1   
 25  13  36  1   
 26  13  37  1   
 27  14  18  ar  
 28  14  38  1   
 29  15  18  ar  
 30  15  39  1   
 31  16  19  1   
 32  16  40  1   
 33  16  41  1   
 34  17  19  1   
 35  17  42  1   
 36  17  43  1   
 37  18  20  1   
 38  19  21  1   
 39  20  44  1   
 40  20  45  1   
 41  20  46  1   
 42  21  22  ar  
 43  21  23  ar  
 44  22  24  ar  
 45  23  25  ar  
 46  24  26  ar  
 47  24  27  1   
 48  25  26  ar  
 49  25  28  1   
 50  26  47  1   
 51  27  48  1   
 52  27  49  1   
 53  27  50  1   
 54  28  51  1   
 55  28  52  1   
 56  28  53  1   
@<TRIPOS>SUBSTRUCTURE
  1 ****  13 GROUP 4 **** **** 0

# MOE 2024.06 (io_trps.svl 2023.06)
