@<TRIPOS>MOLECULE
NONAME
42 43 1 0 0 
SMALL
USER_CHARGES


@<TRIPOS>ATOM
  1 O       -0.5640     0.7340    -1.0680 O.2   1 <1>  -0.5700 
  2 C       -0.6730     1.7910    -0.4940 C.2   1 <1>   0.5690 
  3 N       -1.6080     2.0770     0.4470 N.am  1 <1>  -0.4200 
  4 C        0.2150     3.0200    -0.7730 C.3   1 <1>   0.2510 
  5 C       -1.5210     3.3700     0.8480 C.2   1 <1>   0.5690 
  6 C       -2.6200     1.1190     0.9440 C.3   1 <1>   0.1400 
  7 N        1.6780     2.8860    -0.4580 N.3   1 <1>  -0.8100 
  8 C       -0.4140     4.0990     0.1270 C.3   1 <1>  -0.0990 
  9 O       -2.2230     3.9050     1.6640 O.2   1 <1>  -0.5700 
 10 C       -3.8740     1.1820     0.0670 C.3   1 <1>  -0.1600 
 11 C        2.2500     1.6020    -0.9560 C.3   1 <1>   0.1100 
 12 C        2.4680     4.0270    -0.9890 C.3   1 <1>   0.1100 
 13 C       -4.9430     0.1990     0.5570 C.3   1 <1>  -0.2400 
 14 C        3.7920     1.5240    -0.8420 C.3   1 <1>   0.3430 
 15 C        3.9560     3.9640    -0.5610 C.3   1 <1>   0.3430 
 16 N        4.3160     2.6270     0.0250 N.4   1 <1>  -0.9590 
 17 C        5.7530     2.4640     0.3540 C.3   1 <1>   0.3430 
 18 C        6.1270     3.3900     1.5060 C.3   1 <1>  -0.2400 
 19 H        0.0880     3.2800    -1.8100 H     1 <1>   0.0800 
 20 H       -2.8710     1.3640     1.9630 H     1 <1>   0.0800 
 21 H       -2.2080     0.1240     0.9250 H     1 <1>   0.0800 
 22 H       -0.8370     4.8950    -0.4560 H     1 <1>   0.0800 
 23 H        0.2750     4.4900     0.8530 H     1 <1>   0.0800 
 24 H       -3.6140     0.9390    -0.9490 H     1 <1>   0.0800 
 25 H       -4.2780     2.1800     0.0920 H     1 <1>   0.0800 
 26 H        1.9670     1.4400    -1.9840 H     1 <1>   0.0800 
 27 H        1.8400     0.7890    -0.3810 H     1 <1>   0.0800 
 28 H        2.0560     4.9610    -0.6450 H     1 <1>   0.0800 
 29 H        2.4140     4.0330    -2.0660 H     1 <1>   0.0800 
 30 H       -4.5720    -0.8100     0.5240 H     1 <1>   0.0800 
 31 H       -5.8140     0.2620    -0.0720 H     1 <1>   0.0800 
 32 H       -5.2350     0.4310     1.5660 H     1 <1>   0.0800 
 33 H        4.2230     1.5980    -1.8260 H     1 <1>   0.0800 
 34 H        4.0640     0.5640    -0.4350 H     1 <1>   0.0800 
 35 H        4.1360     4.7350     0.1690 H     1 <1>   0.0800 
 36 H        4.5780     4.1740    -1.4160 H     1 <1>   0.0800 
 37 H        3.7520     2.5610     0.8870 H     1 <1>   0.4500 
 38 H        6.3610     2.6830    -0.5100 H     1 <1>   0.0800 
 39 H        5.9430     1.4450     0.6520 H     1 <1>   0.0800 
 40 H        6.0480     4.4240     1.2230 H     1 <1>   0.0800 
 41 H        7.1500     3.2070     1.7860 H     1 <1>   0.0800 
 42 H        5.5100     3.1990     2.3660 H     1 <1>   0.0800 
@<TRIPOS>BOND
  1   1   2  2   
  2   2   3  am  
  3   2   4  1   
  4   3   5  am  
  5   3   6  1   
  6   4   7  1   
  7   4   8  1   
  8   4  19  1   
  9   5   8  1   
 10   5   9  2   
 11   6  10  1   
 12   6  20  1   
 13   6  21  1   
 14   7  11  1   
 15   7  12  1   
 16   8  22  1   
 17   8  23  1   
 18  10  13  1   
 19  10  24  1   
 20  10  25  1   
 21  11  14  1   
 22  11  26  1   
 23  11  27  1   
 24  12  15  1   
 25  12  28  1   
 26  12  29  1   
 27  13  30  1   
 28  13  31  1   
 29  13  32  1   
 30  14  16  1   
 31  14  33  1   
 32  14  34  1   
 33  15  16  1   
 34  15  35  1   
 35  15  36  1   
 36  16  17  1   
 37  16  37  1   
 38  17  18  1   
 39  17  38  1   
 40  17  39  1   
 41  18  40  1   
 42  18  41  1   
 43  18  42  1   
@<TRIPOS>SUBSTRUCTURE
  1 ****   4 GROUP 4 **** **** 0

# MOE 2024.06 (io_trps.svl 2023.06)
