@<TRIPOS>MOLECULE
NONAME
38 39 1 0 0 
SMALL
USER_CHARGES


@<TRIPOS>ATOM
  1 S       -0.1180     0.2840     0.3880 S.o2  1 <1>   1.3330 
  2 O        1.2870    -0.0050     0.5410 O.2   1 <1>  -0.6500 
  3 O       -0.7980     1.1770     1.2930 O.2   1 <1>  -0.6500 
  4 N       -0.9530    -1.2320     0.3950 N.am  1 <1>  -0.6930 
  5 C       -0.3840     0.8350    -1.2830 C.3   1 <1>  -0.1350 
  6 C       -2.3290    -1.3030     0.2200 C.ar  1 <1>   0.1990 
  7 C       -0.0860    -2.4320     0.4460 C.3   1 <1>   0.3340 
  8 C       -2.8820    -1.9250    -0.8950 C.ar  1 <1>  -0.1500 
  9 C       -3.1980    -0.7470     1.1510 C.ar  1 <1>  -0.1500 
 10 C       -0.8850    -3.6980     0.7060 C.2   1 <1>  -0.2880 
 11 C       -4.2510    -1.9780    -1.0720 C.ar  1 <1>  -0.1500 
 12 C       -4.5670    -0.8030     0.9730 C.ar  1 <1>  -0.1500 
 13 C       -0.9330    -4.7690    -0.0930 C.2   1 <1>  -0.3000 
 14 C       -5.1350    -1.4140    -0.1490 C.ar  1 <1>   0.0860 
 15 C       -6.5690    -1.4730    -0.3610 C.2   1 <1>   0.5440 
 16 O       -7.0550    -2.3430    -1.0610 O.2   1 <1>  -0.5700 
 17 N       -7.3990    -0.5420     0.2070 N.am  1 <1>  -0.5790 
 18 C       -8.8640    -0.5060     0.0880 C.3   1 <1>   0.0490 
 19 C       -9.5280     0.8270    -0.0120 C.3   1 <1>  -0.2000 
 20 C       -9.6480     0.0180     1.2450 C.3   1 <1>  -0.2000 
 21 H        0.1040     1.7770    -1.4400 H     1 <1>   0.0800 
 22 H       -1.4330     0.9580    -1.4700 H     1 <1>   0.0800 
 23 H        0.0120     0.1210    -1.9780 H     1 <1>   0.0800 
 24 H        0.6310    -2.3150     1.2420 H     1 <1>   0.0800 
 25 H        0.4550    -2.5180    -0.4810 H     1 <1>   0.0800 
 26 H       -2.2300    -2.3720    -1.6220 H     1 <1>   0.1500 
 27 H       -2.7880    -0.2720     2.0250 H     1 <1>   0.1500 
 28 H       -1.4310    -3.6430     1.6330 H     1 <1>   0.1500 
 29 H       -4.6550    -2.4700    -1.9410 H     1 <1>   0.1500 
 30 H       -5.2010    -0.3720     1.7270 H     1 <1>   0.1500 
 31 H       -1.5140    -5.6500     0.1240 H     1 <1>   0.1500 
 32 H       -0.4030    -4.8610    -1.0250 H     1 <1>   0.1500 
 33 H       -6.9920     0.2450     0.7100 H     1 <1>   0.3700 
 34 H       -9.2680    -1.3290    -0.4810 H     1 <1>   0.1000 
 35 H      -10.3960     0.9220    -0.6410 H     1 <1>   0.1000 
 36 H       -8.9180     1.7130    -0.0120 H     1 <1>   0.1000 
 37 H       -9.1220     0.3370     2.1270 H     1 <1>   0.1000 
 38 H      -10.5980    -0.4350     1.4690 H     1 <1>   0.1000 
@<TRIPOS>BOND
  1   1   2  2   
  2   1   3  2   
  3   1   4  am  
  4   1   5  1   
  5   4   6  1   
  6   4   7  1   
  7   5  21  1   
  8   5  22  1   
  9   5  23  1   
 10   6   8  ar  
 11   6   9  ar  
 12   7  10  1   
 13   7  24  1   
 14   7  25  1   
 15   8  11  ar  
 16   8  26  1   
 17   9  12  ar  
 18   9  27  1   
 19  10  13  2   
 20  10  28  1   
 21  11  14  ar  
 22  11  29  1   
 23  12  14  ar  
 24  12  30  1   
 25  13  31  1   
 26  13  32  1   
 27  14  15  1   
 28  15  16  2   
 29  15  17  am  
 30  17  18  1   
 31  17  33  1   
 32  18  19  1   
 33  18  20  1   
 34  18  34  1   
 35  19  20  1   
 36  19  35  1   
 37  19  36  1   
 38  20  37  1   
 39  20  38  1   
@<TRIPOS>SUBSTRUCTURE
  1 ****   9 GROUP 4 **** **** 0

# MOE 2024.06 (io_trps.svl 2023.06)
