@<TRIPOS>MOLECULE
NONAME
54 56 1 0 0 
SMALL
USER_CHARGES


@<TRIPOS>ATOM
  1 S       -0.4860     0.4930    -0.8690 S.o2  1 <1>   1.4470 
  2 O       -1.4640     1.5590    -0.8640 O.2   1 <1>  -0.6500 
  3 O       -0.1900    -0.1860    -2.1140 O.2   1 <1>  -0.6500 
  4 N        0.9790     1.1500    -0.3220 N.am  1 <1>  -0.8490 
  5 C       -0.9100    -0.7140     0.4190 C.ar  1 <1>  -0.0090 
  6 C        1.2950     2.3980    -1.0200 C.3   1 <1>   0.1960 
  7 C        2.0800     0.1850    -0.4130 C.3   1 <1>   0.1960 
  8 C       -1.2810    -2.0150     0.0950 C.ar  1 <1>  -0.1500 
  9 C       -0.8760    -0.3640     1.7640 C.ar  1 <1>  -0.1500 
 10 C        2.5420     3.0480    -0.4120 C.3   1 <1>  -0.1600 
 11 C        3.3440     0.7610     0.2270 C.3   1 <1>  -0.1600 
 12 C       -1.6010    -2.9360     1.0780 C.ar  1 <1>  -0.1500 
 13 C       -1.1940    -1.2780     2.7540 C.ar  1 <1>  -0.1500 
 14 C        3.7440     2.0890    -0.4340 C.3   1 <1>  -0.0190 
 15 C       -1.5560    -2.5670     2.4100 C.ar  1 <1>  -0.1500 
 16 C        4.9710     2.7050     0.2360 C.2   1 <1>   0.5690 
 17 O        4.9200     3.0150     1.4010 O.2   1 <1>  -0.5700 
 18 N        6.0960     2.8830    -0.5070 N.am  1 <1>  -0.7300 
 19 C        7.3670     3.4570     0.0010 C.3   1 <1>   0.1400 
 20 C        8.4720     2.4010    -0.0530 C.3   1 <1>  -0.0220 
 21 C        9.8050     2.9620     0.4250 C.2   1 <1>  -0.2760 
 22 C       10.3110     2.6760     1.6300 C.2   1 <1>  -0.2880 
 23 C       10.5290     3.8570    -0.5770 C.3   1 <1>  -0.0220 
 24 C       11.6500     3.1800     2.1430 C.3   1 <1>  -0.0220 
 25 C       11.6680     4.6490     0.0830 C.3   1 <1>  -0.1600 
 26 C       12.5060     3.7540     1.0050 C.3   1 <1>  -0.1600 
 27 H        0.4710     3.0870    -0.9240 H     1 <1>   0.0800 
 28 H        1.4480     2.2030    -2.0690 H     1 <1>   0.0800 
 29 H        2.2710    -0.0600    -1.4460 H     1 <1>   0.0800 
 30 H        1.8120    -0.7230     0.1030 H     1 <1>   0.0800 
 31 H       -1.3200    -2.3110    -0.9400 H     1 <1>   0.1500 
 32 H       -0.5940     0.6400     2.0370 H     1 <1>   0.1500 
 33 H        2.3220     3.3320     0.6030 H     1 <1>   0.0800 
 34 H        2.7800     3.9430    -0.9570 H     1 <1>   0.0800 
 35 H        4.1480     0.0530     0.1340 H     1 <1>   0.0800 
 36 H        3.1630     0.9150     1.2770 H     1 <1>   0.0800 
 37 H       -1.8850    -3.9380     0.8060 H     1 <1>   0.1500 
 38 H       -1.1590    -0.9850     3.7890 H     1 <1>   0.1500 
 39 H        3.9880     1.8880    -1.4620 H     1 <1>   0.0800 
 40 H       -1.8040    -3.2810     3.1770 H     1 <1>   0.1500 
 41 H        6.1020     2.6090    -1.4890 H     1 <1>   0.3700 
 42 H        7.2440     3.7910     1.0180 H     1 <1>   0.0800 
 43 H        7.6310     4.3090    -0.5990 H     1 <1>   0.0800 
 44 H        8.5820     2.0230    -1.0530 H     1 <1>   0.0800 
 45 H        8.1860     1.5830     0.5860 H     1 <1>   0.0800 
 46 H        9.8000     2.0570     2.3480 H     1 <1>   0.1500 
 47 H        9.8460     4.5570    -1.0240 H     1 <1>   0.0800 
 48 H       10.9310     3.2390    -1.3610 H     1 <1>   0.0800 
 49 H       12.1850     2.3730     2.6110 H     1 <1>   0.0800 
 50 H       11.4720     3.9390     2.8840 H     1 <1>   0.0800 
 51 H       11.2450     5.4510     0.6650 H     1 <1>   0.0800 
 52 H       12.2930     5.0830    -0.6770 H     1 <1>   0.0800 
 53 H       12.9120     2.9410     0.4270 H     1 <1>   0.0800 
 54 H       13.3260     4.3130     1.4180 H     1 <1>   0.0800 
@<TRIPOS>BOND
  1   1   2  2   
  2   1   3  2   
  3   1   4  am  
  4   1   5  1   
  5   4   6  1   
  6   4   7  1   
  7   5   8  ar  
  8   5   9  ar  
  9   6  10  1   
 10   6  27  1   
 11   6  28  1   
 12   7  11  1   
 13   7  29  1   
 14   7  30  1   
 15   8  12  ar  
 16   8  31  1   
 17   9  13  ar  
 18   9  32  1   
 19  10  14  1   
 20  10  33  1   
 21  10  34  1   
 22  11  14  1   
 23  11  35  1   
 24  11  36  1   
 25  12  15  ar  
 26  12  37  1   
 27  13  15  ar  
 28  13  38  1   
 29  14  16  1   
 30  14  39  1   
 31  15  40  1   
 32  16  17  2   
 33  16  18  am  
 34  18  19  1   
 35  18  41  1   
 36  19  20  1   
 37  19  42  1   
 38  19  43  1   
 39  20  21  1   
 40  20  44  1   
 41  20  45  1   
 42  21  22  2   
 43  21  23  1   
 44  22  24  1   
 45  22  46  1   
 46  23  25  1   
 47  23  47  1   
 48  23  48  1   
 49  24  26  1   
 50  24  49  1   
 51  24  50  1   
 52  25  26  1   
 53  25  51  1   
 54  25  52  1   
 55  26  53  1   
 56  26  54  1   
@<TRIPOS>SUBSTRUCTURE
  1 ****  11 GROUP 4 **** **** 0

# MOE 2024.06 (io_trps.svl 2023.06)
