@<TRIPOS>MOLECULE
NONAME
44 46 1 0 0 
SMALL
USER_CHARGES


@<TRIPOS>ATOM
  1 O        0.4890    -0.0310     0.0820 O.2   1 <1>  -0.5700 
  2 C        0.8710    -1.0710    -0.4210 C.2   1 <1>   0.6900 
  3 N        2.1930    -1.2410    -0.7330 N.am  1 <1>  -0.6600 
  4 N       -0.0090    -2.0720    -0.7240 N.am  1 <1>  -0.5470 
  5 C        2.8540    -2.5780    -0.7540 C.3   1 <1>   0.2840 
  6 C        3.1280    -0.0850    -0.7390 C.3   1 <1>   0.1400 
  7 C       -1.3580    -2.2510    -0.3900 C.ar  1 <1>   0.1170 
  8 C        4.1690    -2.6140     0.0250 C.ar  1 <1>  -0.1440 
  9 C        4.0010    -0.1390     0.5130 C.3   1 <1>  -0.0160 
 10 C       -2.1490    -3.0630    -1.1930 C.ar  1 <1>  -0.1500 
 11 C       -1.9430    -1.6670     0.7280 C.ar  1 <1>  -0.1500 
 12 C        4.7140    -1.4790     0.6170 C.ar  1 <1>  -0.1440 
 13 C        4.8390    -3.8240     0.1370 C.ar  1 <1>  -0.1500 
 14 C       -3.4810    -3.2830    -0.8930 C.ar  1 <1>  -0.1500 
 15 C       -3.2750    -1.8850     1.0300 C.ar  1 <1>  -0.1500 
 16 C        5.9100    -1.5670     1.3120 C.ar  1 <1>  -0.1500 
 17 C        6.0340    -3.9070     0.8290 C.ar  1 <1>  -0.1500 
 18 C       -4.0600    -2.6960     0.2230 C.ar  1 <1>  -0.1440 
 19 C        6.5700    -2.7770     1.4170 C.ar  1 <1>  -0.1500 
 20 C       -5.5330    -2.9470     0.5420 C.3   1 <1>   0.0630 
 21 C       -6.3300    -1.6390     0.5070 C.3   1 <1>  -0.2400 
 22 C       -5.6890    -3.6440     1.8970 C.3   1 <1>  -0.2400 
 23 H        0.3570    -2.7210    -1.4100 H     1 <1>   0.3700 
 24 H        3.0510    -2.8470    -1.7770 H     1 <1>   0.0800 
 25 H        2.1970    -3.3170    -0.3300 H     1 <1>   0.0800 
 26 H        2.5850     0.8440    -0.7670 H     1 <1>   0.0800 
 27 H        3.7480    -0.1380    -1.6170 H     1 <1>   0.0800 
 28 H        3.3830     0.0080     1.3810 H     1 <1>   0.0800 
 29 H        4.7190     0.6600     0.4730 H     1 <1>   0.0800 
 30 H       -1.7240    -3.5260    -2.0640 H     1 <1>   0.1500 
 31 H       -1.3540    -1.0370     1.3700 H     1 <1>   0.1500 
 32 H        4.4340    -4.7120    -0.3150 H     1 <1>   0.1500 
 33 H       -4.0680    -3.9150    -1.5350 H     1 <1>   0.1500 
 34 H       -3.6960    -1.4160     1.9000 H     1 <1>   0.1500 
 35 H        6.3320    -0.6930     1.7750 H     1 <1>   0.1500 
 36 H        6.5470    -4.8500     0.9100 H     1 <1>   0.1500 
 37 H        7.4990    -2.8390     1.9580 H     1 <1>   0.1500 
 38 H       -5.9430    -3.5990    -0.2110 H     1 <1>   0.0800 
 39 H       -5.9930    -0.9650     1.2740 H     1 <1>   0.0800 
 40 H       -7.3760    -1.8350     0.6560 H     1 <1>   0.0800 
 41 H       -6.2030    -1.1600    -0.4470 H     1 <1>   0.0800 
 42 H       -5.3380    -3.0130     2.6940 H     1 <1>   0.0800 
 43 H       -5.1190    -4.5550     1.9060 H     1 <1>   0.0800 
 44 H       -6.7210    -3.8830     2.0770 H     1 <1>   0.0800 
@<TRIPOS>BOND
  1   1   2  2   
  2   2   3  am  
  3   2   4  am  
  4   3   5  1   
  5   3   6  1   
  6   4   7  1   
  7   4  23  1   
  8   5   8  1   
  9   5  24  1   
 10   5  25  1   
 11   6   9  1   
 12   6  26  1   
 13   6  27  1   
 14   7  10  ar  
 15   7  11  ar  
 16   8  12  ar  
 17   8  13  ar  
 18   9  12  1   
 19   9  28  1   
 20   9  29  1   
 21  10  14  ar  
 22  10  30  1   
 23  11  15  ar  
 24  11  31  1   
 25  12  16  ar  
 26  13  17  ar  
 27  13  32  1   
 28  14  18  ar  
 29  14  33  1   
 30  15  18  ar  
 31  15  34  1   
 32  16  19  ar  
 33  16  35  1   
 34  17  19  ar  
 35  17  36  1   
 36  18  20  1   
 37  19  37  1   
 38  20  21  1   
 39  20  22  1   
 40  20  38  1   
 41  21  39  1   
 42  21  40  1   
 43  21  41  1   
 44  22  42  1   
 45  22  43  1   
 46  22  44  1   
@<TRIPOS>SUBSTRUCTURE
  1 ****   4 GROUP 4 **** **** 0

# MOE 2024.06 (io_trps.svl 2023.06)
