@<TRIPOS>MOLECULE
NONAME
47 49 1 0 0 
SMALL
USER_CHARGES


@<TRIPOS>ATOM
  1 O       -1.2820    -1.5780    -2.5160 O.2   1 <1>  -0.5700 
  2 C       -2.0000    -0.8830    -1.8350 C.2   1 <1>   0.5690 
  3 N       -2.2290     0.4370    -2.0530 N.am  1 <1>  -0.5470 
  4 C       -2.7310    -1.3340    -0.5530 C.3   1 <1>   0.4810 
  5 C       -2.9790     0.9850    -1.0250 C.ar  1 <1>   0.1170 
  6 C       -1.7560    -1.9380     0.4720 C.2   1 <1>  -0.1240 
  7 C       -3.9330    -2.2450    -0.8450 C.2   1 <1>  -0.1240 
  8 C       -3.2930     0.0150    -0.0910 C.ar  1 <1>  -0.1440 
  9 C       -3.3990     2.2930    -0.8520 C.ar  1 <1>  -0.1500 
 10 C       -2.0600    -3.1470     1.0330 C.2   1 <1>   0.1770 
 11 C       -0.5760    -1.1830     0.7400 C.2   1 <1>   0.7060 
 12 C       -4.0400    -3.4320    -0.2050 C.2   1 <1>  -0.0620 
 13 C       -4.8910    -1.7170    -1.7730 C.2   1 <1>   0.4950 
 14 C       -4.0250     0.3300     1.0400 C.ar  1 <1>  -0.1500 
 15 C       -4.1370     2.6140     0.2760 C.ar  1 <1>  -0.1500 
 16 O       -3.1570    -3.8400     0.7070 O.3   1 <1>  -0.1530 
 17 N       -1.3210    -3.8020     1.9720 N.pl3 1 <1>  -0.9000 
 18 O       -0.4120    -0.0220     0.4090 O.2   1 <1>  -0.5700 
 19 O        0.4480    -1.7740     1.3830 O.3   1 <1>  -0.4300 
 20 C       -5.1300    -4.4740    -0.4090 C.3   1 <1>  -0.1020 
 21 O       -4.6230    -1.3620    -2.8890 O.2   1 <1>  -0.5700 
 22 C       -6.3320    -1.5570    -1.3410 C.3   1 <1>  -0.1790 
 23 C       -4.4460     1.6400     1.2170 C.ar  1 <1>  -0.1500 
 24 C        1.6980    -1.1330     1.5910 C.3   1 <1>   0.1200 
 25 C        2.4890    -1.1000     0.2810 C.3   1 <1>   0.1200 
 26 O        3.7870    -0.6800     0.5630 O.3   1 <1>  -0.5600 
 27 C        4.5910    -0.5560    -0.5640 C.3   1 <1>   0.0400 
 28 H       -1.8260     0.9360    -2.8440 H     1 <1>   0.3700 
 29 H       -3.1510     3.0400    -1.5840 H     1 <1>   0.1500 
 30 H       -4.2640    -0.4240     1.7710 H     1 <1>   0.1500 
 31 H       -4.4710     3.6260     0.4260 H     1 <1>   0.1500 
 32 H       -0.3940    -3.4620     2.2600 H     1 <1>   0.4000 
 33 H       -1.5730    -4.7350     2.3110 H     1 <1>   0.4000 
 34 H       -4.6790    -5.4350    -0.5810 H     1 <1>   0.0800 
 35 H       -5.7510    -4.2490    -1.2560 H     1 <1>   0.0800 
 36 H       -5.7450    -4.5380     0.4700 H     1 <1>   0.0800 
 37 H       -6.6270    -0.5330    -1.4800 H     1 <1>   0.0800 
 38 H       -6.4560    -1.8130    -0.3050 H     1 <1>   0.0800 
 39 H       -6.9620    -2.1830    -1.9450 H     1 <1>   0.0800 
 40 H       -5.0160     1.9050     2.0910 H     1 <1>   0.1500 
 41 H        2.2350    -1.7070     2.3250 H     1 <1>   0.0800 
 42 H        1.5280    -0.1380     1.9640 H     1 <1>   0.0800 
 43 H        2.0430    -0.4060    -0.4100 H     1 <1>   0.0800 
 44 H        2.5370    -2.0850    -0.1510 H     1 <1>   0.0800 
 45 H        5.5670    -0.2330    -0.2460 H     1 <1>   0.0800 
 46 H        4.1640     0.1780    -1.2260 H     1 <1>   0.0800 
 47 H        4.6660    -1.5110    -1.0550 H     1 <1>   0.0800 
@<TRIPOS>BOND
  1   1   2  2   
  2   2   3  am  
  3   2   4  1   
  4   3   5  1   
  5   3  28  1   
  6   4   6  1   
  7   4   7  1   
  8   4   8  1   
  9   5   8  ar  
 10   5   9  ar  
 11   6  10  2   
 12   6  11  1   
 13   7  12  2   
 14   7  13  1   
 15   8  14  ar  
 16   9  15  ar  
 17   9  29  1   
 18  10  16  1   
 19  10  17  1   
 20  11  18  2   
 21  11  19  1   
 22  12  16  1   
 23  12  20  1   
 24  13  21  2   
 25  13  22  1   
 26  14  23  ar  
 27  14  30  1   
 28  15  23  ar  
 29  15  31  1   
 30  17  32  1   
 31  17  33  1   
 32  19  24  1   
 33  20  34  1   
 34  20  35  1   
 35  20  36  1   
 36  22  37  1   
 37  22  38  1   
 38  22  39  1   
 39  23  40  1   
 40  24  25  1   
 41  24  41  1   
 42  24  42  1   
 43  25  26  1   
 44  25  43  1   
 45  25  44  1   
 46  26  27  1   
 47  27  45  1   
 48  27  46  1   
 49  27  47  1   
@<TRIPOS>SUBSTRUCTURE
  1 ****   4 GROUP 4 **** **** 0

# MOE 2024.06 (io_trps.svl 2023.06)
