@<TRIPOS>MOLECULE
NONAME
48 51 1 0 0 
SMALL
USER_CHARGES


@<TRIPOS>ATOM
  1 O       -0.8130    -0.4160     1.5420 O.2   1 <1>  -0.5700 
  2 C       -1.5950    -1.0340     0.8580 C.2   1 <1>   0.5770 
  3 N       -1.6850    -2.3510     0.4920 N.am  1 <1>  -0.4020 
  4 C       -2.8440    -0.6160     0.0670 C.3   1 <1>   0.0530 
  5 C       -0.8970    -3.5040     0.6500 C.ar  1 <1>   0.1170 
  6 C       -2.8990    -2.1050    -0.3670 C.3   1 <1>   0.3330 
  7 C       -3.9580    -0.0130     0.9420 C.3   1 <1>  -0.1600 
  8 C       -2.5500     0.4110    -1.0290 C.3   1 <1>  -0.1600 
  9 C       -1.2850    -4.7220     0.0990 C.ar  1 <1>  -0.1500 
 10 C        0.2930    -3.4540     1.3680 C.ar  1 <1>  -0.1500 
 11 C       -4.1390    -2.8910     0.0640 C.ar  1 <1>  -0.1080 
 12 C       -3.9690     1.4890     0.6280 C.3   1 <1>  -0.1600 
 13 C       -2.8130     1.7490    -0.3430 C.3   1 <1>  -0.1600 
 14 C       -0.5090    -5.8570     0.2570 C.ar  1 <1>  -0.1500 
 15 C        1.0730    -4.5840     1.5290 C.ar  1 <1>  -0.1500 
 16 C       -5.1300    -3.1380    -0.8750 C.ar  1 <1>  -0.1500 
 17 C       -4.3100    -3.3640     1.3600 C.ar  1 <1>  -0.1500 
 18 C        0.6810    -5.7920     0.9770 C.ar  1 <1>   0.0830 
 19 C       -6.2720    -3.8420    -0.5340 C.ar  1 <1>  -0.1500 
 20 C       -5.4500    -4.0680     1.7040 C.ar  1 <1>  -0.1500 
 21 O        1.5030    -6.8550     1.1820 O.3   1 <1>  -0.3620 
 22 C       -6.4370    -4.3130     0.7650 C.ar  1 <1>   0.0830 
 23 C        1.1780    -8.1320     0.6790 C.3   1 <1>   0.0400 
 24 O       -7.5220    -5.0100     1.1850 O.3   1 <1>  -0.3630 
 25 C       -8.5890    -5.3050     0.3120 C.3   1 <1>   0.0400 
 26 H       -2.6500    -2.2440    -1.4040 H     1 <1>   0.0000 
 27 H       -3.7680    -0.1900     1.9870 H     1 <1>   0.0800 
 28 H       -4.9170    -0.4310     0.6880 H     1 <1>   0.0800 
 29 H       -3.2450     0.2820    -1.8410 H     1 <1>   0.0800 
 30 H       -1.5430     0.3410    -1.4020 H     1 <1>   0.0800 
 31 H       -2.2020    -4.7920    -0.4560 H     1 <1>   0.1500 
 32 H        0.6130    -2.5240     1.8060 H     1 <1>   0.1500 
 33 H       -3.8590     2.0790     1.5220 H     1 <1>   0.0800 
 34 H       -4.9020     1.7490     0.1560 H     1 <1>   0.0800 
 35 H       -3.0430     2.5290    -1.0480 H     1 <1>   0.0800 
 36 H       -1.9390     2.0340     0.2200 H     1 <1>   0.0800 
 37 H       -0.8450    -6.7760    -0.1830 H     1 <1>   0.1500 
 38 H        1.9910    -4.5360     2.0850 H     1 <1>   0.1500 
 39 H       -5.0170    -2.7800    -1.8840 H     1 <1>   0.1500 
 40 H       -3.5600    -3.1900     2.1130 H     1 <1>   0.1500 
 41 H       -7.0180    -4.0140    -1.2860 H     1 <1>   0.1500 
 42 H       -5.5800    -4.4340     2.7070 H     1 <1>   0.1500 
 43 H        1.9580    -8.8130     0.9670 H     1 <1>   0.0800 
 44 H        1.1170    -8.0790    -0.3940 H     1 <1>   0.0800 
 45 H        0.2420    -8.4470     1.1050 H     1 <1>   0.0800 
 46 H       -9.3290    -5.8570     0.8640 H     1 <1>   0.0800 
 47 H       -8.2190    -5.9040    -0.5020 H     1 <1>   0.0800 
 48 H       -9.0130    -4.3840    -0.0460 H     1 <1>   0.0800 
@<TRIPOS>BOND
  1   1   2  2   
  2   2   3  am  
  3   2   4  1   
  4   3   5  1   
  5   3   6  1   
  6   4   6  1   
  7   4   7  1   
  8   4   8  1   
  9   5   9  ar  
 10   5  10  ar  
 11   6  11  1   
 12   6  26  1   
 13   7  12  1   
 14   7  27  1   
 15   7  28  1   
 16   8  13  1   
 17   8  29  1   
 18   8  30  1   
 19   9  14  ar  
 20   9  31  1   
 21  10  15  ar  
 22  10  32  1   
 23  11  16  ar  
 24  11  17  ar  
 25  12  13  1   
 26  12  33  1   
 27  12  34  1   
 28  13  35  1   
 29  13  36  1   
 30  14  18  ar  
 31  14  37  1   
 32  15  18  ar  
 33  15  38  1   
 34  16  19  ar  
 35  16  39  1   
 36  17  20  ar  
 37  17  40  1   
 38  18  21  1   
 39  19  22  ar  
 40  19  41  1   
 41  20  22  ar  
 42  20  42  1   
 43  21  23  1   
 44  22  24  1   
 45  23  43  1   
 46  23  44  1   
 47  23  45  1   
 48  24  25  1   
 49  25  46  1   
 50  25  47  1   
 51  25  48  1   
@<TRIPOS>SUBSTRUCTURE
  1 ****   3 GROUP 4 **** **** 0

# MOE 2024.06 (io_trps.svl 2023.06)
