@<TRIPOS>MOLECULE
NONAME
41 42 1 0 0 
SMALL
USER_CHARGES


@<TRIPOS>ATOM
  1 S       -0.0510     0.3500    -0.9890 S.3   1 <1>  -0.3320 
  2 C        1.4590    -0.5980    -0.9550 C.ar  1 <1>   0.7220 
  3 C       -1.2960    -0.7070    -0.1290 C.3   1 <1>   0.0700 
  4 N        2.4860    -0.0260    -1.5390 N.ar  1 <1>  -0.6200 
  5 N        1.3930    -1.7760    -0.3480 N.ar  1 <1>  -0.6200 
  6 C       -2.6310     0.0390    -0.1270 C.3   1 <1>  -0.1600 
  7 C        3.6000    -0.7200    -1.5180 C.ar  1 <1>   0.4100 
  8 C        2.5270    -2.4410    -0.3360 C.ar  1 <1>   0.1600 
  9 C       -3.7250    -0.7750     0.5710 C.3   1 <1>  -0.0160 
 10 N        4.6230    -0.1170    -2.1730 N.pl3 1 <1>  -0.9000 
 11 C        3.6970    -1.9610    -0.8870 C.ar  1 <1>   0.0860 
 12 C       -5.0420    -0.0160     0.5590 C.ar  1 <1>  -0.1430 
 13 C        4.9070    -2.7230    -0.8200 C.2   1 <1>   0.6340 
 14 C       -5.9340    -0.1770    -0.4890 C.ar  1 <1>  -0.1500 
 15 C       -5.3600     0.8480     1.5950 C.ar  1 <1>  -0.1500 
 16 O        4.9310    -3.9050    -1.0750 O.2   1 <1>  -0.5700 
 17 O        6.0590    -2.1660    -0.4370 O.3   1 <1>  -0.4300 
 18 C       -7.1320     0.5150    -0.5020 C.ar  1 <1>  -0.1500 
 19 C       -6.5590     1.5420     1.5850 C.ar  1 <1>  -0.1500 
 20 C        6.1260    -1.1890     0.5790 C.3   1 <1>   0.1200 
 21 C       -7.4460     1.3750     0.5360 C.ar  1 <1>  -0.1500 
 22 C        7.5970    -0.9310     0.8810 C.3   1 <1>  -0.2400 
 23 H       -0.9340    -0.8820     0.8690 H     1 <1>   0.0800 
 24 H       -1.3570    -1.6350    -0.6710 H     1 <1>   0.0800 
 25 H       -2.9290     0.2380    -1.1420 H     1 <1>   0.0800 
 26 H       -2.5120     0.9820     0.3780 H     1 <1>   0.0800 
 27 H        2.5350    -3.4120     0.1330 H     1 <1>   0.1500 
 28 H       -3.4370    -0.9780     1.5880 H     1 <1>   0.0800 
 29 H       -3.8520    -1.7200     0.0720 H     1 <1>   0.0800 
 30 H        5.5240    -0.5650    -2.3690 H     1 <1>   0.4000 
 31 H        4.4310     0.7490    -2.6850 H     1 <1>   0.4000 
 32 H       -5.6980    -0.8420    -1.3020 H     1 <1>   0.1500 
 33 H       -4.6760     0.9870     2.4140 H     1 <1>   0.1500 
 34 H       -7.8200     0.3850    -1.3180 H     1 <1>   0.1500 
 35 H       -6.8000     2.2110     2.3920 H     1 <1>   0.1500 
 36 H        5.6210    -1.5670     1.4520 H     1 <1>   0.0800 
 37 H        5.6480    -0.2850     0.2420 H     1 <1>   0.0800 
 38 H       -8.3770     1.9140     0.5270 H     1 <1>   0.1500 
 39 H        8.0720    -1.8390     1.2090 H     1 <1>   0.0800 
 40 H        7.6860    -0.1960     1.6600 H     1 <1>   0.0800 
 41 H        8.0980    -0.5620     0.0030 H     1 <1>   0.0800 
@<TRIPOS>BOND
  1   1   2  1   
  2   1   3  1   
  3   2   4  ar  
  4   2   5  ar  
  5   3   6  1   
  6   3  23  1   
  7   3  24  1   
  8   4   7  ar  
  9   5   8  ar  
 10   6   9  1   
 11   6  25  1   
 12   6  26  1   
 13   7  10  1   
 14   7  11  ar  
 15   8  11  ar  
 16   8  27  1   
 17   9  12  1   
 18   9  28  1   
 19   9  29  1   
 20  10  30  1   
 21  10  31  1   
 22  11  13  1   
 23  12  14  ar  
 24  12  15  ar  
 25  13  16  2   
 26  13  17  1   
 27  14  18  ar  
 28  14  32  1   
 29  15  19  ar  
 30  15  33  1   
 31  17  20  1   
 32  18  21  ar  
 33  18  34  1   
 34  19  21  ar  
 35  19  35  1   
 36  20  22  1   
 37  20  36  1   
 38  20  37  1   
 39  21  38  1   
 40  22  39  1   
 41  22  40  1   
 42  22  41  1   
@<TRIPOS>SUBSTRUCTURE
  1 ****   1 GROUP 4 **** **** 0

# MOE 2024.06 (io_trps.svl 2023.06)
