@<TRIPOS>MOLECULE
NONAME
56 58 1 0 0 
SMALL
USER_CHARGES


@<TRIPOS>ATOM
  1 O        2.1320     1.8090    -2.0520 O.2   1 <1>  -0.5700 
  2 C        1.9270     1.7680    -0.8690 C.2   1 <1>   0.6590 
  3 O        0.7790     2.2170    -0.3770 O.3   1 <1>  -0.4300 
  4 C        3.0080     1.2030     0.0510 C.3   1 <1>  -0.0190 
  5 C        0.4530     2.4260     0.9780 C.3   1 <1>   0.1200 
  6 C        4.3320     1.2360    -0.7280 C.3   1 <1>   0.3430 
  7 C        2.6910    -0.2360     0.4990 C.3   1 <1>  -0.1600 
  8 C       -0.9370     3.0500     1.0280 C.3   1 <1>  -0.2400 
  9 N        5.4920     0.6400     0.0390 N.4   1 <1>  -0.9590 
 10 C        3.8870    -0.8450     1.2400 C.3   1 <1>  -0.1600 
 11 C        6.7930     0.7560    -0.7120 C.3   1 <1>   0.4230 
 12 C        5.1660    -0.7830     0.4030 C.3   1 <1>   0.3430 
 13 C        7.9540     0.1970     0.1280 C.3   1 <1>  -0.1600 
 14 C        7.0890     2.2210    -1.0820 C.3   1 <1>  -0.1600 
 15 C        9.3060     0.3860    -0.5600 C.3   1 <1>   0.3430 
 16 C        8.4540     2.3850    -1.7540 C.3   1 <1>   0.3430 
 17 N        9.5180     1.8240    -0.8830 N.4   1 <1>  -0.9590 
 18 C       10.8730     2.0450    -1.4780 C.3   1 <1>   0.4860 
 19 C       11.9080     1.6720    -0.4370 C.ar  1 <1>  -0.1440 
 20 C       12.1320     2.5000     0.6560 C.ar  1 <1>  -0.1500 
 21 C       12.6330     0.4950    -0.5620 C.ar  1 <1>  -0.1500 
 22 C       13.0570     2.1420     1.6210 C.ar  1 <1>  -0.1500 
 23 C       13.5570     0.1400     0.4040 C.ar  1 <1>  -0.1500 
 24 C       13.7670     0.9610     1.4970 C.ar  1 <1>  -0.1500 
 25 H        3.1050     1.8450     0.9060 H     1 <1>   0.0800 
 26 H        1.1770     3.0930     1.4140 H     1 <1>   0.0800 
 27 H        0.4540     1.4810     1.4910 H     1 <1>   0.0800 
 28 H        4.5360     2.2620    -0.9820 H     1 <1>   0.0800 
 29 H        4.1980     0.6940    -1.6510 H     1 <1>   0.0800 
 30 H        2.4620    -0.8380    -0.3650 H     1 <1>   0.0800 
 31 H        1.8260    -0.2520     1.1390 H     1 <1>   0.0800 
 32 H       -0.9430     3.9890     0.5040 H     1 <1>   0.0800 
 33 H       -1.2240     3.2270     2.0490 H     1 <1>   0.0800 
 34 H       -1.6580     2.3880     0.5810 H     1 <1>   0.0800 
 35 H        5.5750     1.1600     0.9220 H     1 <1>   0.4500 
 36 H        3.6700    -1.8750     1.4660 H     1 <1>   0.0800 
 37 H        4.0420    -0.3400     2.1790 H     1 <1>   0.0800 
 38 H        6.7210     0.1820    -1.6230 H     1 <1>   0.0800 
 39 H        5.9660    -1.2210     0.9760 H     1 <1>   0.0800 
 40 H        5.0310    -1.3690    -0.4930 H     1 <1>   0.0800 
 41 H        7.8340    -0.8600     0.2800 H     1 <1>   0.0800 
 42 H        7.9880     0.6740     1.0920 H     1 <1>   0.0800 
 43 H        7.0550     2.8450    -0.2060 H     1 <1>   0.0800 
 44 H        6.3610     2.5850    -1.7840 H     1 <1>   0.0800 
 45 H        9.3440    -0.2020    -1.4640 H     1 <1>   0.0800 
 46 H       10.0900     0.0360     0.0960 H     1 <1>   0.0800 
 47 H        8.6410     3.4330    -1.9360 H     1 <1>   0.0800 
 48 H        8.4550     1.8760    -2.7050 H     1 <1>   0.0800 
 49 H        9.5500     2.3410     0.0080 H     1 <1>   0.4500 
 50 H       11.0020     3.0810    -1.7480 H     1 <1>   0.0800 
 51 H       11.0040     1.4410    -2.3620 H     1 <1>   0.0800 
 52 H       11.6050     3.4310     0.7730 H     1 <1>   0.1500 
 53 H       12.4970    -0.1590    -1.4070 H     1 <1>   0.1500 
 54 H       13.2320     2.7820     2.4690 H     1 <1>   0.1500 
 55 H       14.1210    -0.7730     0.3080 H     1 <1>   0.1500 
 56 H       14.4880     0.6850     2.2480 H     1 <1>   0.1500 
@<TRIPOS>BOND
  1   1   2  2   
  2   2   3  1   
  3   2   4  1   
  4   3   5  1   
  5   4   6  1   
  6   4   7  1   
  7   4  25  1   
  8   5   8  1   
  9   5  26  1   
 10   5  27  1   
 11   6   9  1   
 12   6  28  1   
 13   6  29  1   
 14   7  10  1   
 15   7  30  1   
 16   7  31  1   
 17   8  32  1   
 18   8  33  1   
 19   8  34  1   
 20   9  11  1   
 21   9  12  1   
 22   9  35  1   
 23  10  12  1   
 24  10  36  1   
 25  10  37  1   
 26  11  13  1   
 27  11  14  1   
 28  11  38  1   
 29  12  39  1   
 30  12  40  1   
 31  13  15  1   
 32  13  41  1   
 33  13  42  1   
 34  14  16  1   
 35  14  43  1   
 36  14  44  1   
 37  15  17  1   
 38  15  45  1   
 39  15  46  1   
 40  16  17  1   
 41  16  47  1   
 42  16  48  1   
 43  17  18  1   
 44  17  49  1   
 45  18  19  1   
 46  18  50  1   
 47  18  51  1   
 48  19  20  ar  
 49  19  21  ar  
 50  20  22  ar  
 51  20  52  1   
 52  21  23  ar  
 53  21  53  1   
 54  22  24  ar  
 55  22  54  1   
 56  23  24  ar  
 57  23  55  1   
 58  24  56  1   
@<TRIPOS>SUBSTRUCTURE
  1 ****  11 GROUP 4 **** **** 0

# MOE 2024.06 (io_trps.svl 2023.06)
