@<TRIPOS>MOLECULE
NONAME
32 32 1 0 0 
SMALL
USER_CHARGES


@<TRIPOS>ATOM
  1 S       -0.5760     0.1350     0.2740 S.3   1 <1>  -0.4600 
  2 C        0.8780    -0.7770    -0.2980 C.3   1 <1>   0.1500 
  3 C       -1.9630    -0.9610    -0.1210 C.3   1 <1>   0.0700 
  4 C        1.1960    -1.8520     0.7400 C.3   1 <1>  -0.2400 
  5 C        2.0070     0.2390    -0.4440 C.3   1 <1>  -0.2400 
  6 C       -3.2550    -0.2280     0.2410 C.3   1 <1>  -0.1600 
  7 C       -4.4760    -1.0940    -0.0660 C.3   1 <1>   0.1200 
  8 O       -5.6300    -0.3670     0.2850 O.3   1 <1>  -0.3630 
  9 C       -6.8790    -0.8880     0.1220 C.ar  1 <1>   0.0820 
 10 C       -7.9800    -0.1200     0.4890 C.ar  1 <1>   0.1900 
 11 C       -7.1180    -2.1600    -0.3960 C.ar  1 <1>  -0.1500 
 12 F       -7.7980     1.0820     0.9800 F     1 <1>  -0.1900 
 13 C       -9.2790    -0.5720     0.3580 C.ar  1 <1>  -0.1500 
 14 C       -8.4180    -2.6260    -0.5330 C.ar  1 <1>  -0.1500 
 15 C       -9.4960    -1.8380    -0.1590 C.ar  1 <1>  -0.1500 
 16 H        0.6320    -1.2120    -1.2520 H     1 <1>   0.0800 
 17 H       -1.8410    -1.8580     0.4590 H     1 <1>   0.0800 
 18 H       -1.9100    -1.1790    -1.1730 H     1 <1>   0.0800 
 19 H        1.3620    -1.4020     1.7030 H     1 <1>   0.0800 
 20 H        2.0830    -2.3880     0.4530 H     1 <1>   0.0800 
 21 H        0.3870    -2.5530     0.8170 H     1 <1>   0.0800 
 22 H        2.2110     0.7100     0.5010 H     1 <1>   0.0800 
 23 H        1.7310     0.9950    -1.1560 H     1 <1>   0.0800 
 24 H        2.9010    -0.2480    -0.7890 H     1 <1>   0.0800 
 25 H       -3.3150     0.6850    -0.3260 H     1 <1>   0.0800 
 26 H       -3.2440     0.0130     1.2890 H     1 <1>   0.0800 
 27 H       -4.4560    -1.9990     0.5160 H     1 <1>   0.0800 
 28 H       -4.5260    -1.3220    -1.1170 H     1 <1>   0.0800 
 29 H       -6.3120    -2.8010    -0.6970 H     1 <1>   0.1500 
 30 H      -10.0990     0.0570     0.6540 H     1 <1>   0.1500 
 31 H       -8.5930    -3.6100    -0.9340 H     1 <1>   0.1500 
 32 H      -10.5010    -2.2100    -0.2700 H     1 <1>   0.1500 
@<TRIPOS>BOND
  1   1   2  1   
  2   1   3  1   
  3   2   4  1   
  4   2   5  1   
  5   2  16  1   
  6   3   6  1   
  7   3  17  1   
  8   3  18  1   
  9   4  19  1   
 10   4  20  1   
 11   4  21  1   
 12   5  22  1   
 13   5  23  1   
 14   5  24  1   
 15   6   7  1   
 16   6  25  1   
 17   6  26  1   
 18   7   8  1   
 19   7  27  1   
 20   7  28  1   
 21   8   9  1   
 22   9  10  ar  
 23   9  11  ar  
 24  10  12  1   
 25  10  13  ar  
 26  11  14  ar  
 27  11  29  1   
 28  13  15  ar  
 29  13  30  1   
 30  14  15  ar  
 31  14  31  1   
 32  15  32  1   
@<TRIPOS>SUBSTRUCTURE
  1 ****   7 GROUP 4 **** **** 0

# MOE 2024.06 (io_trps.svl 2023.06)
