@<TRIPOS>MOLECULE
NONAME
50 52 1 0 0 
SMALL
USER_CHARGES


@<TRIPOS>ATOM
  1 O        0.8680    -0.6290    -1.3330 O.2   1 <1>  -0.5700 
  2 C        1.0290    -0.8000    -0.1400 C.2   1 <1>   0.6900 
  3 N        2.1970    -0.4130     0.4640 N.am  1 <1>  -0.6600 
  4 N        0.0490    -1.3470     0.6370 N.am  1 <1>  -0.5470 
  5 C        3.1850     0.4530    -0.2580 C.3   1 <1>   0.1400 
  6 C        2.7960    -1.1320     1.6370 C.3   1 <1>   0.1400 
  7 C       -1.1560    -1.9810     0.3030 C.ar  1 <1>   0.1170 
  8 C        4.4500    -0.3350    -0.6340 C.3   1 <1>   0.2090 
  9 C        4.0760    -1.8890     1.2380 C.3   1 <1>   0.2090 
 10 C       -2.1760    -2.0280     1.2470 C.ar  1 <1>  -0.1500 
 11 C       -1.3710    -2.5900    -0.9280 C.ar  1 <1>  -0.1500 
 12 N        5.0520    -0.9770     0.5740 N.pl3 1 <1>  -0.8380 
 13 C       -3.3740    -2.6600     0.9690 C.ar  1 <1>  -0.1500 
 14 C       -2.5690    -3.2220    -1.2090 C.ar  1 <1>  -0.1500 
 15 C        6.3400    -1.5030     0.3950 C.ar  1 <1>   0.1000 
 16 C       -3.5790    -3.2640    -0.2610 C.ar  1 <1>  -0.1440 
 17 C        6.6430    -2.5970    -0.4370 C.ar  1 <1>   0.0820 
 18 C        7.3720    -0.8910     1.0910 C.ar  1 <1>  -0.1500 
 19 C       -4.8950    -3.9590    -0.5700 C.3   1 <1>  -0.0170 
 20 O        5.6210    -3.1960    -1.1240 O.3   1 <1>  -0.3620 
 21 C        7.9590    -3.0400    -0.5400 C.ar  1 <1>  -0.1500 
 22 C        8.6770    -1.3350     0.9820 C.ar  1 <1>  -0.1500 
 23 C       -5.8930    -2.9730    -1.1820 C.3   1 <1>  -0.2400 
 24 C        5.8660    -4.1870    -2.0960 C.3   1 <1>   0.0400 
 25 C        8.9710    -2.4110     0.1660 C.ar  1 <1>  -0.1500 
 26 H        0.1800    -1.1430     1.6200 H     1 <1>   0.3700 
 27 H        3.4630     1.2730     0.3800 H     1 <1>   0.0800 
 28 H        2.7460     0.8650    -1.1490 H     1 <1>   0.0800 
 29 H        2.0990    -1.8370     2.0510 H     1 <1>   0.0800 
 30 H        3.0410    -0.4140     2.4000 H     1 <1>   0.0800 
 31 H        5.1700     0.3290    -1.0790 H     1 <1>   0.0800 
 32 H        4.1930    -1.0870    -1.3600 H     1 <1>   0.0800 
 33 H        3.8170    -2.6920     0.5710 H     1 <1>   0.0800 
 34 H        4.5320    -2.3150     2.1150 H     1 <1>   0.0800 
 35 H       -2.0360    -1.5630     2.2050 H     1 <1>   0.1500 
 36 H       -0.5990    -2.5710    -1.6760 H     1 <1>   0.1500 
 37 H       -4.1510    -2.6800     1.7130 H     1 <1>   0.1500 
 38 H       -2.7110    -3.6800    -2.1710 H     1 <1>   0.1500 
 39 H        7.1370    -0.0550     1.7230 H     1 <1>   0.1500 
 40 H       -5.3060    -4.3750     0.3330 H     1 <1>   0.0800 
 41 H       -4.7240    -4.7710    -1.2550 H     1 <1>   0.0800 
 42 H        8.2220    -3.8730    -1.1610 H     1 <1>   0.1500 
 43 H        9.4600    -0.8440     1.5320 H     1 <1>   0.1500 
 44 H       -6.0820    -2.1650    -0.4970 H     1 <1>   0.0800 
 45 H       -6.8210    -3.4700    -1.3990 H     1 <1>   0.0800 
 46 H       -5.4950    -2.5630    -2.0930 H     1 <1>   0.0800 
 47 H        4.9260    -4.4530    -2.5450 H     1 <1>   0.0800 
 48 H        6.2970    -5.0480    -1.6160 H     1 <1>   0.0800 
 49 H        6.5280    -3.7870    -2.8430 H     1 <1>   0.0800 
 50 H        9.9850    -2.7600     0.0800 H     1 <1>   0.1500 
@<TRIPOS>BOND
  1   1   2  2   
  2   2   3  am  
  3   2   4  am  
  4   3   5  1   
  5   3   6  1   
  6   4   7  1   
  7   4  26  1   
  8   5   8  1   
  9   5  27  1   
 10   5  28  1   
 11   6   9  1   
 12   6  29  1   
 13   6  30  1   
 14   7  10  ar  
 15   7  11  ar  
 16   8  12  1   
 17   8  31  1   
 18   8  32  1   
 19   9  12  1   
 20   9  33  1   
 21   9  34  1   
 22  10  13  ar  
 23  10  35  1   
 24  11  14  ar  
 25  11  36  1   
 26  12  15  1   
 27  13  16  ar  
 28  13  37  1   
 29  14  16  ar  
 30  14  38  1   
 31  15  17  ar  
 32  15  18  ar  
 33  16  19  1   
 34  17  20  1   
 35  17  21  ar  
 36  18  22  ar  
 37  18  39  1   
 38  19  23  1   
 39  19  40  1   
 40  19  41  1   
 41  20  24  1   
 42  21  25  ar  
 43  21  42  1   
 44  22  25  ar  
 45  22  43  1   
 46  23  44  1   
 47  23  45  1   
 48  23  46  1   
 49  24  47  1   
 50  24  48  1   
 51  24  49  1   
 52  25  50  1   
@<TRIPOS>SUBSTRUCTURE
  1 ****   3 GROUP 4 **** **** 0

# MOE 2024.06 (io_trps.svl 2023.06)
