@<TRIPOS>MOLECULE
NONAME
54 56 1 0 0 
SMALL
USER_CHARGES


@<TRIPOS>ATOM
  1 O        3.8160    -2.4470     0.2210 O.3   1 <1>  -0.3630 
  2 C        2.5260    -2.8340     0.0600 C.ar  1 <1>   0.0830 
  3 C        4.8500    -3.3930     0.3930 C.3   1 <1>   0.1200 
  4 C        1.5830    -1.8240    -0.0460 C.ar  1 <1>  -0.1500 
  5 C        2.1160    -4.1640    -0.0010 C.ar  1 <1>  -0.1500 
  6 C        6.1710    -2.6340     0.5690 C.3   1 <1>   0.2000 
  7 C        0.2420    -2.1250    -0.2110 C.ar  1 <1>  -0.1440 
  8 C        0.7760    -4.4720    -0.1670 C.ar  1 <1>  -0.1440 
  9 O        6.3070    -1.7120    -0.4720 O.3   1 <1>  -0.6800 
 10 C        7.4010    -3.5670     0.5770 C.3   1 <1>   0.3430 
 11 C       -0.1550    -3.4500    -0.2690 C.ar  1 <1>  -0.1500 
 12 C       -0.7920    -1.0190    -0.3250 C.3   1 <1>  -0.0970 
 13 C        0.3170    -5.9180    -0.2330 C.3   1 <1>  -0.0970 
 14 N        8.6270    -2.8140     0.1700 N.4   1 <1>  -0.9590 
 15 C        9.6900    -3.6930    -0.4410 C.3   1 <1>   0.3430 
 16 C        9.1820    -1.9500     1.2770 C.3   1 <1>   0.3430 
 17 C       10.9360    -2.8950    -0.8830 C.3   1 <1>   0.2090 
 18 C       10.4240    -1.1490     0.8340 C.3   1 <1>   0.2090 
 19 N       11.4480    -2.0520     0.2340 N.pl3 1 <1>  -0.8380 
 20 C       12.7140    -1.5060     0.0520 C.ar  1 <1>   0.1000 
 21 C       13.7820    -1.9850     0.7970 C.ar  1 <1>  -0.1500 
 22 C       12.9410    -0.4840    -0.8650 C.ar  1 <1>  -0.1500 
 23 C       15.0510    -1.4600     0.6340 C.ar  1 <1>  -0.1500 
 24 C       14.2080     0.0440    -1.0310 C.ar  1 <1>  -0.1500 
 25 C       15.2660    -0.4430    -0.2820 C.ar  1 <1>  -0.1500 
 26 H        4.8820    -4.0210    -0.4800 H     1 <1>   0.0800 
 27 H        4.6270    -3.9840     1.2650 H     1 <1>   0.0800 
 28 H        1.9070    -0.8010     0.0040 H     1 <1>   0.1500 
 29 H        2.8180    -4.9690     0.0780 H     1 <1>   0.1500 
 30 H        6.1310    -2.0810     1.4920 H     1 <1>   0.0800 
 31 H        5.4240    -1.3000    -0.6340 H     1 <1>   0.4000 
 32 H        7.2210    -4.3580    -0.1320 H     1 <1>   0.0800 
 33 H        7.5290    -4.0150     1.5480 H     1 <1>   0.0800 
 34 H       -1.1970    -3.6880    -0.3940 H     1 <1>   0.1500 
 35 H       -0.3210    -0.0720    -0.5160 H     1 <1>   0.0800 
 36 H       -1.3510    -0.9490     0.5910 H     1 <1>   0.0800 
 37 H       -1.4710    -1.2310    -1.1310 H     1 <1>   0.0800 
 38 H        1.1230    -6.5610    -0.5370 H     1 <1>   0.0800 
 39 H       -0.4840    -6.0220    -0.9440 H     1 <1>   0.0800 
 40 H       -0.0340    -6.2330     0.7330 H     1 <1>   0.0800 
 41 H        8.2740    -2.1620    -0.5570 H     1 <1>   0.4500 
 42 H        9.2900    -4.2160    -1.2930 H     1 <1>   0.0800 
 43 H       10.0070    -4.4270     0.2810 H     1 <1>   0.0800 
 44 H        9.4680    -2.5720     2.1090 H     1 <1>   0.0800 
 45 H        8.4270    -1.2620     1.6170 H     1 <1>   0.0800 
 46 H       10.6910    -2.2720    -1.7260 H     1 <1>   0.0800 
 47 H       11.7090    -3.5800    -1.1920 H     1 <1>   0.0800 
 48 H       10.8510    -0.6490     1.6870 H     1 <1>   0.0800 
 49 H       10.1380    -0.3970     0.1190 H     1 <1>   0.0800 
 50 H       13.6120    -2.7740     1.5060 H     1 <1>   0.1500 
 51 H       12.1260    -0.1020    -1.4490 H     1 <1>   0.1500 
 52 H       15.8720    -1.8400     1.2170 H     1 <1>   0.1500 
 53 H       14.3750     0.8340    -1.7420 H     1 <1>   0.1500 
 54 H       16.2520    -0.0330    -0.4100 H     1 <1>   0.1500 
@<TRIPOS>BOND
  1   1   2  1   
  2   1   3  1   
  3   2   4  ar  
  4   2   5  ar  
  5   3   6  1   
  6   3  26  1   
  7   3  27  1   
  8   4   7  ar  
  9   4  28  1   
 10   5   8  ar  
 11   5  29  1   
 12   6   9  1   
 13   6  10  1   
 14   6  30  1   
 15   7  11  ar  
 16   7  12  1   
 17   8  11  ar  
 18   8  13  1   
 19   9  31  1   
 20  10  14  1   
 21  10  32  1   
 22  10  33  1   
 23  11  34  1   
 24  12  35  1   
 25  12  36  1   
 26  12  37  1   
 27  13  38  1   
 28  13  39  1   
 29  13  40  1   
 30  14  15  1   
 31  14  16  1   
 32  14  41  1   
 33  15  17  1   
 34  15  42  1   
 35  15  43  1   
 36  16  18  1   
 37  16  44  1   
 38  16  45  1   
 39  17  19  1   
 40  17  46  1   
 41  17  47  1   
 42  18  19  1   
 43  18  48  1   
 44  18  49  1   
 45  19  20  1   
 46  20  21  ar  
 47  20  22  ar  
 48  21  23  ar  
 49  21  50  1   
 50  22  24  ar  
 51  22  51  1   
 52  23  25  ar  
 53  23  52  1   
 54  24  25  ar  
 55  24  53  1   
 56  25  54  1   
@<TRIPOS>SUBSTRUCTURE
  1 ****   6 GROUP 4 **** **** 0

# MOE 2024.06 (io_trps.svl 2023.06)
