@<TRIPOS>MOLECULE
NONAME
35 35 1 0 0 
SMALL
USER_CHARGES


@<TRIPOS>ATOM
  1 CL      -1.6230    -3.8760     1.8530 Cl    1 <1>  -0.1770 
  2 C       -0.2000    -3.6180     0.8610 C.ar  1 <1>   0.1770 
  3 C       -0.2600    -3.8000    -0.5180 C.ar  1 <1>   0.0820 
  4 C        0.9710    -3.2280     1.4800 C.ar  1 <1>  -0.1500 
  5 O       -1.4140    -4.1830    -1.1170 O.3   1 <1>  -0.3630 
  6 C        0.8730    -3.5660    -1.2890 C.ar  1 <1>  -0.1440 
  7 C        2.1050    -3.0070     0.7150 C.ar  1 <1>  -0.1440 
  8 C       -1.7660    -5.5510    -1.0040 C.3   1 <1>   0.1200 
  9 C        2.0460    -3.1760    -0.6600 C.ar  1 <1>  -0.1500 
 10 C        0.8460    -3.7300    -2.8030 C.3   1 <1>  -0.0960 
 11 C        3.4070    -2.5790     1.3700 C.3   1 <1>  -0.0970 
 12 C       -3.2960    -5.6580    -1.0000 C.3   1 <1>   0.3430 
 13 N       -3.8780    -4.5600    -0.1750 N.4   1 <1>  -0.9060 
 14 C       -5.3640    -4.4800    -0.2350 C.3   1 <1>   0.3430 
 15 C       -5.8970    -3.3150     0.6080 C.3   1 <1>   0.1200 
 16 O       -7.2770    -3.3280     0.5130 O.3   1 <1>  -0.6800 
 17 H        0.9920    -3.0990     2.5470 H     1 <1>   0.1500 
 18 H       -1.3590    -5.9500    -0.0900 H     1 <1>   0.0800 
 19 H       -1.3390    -6.0830    -1.8370 H     1 <1>   0.0800 
 20 H        2.9320    -2.9980    -1.2470 H     1 <1>   0.1500 
 21 H        0.7270    -4.7670    -3.0590 H     1 <1>   0.0800 
 22 H        1.7580    -3.3720    -3.2460 H     1 <1>   0.0800 
 23 H        0.0280    -3.1710    -3.2200 H     1 <1>   0.0800 
 24 H        3.2370    -2.2350     2.3740 H     1 <1>   0.0800 
 25 H        3.8580    -1.7800     0.8100 H     1 <1>   0.0800 
 26 H        4.0890    -3.4100     1.4000 H     1 <1>   0.0800 
 27 H       -3.5940    -6.6210    -0.6180 H     1 <1>   0.0800 
 28 H       -3.6490    -5.5760    -2.0150 H     1 <1>   0.0800 
 29 H       -3.4460    -3.6860    -0.5160 H     1 <1>   0.4500 
 30 H       -3.5500    -4.6500     0.7970 H     1 <1>   0.4500 
 31 H       -5.7930    -5.3970     0.1360 H     1 <1>   0.0800 
 32 H       -5.6810    -4.3410    -1.2550 H     1 <1>   0.0800 
 33 H       -5.5460    -2.3690     0.2320 H     1 <1>   0.0800 
 34 H       -5.6340    -3.4300     1.6450 H     1 <1>   0.0800 
 35 H       -7.6850    -2.6010     1.0310 H     1 <1>   0.4000 
@<TRIPOS>BOND
  1   1   2  1   
  2   2   3  ar  
  3   2   4  ar  
  4   3   5  1   
  5   3   6  ar  
  6   4   7  ar  
  7   4  17  1   
  8   5   8  1   
  9   6   9  ar  
 10   6  10  1   
 11   7   9  ar  
 12   7  11  1   
 13   8  12  1   
 14   8  18  1   
 15   8  19  1   
 16   9  20  1   
 17  10  21  1   
 18  10  22  1   
 19  10  23  1   
 20  11  24  1   
 21  11  25  1   
 22  11  26  1   
 23  12  13  1   
 24  12  27  1   
 25  12  28  1   
 26  13  14  1   
 27  13  29  1   
 28  13  30  1   
 29  14  15  1   
 30  14  31  1   
 31  14  32  1   
 32  15  16  1   
 33  15  33  1   
 34  15  34  1   
 35  16  35  1   
@<TRIPOS>SUBSTRUCTURE
  1 ****   5 GROUP 4 **** **** 0

# MOE 2024.06 (io_trps.svl 2023.06)
