@<TRIPOS>MOLECULE
NONAME
51 53 1 0 0 
SMALL
USER_CHARGES


@<TRIPOS>ATOM
  1 O      -14.1590    -0.3440     1.3480 O.3   1 <1>  -0.3630 
  2 C      -13.3700     0.2320     0.4350 C.ar  1 <1>   0.0830 
  3 C      -15.1620     0.6140     1.6820 C.3   1 <1>   0.4000 
  4 C      -13.8090     1.4950     0.1640 C.ar  1 <1>   0.0830 
  5 C      -12.2580    -0.2950    -0.1900 C.ar  1 <1>  -0.1500 
  6 O      -14.8960     1.7710     0.8930 O.3   1 <1>  -0.3630 
  7 C      -13.1590     2.3010    -0.7480 C.ar  1 <1>  -0.1500 
  8 C      -11.5820     0.4970    -1.1130 C.ar  1 <1>  -0.1440 
  9 C      -12.0360     1.7880    -1.3860 C.ar  1 <1>  -0.1500 
 10 C      -10.3550    -0.0530    -1.8220 C.3   1 <1>   0.2640 
 11 O       -9.4550    -0.5040    -0.8560 O.3   1 <1>  -0.5600 
 12 C       -8.2430    -0.9860    -1.3480 C.3   1 <1>   0.1200 
 13 C       -7.4360    -1.5490    -0.1650 C.3   1 <1>   0.2000 
 14 O       -7.5530    -0.6660     0.9110 O.3   1 <1>  -0.6800 
 15 C       -5.9400    -1.7830    -0.4770 C.3   1 <1>   0.3430 
 16 N       -5.1120    -0.6110    -0.0520 N.4   1 <1>  -0.9590 
 17 C       -5.0390     0.4860    -1.0650 C.3   1 <1>   0.3430 
 18 C       -3.7780    -0.9940     0.4830 C.3   1 <1>   0.3430 
 19 C       -4.0320     1.5860    -0.6720 C.3   1 <1>  -0.0800 
 20 C       -3.1450     0.1800     1.2570 C.3   1 <1>  -0.0800 
 21 C       -3.6960     1.5580     0.8290 C.3   1 <1>  -0.1600 
 22 C       -4.5660     2.9680    -1.0700 C.3   1 <1>  -0.2400 
 23 C       -1.6170     0.1350     1.1030 C.3   1 <1>  -0.2400 
 24 H      -15.0870     0.8640     2.7250 H     1 <1>   0.0800 
 25 H      -16.1320     0.2220     1.4340 H     1 <1>   0.0800 
 26 H      -11.9330    -1.2920     0.0450 H     1 <1>   0.1500 
 27 H      -13.5210     3.2940    -0.9470 H     1 <1>   0.1500 
 28 H      -11.5180     2.4060    -2.0980 H     1 <1>   0.1500 
 29 H       -9.8800     0.7140    -2.4100 H     1 <1>   0.0800 
 30 H      -10.6330    -0.8800    -2.4530 H     1 <1>   0.0800 
 31 H       -7.7230    -0.1730    -1.8220 H     1 <1>   0.0800 
 32 H       -8.4400    -1.7600    -2.0710 H     1 <1>   0.0800 
 33 H       -7.8850    -2.4830     0.1280 H     1 <1>   0.0800 
 34 H       -8.4960    -0.3650     0.9320 H     1 <1>   0.4000 
 35 H       -5.7960    -2.0020    -1.5220 H     1 <1>   0.0800 
 36 H       -5.6290    -2.6500     0.0820 H     1 <1>   0.0800 
 37 H       -5.6600    -0.2270     0.7450 H     1 <1>   0.4500 
 38 H       -6.0160     0.9310    -1.1600 H     1 <1>   0.0800 
 39 H       -4.7600     0.0860    -2.0260 H     1 <1>   0.0800 
 40 H       -3.1350    -1.2660    -0.3380 H     1 <1>   0.0800 
 41 H       -3.8640    -1.8440     1.1390 H     1 <1>   0.0800 
 42 H       -3.1250     1.4160    -1.2270 H     1 <1>   0.0800 
 43 H       -3.3650     0.0460     2.3030 H     1 <1>   0.0800 
 44 H       -4.5920     1.7650     1.3910 H     1 <1>   0.0800 
 45 H       -2.9890     2.3350     1.0700 H     1 <1>   0.0800 
 46 H       -5.4750     3.1980    -0.5400 H     1 <1>   0.0800 
 47 H       -4.7640     3.0090    -2.1280 H     1 <1>   0.0800 
 48 H       -3.8400     3.7290    -0.8400 H     1 <1>   0.0800 
 49 H       -1.3240     0.2800     0.0780 H     1 <1>   0.0800 
 50 H       -1.2300    -0.8120     1.4400 H     1 <1>   0.0800 
 51 H       -1.1590     0.9070     1.6980 H     1 <1>   0.0800 
@<TRIPOS>BOND
  1   1   2  1   
  2   1   3  1   
  3   2   4  ar  
  4   2   5  ar  
  5   3   6  1   
  6   3  24  1   
  7   3  25  1   
  8   4   6  1   
  9   4   7  ar  
 10   5   8  ar  
 11   5  26  1   
 12   7   9  ar  
 13   7  27  1   
 14   8   9  ar  
 15   8  10  1   
 16   9  28  1   
 17  10  11  1   
 18  10  29  1   
 19  10  30  1   
 20  11  12  1   
 21  12  13  1   
 22  12  31  1   
 23  12  32  1   
 24  13  14  1   
 25  13  15  1   
 26  13  33  1   
 27  14  34  1   
 28  15  16  1   
 29  15  35  1   
 30  15  36  1   
 31  16  17  1   
 32  16  18  1   
 33  16  37  1   
 34  17  19  1   
 35  17  38  1   
 36  17  39  1   
 37  18  20  1   
 38  18  40  1   
 39  18  41  1   
 40  19  21  1   
 41  19  22  1   
 42  19  42  1   
 43  20  21  1   
 44  20  23  1   
 45  20  43  1   
 46  21  44  1   
 47  21  45  1   
 48  22  46  1   
 49  22  47  1   
 50  22  48  1   
 51  23  49  1   
 52  23  50  1   
 53  23  51  1   
@<TRIPOS>SUBSTRUCTURE
  1 ****  11 GROUP 4 **** **** 0

# MOE 2024.06 (io_trps.svl 2023.06)
