@<TRIPOS>MOLECULE
NONAME
38 39 1 0 0 
SMALL
USER_CHARGES


@<TRIPOS>ATOM
  1 S       -0.2650    -0.2610     0.3090 S.o2  1 <1>   1.4470 
  2 O       -0.6040    -0.6500     1.6610 O.2   1 <1>  -0.6500 
  3 O       -0.8450    -0.9540    -0.8190 O.2   1 <1>  -0.6500 
  4 N       -0.8510     1.2970     0.0900 N.am  1 <1>  -0.9140 
  5 C        1.5310    -0.0810     0.1320 C.ar  1 <1>  -0.0090 
  6 C       -1.9820     1.6610     0.9170 C.3   1 <1>   0.2760 
  7 C        2.3310    -1.2130     0.0050 C.ar  1 <1>   0.0830 
  8 C        2.1560     1.1640     0.1370 C.ar  1 <1>  -0.1500 
  9 C       -3.2560     0.9700     0.4330 C.3   1 <1>  -0.1600 
 10 C       -2.2870     3.1300     0.6500 C.3   1 <1>  -0.1600 
 11 O        1.7080    -2.4190     0.0240 O.3   1 <1>  -0.3630 
 12 C        3.7110    -1.0940    -0.1310 C.ar  1 <1>  -0.1500 
 13 C        3.5270     1.2880     0.0040 C.ar  1 <1>  -0.1500 
 14 C       -3.7180     1.7610    -0.7950 C.3   1 <1>  -0.1600 
 15 C       -3.1120     3.1620    -0.6430 C.3   1 <1>  -0.1600 
 16 C        2.4120    -3.6330    -0.1150 C.3   1 <1>   0.0400 
 17 C        4.3140     0.1500    -0.1340 C.ar  1 <1>   0.0830 
 18 O        5.6620     0.1770    -0.2720 O.3   1 <1>  -0.3630 
 19 C        6.3780     1.3930    -0.2770 C.3   1 <1>   0.0400 
 20 H       -1.2120     1.2710    -0.8610 H     1 <1>   0.4200 
 21 H       -1.7760     1.4840     1.9610 H     1 <1>   0.0800 
 22 H        1.5660     2.0580     0.2490 H     1 <1>   0.1500 
 23 H       -4.0000     1.0660     1.2040 H     1 <1>   0.0800 
 24 H       -3.1300    -0.0780     0.2290 H     1 <1>   0.0800 
 25 H       -1.3940     3.7270     0.5890 H     1 <1>   0.0800 
 26 H       -2.8920     3.5020     1.4580 H     1 <1>   0.0800 
 27 H        4.3460    -1.9510    -0.2350 H     1 <1>   0.1500 
 28 H        3.9610     2.2700     0.0120 H     1 <1>   0.1500 
 29 H       -4.7930     1.7980    -0.8460 H     1 <1>   0.0800 
 30 H       -3.3450     1.2960    -1.6920 H     1 <1>   0.0800 
 31 H       -2.4710     3.3730    -1.4830 H     1 <1>   0.0800 
 32 H       -3.8760     3.9180    -0.5910 H     1 <1>   0.0800 
 33 H        1.6990    -4.4370    -0.0760 H     1 <1>   0.0800 
 34 H        3.1120    -3.7260     0.6960 H     1 <1>   0.0800 
 35 H        2.9160    -3.6380    -1.0650 H     1 <1>   0.0800 
 36 H        7.4220     1.1640    -0.3950 H     1 <1>   0.0800 
 37 H        6.2170     1.8970     0.6590 H     1 <1>   0.0800 
 38 H        6.0400     1.9930    -1.1030 H     1 <1>   0.0800 
@<TRIPOS>BOND
  1   1   2  2   
  2   1   3  2   
  3   1   4  am  
  4   1   5  1   
  5   4   6  1   
  6   4  20  1   
  7   5   7  ar  
  8   5   8  ar  
  9   6   9  1   
 10   6  10  1   
 11   6  21  1   
 12   7  11  1   
 13   7  12  ar  
 14   8  13  ar  
 15   8  22  1   
 16   9  14  1   
 17   9  23  1   
 18   9  24  1   
 19  10  15  1   
 20  10  25  1   
 21  10  26  1   
 22  11  16  1   
 23  12  17  ar  
 24  12  27  1   
 25  13  17  ar  
 26  13  28  1   
 27  14  15  1   
 28  14  29  1   
 29  14  30  1   
 30  15  31  1   
 31  15  32  1   
 32  16  33  1   
 33  16  34  1   
 34  16  35  1   
 35  17  18  1   
 36  18  19  1   
 37  19  36  1   
 38  19  37  1   
 39  19  38  1   
@<TRIPOS>SUBSTRUCTURE
  1 ****   5 GROUP 4 **** **** 0

# MOE 2024.06 (io_trps.svl 2023.06)
