@<TRIPOS>MOLECULE
NONAME
61 64 1 0 0 
SMALL
USER_CHARGES


@<TRIPOS>ATOM
  1 O       -3.5220     0.0700     1.8900 O.2   1 <1>  -0.5700 
  2 C       -2.9840     0.2150     0.8190 C.2   1 <1>   0.5690 
  3 N       -2.9770    -0.7950    -0.1080 N.am  1 <1>  -0.6600 
  4 C       -2.3780     1.5600     0.5000 C.3   1 <1>  -0.1790 
  5 C       -3.3590    -2.1620     0.2850 C.3   1 <1>   0.1400 
  6 C       -3.0380    -0.5730    -1.5670 C.3   1 <1>   0.1400 
  7 C       -4.8570    -2.2950     0.0240 C.3   1 <1>  -0.1600 
  8 C       -4.5200    -0.6230    -1.9470 C.3   1 <1>  -0.1600 
  9 C       -5.2210    -1.8920    -1.4170 C.3   1 <1>   0.4230 
 10 N       -6.7170    -1.8830    -1.6810 N.4   1 <1>  -0.9590 
 11 C       -7.7270    -1.0580    -0.8580 C.3   1 <1>   0.4230 
 12 C       -7.2080    -3.3180    -1.7980 C.3   1 <1>   0.3430 
 13 C       -7.5280     0.4800    -0.9380 C.3   1 <1>  -0.0800 
 14 C       -8.0320    -1.6320     0.5790 C.3   1 <1>   0.4230 
 15 C       -8.0410    -3.8620    -0.5910 C.3   1 <1>   0.3430 
 16 C       -6.6760     1.1190     0.1950 C.3   1 <1>  -0.1600 
 17 C       -8.8880     1.2010    -1.1130 C.3   1 <1>  -0.1600 
 18 N       -7.8300    -3.1260     0.7130 N.4   1 <1>  -0.9590 
 19 C       -9.4730    -1.4370     1.0470 C.3   1 <1>  -0.1600 
 20 C       -7.5050     1.8500     1.2590 C.3   1 <1>  -0.1600 
 21 C       -8.7670     2.6990    -0.8220 C.3   1 <1>  -0.1600 
 22 C       -8.7600    -3.6350     1.7740 C.3   1 <1>   0.3430 
 23 C       -9.6490    -2.4630     2.1580 C.3   1 <1>  -0.1600 
 24 C       -8.3770     2.9580     0.6430 C.3   1 <1>  -0.1600 
 25 H       -3.0430     2.1250    -0.1240 H     1 <1>   0.0800 
 26 H       -1.4340     1.4310     0.0060 H     1 <1>   0.0800 
 27 H       -2.2140     2.1040     1.4120 H     1 <1>   0.0800 
 28 H       -3.1380    -2.3230     1.3290 H     1 <1>   0.0800 
 29 H       -2.7920    -2.8760    -0.2900 H     1 <1>   0.0800 
 30 H       -2.4790    -1.3420    -2.0740 H     1 <1>   0.0800 
 31 H       -2.6120     0.3800    -1.8330 H     1 <1>   0.0800 
 32 H       -5.3450    -1.6700     0.7430 H     1 <1>   0.0800 
 33 H       -5.1190    -3.3190     0.2030 H     1 <1>   0.0800 
 34 H       -4.6000    -0.5780    -3.0180 H     1 <1>   0.0800 
 35 H       -4.9430     0.2670    -1.5440 H     1 <1>   0.0800 
 36 H       -4.8050    -2.6790    -2.0280 H     1 <1>   0.0800 
 37 H       -6.7780    -1.4820    -2.6300 H     1 <1>   0.4500 
 38 H       -8.6600    -1.2000    -1.3770 H     1 <1>   0.0800 
 39 H       -6.3640    -3.9720    -1.9480 H     1 <1>   0.0800 
 40 H       -7.8190    -3.4120    -2.6820 H     1 <1>   0.0800 
 41 H       -7.0190     0.6830    -1.8620 H     1 <1>   0.0800 
 42 H       -7.3920    -1.1360     1.2910 H     1 <1>   0.0800 
 43 H       -7.8210    -4.9100    -0.4600 H     1 <1>   0.0800 
 44 H       -9.0840    -3.7970    -0.8560 H     1 <1>   0.0800 
 45 H       -6.0320     1.8630    -0.2460 H     1 <1>   0.0800 
 46 H       -6.0280     0.4110     0.6720 H     1 <1>   0.0800 
 47 H       -9.6420     0.8070    -0.4590 H     1 <1>   0.0800 
 48 H       -9.2420     1.0710    -2.1230 H     1 <1>   0.0800 
 49 H       -6.8710    -3.2810     1.0520 H     1 <1>   0.4500 
 50 H      -10.1620    -1.6410     0.2450 H     1 <1>   0.0800 
 51 H       -9.6580    -0.4440     1.4160 H     1 <1>   0.0800 
 52 H       -6.8450     2.2900     1.9890 H     1 <1>   0.0800 
 53 H       -8.1300     1.1550     1.7840 H     1 <1>   0.0800 
 54 H       -9.6990     3.1970    -1.0350 H     1 <1>   0.0800 
 55 H       -8.0210     3.1280    -1.4700 H     1 <1>   0.0800 
 56 H       -8.2130    -3.9850     2.6370 H     1 <1>   0.0800 
 57 H       -9.3640    -4.4450     1.3950 H     1 <1>   0.0800 
 58 H      -10.6760    -2.7660     2.2740 H     1 <1>   0.0800 
 59 H       -9.3090    -2.0580     3.0960 H     1 <1>   0.0800 
 60 H       -7.8500     3.8970     0.6920 H     1 <1>   0.0800 
 61 H       -9.2670     3.0670     1.2400 H     1 <1>   0.0800 
@<TRIPOS>BOND
  1   1   2  2   
  2   2   3  am  
  3   2   4  1   
  4   3   5  1   
  5   3   6  1   
  6   4  25  1   
  7   4  26  1   
  8   4  27  1   
  9   5   7  1   
 10   5  28  1   
 11   5  29  1   
 12   6   8  1   
 13   6  30  1   
 14   6  31  1   
 15   7   9  1   
 16   7  32  1   
 17   7  33  1   
 18   8   9  1   
 19   8  34  1   
 20   8  35  1   
 21   9  10  1   
 22   9  36  1   
 23  10  11  1   
 24  10  12  1   
 25  10  37  1   
 26  11  13  1   
 27  11  14  1   
 28  11  38  1   
 29  12  15  1   
 30  12  39  1   
 31  12  40  1   
 32  13  16  1   
 33  13  17  1   
 34  13  41  1   
 35  14  18  1   
 36  14  19  1   
 37  14  42  1   
 38  15  18  1   
 39  15  43  1   
 40  15  44  1   
 41  16  20  1   
 42  16  45  1   
 43  16  46  1   
 44  17  21  1   
 45  17  47  1   
 46  17  48  1   
 47  18  22  1   
 48  18  49  1   
 49  19  23  1   
 50  19  50  1   
 51  19  51  1   
 52  20  24  1   
 53  20  52  1   
 54  20  53  1   
 55  21  24  1   
 56  21  54  1   
 57  21  55  1   
 58  22  23  1   
 59  22  56  1   
 60  22  57  1   
 61  23  58  1   
 62  23  59  1   
 63  24  60  1   
 64  24  61  1   
@<TRIPOS>SUBSTRUCTURE
  1 ****  11 GROUP 4 **** **** 0

# MOE 2024.06 (io_trps.svl 2023.06)
