@<TRIPOS>MOLECULE
NONAME
53 54 1 0 0 
SMALL
USER_CHARGES


@<TRIPOS>ATOM
  1 O       -0.8750     2.1880     1.9530 O.2   1 <1>  -0.5700 
  2 C       -0.5950     2.2120     0.7600 C.2   1 <1>   0.5440 
  3 N       -1.4340     1.5950    -0.1270 N.am  1 <1>  -0.4210 
  4 C        0.6180     2.8910     0.3130 C.ar  1 <1>   0.0860 
  5 N       -2.6950     0.8650     0.1620 N.3   1 <1>  -0.6390 
  6 C        1.0730     2.9330    -1.0210 C.ar  1 <1>   0.0830 
  7 C        1.4100     3.5600     1.2550 C.ar  1 <1>  -0.1500 
  8 C       -2.5380    -0.5310    -0.2910 C.3   1 <1>   0.1900 
  9 O        0.4090     2.3330    -2.0260 O.3   1 <1>  -0.5320 
 10 C        2.2380     3.6020    -1.3680 C.ar  1 <1>  -0.1500 
 11 C        2.5710     4.2250     0.9100 C.ar  1 <1>  -0.1500 
 12 C       -3.9180    -1.1920    -0.3700 C.3   1 <1>  -0.0990 
 13 C       -1.6450    -1.2810     0.7000 C.3   1 <1>  -0.2400 
 14 C        2.9890     4.2480    -0.4060 C.ar  1 <1>  -0.1500 
 15 C       -4.8760    -0.4830    -1.3200 C.2   1 <1>   0.4480 
 16 O       -4.4400    -0.0230    -2.3350 O.2   1 <1>  -0.5700 
 17 C       -6.3810    -0.3570    -1.0230 C.3   1 <1>  -0.0190 
 18 C       -6.7860     0.7830    -0.0260 C.3   1 <1>   0.0000 
 19 C       -7.1540    -1.7050    -0.8710 C.3   1 <1>   0.0580 
 20 C       -8.3130     1.0230    -0.1220 C.3   1 <1>  -0.0220 
 21 C       -6.4300     0.4920     1.4450 C.3   1 <1>  -0.2400 
 22 C       -6.0980     2.1100    -0.4050 C.3   1 <1>  -0.2400 
 23 C       -8.6050    -1.4540    -0.4930 C.2   1 <1>  -0.2880 
 24 C       -6.5970    -2.7670     0.0910 C.3   1 <1>  -0.2400 
 25 C       -9.1150    -0.2650    -0.1670 C.2   1 <1>  -0.2880 
 26 H       -1.1320     1.6340    -1.1120 H     1 <1>   0.3700 
 27 H       -3.4100     1.2890    -0.4480 H     1 <1>   0.3600 
 28 H        1.1070     3.5580     2.2890 H     1 <1>   0.1500 
 29 H       -2.0830    -0.5440    -1.2690 H     1 <1>   0.0800 
 30 H        0.8350     2.4460    -2.8980 H     1 <1>   0.4500 
 31 H        2.5720     3.6250    -2.3890 H     1 <1>   0.1500 
 32 H        3.1500     4.7260     1.6680 H     1 <1>   0.1500 
 33 H       -4.3290    -1.2580     0.6160 H     1 <1>   0.0800 
 34 H       -3.7770    -2.1910    -0.7360 H     1 <1>   0.0800 
 35 H       -2.0560    -1.2190     1.6920 H     1 <1>   0.0800 
 36 H       -0.6580    -0.8550     0.7110 H     1 <1>   0.0800 
 37 H       -1.5600    -2.3150     0.4210 H     1 <1>   0.0800 
 38 H        3.8940     4.7660    -0.6760 H     1 <1>   0.1500 
 39 H       -6.7660     0.0130    -1.9580 H     1 <1>   0.0800 
 40 H       -7.1660    -2.1610    -1.8470 H     1 <1>   0.0800 
 41 H       -8.5440     1.5770    -1.0150 H     1 <1>   0.0800 
 42 H       -8.6420     1.6160     0.7140 H     1 <1>   0.0800 
 43 H       -6.7350     1.3130     2.0690 H     1 <1>   0.0800 
 44 H       -6.9380    -0.3830     1.8020 H     1 <1>   0.0800 
 45 H       -5.3720     0.3750     1.5810 H     1 <1>   0.0800 
 46 H       -6.2590     2.3420    -1.4440 H     1 <1>   0.0800 
 47 H       -5.0420     2.0680    -0.2300 H     1 <1>   0.0800 
 48 H       -6.4900     2.9210     0.1840 H     1 <1>   0.0800 
 49 H       -9.2090    -2.3460    -0.5190 H     1 <1>   0.1500 
 50 H       -6.3990    -2.3620     1.0640 H     1 <1>   0.0800 
 51 H       -5.7040    -3.2120    -0.3010 H     1 <1>   0.0800 
 52 H       -7.3110    -3.5630     0.2070 H     1 <1>   0.0800 
 53 H      -10.1540    -0.1240     0.0800 H     1 <1>   0.1500 
@<TRIPOS>BOND
  1   1   2  2   
  2   2   3  am  
  3   2   4  1   
  4   3   5  1   
  5   3  26  1   
  6   4   6  ar  
  7   4   7  ar  
  8   5   8  1   
  9   5  27  1   
 10   6   9  1   
 11   6  10  ar  
 12   7  11  ar  
 13   7  28  1   
 14   8  12  1   
 15   8  13  1   
 16   8  29  1   
 17   9  30  1   
 18  10  14  ar  
 19  10  31  1   
 20  11  14  ar  
 21  11  32  1   
 22  12  15  1   
 23  12  33  1   
 24  12  34  1   
 25  13  35  1   
 26  13  36  1   
 27  13  37  1   
 28  14  38  1   
 29  15  16  2   
 30  15  17  1   
 31  17  18  1   
 32  17  19  1   
 33  17  39  1   
 34  18  20  1   
 35  18  21  1   
 36  18  22  1   
 37  19  23  1   
 38  19  24  1   
 39  19  40  1   
 40  20  25  1   
 41  20  41  1   
 42  20  42  1   
 43  21  43  1   
 44  21  44  1   
 45  21  45  1   
 46  22  46  1   
 47  22  47  1   
 48  22  48  1   
 49  23  25  2   
 50  23  49  1   
 51  24  50  1   
 52  24  51  1   
 53  24  52  1   
 54  25  53  1   
@<TRIPOS>SUBSTRUCTURE
  1 ****   5 GROUP 4 **** **** 0

# MOE 2024.06 (io_trps.svl 2023.06)
