@<TRIPOS>MOLECULE
NONAME
35 35 1 0 0 
SMALL
USER_CHARGES


@<TRIPOS>ATOM
  1 S        1.1810     1.4020     0.3000 S.o2  1 <1>   1.5880 
  2 O        1.1300     0.7630     1.6390 O.co2 1 <1>  -0.8170 
  3 O        0.9590     2.8660     0.3010 O.co2 1 <1>  -0.8170 
  4 O        2.2760     0.9270    -0.5750 O.co2 1 <1>  -0.8170 
  5 N       -0.2330     0.7910    -0.4420 N.am  1 <1>  -0.8490 
  6 C       -1.4660     1.1280     0.2940 C.3   1 <1>   0.1960 
  7 C       -0.1250    -0.6520    -0.6440 C.3   1 <1>   0.1160 
  8 C       -2.1550     2.3980    -0.2510 C.3   1 <1>   0.2000 
  9 O       -1.5050     3.5420     0.1870 O.3   1 <1>  -0.6800 
 10 C       -3.6090     2.5210     0.2100 C.3   1 <1>   0.1200 
 11 O       -4.3640     1.4080    -0.2350 O.3   1 <1>  -0.3630 
 12 C       -5.6840     1.2950     0.0590 C.ar  1 <1>   0.0820 
 13 C       -6.3420     0.1870    -0.4480 C.ar  1 <1>  -0.1500 
 14 C       -6.3840     2.2220     0.8290 C.ar  1 <1>  -0.1500 
 15 C       -7.6970    -0.0040    -0.1930 C.ar  1 <1>   0.0820 
 16 C       -7.7310     2.0330     1.0840 C.ar  1 <1>  -0.1500 
 17 O       -8.4110    -1.0620    -0.6550 O.3   1 <1>  -0.3630 
 18 C       -8.3830     0.9230     0.5750 C.ar  1 <1>  -0.1500 
 19 C       -7.8130    -2.0470    -1.4660 C.3   1 <1>   0.0400 
 20 H       -1.2710     1.2370     1.3480 H     1 <1>   0.0800 
 21 H       -2.1630     0.3170     0.1860 H     1 <1>   0.0800 
 22 H        0.7420    -0.8710    -1.2440 H     1 <1>   0.0800 
 23 H       -0.9930    -1.0230    -1.1580 H     1 <1>   0.0800 
 24 H       -0.0230    -1.1520     0.3040 H     1 <1>   0.0800 
 25 H       -2.1170     2.3940    -1.3260 H     1 <1>   0.0800 
 26 H       -0.5070     3.3650     0.1830 H     1 <1>   0.4000 
 27 H       -4.0460     3.4110    -0.2070 H     1 <1>   0.0800 
 28 H       -3.6470     2.5490     1.2840 H     1 <1>   0.0800 
 29 H       -5.7760    -0.5070    -1.0360 H     1 <1>   0.1500 
 30 H       -5.9020     3.0910     1.2350 H     1 <1>   0.1500 
 31 H       -8.2730     2.7470     1.6780 H     1 <1>   0.1500 
 32 H       -9.4290     0.7690     0.7680 H     1 <1>   0.1500 
 33 H       -8.5640    -2.7730    -1.7200 H     1 <1>   0.0800 
 34 H       -7.0200    -2.5200    -0.9140 H     1 <1>   0.0800 
 35 H       -7.4370    -1.5820    -2.3600 H     1 <1>   0.0800 
@<TRIPOS>BOND
  1   1   2  ar  
  2   1   3  ar  
  3   1   4  ar  
  4   1   5  am  
  5   5   6  1   
  6   5   7  1   
  7   6   8  1   
  8   6  20  1   
  9   6  21  1   
 10   7  22  1   
 11   7  23  1   
 12   7  24  1   
 13   8   9  1   
 14   8  10  1   
 15   8  25  1   
 16   9  26  1   
 17  10  11  1   
 18  10  27  1   
 19  10  28  1   
 20  11  12  1   
 21  12  13  ar  
 22  12  14  ar  
 23  13  15  ar  
 24  13  29  1   
 25  14  16  ar  
 26  14  30  1   
 27  15  17  1   
 28  15  18  ar  
 29  16  18  ar  
 30  16  31  1   
 31  17  19  1   
 32  18  32  1   
 33  19  33  1   
 34  19  34  1   
 35  19  35  1   
@<TRIPOS>SUBSTRUCTURE
  1 ****  11 GROUP 4 **** **** 0

# MOE 2024.06 (io_trps.svl 2023.06)
