@<TRIPOS>MOLECULE
NONAME
38 38 1 0 0 
SMALL
USER_CHARGES


@<TRIPOS>ATOM
  1 O       -0.6850    -0.0940    -1.9960 O.2   1 <1>  -0.5700 
  2 C       -0.4180    -1.0850    -1.3620 C.2   1 <1>   0.5690 
  3 N       -1.3320    -1.7990    -0.6400 N.am  1 <1>  -0.5470 
  4 C        1.0180    -1.5780    -1.3600 C.3   1 <1>  -0.0990 
  5 C       -2.7150    -1.6160    -0.4740 C.ar  1 <1>   0.1170 
  6 C        1.7060    -1.4780     0.0170 C.3   1 <1>  -0.0800 
  7 C       -3.5100    -0.9600    -1.4070 C.ar  1 <1>  -0.1500 
  8 C       -3.3270    -2.1290     0.6630 C.ar  1 <1>  -0.1500 
  9 C        1.7820    -0.0240     0.5000 C.3   1 <1>  -0.2400 
 10 C        3.1170    -2.0720    -0.0550 C.3   1 <1>  -0.2400 
 11 C       -4.8720    -0.8200    -1.2070 C.ar  1 <1>  -0.1500 
 12 C       -4.6890    -1.9890     0.8620 C.ar  1 <1>  -0.1500 
 13 C       -5.4840    -1.3350    -0.0700 C.ar  1 <1>   0.1170 
 14 N       -6.8600    -1.2070     0.1840 N.am  1 <1>  -0.5470 
 15 C       -7.9130    -1.0190    -0.6670 C.2   1 <1>   0.5690 
 16 O       -7.8100    -0.9580    -1.8660 O.2   1 <1>  -0.5700 
 17 C       -9.2970    -0.8980    -0.0530 C.3   1 <1>  -0.0990 
 18 C       -9.4860     0.4000     0.7490 C.3   1 <1>  -0.2400 
 19 H       -0.9390    -2.5650    -0.1000 H     1 <1>   0.3700 
 20 H        1.5740    -1.0040    -2.0790 H     1 <1>   0.0800 
 21 H        1.0200    -2.5990    -1.6940 H     1 <1>   0.0800 
 22 H        1.1410    -2.0460     0.7370 H     1 <1>   0.0800 
 23 H       -3.0690    -0.5550    -2.3000 H     1 <1>   0.1500 
 24 H       -2.7350    -2.6390     1.4000 H     1 <1>   0.1500 
 25 H        2.3280     0.5820    -0.2030 H     1 <1>   0.0800 
 26 H        2.2780     0.0300     1.4540 H     1 <1>   0.0800 
 27 H        0.7970     0.3940     0.6130 H     1 <1>   0.0800 
 28 H        3.7230    -1.5260    -0.7580 H     1 <1>   0.0800 
 29 H        3.0790    -3.1020    -0.3630 H     1 <1>   0.0800 
 30 H        3.5920    -2.0260     0.9100 H     1 <1>   0.0800 
 31 H       -5.4570    -0.3030    -1.9460 H     1 <1>   0.1500 
 32 H       -5.1360    -2.3960     1.7500 H     1 <1>   0.1500 
 33 H       -7.1180    -1.2830     1.1650 H     1 <1>   0.3700 
 34 H       -9.4730    -1.7490     0.5790 H     1 <1>   0.0800 
 35 H      -10.0230    -0.9280    -0.8470 H     1 <1>   0.0800 
 36 H       -8.8000     0.4430     1.5760 H     1 <1>   0.0800 
 37 H      -10.4900     0.4560     1.1310 H     1 <1>   0.0800 
 38 H       -9.3130     1.2520     0.1140 H     1 <1>   0.0800 
@<TRIPOS>BOND
  1   1   2  2   
  2   2   3  am  
  3   2   4  1   
  4   3   5  1   
  5   3  19  1   
  6   4   6  1   
  7   4  20  1   
  8   4  21  1   
  9   5   7  ar  
 10   5   8  ar  
 11   6   9  1   
 12   6  10  1   
 13   6  22  1   
 14   7  11  ar  
 15   7  23  1   
 16   8  12  ar  
 17   8  24  1   
 18   9  25  1   
 19   9  26  1   
 20   9  27  1   
 21  10  28  1   
 22  10  29  1   
 23  10  30  1   
 24  11  13  ar  
 25  11  31  1   
 26  12  13  ar  
 27  12  32  1   
 28  13  14  1   
 29  14  15  am  
 30  14  33  1   
 31  15  16  2   
 32  15  17  1   
 33  17  18  1   
 34  17  34  1   
 35  17  35  1   
 36  18  36  1   
 37  18  37  1   
 38  18  38  1   
@<TRIPOS>SUBSTRUCTURE
  1 ****   5 GROUP 4 **** **** 0

# MOE 2024.06 (io_trps.svl 2023.06)
