@<TRIPOS>MOLECULE
NONAME
55 58 1 0 0 
SMALL
USER_CHARGES


@<TRIPOS>ATOM
  1 O       -0.8110    -1.0120    -0.1210 O.2   1 <1>  -0.5700 
  2 C       -1.8100    -1.6650    -0.3310 C.2   1 <1>   0.5690 
  3 N       -1.6460    -2.9790    -0.7070 N.am  1 <1>  -0.6600 
  4 C       -3.2010    -0.9960    -0.1640 C.3   1 <1>   0.0610 
  5 C       -0.4440    -3.3410    -1.5170 C.3   1 <1>   0.1400 
  6 C       -2.2900    -4.1250    -0.0200 C.3   1 <1>   0.1400 
  7 C       -4.2030    -1.4840    -1.2450 C.3   1 <1>  -0.1600 
  8 C       -3.0760     0.5450    -0.3260 C.3   1 <1>  -0.1600 
  9 C       -3.7970    -1.2670     1.2400 C.3   1 <1>  -0.1600 
 10 C        0.8320    -3.4760    -0.6630 C.3   1 <1>   0.3430 
 11 C       -1.6530    -4.3610     1.3590 C.3   1 <1>  -0.1600 
 12 C       -5.5800    -0.8090    -1.0880 C.3   1 <1>   0.0000 
 13 C       -4.4340     1.2560    -0.1690 C.3   1 <1>   0.0000 
 14 C       -5.1660    -0.5830     1.4000 C.3   1 <1>  -0.0800 
 15 N        0.6960    -4.4290     0.4980 N.4   1 <1>  -0.9590 
 16 C       -0.2140    -3.8610     1.5360 C.3   1 <1>   0.3430 
 17 C       -5.4040     0.7150    -1.2370 C.3   1 <1>  -0.1600 
 18 C       -6.1280    -1.1130     0.3210 C.3   1 <1>  -0.1600 
 19 C       -6.5500    -1.3320    -2.1550 C.3   1 <1>  -0.2400 
 20 C       -5.0000     0.9360     1.2280 C.3   1 <1>  -0.1600 
 21 C       -4.2610     2.7710    -0.3330 C.3   1 <1>  -0.2400 
 22 C        2.0410    -4.7020     1.0870 C.3   1 <1>   0.2630 
 23 H       -0.2790    -2.5680    -2.2490 H     1 <1>   0.0800 
 24 H       -0.6260    -4.2530    -2.0580 H     1 <1>   0.0800 
 25 H       -2.1750    -5.0070    -0.6270 H     1 <1>   0.0800 
 26 H       -3.3470    -3.9620     0.0890 H     1 <1>   0.0800 
 27 H       -4.3360    -2.5460    -1.1870 H     1 <1>   0.0800 
 28 H       -3.8050    -1.2660    -2.2210 H     1 <1>   0.0800 
 29 H       -2.6600     0.7700    -1.2930 H     1 <1>   0.0800 
 30 H       -2.3930     0.9310     0.4120 H     1 <1>   0.0800 
 31 H       -3.1220    -0.9000     1.9940 H     1 <1>   0.0800 
 32 H       -3.9260    -2.3190     1.4010 H     1 <1>   0.0800 
 33 H        1.0960    -2.4970    -0.2960 H     1 <1>   0.0800 
 34 H        1.6310    -3.8050    -1.3060 H     1 <1>   0.0800 
 35 H       -1.7080    -5.4070     1.6010 H     1 <1>   0.0800 
 36 H       -2.2540    -3.8550     2.0920 H     1 <1>   0.0800 
 37 H       -5.5670    -0.7930     2.3770 H     1 <1>   0.0800 
 38 H        0.2870    -5.3090     0.1600 H     1 <1>   0.4500 
 39 H        0.1270    -4.1470     2.5180 H     1 <1>   0.0800 
 40 H       -0.1960    -2.7830     1.4840 H     1 <1>   0.0800 
 41 H       -5.0250     0.9420    -2.2180 H     1 <1>   0.0800 
 42 H       -6.3590     1.2010    -1.1370 H     1 <1>   0.0800 
 43 H       -6.2620    -2.1730     0.4440 H     1 <1>   0.0800 
 44 H       -7.0920    -0.6490     0.4440 H     1 <1>   0.0800 
 45 H       -6.1720    -1.1250    -3.1410 H     1 <1>   0.0800 
 46 H       -7.5100    -0.8580    -2.0540 H     1 <1>   0.0800 
 47 H       -6.6830    -2.3940    -2.0580 H     1 <1>   0.0800 
 48 H       -5.9530     1.4190     1.3560 H     1 <1>   0.0800 
 49 H       -4.3380     1.3150     1.9880 H     1 <1>   0.0800 
 50 H       -3.8640     3.0010    -1.3060 H     1 <1>   0.0800 
 51 H       -3.5830     3.1540     0.4090 H     1 <1>   0.0800 
 52 H       -5.2060     3.2720    -0.2230 H     1 <1>   0.0800 
 53 H        2.4830    -3.7880     1.4510 H     1 <1>   0.0800 
 54 H        2.6960    -5.1300     0.3450 H     1 <1>   0.0800 
 55 H        1.9560    -5.3950     1.9090 H     1 <1>   0.0800 
@<TRIPOS>BOND
  1   1   2  2   
  2   2   3  am  
  3   2   4  1   
  4   3   5  1   
  5   3   6  1   
  6   4   7  1   
  7   4   8  1   
  8   4   9  1   
  9   5  10  1   
 10   5  23  1   
 11   5  24  1   
 12   6  11  1   
 13   6  25  1   
 14   6  26  1   
 15   7  12  1   
 16   7  27  1   
 17   7  28  1   
 18   8  13  1   
 19   8  29  1   
 20   8  30  1   
 21   9  14  1   
 22   9  31  1   
 23   9  32  1   
 24  10  15  1   
 25  10  33  1   
 26  10  34  1   
 27  11  16  1   
 28  11  35  1   
 29  11  36  1   
 30  12  17  1   
 31  12  18  1   
 32  12  19  1   
 33  13  17  1   
 34  13  20  1   
 35  13  21  1   
 36  14  18  1   
 37  14  20  1   
 38  14  37  1   
 39  15  16  1   
 40  15  22  1   
 41  15  38  1   
 42  16  39  1   
 43  16  40  1   
 44  17  41  1   
 45  17  42  1   
 46  18  43  1   
 47  18  44  1   
 48  19  45  1   
 49  19  46  1   
 50  19  47  1   
 51  20  48  1   
 52  20  49  1   
 53  21  50  1   
 54  21  51  1   
 55  21  52  1   
 56  22  53  1   
 57  22  54  1   
 58  22  55  1   
@<TRIPOS>SUBSTRUCTURE
  1 ****   4 GROUP 4 **** **** 0

# MOE 2024.06 (io_trps.svl 2023.06)
