@<TRIPOS>MOLECULE
NONAME
22 22 1 0 0 
SMALL
USER_CHARGES


@<TRIPOS>ATOM
  1 F       -1.6190    -0.2870     1.7300 F     1 <1>  -0.3400 
  2 C       -1.4480    -0.7690     0.5020 C.3   1 <1>   1.0200 
  3 F       -0.3580    -1.5300     0.5630 F     1 <1>  -0.3400 
  4 F       -1.1270     0.2740    -0.2600 F     1 <1>  -0.3400 
  5 C       -2.7030    -1.5570     0.0000 C.3   1 <1>   0.3440 
  6 O       -2.5770    -2.0990    -1.2890 O.3   1 <1>  -0.6800 
  7 C       -3.9960    -0.7430     0.0030 C.ar  1 <1>  -0.1440 
  8 C       -4.9860    -1.0130     0.9380 C.ar  1 <1>  -0.1500 
  9 C       -4.2070     0.2690    -0.9240 C.ar  1 <1>  -0.1500 
 10 C       -6.1620    -0.2840     0.9450 C.ar  1 <1>  -0.1500 
 11 C       -5.3830     0.9970    -0.9160 C.ar  1 <1>  -0.1500 
 12 C       -6.3690     0.7230     0.0170 C.ar  1 <1>  -0.1430 
 13 C       -7.6580     1.5230     0.0280 C.3   1 <1>  -0.0970 
 14 H       -2.8250    -2.3940     0.6630 H     1 <1>   0.0800 
 15 H       -3.4720    -2.2520    -1.6510 H     1 <1>   0.4000 
 16 H       -4.8530    -1.7890     1.6710 H     1 <1>   0.1500 
 17 H       -3.4540     0.5000    -1.6600 H     1 <1>   0.1500 
 18 H       -6.9190    -0.5040     1.6780 H     1 <1>   0.1500 
 19 H       -5.5280     1.7800    -1.6400 H     1 <1>   0.1500 
 20 H       -8.4720     0.9230     0.3940 H     1 <1>   0.0800 
 21 H       -7.9030     1.8560    -0.9650 H     1 <1>   0.0800 
 22 H       -7.5470     2.3830     0.6640 H     1 <1>   0.0800 
@<TRIPOS>BOND
  1   1   2  1   
  2   2   3  1   
  3   2   4  1   
  4   2   5  1   
  5   5   6  1   
  6   5   7  1   
  7   5  14  1   
  8   6  15  1   
  9   7   8  ar  
 10   7   9  ar  
 11   8  10  ar  
 12   8  16  1   
 13   9  11  ar  
 14   9  17  1   
 15  10  12  ar  
 16  10  18  1   
 17  11  12  ar  
 18  11  19  1   
 19  12  13  1   
 20  13  20  1   
 21  13  21  1   
 22  13  22  1   
@<TRIPOS>SUBSTRUCTURE
  1 ****   7 GROUP 4 **** **** 0

# MOE 2024.06 (io_trps.svl 2023.06)
