@<TRIPOS>MOLECULE
NONAME
29 28 1 0 0 
SMALL
USER_CHARGES


@<TRIPOS>ATOM
  1 O       -0.2830    -0.1270     1.1610 O.2   1 <1>  -0.5700 
  2 C       -0.8840    -1.1640     0.9640 C.2   1 <1>   0.7800 
  3 O       -0.2480    -2.2500     0.5170 O.3   1 <1>  -0.4300 
  4 N       -2.2320    -1.2390     1.2010 N.am  1 <1>  -0.3680 
  5 C        1.1340    -2.2550     0.2330 C.3   1 <1>   0.1200 
  6 N       -3.0940    -2.3240     1.0420 N.2   1 <1>  -0.5120 
  7 C        1.3500    -1.7430    -1.1910 C.3   1 <1>  -0.2400 
  8 C       -4.3320    -2.2630     1.3140 C.2   1 <1>   0.3280 
  9 C       -5.2240    -3.4840     1.1040 C.3   1 <1>   0.2010 
 10 C       -5.0670    -1.0420     1.8580 C.3   1 <1>  -0.1790 
 11 N       -6.2150    -3.2740     0.0090 N.am  1 <1>  -0.7300 
 12 C       -7.5080    -2.9300     0.2070 C.2   1 <1>   0.5690 
 13 O       -7.9580    -2.7340     1.3080 O.2   1 <1>  -0.5700 
 14 C       -8.3990    -2.7760    -0.9960 C.3   1 <1>  -0.1790 
 15 H       -2.6110    -0.3530     1.5330 H     1 <1>   0.3700 
 16 H        1.6500    -1.6460     0.9570 H     1 <1>   0.0800 
 17 H        1.4780    -3.2700     0.3210 H     1 <1>   0.0800 
 18 H        1.0210    -0.7220    -1.2740 H     1 <1>   0.0800 
 19 H        0.8100    -2.3550    -1.8910 H     1 <1>   0.0800 
 20 H        2.3960    -1.7830    -1.4340 H     1 <1>   0.0800 
 21 H       -5.7390    -3.7060     2.0230 H     1 <1>   0.0800 
 22 H       -4.6100    -4.3320     0.8580 H     1 <1>   0.0800 
 23 H       -5.7010    -0.6350     1.0920 H     1 <1>   0.0800 
 24 H       -4.3990    -0.2750     2.1960 H     1 <1>   0.0800 
 25 H       -5.6860    -1.3340     2.6870 H     1 <1>   0.0800 
 26 H       -5.8470    -3.3680    -0.9390 H     1 <1>   0.3700 
 27 H       -8.4140    -3.6900    -1.5580 H     1 <1>   0.0800 
 28 H       -8.0370    -1.9770    -1.6160 H     1 <1>   0.0800 
 29 H       -9.4000    -2.5460    -0.6790 H     1 <1>   0.0800 
@<TRIPOS>BOND
  1   1   2  2   
  2   2   3  1   
  3   2   4  am  
  4   3   5  1   
  5   4   6  1   
  6   4  15  1   
  7   5   7  1   
  8   5  16  1   
  9   5  17  1   
 10   6   8  2   
 11   7  18  1   
 12   7  19  1   
 13   7  20  1   
 14   8   9  1   
 15   8  10  1   
 16   9  11  1   
 17   9  21  1   
 18   9  22  1   
 19  10  23  1   
 20  10  24  1   
 21  10  25  1   
 22  11  12  am  
 23  11  26  1   
 24  12  13  2   
 25  12  14  1   
 26  14  27  1   
 27  14  28  1   
 28  14  29  1   
@<TRIPOS>SUBSTRUCTURE
  1 ****   6 GROUP 4 **** **** 0

# MOE 2024.06 (io_trps.svl 2023.06)
