@<TRIPOS>MOLECULE
NONAME
49 51 1 0 0 
SMALL
USER_CHARGES


@<TRIPOS>ATOM
  1 O       -2.2670    -1.4990    -2.6240 O.2   1 <1>  -0.5700 
  2 C       -2.3590    -1.2530    -1.4370 C.2   1 <1>   0.6340 
  3 O       -1.3090    -1.5040    -0.6480 O.3   1 <1>  -0.4300 
  4 C       -3.5530    -0.7000    -0.8300 C.ar  1 <1>   0.0860 
  5 C       -0.1110    -2.0420    -1.1590 C.3   1 <1>   0.1200 
  6 C       -4.6860    -0.4130    -1.5960 C.ar  1 <1>  -0.1500 
  7 C       -3.6370    -0.4250     0.5380 C.ar  1 <1>  -0.1500 
  8 C        0.8690    -2.2010    -0.0010 C.3   1 <1>  -0.2400 
  9 C       -5.8310     0.1130    -1.0320 C.ar  1 <1>  -0.1500 
 10 C       -4.7820     0.1020     1.1050 C.ar  1 <1>  -0.1500 
 11 C       -5.9030     0.3800     0.3300 C.ar  1 <1>   0.1170 
 12 N       -7.0880     0.9090     0.8460 N.am  1 <1>  -0.5470 
 13 C       -7.5210     1.2070     2.1080 C.2   1 <1>   0.5690 
 14 O       -6.8720     1.0460     3.1130 O.2   1 <1>  -0.5700 
 15 C       -8.9350     1.7820     2.2110 C.3   1 <1>   0.1710 
 16 N       -9.7870     1.4790     1.0200 N.3   1 <1>  -0.8100 
 17 C      -10.2520     0.0790     1.0590 C.3   1 <1>   0.1100 
 18 C      -10.9310     2.4040     0.9560 C.3   1 <1>   0.1100 
 19 C      -10.9970    -0.2500    -0.2340 C.3   1 <1>  -0.1600 
 20 C      -11.7090     2.1710    -0.3380 C.3   1 <1>  -0.1600 
 21 C      -12.1610     0.7200    -0.4340 C.3   1 <1>   0.5600 
 22 O      -12.7680     0.5110    -1.6630 O.3   1 <1>  -0.5600 
 23 O      -13.1530     0.4880     0.5130 O.3   1 <1>  -0.5600 
 24 C      -13.7980    -0.3950    -1.5070 C.3   1 <1>   0.1200 
 25 C      -14.1090    -0.3550    -0.0230 C.3   1 <1>   0.1200 
 26 H        0.2750    -1.3670    -1.9050 H     1 <1>   0.0800 
 27 H       -0.3320    -2.9940    -1.6140 H     1 <1>   0.0800 
 28 H       -4.6610    -0.6100    -2.6550 H     1 <1>   0.1500 
 29 H       -2.7910    -0.6260     1.1710 H     1 <1>   0.1500 
 30 H        1.0690    -1.2440     0.4470 H     1 <1>   0.0800 
 31 H        1.7940    -2.6110    -0.3630 H     1 <1>   0.0800 
 32 H        0.4630    -2.8680     0.7380 H     1 <1>   0.0800 
 33 H       -6.6820     0.3190    -1.6560 H     1 <1>   0.1500 
 34 H       -4.7980     0.2970     2.1610 H     1 <1>   0.1500 
 35 H       -7.8420     1.0820     0.1720 H     1 <1>   0.3700 
 36 H       -8.8290     2.8470     2.3140 H     1 <1>   0.0800 
 37 H       -9.4020     1.4100     3.1060 H     1 <1>   0.0800 
 38 H      -10.9070    -0.0680     1.9030 H     1 <1>   0.0800 
 39 H       -9.4140    -0.5890     1.1610 H     1 <1>   0.0800 
 40 H      -10.5790     3.4220     0.9730 H     1 <1>   0.0800 
 41 H      -11.5780     2.2520     1.8050 H     1 <1>   0.0800 
 42 H      -11.3560    -1.2610    -0.1990 H     1 <1>   0.0800 
 43 H      -10.3150    -0.1580    -1.0590 H     1 <1>   0.0800 
 44 H      -11.0710     2.4000    -1.1710 H     1 <1>   0.0800 
 45 H      -12.5670     2.8160    -0.3750 H     1 <1>   0.0800 
 46 H      -13.4580    -1.3680    -1.8130 H     1 <1>   0.0800 
 47 H      -14.6350    -0.0850    -2.1070 H     1 <1>   0.0800 
 48 H      -15.0830     0.0580     0.1710 H     1 <1>   0.0800 
 49 H      -14.0190    -1.3270     0.4300 H     1 <1>   0.0800 
@<TRIPOS>BOND
  1   1   2  2   
  2   2   3  1   
  3   2   4  1   
  4   3   5  1   
  5   4   6  ar  
  6   4   7  ar  
  7   5   8  1   
  8   5  26  1   
  9   5  27  1   
 10   6   9  ar  
 11   6  28  1   
 12   7  10  ar  
 13   7  29  1   
 14   8  30  1   
 15   8  31  1   
 16   8  32  1   
 17   9  11  ar  
 18   9  33  1   
 19  10  11  ar  
 20  10  34  1   
 21  11  12  1   
 22  12  13  am  
 23  12  35  1   
 24  13  14  2   
 25  13  15  1   
 26  15  16  1   
 27  15  36  1   
 28  15  37  1   
 29  16  17  1   
 30  16  18  1   
 31  17  19  1   
 32  17  38  1   
 33  17  39  1   
 34  18  20  1   
 35  18  40  1   
 36  18  41  1   
 37  19  21  1   
 38  19  42  1   
 39  19  43  1   
 40  20  21  1   
 41  20  44  1   
 42  20  45  1   
 43  21  22  1   
 44  21  23  1   
 45  22  24  1   
 46  23  25  1   
 47  24  25  1   
 48  24  46  1   
 49  24  47  1   
 50  25  48  1   
 51  25  49  1   
@<TRIPOS>SUBSTRUCTURE
  1 ****  12 GROUP 4 **** **** 0

# MOE 2024.06 (io_trps.svl 2023.06)
