@<TRIPOS>MOLECULE
NONAME
35 35 1 0 0 
SMALL
USER_CHARGES


@<TRIPOS>ATOM
  1 BR       0.2700    -0.5330     1.8690 Br    1 <1>  -0.1110 
  2 C        1.0630    -1.8590     0.7130 C.ar  1 <1>   0.1110 
  3 C        0.2970    -2.9210     0.2510 C.ar  1 <1>   0.0830 
  4 C        2.3950    -1.7010     0.3800 C.ar  1 <1>  -0.1500 
  5 O       -1.0040    -2.9970     0.6340 O.3   1 <1>  -0.3630 
  6 C        0.9130    -3.8520    -0.5810 C.ar  1 <1>  -0.1500 
  7 C        2.9980    -2.6390    -0.4460 C.ar  1 <1>  -0.1430 
  8 C       -1.8520    -4.0290     0.1800 C.3   1 <1>   0.0400 
  9 C        2.2490    -3.7090    -0.9240 C.ar  1 <1>  -0.1500 
 10 C        4.4590    -2.5020    -0.8120 C.3   1 <1>   0.4870 
 11 N        5.2150    -3.2990     0.1680 N.4   1 <1>  -0.9060 
 12 C        6.6780    -3.3300    -0.0250 C.3   1 <1>   0.4230 
 13 C        7.2030    -4.6970     0.4720 C.3   1 <1>   0.1200 
 14 C        7.3140    -2.1370     0.7020 C.3   1 <1>  -0.1600 
 15 O        6.2580    -5.6920     0.1960 O.3   1 <1>  -0.6800 
 16 C        8.8290    -2.0370     0.4650 C.3   1 <1>  -0.2400 
 17 H        2.9290    -0.8510     0.7690 H     1 <1>   0.1500 
 18 H        0.3660    -4.6920    -0.9700 H     1 <1>   0.1500 
 19 H       -2.8270    -3.8680     0.6030 H     1 <1>   0.0800 
 20 H       -1.4620    -4.9750     0.5130 H     1 <1>   0.0800 
 21 H       -1.9090    -3.9890    -0.8930 H     1 <1>   0.0800 
 22 H        2.6940    -4.4460    -1.5720 H     1 <1>   0.1500 
 23 H        4.7550    -1.4660    -0.7660 H     1 <1>   0.0800 
 24 H        4.6260    -2.8710    -1.8110 H     1 <1>   0.0800 
 25 H        4.9320    -4.2920     0.0840 H     1 <1>   0.4500 
 26 H        4.9650    -3.0270     1.1210 H     1 <1>   0.4500 
 27 H        6.9000    -3.2590    -1.0780 H     1 <1>   0.0800 
 28 H        7.3700    -4.6800     1.5360 H     1 <1>   0.0800 
 29 H        8.1270    -4.9470    -0.0220 H     1 <1>   0.0800 
 30 H        7.1360    -2.2130     1.7610 H     1 <1>   0.0800 
 31 H        6.8670    -1.2230     0.3500 H     1 <1>   0.0800 
 32 H        6.6060    -6.5830     0.4310 H     1 <1>   0.4000 
 33 H        9.3490    -2.8880     0.8720 H     1 <1>   0.0800 
 34 H        9.2160    -1.1550     0.9470 H     1 <1>   0.0800 
 35 H        9.0510    -1.9650    -0.5860 H     1 <1>   0.0800 
@<TRIPOS>BOND
  1   1   2  1   
  2   2   3  ar  
  3   2   4  ar  
  4   3   5  1   
  5   3   6  ar  
  6   4   7  ar  
  7   4  17  1   
  8   5   8  1   
  9   6   9  ar  
 10   6  18  1   
 11   7   9  ar  
 12   7  10  1   
 13   8  19  1   
 14   8  20  1   
 15   8  21  1   
 16   9  22  1   
 17  10  11  1   
 18  10  23  1   
 19  10  24  1   
 20  11  12  1   
 21  11  25  1   
 22  11  26  1   
 23  12  13  1   
 24  12  14  1   
 25  12  27  1   
 26  13  15  1   
 27  13  28  1   
 28  13  29  1   
 29  14  16  1   
 30  14  30  1   
 31  14  31  1   
 32  15  32  1   
 33  16  33  1   
 34  16  34  1   
 35  16  35  1   
@<TRIPOS>SUBSTRUCTURE
  1 ****   7 GROUP 4 **** **** 0

# MOE 2024.06 (io_trps.svl 2023.06)
