@<TRIPOS>MOLECULE
NONAME
42 44 1 0 0 
SMALL
USER_CHARGES


@<TRIPOS>ATOM
  1 CL       1.5700     0.9880    -0.8600 Cl    1 <1>  -0.1770 
  2 C        0.3190     2.1780    -0.6170 C.ar  1 <1>   0.1770 
  3 C       -0.9290     1.9750    -1.1710 C.ar  1 <1>  -0.1500 
  4 C        0.5900     3.3080     0.1270 C.ar  1 <1>  -0.1500 
  5 C       -1.9190     2.9230    -0.9760 C.ar  1 <1>  -0.1500 
  6 C       -0.4050     4.2530     0.3190 C.ar  1 <1>  -0.1500 
  7 C       -1.6740     4.0760    -0.2310 C.ar  1 <1>  -0.1430 
  8 C       -2.8070     5.0950    -0.0430 C.3   1 <1>   0.4240 
  9 O       -3.2800     5.3870    -1.3080 O.3   1 <1>  -0.6800 
 10 C       -3.9710     4.4860     0.7570 C.3   1 <1>  -0.1600 
 11 C       -2.4010     6.4370     0.5850 C.3   1 <1>  -0.1600 
 12 C       -4.9590     5.5160     1.3150 C.3   1 <1>   0.3430 
 13 C       -3.5580     7.4450     0.6540 C.3   1 <1>   0.3430 
 14 N       -4.8790     6.7660     0.5150 N.4   1 <1>  -0.9590 
 15 C       -6.0330     7.6850     0.7020 C.3   1 <1>   0.4860 
 16 C       -7.3010     6.9760     0.2550 C.ar  1 <1>  -0.1430 
 17 C       -8.2310     6.5530     1.1990 C.ar  1 <1>  -0.1500 
 18 C       -7.5360     6.7450    -1.1000 C.ar  1 <1>  -0.1500 
 19 C       -9.3720     5.8980     0.7730 C.ar  1 <1>   0.1900 
 20 C       -8.6840     6.0890    -1.5210 C.ar  1 <1>  -0.1500 
 21 F      -10.2340     5.4960     1.6700 F     1 <1>  -0.1900 
 22 C       -9.5970     5.6670    -0.5730 C.ar  1 <1>   0.1900 
 23 F      -10.6770     5.0440    -0.9690 F     1 <1>  -0.1900 
 24 H       -1.1170     1.0850    -1.7460 H     1 <1>   0.1500 
 25 H        1.5700     3.4410     0.5490 H     1 <1>   0.1500 
 26 H       -2.8870     2.7460    -1.4130 H     1 <1>   0.1500 
 27 H       -0.1550     5.1180     0.9060 H     1 <1>   0.1500 
 28 H       -2.5920     5.1060    -1.9500 H     1 <1>   0.4000 
 29 H       -3.5710     3.9370     1.5910 H     1 <1>   0.0800 
 30 H       -4.4990     3.7740     0.1480 H     1 <1>   0.0800 
 31 H       -1.5830     6.8720     0.0390 H     1 <1>   0.0800 
 32 H       -2.0540     6.2610     1.5870 H     1 <1>   0.0800 
 33 H       -4.7180     5.7320     2.3440 H     1 <1>   0.0800 
 34 H       -5.9550     5.1040     1.2800 H     1 <1>   0.0800 
 35 H       -3.4460     8.1570    -0.1490 H     1 <1>   0.0800 
 36 H       -3.5090     7.9830     1.5870 H     1 <1>   0.0800 
 37 H       -4.9010     6.4360    -0.4680 H     1 <1>   0.4500 
 38 H       -5.8970     8.5740     0.1080 H     1 <1>   0.0800 
 39 H       -6.1150     7.9740     1.7370 H     1 <1>   0.0800 
 40 H       -8.0930     6.7190     2.2540 H     1 <1>   0.1500 
 41 H       -6.8310     7.0750    -1.8460 H     1 <1>   0.1500 
 42 H       -8.8740     5.9060    -2.5650 H     1 <1>   0.1500 
@<TRIPOS>BOND
  1   1   2  1   
  2   2   3  ar  
  3   2   4  ar  
  4   3   5  ar  
  5   3  24  1   
  6   4   6  ar  
  7   4  25  1   
  8   5   7  ar  
  9   5  26  1   
 10   6   7  ar  
 11   6  27  1   
 12   7   8  1   
 13   8   9  1   
 14   8  10  1   
 15   8  11  1   
 16   9  28  1   
 17  10  12  1   
 18  10  29  1   
 19  10  30  1   
 20  11  13  1   
 21  11  31  1   
 22  11  32  1   
 23  12  14  1   
 24  12  33  1   
 25  12  34  1   
 26  13  14  1   
 27  13  35  1   
 28  13  36  1   
 29  14  15  1   
 30  14  37  1   
 31  15  16  1   
 32  15  38  1   
 33  15  39  1   
 34  16  17  ar  
 35  16  18  ar  
 36  17  19  ar  
 37  17  40  1   
 38  18  20  ar  
 39  18  41  1   
 40  19  21  1   
 41  19  22  ar  
 42  20  22  ar  
 43  20  42  1   
 44  22  23  1   
@<TRIPOS>SUBSTRUCTURE
  1 ****  10 GROUP 4 **** **** 0

# MOE 2024.06 (io_trps.svl 2023.06)
