@<TRIPOS>MOLECULE
Structure446
28 29 1 0 0 
SMALL
USER_CHARGES


@<TRIPOS>ATOM
  1 CL      -0.4420    -0.6220     1.8660 Cl    1 <1>  -0.1770 
  2 C       -1.1950    -1.7950     0.8280 C.ar  1 <1>   0.7970 
  3 N       -2.5090    -1.7280     0.7660 N.ar  1 <1>  -0.6200 
  4 N       -0.3630    -2.6220     0.2160 N.ar  1 <1>  -0.6200 
  5 C       -3.0780    -2.6210    -0.0180 C.ar  1 <1>   0.4100 
  6 C       -0.9540    -3.4980    -0.5700 C.ar  1 <1>   0.1600 
  7 N       -4.4540    -2.6110    -0.1140 N.pl3 1 <1>  -0.8380 
  8 C       -2.3130    -3.5360    -0.7210 C.ar  1 <1>  -0.1500 
  9 C       -5.2060    -3.8970    -0.0550 C.3   1 <1>   0.2090 
 10 C       -5.1700    -1.3090     0.0350 C.3   1 <1>   0.2090 
 11 C       -6.3850    -3.8760     0.9240 C.3   1 <1>  -0.1600 
 12 C       -6.5050    -1.2660    -0.7150 C.3   1 <1>  -0.1600 
 13 C       -7.6770    -3.3210     0.3040 C.3   1 <1>  -0.1600 
 14 C       -7.6800    -1.8010     0.1160 C.3   1 <1>  -0.1600 
 15 H       -0.3290    -4.1950    -1.1020 H     1 <1>   0.1500 
 16 H       -2.7830    -4.2460    -1.3710 H     1 <1>   0.1500 
 17 H       -4.5320    -4.6740     0.2640 H     1 <1>   0.0800 
 18 H       -5.5510    -4.1500    -1.0420 H     1 <1>   0.0800 
 19 H       -4.5390    -0.5310    -0.3610 H     1 <1>   0.0800 
 20 H       -5.3180    -1.1000     1.0810 H     1 <1>   0.0800 
 21 H       -6.1190    -3.3450     1.8210 H     1 <1>   0.0800 
 22 H       -6.5810    -4.8950     1.2060 H     1 <1>   0.0800 
 23 H       -6.4220    -1.7790    -1.6570 H     1 <1>   0.0800 
 24 H       -6.7130    -0.2330    -0.9330 H     1 <1>   0.0800 
 25 H       -8.5020    -3.5790     0.9460 H     1 <1>   0.0800 
 26 H       -7.8530    -3.7980    -0.6460 H     1 <1>   0.0800 
 27 H       -8.5990    -1.5260    -0.3730 H     1 <1>   0.0800 
 28 H       -7.6800    -1.3240     1.0820 H     1 <1>   0.0800 
@<TRIPOS>BOND
  1   1   2  1   
  2   2   3  ar  
  3   2   4  ar  
  4   3   5  ar  
  5   4   6  ar  
  6   5   7  1   
  7   5   8  ar  
  8   6   8  ar  
  9   6  15  1   
 10   7   9  1   
 11   7  10  1   
 12   8  16  1   
 13   9  11  1   
 14   9  17  1   
 15   9  18  1   
 16  10  12  1   
 17  10  19  1   
 18  10  20  1   
 19  11  13  1   
 20  11  21  1   
 21  11  22  1   
 22  12  14  1   
 23  12  23  1   
 24  12  24  1   
 25  13  14  1   
 26  13  25  1   
 27  13  26  1   
 28  14  27  1   
 29  14  28  1   
@<TRIPOS>SUBSTRUCTURE
  1 ****   7 GROUP 4 **** **** 0

# MOE 2024.06 (io_trps.svl 2023.06)
