@<TRIPOS>MOLECULE
NONAME
49 50 1 0 0 
SMALL
USER_CHARGES


@<TRIPOS>ATOM
  1 O      -16.3600     3.6500     0.0830 O.3   1 <1>  -0.5600 
  2 C      -15.4150     4.0200    -0.8780 C.3   1 <1>   0.1200 
  3 C      -16.4440     2.2760     0.3280 C.3   1 <1>   0.1200 
  4 C      -14.0080     3.5660    -0.4450 C.3   1 <1>   0.3430 
  5 C      -15.0860     1.7400     0.8210 C.3   1 <1>   0.3430 
  6 N      -13.9720     2.0920    -0.1270 N.4   1 <1>  -0.9590 
  7 C      -12.6530     1.6660     0.4180 C.3   1 <1>   0.3430 
  8 C      -11.5850     1.7340    -0.6690 C.3   1 <1>  -0.1600 
  9 C      -10.2380     1.2680    -0.1210 C.3   1 <1>   0.1200 
 10 O       -9.2640     1.6070    -1.0770 O.3   1 <1>  -0.3630 
 11 C       -8.1880     2.3320    -0.6730 C.ar  1 <1>   0.0820 
 12 C       -8.2890     3.5750    -0.0330 C.ar  1 <1>   0.0820 
 13 C       -6.9430     1.7890    -0.9410 C.ar  1 <1>  -0.1500 
 14 O       -9.5260     4.1200     0.1820 O.3   1 <1>  -0.3620 
 15 C       -7.1180     4.2260     0.3520 C.ar  1 <1>  -0.1500 
 16 C       -5.7920     2.4530    -0.5590 C.ar  1 <1>  -0.1500 
 17 C       -9.6590     5.4810     0.5370 C.3   1 <1>   0.0400 
 18 C       -5.8740     3.6710     0.0940 C.ar  1 <1>  -0.1440 
 19 C       -4.6060     4.3960     0.5180 C.3   1 <1>  -0.0170 
 20 C       -4.1400     5.3520    -0.5850 C.3   1 <1>  -0.1600 
 21 C       -2.8620     6.0950    -0.1850 C.3   1 <1>  -0.2400 
 22 H      -15.4470     5.0920    -0.9710 H     1 <1>   0.0800 
 23 H      -15.6920     3.5870    -1.8240 H     1 <1>   0.0800 
 24 H      -16.7570     1.7800    -0.5740 H     1 <1>   0.0800 
 25 H      -17.1980     2.1250     1.0810 H     1 <1>   0.0800 
 26 H      -13.7220     4.1330     0.4260 H     1 <1>   0.0800 
 27 H      -13.3080     3.7940    -1.2320 H     1 <1>   0.0800 
 28 H      -15.1480     0.6700     0.9380 H     1 <1>   0.0800 
 29 H      -14.8880     2.1680     1.7910 H     1 <1>   0.0800 
 30 H      -14.1360     1.5820    -1.0060 H     1 <1>   0.4500 
 31 H      -12.7190     0.6510     0.7780 H     1 <1>   0.0800 
 32 H      -12.3720     2.3000     1.2440 H     1 <1>   0.0800 
 33 H      -11.4690     2.7470    -1.0080 H     1 <1>   0.0800 
 34 H      -11.8540     1.1060    -1.4990 H     1 <1>   0.0800 
 35 H      -10.2110     0.2000     0.0080 H     1 <1>   0.0800 
 36 H       -9.9990     1.7420     0.8170 H     1 <1>   0.0800 
 37 H       -6.8790     0.8450    -1.4500 H     1 <1>   0.1500 
 38 H       -7.1500     5.1720     0.8560 H     1 <1>   0.1500 
 39 H       -4.8320     2.0160    -0.7740 H     1 <1>   0.1500 
 40 H      -10.7030     5.7330     0.5290 H     1 <1>   0.0800 
 41 H       -9.1330     6.0830    -0.1830 H     1 <1>   0.0800 
 42 H       -9.2580     5.6270     1.5250 H     1 <1>   0.0800 
 43 H       -3.8330     3.6770     0.7260 H     1 <1>   0.0800 
 44 H       -4.7900     4.9470     1.4240 H     1 <1>   0.0800 
 45 H       -4.9190     6.0670    -0.7910 H     1 <1>   0.0800 
 46 H       -3.9600     4.7930    -1.4880 H     1 <1>   0.0800 
 47 H       -3.0270     6.6800     0.7040 H     1 <1>   0.0800 
 48 H       -2.5590     6.7570    -0.9770 H     1 <1>   0.0800 
 49 H       -2.0630     5.3980     0.0010 H     1 <1>   0.0800 
@<TRIPOS>BOND
  1   1   2  1   
  2   1   3  1   
  3   2   4  1   
  4   2  22  1   
  5   2  23  1   
  6   3   5  1   
  7   3  24  1   
  8   3  25  1   
  9   4   6  1   
 10   4  26  1   
 11   4  27  1   
 12   5   6  1   
 13   5  28  1   
 14   5  29  1   
 15   6   7  1   
 16   6  30  1   
 17   7   8  1   
 18   7  31  1   
 19   7  32  1   
 20   8   9  1   
 21   8  33  1   
 22   8  34  1   
 23   9  10  1   
 24   9  35  1   
 25   9  36  1   
 26  10  11  1   
 27  11  12  ar  
 28  11  13  ar  
 29  12  14  1   
 30  12  15  ar  
 31  13  16  ar  
 32  13  37  1   
 33  14  17  1   
 34  15  18  ar  
 35  15  38  1   
 36  16  18  ar  
 37  16  39  1   
 38  17  40  1   
 39  17  41  1   
 40  17  42  1   
 41  18  19  1   
 42  19  20  1   
 43  19  43  1   
 44  19  44  1   
 45  20  21  1   
 46  20  45  1   
 47  20  46  1   
 48  21  47  1   
 49  21  48  1   
 50  21  49  1   
@<TRIPOS>SUBSTRUCTURE
  1 ****  14 GROUP 4 **** **** 0

# MOE 2024.06 (io_trps.svl 2023.06)
