@<TRIPOS>MOLECULE
NONAME
36 37 1 0 0 
SMALL
USER_CHARGES


@<TRIPOS>ATOM
  1 CL       0.1670    -0.0620    -0.6370 Cl    1 <1>  -0.1770 
  2 C        0.9780    -1.5290    -0.1350 C.ar  1 <1>   0.1770 
  3 C        0.2900    -2.5350     0.5210 C.ar  1 <1>   0.1900 
  4 C        2.3250    -1.6770    -0.4040 C.ar  1 <1>  -0.1500 
  5 F       -0.9870    -2.3990     0.7780 F     1 <1>  -0.1900 
  6 C        0.9270    -3.6960     0.9170 C.ar  1 <1>  -0.1500 
  7 C        2.9940    -2.8340    -0.0150 C.ar  1 <1>   0.1170 
  8 C        2.2780    -3.8380     0.6430 C.ar  1 <1>  -0.1500 
  9 N        4.3600    -2.9510    -0.3140 N.am  1 <1>  -0.5470 
 10 C        5.3440    -3.6830     0.2960 C.2   1 <1>   0.5690 
 11 O        5.1490    -4.3590     1.2760 O.2   1 <1>  -0.5700 
 12 C        6.7510    -3.6060    -0.2990 C.3   1 <1>  -0.0190 
 13 C        7.5380    -4.9230    -0.1310 C.3   1 <1>  -0.1600 
 14 C        7.5460    -2.4390     0.3150 C.3   1 <1>  -0.1600 
 15 C        8.9530    -4.8140    -0.7030 C.3   1 <1>   0.1400 
 16 C        8.9640    -2.3540    -0.2570 C.3   1 <1>   0.1400 
 17 N        9.6540    -3.6600    -0.0750 N.am  1 <1>  -0.6600 
 18 C       10.8200    -3.7420     0.6440 C.2   1 <1>   0.5690 
 19 O       11.3630    -2.7680     1.1060 O.2   1 <1>  -0.5700 
 20 C       11.4840    -5.0780     0.8900 C.3   1 <1>  -0.1790 
 21 H        2.8460    -0.8870    -0.9110 H     1 <1>   0.1500 
 22 H        0.3780    -4.4680     1.4260 H     1 <1>   0.1500 
 23 H        2.7760    -4.7420     0.9440 H     1 <1>   0.1500 
 24 H        4.6810    -2.3540    -1.0730 H     1 <1>   0.3700 
 25 H        6.6510    -3.4250    -1.3550 H     1 <1>   0.0800 
 26 H        7.0140    -5.7230    -0.6240 H     1 <1>   0.0800 
 27 H        7.6090    -5.1760     0.9130 H     1 <1>   0.0800 
 28 H        7.6130    -2.5700     1.3820 H     1 <1>   0.0800 
 29 H        7.0370    -1.5090     0.1340 H     1 <1>   0.0800 
 30 H        8.9080    -4.6550    -1.7670 H     1 <1>   0.0800 
 31 H        9.4790    -5.7350    -0.5310 H     1 <1>   0.0800 
 32 H        9.5030    -1.5640     0.2400 H     1 <1>   0.0800 
 33 H        8.9300    -2.1200    -1.3070 H     1 <1>   0.0800 
 34 H       11.7750    -5.5180    -0.0450 H     1 <1>   0.0800 
 35 H       10.8090    -5.7290     1.4110 H     1 <1>   0.0800 
 36 H       12.3620    -4.9390     1.4930 H     1 <1>   0.0800 
@<TRIPOS>BOND
  1   1   2  1   
  2   2   3  ar  
  3   2   4  ar  
  4   3   5  1   
  5   3   6  ar  
  6   4   7  ar  
  7   4  21  1   
  8   6   8  ar  
  9   6  22  1   
 10   7   8  ar  
 11   7   9  1   
 12   8  23  1   
 13   9  10  am  
 14   9  24  1   
 15  10  11  2   
 16  10  12  1   
 17  12  13  1   
 18  12  14  1   
 19  12  25  1   
 20  13  15  1   
 21  13  26  1   
 22  13  27  1   
 23  14  16  1   
 24  14  28  1   
 25  14  29  1   
 26  15  17  1   
 27  15  30  1   
 28  15  31  1   
 29  16  17  1   
 30  16  32  1   
 31  16  33  1   
 32  17  18  am  
 33  18  19  2   
 34  18  20  1   
 35  20  34  1   
 36  20  35  1   
 37  20  36  1   
@<TRIPOS>SUBSTRUCTURE
  1 ****  10 GROUP 4 **** **** 0

# MOE 2024.06 (io_trps.svl 2023.06)
