@<TRIPOS>MOLECULE
NONAME
55 57 1 0 0 
SMALL
USER_CHARGES


@<TRIPOS>ATOM
  1 F        3.5980     0.1500    -3.4220 F     1 <1>  -0.1900 
  2 C        3.4500    -0.3740    -2.2360 C.ar  1 <1>   0.1900 
  3 C        4.4210    -0.1390    -1.2820 C.ar  1 <1>  -0.1500 
  4 C        2.3320    -1.1430    -1.9810 C.ar  1 <1>  -0.1500 
  5 C        4.2720    -0.7010    -0.0210 C.ar  1 <1>  -0.1440 
  6 C        2.1840    -1.6950    -0.7210 C.ar  1 <1>  -0.1500 
  7 C        3.1480    -1.4740     0.2520 C.ar  1 <1>  -0.1500 
  8 C        5.3270    -0.4800     1.0490 C.3   1 <1>   0.4870 
  9 N        6.5590    -1.2180     0.6750 N.4   1 <1>  -0.9590 
 10 C        6.3650    -2.6860     0.4240 C.3   1 <1>   0.3430 
 11 C        7.7240    -0.9780     1.5880 C.3   1 <1>   0.3430 
 12 C        7.6530    -3.3180    -0.1630 C.3   1 <1>   0.1100 
 13 C        9.0000    -1.6770     1.0570 C.3   1 <1>   0.1100 
 14 N        8.7590    -2.3380    -0.2500 N.3   1 <1>  -0.8100 
 15 C        9.9960    -2.8960    -0.8760 C.3   1 <1>   0.1710 
 16 C       11.1590    -1.9020    -1.0450 C.2   1 <1>   0.5690 
 17 O       10.9230    -0.7840    -1.4410 O.2   1 <1>  -0.5700 
 18 N       12.4130    -2.3340    -0.7110 N.am  1 <1>  -0.5470 
 19 C       13.6780    -1.7130    -0.6990 C.ar  1 <1>   0.1170 
 20 C       14.7440    -2.4230    -0.1370 C.ar  1 <1>   0.0830 
 21 C       13.9170    -0.4450    -1.2190 C.ar  1 <1>  -0.1500 
 22 O       14.4720    -3.6710     0.3550 O.3   1 <1>  -0.3630 
 23 C       16.0140    -1.8580    -0.0970 C.ar  1 <1>  -0.1500 
 24 C       15.1820     0.1140    -1.1780 C.ar  1 <1>  -0.1500 
 25 C       15.4960    -4.4710     0.9100 C.3   1 <1>   0.0400 
 26 C       16.2380    -0.5930    -0.6130 C.ar  1 <1>   0.0830 
 27 O       17.5090    -0.1190    -0.5310 O.3   1 <1>  -0.3620 
 28 C       17.8390     1.1610    -1.0230 C.3   1 <1>   0.0400 
 29 H        5.2660     0.4740    -1.5430 H     1 <1>   0.1500 
 30 H        1.5970    -1.3000    -2.7510 H     1 <1>   0.1500 
 31 H        1.3160    -2.2940    -0.4980 H     1 <1>   0.1500 
 32 H        3.0040    -1.9120     1.2260 H     1 <1>   0.1500 
 33 H        4.9600    -0.8280     2.0000 H     1 <1>   0.0800 
 34 H        5.5370     0.5750     1.1290 H     1 <1>   0.0800 
 35 H        6.8930    -0.8720    -0.2390 H     1 <1>   0.4500 
 36 H        5.5570    -2.8390    -0.2740 H     1 <1>   0.0800 
 37 H        6.1060    -3.1880     1.3410 H     1 <1>   0.0800 
 38 H        7.5050    -1.3430     2.5780 H     1 <1>   0.0800 
 39 H        7.9190     0.0800     1.6630 H     1 <1>   0.0800 
 40 H        7.4340    -3.6940    -1.1490 H     1 <1>   0.0800 
 41 H        7.9480    -4.1560     0.4460 H     1 <1>   0.0800 
 42 H        9.3430    -2.3990     1.7780 H     1 <1>   0.0800 
 43 H        9.7700    -0.9310     0.9540 H     1 <1>   0.0800 
 44 H        9.7480    -3.2600    -1.8570 H     1 <1>   0.0800 
 45 H       10.3380    -3.7320    -0.2930 H     1 <1>   0.0800 
 46 H       12.4900    -3.2910    -0.3620 H     1 <1>   0.3700 
 47 H       13.1190     0.1190    -1.6640 H     1 <1>   0.1500 
 48 H       16.8520    -2.3720     0.3290 H     1 <1>   0.1500 
 49 H       15.3210     1.0950    -1.5900 H     1 <1>   0.1500 
 50 H       15.0640    -5.4060     1.2170 H     1 <1>   0.0800 
 51 H       15.9130    -3.9640     1.7620 H     1 <1>   0.0800 
 52 H       16.2480    -4.6450     0.1610 H     1 <1>   0.0800 
 53 H       18.8880     1.3250    -0.8500 H     1 <1>   0.0800 
 54 H       17.2620     1.8980    -0.4930 H     1 <1>   0.0800 
 55 H       17.6330     1.1940    -2.0780 H     1 <1>   0.0800 
@<TRIPOS>BOND
  1   1   2  1   
  2   2   3  ar  
  3   2   4  ar  
  4   3   5  ar  
  5   3  29  1   
  6   4   6  ar  
  7   4  30  1   
  8   5   7  ar  
  9   5   8  1   
 10   6   7  ar  
 11   6  31  1   
 12   7  32  1   
 13   8   9  1   
 14   8  33  1   
 15   8  34  1   
 16   9  10  1   
 17   9  11  1   
 18   9  35  1   
 19  10  12  1   
 20  10  36  1   
 21  10  37  1   
 22  11  13  1   
 23  11  38  1   
 24  11  39  1   
 25  12  14  1   
 26  12  40  1   
 27  12  41  1   
 28  13  14  1   
 29  13  42  1   
 30  13  43  1   
 31  14  15  1   
 32  15  16  1   
 33  15  44  1   
 34  15  45  1   
 35  16  17  2   
 36  16  18  am  
 37  18  19  1   
 38  18  46  1   
 39  19  20  ar  
 40  19  21  ar  
 41  20  22  1   
 42  20  23  ar  
 43  21  24  ar  
 44  21  47  1   
 45  22  25  1   
 46  23  26  ar  
 47  23  48  1   
 48  24  26  ar  
 49  24  49  1   
 50  25  50  1   
 51  25  51  1   
 52  25  52  1   
 53  26  27  1   
 54  27  28  1   
 55  28  53  1   
 56  28  54  1   
 57  28  55  1   
@<TRIPOS>SUBSTRUCTURE
  1 ****  14 GROUP 4 **** **** 0

# MOE 2024.06 (io_trps.svl 2023.06)
