@<TRIPOS>MOLECULE
NONAME
44 45 1 0 0 
SMALL
USER_CHARGES


@<TRIPOS>ATOM
  1 S        1.1420     0.6490     1.8830 S.3   1 <1>  -0.0800 
  2 C        2.7760     0.5070     1.3560 C.2   1 <1>   0.4340 
  3 C        0.8120     1.3290     0.3190 C.2   1 <1>   0.4420 
  4 S        3.9520    -0.1770     2.5080 S.3   1 <1>  -0.2860 
  5 N        2.9940     0.9190     0.1760 N.2   1 <1>  -0.3380 
  6 N        1.8610     1.3960    -0.4230 N.2   1 <1>  -0.3380 
  7 N       -0.4950     1.7030     0.0770 N.am  1 <1>  -0.4940 
  8 C        5.5560    -0.1010     1.5750 C.3   1 <1>   0.1310 
  9 C       -1.0310     2.2700    -1.0400 C.2   1 <1>   0.5690 
 10 C        6.1580     1.2910     1.6550 C.2   1 <1>   0.5690 
 11 O       -0.4010     2.5430    -2.0250 O.2   1 <1>  -0.5700 
 12 C       -2.5100     2.5680    -1.0230 C.3   1 <1>  -0.1790 
 13 O        7.1580     1.4370     2.3150 O.2   1 <1>  -0.5700 
 14 N        5.5660     2.3160     0.9720 N.am  1 <1>  -0.5470 
 15 C        5.9390     3.6670     0.9820 C.ar  1 <1>   0.1170 
 16 C        5.2380     4.5770     1.7800 C.ar  1 <1>  -0.1430 
 17 C        6.9940     4.1230     0.1840 C.ar  1 <1>  -0.1430 
 18 C        5.5960     5.9150     1.7750 C.ar  1 <1>  -0.1500 
 19 C        4.0760     4.1490     2.6720 C.3   1 <1>  -0.0170 
 20 C        7.3340     5.4650     0.1950 C.ar  1 <1>  -0.1500 
 21 C        7.7930     3.1860    -0.7180 C.3   1 <1>  -0.0170 
 22 C        6.6400     6.3610     0.9870 C.ar  1 <1>  -0.1500 
 23 C        2.7470     4.2790     1.9230 C.3   1 <1>  -0.2400 
 24 C        7.0620     2.9470    -2.0420 C.3   1 <1>  -0.2400 
 25 H       -1.1430     1.5270     0.8390 H     1 <1>   0.3700 
 26 H        5.3640    -0.3840     0.5570 H     1 <1>   0.0800 
 27 H        6.2160    -0.8150     2.0330 H     1 <1>   0.0800 
 28 H       -3.0660     1.6600    -0.8840 H     1 <1>   0.0800 
 29 H       -2.7990     3.0090    -1.9600 H     1 <1>   0.0800 
 30 H       -2.7370     3.2580    -0.2330 H     1 <1>   0.0800 
 31 H        4.6990     2.1110     0.4650 H     1 <1>   0.3700 
 32 H        5.0620     6.6200     2.3850 H     1 <1>   0.1500 
 33 H        4.0500     4.7710     3.5500 H     1 <1>   0.0800 
 34 H        4.2110     3.1380     3.0130 H     1 <1>   0.0800 
 35 H        8.1430     5.8250    -0.4150 H     1 <1>   0.1500 
 36 H        7.9690     2.2490    -0.2200 H     1 <1>   0.0800 
 37 H        8.7590     3.6140    -0.9210 H     1 <1>   0.0800 
 38 H        6.9120     7.4010     0.9900 H     1 <1>   0.1500 
 39 H        2.5720     5.3060     1.6590 H     1 <1>   0.0800 
 40 H        1.9370     3.9350     2.5390 H     1 <1>   0.0800 
 41 H        2.7720     3.6990     1.0180 H     1 <1>   0.0800 
 42 H        6.1030     2.4940    -1.8630 H     1 <1>   0.0800 
 43 H        7.6400     2.2970    -2.6730 H     1 <1>   0.0800 
 44 H        6.9080     3.8810    -2.5520 H     1 <1>   0.0800 
@<TRIPOS>BOND
  1   1   2  1   
  2   1   3  1   
  3   2   4  1   
  4   2   5  2   
  5   3   6  2   
  6   3   7  1   
  7   4   8  1   
  8   5   6  1   
  9   7   9  am  
 10   7  25  1   
 11   8  10  1   
 12   8  26  1   
 13   8  27  1   
 14   9  11  2   
 15   9  12  1   
 16  10  13  2   
 17  10  14  am  
 18  12  28  1   
 19  12  29  1   
 20  12  30  1   
 21  14  15  1   
 22  14  31  1   
 23  15  16  ar  
 24  15  17  ar  
 25  16  18  ar  
 26  16  19  1   
 27  17  20  ar  
 28  17  21  1   
 29  18  22  ar  
 30  18  32  1   
 31  19  23  1   
 32  19  33  1   
 33  19  34  1   
 34  20  22  ar  
 35  20  35  1   
 36  21  24  1   
 37  21  36  1   
 38  21  37  1   
 39  22  38  1   
 40  23  39  1   
 41  23  40  1   
 42  23  41  1   
 43  24  42  1   
 44  24  43  1   
 45  24  44  1   
@<TRIPOS>SUBSTRUCTURE
  1 ****  14 GROUP 4 **** **** 0

# MOE 2024.06 (io_trps.svl 2023.06)
