@<TRIPOS>MOLECULE
NONAME
44 45 1 0 0 
SMALL
USER_CHARGES


@<TRIPOS>ATOM
  1 BR      -1.5650    -0.4660     4.1570 Br    1 <1>  -0.1110 
  2 C       -2.5720    -1.0670     2.6330 C.ar  1 <1>   0.1110 
  3 C       -2.2130    -0.6180     1.3780 C.ar  1 <1>  -0.1500 
  4 C       -3.6300    -1.9330     2.8320 C.ar  1 <1>  -0.1500 
  5 C       -2.9420    -1.0520     0.2840 C.ar  1 <1>  -0.1500 
  6 C       -4.3530    -2.3610     1.7320 C.ar  1 <1>  -0.1500 
  7 C       -4.0160    -1.9190     0.4560 C.ar  1 <1>  -0.1430 
  8 C       -4.8190    -2.3780    -0.7480 C.3   1 <1>   0.4870 
  9 N       -6.1490    -1.7170    -0.7270 N.4   1 <1>  -0.9590 
 10 C       -7.0850    -2.1930    -1.7960 C.3   1 <1>   0.3430 
 11 C       -6.0910    -0.2170    -0.6950 C.3   1 <1>   0.3430 
 12 C       -8.4800    -1.5310    -1.6580 C.3   1 <1>   0.1100 
 13 C       -7.5060     0.3880    -0.5220 C.3   1 <1>   0.1100 
 14 N       -8.5720    -0.6450    -0.4700 N.3   1 <1>  -0.8100 
 15 C       -9.9010    -0.0050    -0.3510 C.3   1 <1>   0.1100 
 16 C      -10.9640    -0.9780     0.1660 C.3   1 <1>   0.1200 
 17 O      -12.1700    -0.2890     0.2500 O.3   1 <1>  -0.5600 
 18 C      -13.2220    -1.0420     0.7670 C.3   1 <1>   0.1200 
 19 C      -14.4560    -0.1470     0.8640 C.3   1 <1>   0.1200 
 20 O      -15.5410    -0.9020     1.2890 O.3   1 <1>  -0.6800 
 21 H       -1.3780     0.0520     1.2660 H     1 <1>   0.1500 
 22 H       -3.8740    -2.2630     3.8270 H     1 <1>   0.1500 
 23 H       -2.6570    -0.7070    -0.6970 H     1 <1>   0.1500 
 24 H       -5.1740    -3.0410     1.8860 H     1 <1>   0.1500 
 25 H       -4.9370    -3.4490    -0.7080 H     1 <1>   0.0800 
 26 H       -4.2930    -2.1260    -1.6540 H     1 <1>   0.0800 
 27 H       -6.6240    -1.9470     0.1570 H     1 <1>   0.4500 
 28 H       -7.2020    -3.2620    -1.7300 H     1 <1>   0.0800 
 29 H       -6.6830    -1.9660    -2.7690 H     1 <1>   0.0800 
 30 H       -5.6530     0.1570    -1.6050 H     1 <1>   0.0800 
 31 H       -5.4730     0.1110     0.1250 H     1 <1>   0.0800 
 32 H       -9.2200    -2.3100    -1.5900 H     1 <1>   0.0800 
 33 H       -8.6910    -0.9670    -2.5510 H     1 <1>   0.0800 
 34 H       -7.6970     1.0710    -1.3330 H     1 <1>   0.0800 
 35 H       -7.5240     0.9610     0.3900 H     1 <1>   0.0800 
 36 H      -10.2090     0.3950    -1.3020 H     1 <1>   0.0800 
 37 H       -9.8430     0.8070     0.3550 H     1 <1>   0.0800 
 38 H      -10.6970    -1.3290     1.1480 H     1 <1>   0.0800 
 39 H      -11.0950    -1.8050    -0.5080 H     1 <1>   0.0800 
 40 H      -12.9470    -1.3960     1.7460 H     1 <1>   0.0800 
 41 H      -13.4060    -1.8690     0.1040 H     1 <1>   0.0800 
 42 H      -14.6960     0.2840    -0.0920 H     1 <1>   0.0800 
 43 H      -14.2930     0.6340     1.5870 H     1 <1>   0.0800 
 44 H      -15.8380    -1.5100     0.5840 H     1 <1>   0.4000 
@<TRIPOS>BOND
  1   1   2  1   
  2   2   3  ar  
  3   2   4  ar  
  4   3   5  ar  
  5   3  21  1   
  6   4   6  ar  
  7   4  22  1   
  8   5   7  ar  
  9   5  23  1   
 10   6   7  ar  
 11   6  24  1   
 12   7   8  1   
 13   8   9  1   
 14   8  25  1   
 15   8  26  1   
 16   9  10  1   
 17   9  11  1   
 18   9  27  1   
 19  10  12  1   
 20  10  28  1   
 21  10  29  1   
 22  11  13  1   
 23  11  30  1   
 24  11  31  1   
 25  12  14  1   
 26  12  32  1   
 27  12  33  1   
 28  13  14  1   
 29  13  34  1   
 30  13  35  1   
 31  14  15  1   
 32  15  16  1   
 33  15  36  1   
 34  15  37  1   
 35  16  17  1   
 36  16  38  1   
 37  16  39  1   
 38  17  18  1   
 39  18  19  1   
 40  18  40  1   
 41  18  41  1   
 42  19  20  1   
 43  19  42  1   
 44  19  43  1   
 45  20  44  1   
@<TRIPOS>SUBSTRUCTURE
  1 ****  14 GROUP 4 **** **** 0

# MOE 2024.06 (io_trps.svl 2023.06)
