@<TRIPOS>MOLECULE
NONAME
40 41 1 0 0 
SMALL
USER_CHARGES


@<TRIPOS>ATOM
  1 O       -0.5830     0.7690    -1.0610 O.2   1 <1>  -0.5700 
  2 C       -0.9610     1.8420    -0.6250 C.2   1 <1>   0.5440 
  3 N       -0.0500     2.8730    -0.4800 N.am  1 <1>  -0.6600 
  4 C       -2.3650     2.0020    -0.3000 C.ar  1 <1>   0.0860 
  5 C        1.4100     2.6310    -0.6740 C.3   1 <1>   0.1400 
  6 C       -0.4760     4.3000    -0.4060 C.3   1 <1>   0.1400 
  7 C       -3.3490     1.7890    -1.2650 C.ar  1 <1>  -0.1500 
  8 C       -2.7870     2.3710     0.9770 C.ar  1 <1>  -0.1500 
  9 C        2.2630     3.2070     0.4650 C.3   1 <1>  -0.1600 
 10 C       -0.1940     4.8680     0.9880 C.3   1 <1>  -0.1600 
 11 C       -4.6920     1.9550    -0.9820 C.ar  1 <1>  -0.1500 
 12 C       -4.1270     2.5420     1.2700 C.ar  1 <1>  -0.1500 
 13 C        2.3560     4.7400     0.4410 C.3   1 <1>  -0.1600 
 14 C        1.2120     5.4640     1.1690 C.3   1 <1>  -0.1600 
 15 C       -5.0900     2.3400     0.2950 C.ar  1 <1>   0.0820 
 16 O       -6.3770     2.5320     0.6600 O.3   1 <1>  -0.3630 
 17 C       -7.4430     2.3030    -0.2320 C.3   1 <1>   0.2580 
 18 C       -8.7390     2.5940     0.4990 C.2   1 <1>  -0.2880 
 19 C       -9.7500     1.7330     0.6590 C.2   1 <1>  -0.3000 
 20 H        1.7150     3.0530    -1.6160 H     1 <1>   0.0800 
 21 H        1.5990     1.5720    -0.7230 H     1 <1>   0.0800 
 22 H       -1.5290     4.3770    -0.6100 H     1 <1>   0.0800 
 23 H        0.0350     4.8750    -1.1600 H     1 <1>   0.0800 
 24 H       -3.0400     1.4840    -2.2510 H     1 <1>   0.1500 
 25 H       -2.0500     2.5170     1.7460 H     1 <1>   0.1500 
 26 H        3.2570     2.8170     0.3370 H     1 <1>   0.0800 
 27 H        1.9040     2.8510     1.4150 H     1 <1>   0.0800 
 28 H       -0.3520     4.0970     1.7200 H     1 <1>   0.0800 
 29 H       -0.9100     5.6450     1.1910 H     1 <1>   0.0800 
 30 H       -5.4070     1.7800    -1.7630 H     1 <1>   0.1500 
 31 H       -4.4380     2.8300     2.2580 H     1 <1>   0.1500 
 32 H        2.4040     5.0770    -0.5800 H     1 <1>   0.0800 
 33 H        3.2800     5.0370     0.9070 H     1 <1>   0.0800 
 34 H        1.4290     5.4820     2.2240 H     1 <1>   0.0800 
 35 H        1.2020     6.4870     0.8340 H     1 <1>   0.0800 
 36 H       -7.4050     1.2770    -0.5530 H     1 <1>   0.0800 
 37 H       -7.3300     2.9630    -1.0740 H     1 <1>   0.0800 
 38 H       -8.7620     3.5960     0.8920 H     1 <1>   0.1500 
 39 H      -10.6580     1.9700     1.1870 H     1 <1>   0.1500 
 40 H       -9.7580     0.7250     0.2830 H     1 <1>   0.1500 
@<TRIPOS>BOND
  1   1   2  2   
  2   2   3  am  
  3   2   4  1   
  4   3   5  1   
  5   3   6  1   
  6   4   7  ar  
  7   4   8  ar  
  8   5   9  1   
  9   5  20  1   
 10   5  21  1   
 11   6  10  1   
 12   6  22  1   
 13   6  23  1   
 14   7  11  ar  
 15   7  24  1   
 16   8  12  ar  
 17   8  25  1   
 18   9  13  1   
 19   9  26  1   
 20   9  27  1   
 21  10  14  1   
 22  10  28  1   
 23  10  29  1   
 24  11  15  ar  
 25  11  30  1   
 26  12  15  ar  
 27  12  31  1   
 28  13  14  1   
 29  13  32  1   
 30  13  33  1   
 31  14  34  1   
 32  14  35  1   
 33  15  16  1   
 34  16  17  1   
 35  17  18  1   
 36  17  36  1   
 37  17  37  1   
 38  18  19  2   
 39  18  38  1   
 40  19  39  1   
 41  19  40  1   
@<TRIPOS>SUBSTRUCTURE
  1 ****   4 GROUP 4 **** **** 0

# MOE 2024.06 (io_trps.svl 2023.06)
