@<TRIPOS>MOLECULE
NONAME
44 45 1 0 0 
SMALL
USER_CHARGES


@<TRIPOS>ATOM
  1 S       -0.0240    -0.0490     1.4580 S.o2  1 <1>   1.4470 
  2 O        0.0700    -1.2460     2.2670 O.2   1 <1>  -0.6500 
  3 O       -0.1280     1.2150     2.1570 O.2   1 <1>  -0.6500 
  4 N       -1.4220    -0.2120     0.5100 N.am  1 <1>  -0.8490 
  5 C        1.3470    -0.0850     0.2670 C.ar  1 <1>  -0.0090 
  6 C       -1.7100     1.0010    -0.2630 C.3   1 <1>   0.1960 
  7 C       -2.5710    -0.5930     1.3370 C.3   1 <1>   0.1960 
  8 C        1.8440     1.0670    -0.3380 C.ar  1 <1>   0.0830 
  9 C        1.9310    -1.2960    -0.0830 C.ar  1 <1>  -0.1500 
 10 C       -2.9090     0.7790    -1.1900 C.3   1 <1>  -0.1600 
 11 C       -3.7990    -0.8660     0.4630 C.3   1 <1>  -0.1600 
 12 O        1.3010     2.2690    -0.0850 O.3   1 <1>  -0.3620 
 13 C        2.8900     0.9990    -1.2470 C.ar  1 <1>  -0.1500 
 14 C        2.9920    -1.3970    -0.9820 C.ar  1 <1>   0.0860 
 15 C       -4.1510     0.3500    -0.4010 C.3   1 <1>  -0.0800 
 16 C        2.0160     3.1400     0.7640 C.3   1 <1>   0.0400 
 17 C        3.4560    -0.2180    -1.5620 C.ar  1 <1>  -0.1500 
 18 C        3.5760    -2.6850    -1.3030 C.2   1 <1>   0.5440 
 19 C       -5.3170     0.0340    -1.3440 C.3   1 <1>  -0.2400 
 20 O        2.8740    -3.6380    -1.5660 O.2   1 <1>  -0.5700 
 21 N        4.9190    -2.9100    -1.3200 N.am  1 <1>  -0.7300 
 22 C        5.9920    -2.1040    -0.6860 C.3   1 <1>   0.0600 
 23 H       -0.8600     1.2560    -0.8710 H     1 <1>   0.0800 
 24 H       -1.9070     1.8260     0.4020 H     1 <1>   0.0800 
 25 H       -2.7860     0.1910     2.0450 H     1 <1>   0.0800 
 26 H       -2.3410    -1.4890     1.8900 H     1 <1>   0.0800 
 27 H        1.5530    -2.2060     0.3550 H     1 <1>   0.1500 
 28 H       -2.6490     0.0240    -1.9110 H     1 <1>   0.0800 
 29 H       -3.1130     1.6890    -1.7240 H     1 <1>   0.0800 
 30 H       -4.6310    -1.1180     1.0960 H     1 <1>   0.0800 
 31 H       -3.5900    -1.7170    -0.1620 H     1 <1>   0.0800 
 32 H        3.2470     1.9020    -1.7110 H     1 <1>   0.1500 
 33 H       -4.4440     1.1600     0.2480 H     1 <1>   0.0800 
 34 H        2.9610     3.3790     0.3110 H     1 <1>   0.0800 
 35 H        2.1620     2.6560     1.7140 H     1 <1>   0.0800 
 36 H        1.4320     4.0320     0.8970 H     1 <1>   0.0800 
 37 H        4.2620    -0.2680    -2.2740 H     1 <1>   0.1500 
 38 H       -5.0600    -0.7730    -2.0070 H     1 <1>   0.0800 
 39 H       -5.5650     0.8980    -1.9340 H     1 <1>   0.0800 
 40 H       -6.1870    -0.2510    -0.7780 H     1 <1>   0.0800 
 41 H        5.1770    -3.8590    -1.6030 H     1 <1>   0.3700 
 42 H        6.6380    -1.6990    -1.4450 H     1 <1>   0.0800 
 43 H        6.5710    -2.7290    -0.0280 H     1 <1>   0.0800 
 44 H        5.5730    -1.2970    -0.1110 H     1 <1>   0.0800 
@<TRIPOS>BOND
  1   1   2  2   
  2   1   3  2   
  3   1   4  am  
  4   1   5  1   
  5   4   6  1   
  6   4   7  1   
  7   5   8  ar  
  8   5   9  ar  
  9   6  10  1   
 10   6  23  1   
 11   6  24  1   
 12   7  11  1   
 13   7  25  1   
 14   7  26  1   
 15   8  12  1   
 16   8  13  ar  
 17   9  14  ar  
 18   9  27  1   
 19  10  15  1   
 20  10  28  1   
 21  10  29  1   
 22  11  15  1   
 23  11  30  1   
 24  11  31  1   
 25  12  16  1   
 26  13  17  ar  
 27  13  32  1   
 28  14  17  ar  
 29  14  18  1   
 30  15  19  1   
 31  15  33  1   
 32  16  34  1   
 33  16  35  1   
 34  16  36  1   
 35  17  37  1   
 36  18  20  2   
 37  18  21  am  
 38  19  38  1   
 39  19  39  1   
 40  19  40  1   
 41  21  22  1   
 42  21  41  1   
 43  22  42  1   
 44  22  43  1   
 45  22  44  1   
@<TRIPOS>SUBSTRUCTURE
  1 ****   5 GROUP 4 **** **** 0

# MOE 2024.06 (io_trps.svl 2023.06)
