@<TRIPOS>MOLECULE
NONAME
63 64 1 0 0 
SMALL
USER_CHARGES


@<TRIPOS>ATOM
  1 O       -6.6330     4.0110     0.5640 O.3   1 <1>  -0.5600 
  2 C       -7.8860     4.0880     1.1810 C.3   1 <1>   0.2000 
  3 C       -5.5370     3.8940     1.4180 C.3   1 <1>   0.1200 
  4 C       -8.9100     3.3790     0.2640 C.3   1 <1>  -0.0800 
  5 C       -8.2410     5.5720     1.4190 C.3   1 <1>  -0.1600 
  6 C       -4.2700     3.8250     0.5540 C.3   1 <1>   0.2000 
  7 C       -8.6430     1.8560     0.0970 C.3   1 <1>  -0.0800 
  8 C       -9.0070     4.0980    -1.1090 C.3   1 <1>  -0.1600 
  9 C       -9.1100     6.2040     0.3120 C.3   1 <1>  -0.0800 
 10 O       -4.5320     2.9550    -0.4930 O.3   1 <1>  -0.6800 
 11 C       -3.0260     3.3890     1.3760 C.3   1 <1>   0.3430 
 12 C       -9.7120     1.1810    -0.7790 C.3   1 <1>  -0.2400 
 13 C       -8.5950     1.1170     1.4450 C.3   1 <1>  -0.2400 
 14 C       -8.7500     5.6160    -1.0560 C.3   1 <1>  -0.1600 
 15 C       -8.9660     7.7300     0.3110 C.3   1 <1>  -0.2400 
 16 N       -1.7460     3.0310     0.6370 N.4   1 <1>  -0.9590 
 17 C       -1.5980     3.6340    -0.7290 C.3   1 <1>   0.4230 
 18 C       -1.4520     1.5670     0.7230 C.3   1 <1>   0.4230 
 19 C       -0.4720     2.9610    -1.5380 C.3   1 <1>  -0.1600 
 20 C       -1.2770     5.1190    -0.5430 C.3   1 <1>  -0.2400 
 21 C        0.0020     1.2960     0.2870 C.3   1 <1>  -0.1600 
 22 C       -2.4610     0.7140    -0.0500 C.3   1 <1>  -0.2400 
 23 C        0.6150     2.3500    -0.6490 C.3   1 <1>  -0.1600 
 24 H       -7.8380     3.5890     2.1330 H     1 <1>   0.0800 
 25 H       -5.6510     2.9920     1.9960 H     1 <1>   0.0800 
 26 H       -5.5090     4.7460     2.0760 H     1 <1>   0.0800 
 27 H       -9.8670     3.4820     0.7450 H     1 <1>   0.0800 
 28 H       -7.3350     6.1360     1.5440 H     1 <1>   0.0800 
 29 H       -8.7900     5.6460     2.3410 H     1 <1>   0.0800 
 30 H       -4.1100     4.7990     0.1280 H     1 <1>   0.0800 
 31 H       -7.6890     1.7250    -0.3870 H     1 <1>   0.0800 
 32 H       -9.9910     3.9310    -1.5120 H     1 <1>   0.0800 
 33 H       -8.2990     3.6680    -1.7960 H     1 <1>   0.0800 
 34 H      -10.1430     5.9680     0.5100 H     1 <1>   0.0800 
 35 H       -5.4860     3.0820    -0.7240 H     1 <1>   0.4000 
 36 H       -3.3180     2.5510     1.9850 H     1 <1>   0.0800 
 37 H       -2.8060     4.1950     2.0560 H     1 <1>   0.0800 
 38 H      -10.6930     1.3350    -0.3650 H     1 <1>   0.0800 
 39 H       -9.5310     0.1230    -0.8440 H     1 <1>   0.0800 
 40 H       -9.6950     1.5720    -1.7810 H     1 <1>   0.0800 
 41 H       -9.4940     1.2960     2.0080 H     1 <1>   0.0800 
 42 H       -7.7480     1.4270     2.0280 H     1 <1>   0.0800 
 43 H       -8.5010     0.0570     1.2860 H     1 <1>   0.0800 
 44 H       -9.3150     6.1000    -1.8330 H     1 <1>   0.0800 
 45 H       -7.7070     5.8020    -1.2480 H     1 <1>   0.0800 
 46 H       -7.9550     8.0160     0.0830 H     1 <1>   0.0800 
 47 H       -9.2310     8.1300     1.2730 H     1 <1>   0.0800 
 48 H       -9.6190     8.1630    -0.4270 H     1 <1>   0.0800 
 49 H       -0.9740     3.4540     1.1600 H     1 <1>   0.4500 
 50 H       -2.5140     3.5330    -1.2870 H     1 <1>   0.0800 
 51 H       -1.5250     1.2670     1.7560 H     1 <1>   0.0800 
 52 H       -0.0310     3.6660    -2.2210 H     1 <1>   0.0800 
 53 H       -0.9020     2.1890    -2.1510 H     1 <1>   0.0800 
 54 H       -0.3290     5.2510    -0.0530 H     1 <1>   0.0800 
 55 H       -2.0390     5.6290     0.0150 H     1 <1>   0.0800 
 56 H       -1.2190     5.5930    -1.5070 H     1 <1>   0.0800 
 57 H        0.0520     0.3340    -0.1950 H     1 <1>   0.0800 
 58 H        0.6180     1.2160     1.1660 H     1 <1>   0.0800 
 59 H       -2.5300     1.0000    -1.0820 H     1 <1>   0.0800 
 60 H       -3.4350     0.7800     0.3980 H     1 <1>   0.0800 
 61 H       -2.1710    -0.3210    -0.0100 H     1 <1>   0.0800 
 62 H        1.0820     3.1280    -0.0690 H     1 <1>   0.0800 
 63 H        1.3810     1.8970    -1.2580 H     1 <1>   0.0800 
@<TRIPOS>BOND
  1   1   2  1   
  2   1   3  1   
  3   2   4  1   
  4   2   5  1   
  5   2  24  1   
  6   3   6  1   
  7   3  25  1   
  8   3  26  1   
  9   4   7  1   
 10   4   8  1   
 11   4  27  1   
 12   5   9  1   
 13   5  28  1   
 14   5  29  1   
 15   6  10  1   
 16   6  11  1   
 17   6  30  1   
 18   7  12  1   
 19   7  13  1   
 20   7  31  1   
 21   8  14  1   
 22   8  32  1   
 23   8  33  1   
 24   9  14  1   
 25   9  15  1   
 26   9  34  1   
 27  10  35  1   
 28  11  16  1   
 29  11  36  1   
 30  11  37  1   
 31  12  38  1   
 32  12  39  1   
 33  12  40  1   
 34  13  41  1   
 35  13  42  1   
 36  13  43  1   
 37  14  44  1   
 38  14  45  1   
 39  15  46  1   
 40  15  47  1   
 41  15  48  1   
 42  16  17  1   
 43  16  18  1   
 44  16  49  1   
 45  17  19  1   
 46  17  20  1   
 47  17  50  1   
 48  18  21  1   
 49  18  22  1   
 50  18  51  1   
 51  19  23  1   
 52  19  52  1   
 53  19  53  1   
 54  20  54  1   
 55  20  55  1   
 56  20  56  1   
 57  21  23  1   
 58  21  57  1   
 59  21  58  1   
 60  22  59  1   
 61  22  60  1   
 62  22  61  1   
 63  23  62  1   
 64  23  63  1   
@<TRIPOS>SUBSTRUCTURE
  1 ****  10 GROUP 4 **** **** 0

# MOE 2024.06 (io_trps.svl 2023.06)
