@<TRIPOS>MOLECULE
NONAME
33 33 1 0 0 
SMALL
USER_CHARGES


@<TRIPOS>ATOM
  1 I        0.1700    -0.1860     0.8040 I     1 <1>  -0.0810 
  2 C        0.1020     1.9120     0.3800 C.ar  1 <1>   0.0810 
  3 C        1.2730     2.6610     0.3480 C.ar  1 <1>   0.0830 
  4 C       -1.1490     2.4460     0.1440 C.ar  1 <1>  -0.1500 
  5 O        2.4430     2.0030     0.5880 O.3   1 <1>  -0.3630 
  6 C        1.1460     4.0350     0.0780 C.ar  1 <1>   0.0830 
  7 C       -1.2830     3.8010    -0.1500 C.ar  1 <1>   0.0860 
  8 C        3.6880     2.4500     0.1000 C.3   1 <1>   0.1200 
  9 O        2.2540     4.8320     0.0770 O.3   1 <1>  -0.3620 
 10 C       -0.1160     4.5690    -0.1710 C.ar  1 <1>  -0.1500 
 11 C       -2.5750     4.4080    -0.4200 C.2   1 <1>   0.5440 
 12 C        4.6680     1.2770     0.1530 C.3   1 <1>  -0.1600 
 13 C        2.1700     6.2380     0.1140 C.3   1 <1>   0.1200 
 14 O       -2.7490     5.6030    -0.3280 O.2   1 <1>  -0.5700 
 15 N       -3.6510     3.6820    -0.8050 N.am  1 <1>  -0.8000 
 16 C        6.0520     1.6830    -0.3650 C.3   1 <1>  -0.2400 
 17 C        3.5820     6.7850     0.2960 C.3   1 <1>  -0.2400 
 18 H       -2.0140     1.8120     0.1950 H     1 <1>   0.1500 
 19 H        4.0270     3.2560     0.7270 H     1 <1>   0.0800 
 20 H        3.5570     2.7940    -0.9110 H     1 <1>   0.0800 
 21 H       -0.2340     5.6130    -0.3940 H     1 <1>   0.1500 
 22 H        4.2850     0.4710    -0.4490 H     1 <1>   0.0800 
 23 H        4.7540     0.9360     1.1700 H     1 <1>   0.0800 
 24 H        1.5420     6.5240     0.9410 H     1 <1>   0.0800 
 25 H        1.7480     6.5820    -0.8140 H     1 <1>   0.0800 
 26 H       -4.5220     4.1770    -1.0050 H     1 <1>   0.3700 
 27 H       -3.6230     2.6920    -1.0420 H     1 <1>   0.3700 
 28 H        5.9890     2.0130    -1.3870 H     1 <1>   0.0800 
 29 H        6.7220     0.8430    -0.3170 H     1 <1>   0.0800 
 30 H        6.4580     2.4800     0.2340 H     1 <1>   0.0800 
 31 H        4.0020     6.4240     1.2180 H     1 <1>   0.0800 
 32 H        3.5540     7.8590     0.3290 H     1 <1>   0.0800 
 33 H        4.2050     6.4830    -0.5270 H     1 <1>   0.0800 
@<TRIPOS>BOND
  1   1   2  1   
  2   2   3  ar  
  3   2   4  ar  
  4   3   5  1   
  5   3   6  ar  
  6   4   7  ar  
  7   4  18  1   
  8   5   8  1   
  9   6   9  1   
 10   6  10  ar  
 11   7  10  ar  
 12   7  11  1   
 13   8  12  1   
 14   8  19  1   
 15   8  20  1   
 16   9  13  1   
 17  10  21  1   
 18  11  14  2   
 19  11  15  am  
 20  12  16  1   
 21  12  22  1   
 22  12  23  1   
 23  13  17  1   
 24  13  24  1   
 25  13  25  1   
 26  15  26  1   
 27  15  27  1   
 28  16  28  1   
 29  16  29  1   
 30  16  30  1   
 31  17  31  1   
 32  17  32  1   
 33  17  33  1   
@<TRIPOS>SUBSTRUCTURE
  1 ****   6 GROUP 4 **** **** 0

# MOE 2024.06 (io_trps.svl 2023.06)
