@<TRIPOS>MOLECULE
NONAME
51 54 1 0 0 
SMALL
USER_CHARGES


@<TRIPOS>ATOM
  1 S        0.1740     0.4750    -0.0720 S.3   1 <1>  -0.3320 
  2 C        1.6860    -0.4820     0.0070 C.ar  1 <1>   0.7220 
  3 C       -1.1710    -0.7720     0.1230 C.3   1 <1>   0.0700 
  4 N        1.5190    -1.8150     0.1720 N.ar  1 <1>  -0.3100 
  5 N        2.7980     0.1930    -0.1030 N.ar  1 <1>  -0.5670 
  6 C       -2.5030    -0.0230     0.0310 C.3   1 <1>   0.3430 
  7 N        2.5620    -2.5900     0.2390 N.ar  1 <1>  -0.2560 
  8 C        3.8610    -0.6150    -0.0320 C.ar  1 <1>   0.1050 
  9 N       -3.6800    -0.9260     0.2400 N.4   1 <1>  -0.9590 
 10 C        3.7510    -1.9820     0.1360 C.ar  1 <1>   0.2560 
 11 N        5.1880    -0.2720    -0.1070 N.pl3 1 <1>   0.0480 
 12 C       -3.8280    -1.9350    -0.8550 C.3   1 <1>   0.3430 
 13 C       -4.9250    -0.1170     0.3990 C.3   1 <1>   0.3430 
 14 C        5.0690    -2.5050     0.1660 C.ar  1 <1>   0.0000 
 15 C        5.9490    -1.4320     0.0140 C.ar  1 <1>  -0.1520 
 16 C        5.6700     1.1130    -0.2860 C.3   1 <1>   0.0160 
 17 C       -4.9740    -2.8920    -0.5240 C.3   1 <1>  -0.1600 
 18 C       -6.0950    -1.0340     0.7590 C.3   1 <1>  -0.1600 
 19 C        5.5470    -3.8070     0.3110 C.ar  1 <1>  -0.1500 
 20 C        7.3320    -1.6660     0.0070 C.ar  1 <1>  -0.1430 
 21 C       -6.2910    -2.1420    -0.2840 C.3   1 <1>  -0.1600 
 22 C        6.9040    -4.0350     0.3040 C.ar  1 <1>  -0.1430 
 23 C        7.7840    -2.9620     0.1520 C.ar  1 <1>  -0.1500 
 24 C        8.3490    -0.5470    -0.1530 C.3   1 <1>  -0.0970 
 25 C        7.4620    -5.4390     0.4590 C.3   1 <1>  -0.0970 
 26 H       -1.0340    -1.2350     1.0840 H     1 <1>   0.0800 
 27 H       -1.0490    -1.4870    -0.6710 H     1 <1>   0.0800 
 28 H       -2.5750     0.4530    -0.9330 H     1 <1>   0.0800 
 29 H       -2.5060     0.7490     0.7840 H     1 <1>   0.0800 
 30 H       -3.5500    -1.4440     1.1200 H     1 <1>   0.4500 
 31 H       -2.9170    -2.5020    -0.9690 H     1 <1>   0.0800 
 32 H       -4.0350    -1.4350    -1.7870 H     1 <1>   0.0800 
 33 H       -5.1440     0.4010    -0.5210 H     1 <1>   0.0800 
 34 H       -4.7940     0.6170     1.1780 H     1 <1>   0.0800 
 35 H        4.8360     1.7880    -0.3460 H     1 <1>   0.0800 
 36 H        6.2380     1.1780    -1.1950 H     1 <1>   0.0800 
 37 H        6.2820     1.3890     0.5530 H     1 <1>   0.0800 
 38 H       -4.7170    -3.4710     0.3470 H     1 <1>   0.0800 
 39 H       -5.1030    -3.5820    -1.3400 H     1 <1>   0.0800 
 40 H       -6.9950    -0.4460     0.8250 H     1 <1>   0.0800 
 41 H       -5.9250    -1.4680     1.7300 H     1 <1>   0.0800 
 42 H        4.8410    -4.6100     0.4250 H     1 <1>   0.1500 
 43 H       -7.0490    -2.8300     0.0510 H     1 <1>   0.0800 
 44 H       -6.6310    -1.7080    -1.2100 H     1 <1>   0.0800 
 45 H        8.8400    -3.1680     0.1500 H     1 <1>   0.1500 
 46 H        8.2070    -0.0500    -1.0950 H     1 <1>   0.0800 
 47 H        9.3520    -0.9350    -0.1320 H     1 <1>   0.0800 
 48 H        8.2510     0.1600     0.6490 H     1 <1>   0.0800 
 49 H        6.6690    -6.1570     0.5660 H     1 <1>   0.0800 
 50 H        8.0890    -5.4880     1.3310 H     1 <1>   0.0800 
 51 H        8.0450    -5.6980    -0.4060 H     1 <1>   0.0800 
@<TRIPOS>BOND
  1   1   2  1   
  2   1   3  1   
  3   2   4  ar  
  4   2   5  ar  
  5   3   6  1   
  6   3  26  1   
  7   3  27  1   
  8   4   7  ar  
  9   5   8  ar  
 10   6   9  1   
 11   6  28  1   
 12   6  29  1   
 13   7  10  ar  
 14   8  10  ar  
 15   8  11  1   
 16   9  12  1   
 17   9  13  1   
 18   9  30  1   
 19  10  14  1   
 20  11  15  1   
 21  11  16  1   
 22  12  17  1   
 23  12  31  1   
 24  12  32  1   
 25  13  18  1   
 26  13  33  1   
 27  13  34  1   
 28  14  15  ar  
 29  14  19  ar  
 30  15  20  ar  
 31  16  35  1   
 32  16  36  1   
 33  16  37  1   
 34  17  21  1   
 35  17  38  1   
 36  17  39  1   
 37  18  21  1   
 38  18  40  1   
 39  18  41  1   
 40  19  22  ar  
 41  19  42  1   
 42  20  23  ar  
 43  20  24  1   
 44  21  43  1   
 45  21  44  1   
 46  22  23  ar  
 47  22  25  1   
 48  23  45  1   
 49  24  46  1   
 50  24  47  1   
 51  24  48  1   
 52  25  49  1   
 53  25  50  1   
 54  25  51  1   
@<TRIPOS>SUBSTRUCTURE
  1 ****   4 GROUP 4 **** **** 0

# MOE 2024.06 (io_trps.svl 2023.06)
