@<TRIPOS>MOLECULE
NONAME
44 46 1 0 0 
SMALL
USER_CHARGES


@<TRIPOS>ATOM
  1 CL       0.2080    -1.0560    -0.6850 Cl    1 <1>  -0.1770 
  2 C       -1.5030    -0.7350    -0.5580 C.ar  1 <1>   0.1770 
  3 C       -2.3610    -1.7600    -0.2030 C.ar  1 <1>  -0.1500 
  4 C       -1.9740     0.5390    -0.8160 C.ar  1 <1>  -0.1500 
  5 C       -3.7190    -1.5070    -0.1010 C.ar  1 <1>  -0.1500 
  6 C       -3.3320     0.7890    -0.7140 C.ar  1 <1>  -0.1500 
  7 C       -4.2090    -0.2270    -0.3580 C.ar  1 <1>   0.0830 
  8 O       -5.5240     0.1000    -0.2820 O.3   1 <1>  -0.2660 
  9 S       -6.7220    -0.9520     0.1190 S.o2  1 <1>   1.3780 
 10 O       -6.8300    -1.9590    -0.9180 O.2   1 <1>  -0.6500 
 11 O       -6.5530    -1.3600     1.4990 O.2   1 <1>  -0.6500 
 12 C       -8.1710     0.0860     0.0210 C.3   1 <1>  -0.0550 
 13 C       -9.4160    -0.7000     0.4240 C.3   1 <1>   0.1400 
 14 N      -10.6160     0.1560     0.3030 N.am  1 <1>  -0.4200 
 15 C      -10.9190     1.1930     1.1370 C.2   1 <1>   0.6900 
 16 C      -11.6440    -0.0340    -0.5730 C.2   1 <1>   0.5690 
 17 O      -10.2290     1.5560     2.0620 O.2   1 <1>  -0.5700 
 18 N      -12.0970     1.7540     0.8140 N.am  1 <1>  -0.7300 
 19 O      -11.6840    -0.8820    -1.4330 O.2   1 <1>  -0.5700 
 20 C      -12.7430     1.0070    -0.2830 C.3   1 <1>   0.3610 
 21 C      -13.0080     1.9560    -1.4730 C.3   1 <1>  -0.1600 
 22 C      -14.0450     0.3770     0.2400 C.3   1 <1>  -0.1600 
 23 C      -14.4170     2.5850    -1.4820 C.3   1 <1>  -0.1600 
 24 C      -15.0900     1.4230     0.6840 C.3   1 <1>  -0.1600 
 25 C      -14.9830     2.7630    -0.0690 C.3   1 <1>  -0.1600 
 26 H       -1.9670    -2.7410    -0.0080 H     1 <1>   0.1500 
 27 H       -1.2860     1.3170    -1.0900 H     1 <1>   0.1500 
 28 H       -4.3690    -2.3190     0.1770 H     1 <1>   0.1500 
 29 H       -3.7140     1.7760    -0.9110 H     1 <1>   0.1500 
 30 H       -8.2850     0.4440    -0.9830 H     1 <1>   0.0800 
 31 H       -8.0500     0.9220     0.6820 H     1 <1>   0.0800 
 32 H       -9.3250    -1.0350     1.4440 H     1 <1>   0.0800 
 33 H       -9.5260    -1.5650    -0.2100 H     1 <1>   0.0800 
 34 H      -12.6220     2.3550     1.4480 H     1 <1>   0.3700 
 35 H      -12.8970     1.4020    -2.3900 H     1 <1>   0.0800 
 36 H      -12.2610     2.7300    -1.4830 H     1 <1>   0.0800 
 37 H      -13.8330    -0.3000     1.0490 H     1 <1>   0.0800 
 38 H      -14.4640    -0.2100    -0.5590 H     1 <1>   0.0800 
 39 H      -15.0850     1.9470    -2.0370 H     1 <1>   0.0800 
 40 H      -14.3850     3.5350    -1.9890 H     1 <1>   0.0800 
 41 H      -14.9880     1.6120     1.7390 H     1 <1>   0.0800 
 42 H      -16.0710     1.0070     0.5300 H     1 <1>   0.0800 
 43 H      -15.9550     3.2230    -0.1210 H     1 <1>   0.0800 
 44 H      -14.3430     3.4350     0.4770 H     1 <1>   0.0800 
@<TRIPOS>BOND
  1   1   2  1   
  2   2   3  ar  
  3   2   4  ar  
  4   3   5  ar  
  5   3  26  1   
  6   4   6  ar  
  7   4  27  1   
  8   5   7  ar  
  9   5  28  1   
 10   6   7  ar  
 11   6  29  1   
 12   7   8  1   
 13   8   9  1   
 14   9  10  2   
 15   9  11  2   
 16   9  12  1   
 17  12  13  1   
 18  12  30  1   
 19  12  31  1   
 20  13  14  1   
 21  13  32  1   
 22  13  33  1   
 23  14  15  am  
 24  14  16  am  
 25  15  17  2   
 26  15  18  am  
 27  16  19  2   
 28  16  20  1   
 29  18  20  1   
 30  18  34  1   
 31  20  21  1   
 32  20  22  1   
 33  21  23  1   
 34  21  35  1   
 35  21  36  1   
 36  22  24  1   
 37  22  37  1   
 38  22  38  1   
 39  23  25  1   
 40  23  39  1   
 41  23  40  1   
 42  24  25  1   
 43  24  41  1   
 44  24  42  1   
 45  25  43  1   
 46  25  44  1   
@<TRIPOS>SUBSTRUCTURE
  1 ****  12 GROUP 4 **** **** 0

# MOE 2024.06 (io_trps.svl 2023.06)
