@<TRIPOS>MOLECULE
NONAME
48 50 1 0 0 
SMALL
USER_CHARGES


@<TRIPOS>ATOM
  1 CL       2.4680     0.4740     1.1320 Cl    1 <1>  -0.1770 
  2 C        1.5250     1.9290     0.8830 C.ar  1 <1>   0.1770 
  3 C        2.1300     3.0700     0.3710 C.ar  1 <1>   0.0830 
  4 C        0.1830     1.9070     1.2050 C.ar  1 <1>  -0.1500 
  5 O        3.4520     3.0140     0.0790 O.3   1 <1>  -0.3630 
  6 C        1.3510     4.2070     0.1850 C.ar  1 <1>  -0.1500 
  7 C       -0.6030     3.0380     1.0220 C.ar  1 <1>  -0.0090 
  8 C        4.1760     4.1460    -0.3860 C.3   1 <1>   0.1810 
  9 C        0.0050     4.1800     0.5090 C.ar  1 <1>  -0.1500 
 10 S       -2.3680     3.0370     1.4310 S.o2  1 <1>   1.4470 
 11 C        5.6480     3.8050    -0.5740 C.2   1 <1>   0.5690 
 12 O       -2.6300     4.1040     2.3700 O.2   1 <1>  -0.6500 
 13 O       -2.8090     1.6920     1.7320 O.2   1 <1>  -0.6500 
 14 N       -3.0840     3.4870    -0.0360 N.am  1 <1>  -0.8490 
 15 O        6.3900     4.6580    -0.9980 O.2   1 <1>  -0.5700 
 16 N        6.0800     2.5570    -0.2590 N.am  1 <1>  -0.7300 
 17 C       -3.1090     2.4470    -1.0510 C.3   1 <1>   0.1960 
 18 C       -4.4650     3.9090     0.1170 C.3   1 <1>   0.1960 
 19 C        7.4540     2.0500    -0.3730 C.3   1 <1>   0.2200 
 20 C       -4.1080     2.9570    -2.0810 C.3   1 <1>  -0.1600 
 21 C       -5.0340     3.8880    -1.2970 C.3   1 <1>  -0.1600 
 22 C        7.4430     0.8040    -1.2490 C.3   1 <1>  -0.1600 
 23 C        7.8920     1.5180     0.9860 C.3   1 <1>  -0.1600 
 24 C        6.9950    -0.3440    -0.3350 C.3   1 <1>  -0.1600 
 25 C        7.2840     0.1150     1.1000 C.3   1 <1>  -0.1600 
 26 H       -0.2500     1.0040     1.6020 H     1 <1>   0.1500 
 27 H        1.7670     5.1170    -0.2090 H     1 <1>   0.1500 
 28 H        4.0850     4.9330     0.3380 H     1 <1>   0.0800 
 29 H        3.7600     4.4550    -1.3270 H     1 <1>   0.0800 
 30 H       -0.5950     5.0640     0.3630 H     1 <1>   0.1500 
 31 H        5.3950     1.8820     0.0910 H     1 <1>   0.3700 
 32 H       -3.4720     1.5210    -0.6330 H     1 <1>   0.0800 
 33 H       -2.1330     2.2930    -1.4780 H     1 <1>   0.0800 
 34 H       -4.5220     4.8900     0.5620 H     1 <1>   0.0800 
 35 H       -4.9970     3.2040     0.7370 H     1 <1>   0.0800 
 36 H        8.1130     2.8150    -0.7500 H     1 <1>   0.0800 
 37 H       -4.6410     2.1420    -2.5380 H     1 <1>   0.0800 
 38 H       -3.5860     3.5090    -2.8440 H     1 <1>   0.0800 
 39 H       -5.0100     4.8790    -1.7150 H     1 <1>   0.0800 
 40 H       -6.0500     3.5350    -1.2900 H     1 <1>   0.0800 
 41 H        8.4480     0.6140    -1.5820 H     1 <1>   0.0800 
 42 H        6.8110     0.9200    -2.1120 H     1 <1>   0.0800 
 43 H        7.5960     2.1680     1.7910 H     1 <1>   0.0800 
 44 H        8.9650     1.4360     0.9880 H     1 <1>   0.0800 
 45 H        7.5220    -1.2520    -0.5730 H     1 <1>   0.0800 
 46 H        5.9390    -0.5150    -0.4540 H     1 <1>   0.0800 
 47 H        6.3640     0.1600     1.6570 H     1 <1>   0.0800 
 48 H        7.9600    -0.5570     1.6010 H     1 <1>   0.0800 
@<TRIPOS>BOND
  1   1   2  1   
  2   2   3  ar  
  3   2   4  ar  
  4   3   5  1   
  5   3   6  ar  
  6   4   7  ar  
  7   4  26  1   
  8   5   8  1   
  9   6   9  ar  
 10   6  27  1   
 11   7   9  ar  
 12   7  10  1   
 13   8  11  1   
 14   8  28  1   
 15   8  29  1   
 16   9  30  1   
 17  10  12  2   
 18  10  13  2   
 19  10  14  am  
 20  11  15  2   
 21  11  16  am  
 22  14  17  1   
 23  14  18  1   
 24  16  19  1   
 25  16  31  1   
 26  17  20  1   
 27  17  32  1   
 28  17  33  1   
 29  18  21  1   
 30  18  34  1   
 31  18  35  1   
 32  19  22  1   
 33  19  23  1   
 34  19  36  1   
 35  20  21  1   
 36  20  37  1   
 37  20  38  1   
 38  21  39  1   
 39  21  40  1   
 40  22  24  1   
 41  22  41  1   
 42  22  42  1   
 43  23  25  1   
 44  23  43  1   
 45  23  44  1   
 46  24  25  1   
 47  24  45  1   
 48  24  46  1   
 49  25  47  1   
 50  25  48  1   
@<TRIPOS>SUBSTRUCTURE
  1 ****   3 GROUP 4 **** **** 0

# MOE 2024.06 (io_trps.svl 2023.06)
