@<TRIPOS>MOLECULE
NONAME
49 50 1 0 0 
SMALL
USER_CHARGES


@<TRIPOS>ATOM
  1 O        1.0680     0.4180    -2.2810 O.3   1 <1>  -0.6800 
  2 C        2.1870     1.1300    -1.8830 C.3   1 <1>   0.1200 
  3 C        2.8970     0.3310    -0.7850 C.3   1 <1>   0.1100 
  4 N        4.1100     1.0210    -0.2870 N.3   1 <1>  -0.8100 
  5 C        3.7750     2.1600     0.6040 C.3   1 <1>   0.1100 
  6 C        4.9780     0.0640     0.4390 C.3   1 <1>   0.1100 
  7 C        5.0440     2.8450     1.1700 C.3   1 <1>   0.3430 
  8 C        6.2630     0.7400     0.9790 C.3   1 <1>   0.3430 
  9 N        6.2940     2.2060     0.6150 N.4   1 <1>  -0.9590 
 10 C        7.5780     2.9210     0.8930 C.3   1 <1>   0.4230 
 11 C        7.4960     4.3730     0.3980 C.3   1 <1>  -0.1600 
 12 C        8.7470     2.2020     0.2020 C.3   1 <1>  -0.1600 
 13 C        8.8310     5.1050     0.5360 C.3   1 <1>   0.3430 
 14 C       10.0610     2.9720     0.3420 C.3   1 <1>   0.3430 
 15 N        9.8990     4.3580    -0.1810 N.4   1 <1>  -0.9590 
 16 C       11.1820     5.1220    -0.1110 C.3   1 <1>   0.3430 
 17 C       12.1700     4.6090    -1.1600 C.3   1 <1>  -0.1600 
 18 C       13.4410     5.4650    -1.1740 C.3   1 <1>  -0.2400 
 19 H        0.6110     0.8660    -3.0200 H     1 <1>   0.4000 
 20 H        1.8580     2.0880    -1.5230 H     1 <1>   0.0800 
 21 H        2.8310     1.2500    -2.7370 H     1 <1>   0.0800 
 22 H        3.1760    -0.6190    -1.2100 H     1 <1>   0.0800 
 23 H        2.2130     0.1480     0.0280 H     1 <1>   0.0800 
 24 H        3.1600     1.8200     1.4220 H     1 <1>   0.0800 
 25 H        3.2050     2.8910     0.0580 H     1 <1>   0.0800 
 26 H        5.2610    -0.7370    -0.2240 H     1 <1>   0.0800 
 27 H        4.4350    -0.3770     1.2600 H     1 <1>   0.0800 
 28 H        5.0350     2.7750     2.2460 H     1 <1>   0.0800 
 29 H        5.0020     3.8880     0.9080 H     1 <1>   0.0800 
 30 H        7.1090     0.2270     0.5560 H     1 <1>   0.0800 
 31 H        6.3050     0.6190     2.0490 H     1 <1>   0.0800 
 32 H        6.0980     2.1820    -0.4000 H     1 <1>   0.4500 
 33 H        7.7550     2.9270     1.9580 H     1 <1>   0.0800 
 34 H        6.7780     4.9220     0.9780 H     1 <1>   0.0800 
 35 H        7.1890     4.4020    -0.6330 H     1 <1>   0.0800 
 36 H        8.5370     2.0630    -0.8440 H     1 <1>   0.0800 
 37 H        8.9030     1.2360     0.6460 H     1 <1>   0.0800 
 38 H        9.0900     5.1990     1.5790 H     1 <1>   0.0800 
 39 H        8.7400     6.0990     0.1250 H     1 <1>   0.0800 
 40 H       10.8340     2.4570    -0.2070 H     1 <1>   0.0800 
 41 H       10.3570     3.0060     1.3790 H     1 <1>   0.0800 
 42 H        9.6540     4.3110    -1.1820 H     1 <1>   0.4500 
 43 H       11.6160     5.0420     0.8730 H     1 <1>   0.0800 
 44 H       10.9920     6.1660    -0.3070 H     1 <1>   0.0800 
 45 H       11.7230     4.6500    -2.1380 H     1 <1>   0.0800 
 46 H       12.4550     3.5930    -0.9490 H     1 <1>   0.0800 
 47 H       13.2130     6.4900    -1.4130 H     1 <1>   0.0800 
 48 H       14.1260     5.0940    -1.9170 H     1 <1>   0.0800 
 49 H       13.9370     5.4350    -0.2180 H     1 <1>   0.0800 
@<TRIPOS>BOND
  1   1   2  1   
  2   1  19  1   
  3   2   3  1   
  4   2  20  1   
  5   2  21  1   
  6   3   4  1   
  7   3  22  1   
  8   3  23  1   
  9   4   5  1   
 10   4   6  1   
 11   5   7  1   
 12   5  24  1   
 13   5  25  1   
 14   6   8  1   
 15   6  26  1   
 16   6  27  1   
 17   7   9  1   
 18   7  28  1   
 19   7  29  1   
 20   8   9  1   
 21   8  30  1   
 22   8  31  1   
 23   9  10  1   
 24   9  32  1   
 25  10  11  1   
 26  10  12  1   
 27  10  33  1   
 28  11  13  1   
 29  11  34  1   
 30  11  35  1   
 31  12  14  1   
 32  12  36  1   
 33  12  37  1   
 34  13  15  1   
 35  13  38  1   
 36  13  39  1   
 37  14  15  1   
 38  14  40  1   
 39  14  41  1   
 40  15  16  1   
 41  15  42  1   
 42  16  17  1   
 43  16  43  1   
 44  16  44  1   
 45  17  18  1   
 46  17  45  1   
 47  17  46  1   
 48  18  47  1   
 49  18  48  1   
 50  18  49  1   
@<TRIPOS>SUBSTRUCTURE
  1 ****   9 GROUP 4 **** **** 0

# MOE 2024.06 (io_trps.svl 2023.06)
