@<TRIPOS>MOLECULE
NONAME
41 43 1 0 0 
SMALL
USER_CHARGES


@<TRIPOS>ATOM
  1 O       -0.6640    -0.4360    -0.6480 O.2   1 <1>  -0.5700 
  2 C       -0.6560    -1.5020    -0.0610 C.2   1 <1>   0.5440 
  3 N       -1.8530    -2.0090     0.4030 N.am  1 <1>  -0.6600 
  4 C        0.6000    -2.2070     0.1150 C.ar  1 <1>   0.0860 
  5 C       -2.1110    -3.4720     0.5920 C.3   1 <1>   0.1400 
  6 C       -3.0880    -1.1650     0.4590 C.3   1 <1>   0.1400 
  7 C        1.4960    -2.3490    -0.9440 C.ar  1 <1>  -0.1500 
  8 C        0.9650    -2.7620     1.3440 C.ar  1 <1>  -0.1500 
  9 C       -3.1920    -3.9780    -0.3790 C.3   1 <1>   0.1400 
 10 C       -4.1360    -1.6710    -0.5400 C.3   1 <1>   0.1400 
 11 C        2.6920    -3.0280    -0.7980 C.ar  1 <1>  -0.1500 
 12 C        2.1570    -3.4430     1.4990 C.ar  1 <1>  -0.1500 
 13 N       -4.4160    -3.1220    -0.3130 N.am  1 <1>  -0.6600 
 14 C        3.0300    -3.5860     0.4320 C.ar  1 <1>   0.0820 
 15 C       -5.6830    -3.6620    -0.1890 C.2   1 <1>   0.7150 
 16 O        4.1740    -4.2670     0.6630 O.3   1 <1>  -0.3630 
 17 O       -5.8110    -4.8660    -0.3270 O.2   1 <1>  -0.5700 
 18 C       -6.8320    -2.8400     0.1260 C.2   1 <1>   0.0550 
 19 C        5.1550    -4.4320    -0.3370 C.3   1 <1>   0.0400 
 20 O       -7.9620    -2.9450    -0.5680 O.3   1 <1>  -0.2800 
 21 C       -7.0090    -1.8880     1.0860 C.2   1 <1>  -0.1500 
 22 C       -8.8410    -2.0970    -0.0850 C.2   1 <1>  -0.0100 
 23 C       -8.3110    -1.4060     0.9460 C.2   1 <1>  -0.1500 
 24 H       -2.4360    -3.6450     1.6030 H     1 <1>   0.0800 
 25 H       -1.2140    -4.0420     0.4300 H     1 <1>   0.0800 
 26 H       -2.8550    -0.1360     0.2420 H     1 <1>   0.0800 
 27 H       -3.4940    -1.2020     1.4540 H     1 <1>   0.0800 
 28 H        1.2420    -1.9120    -1.8950 H     1 <1>   0.1500 
 29 H        0.3030    -2.6490     2.1840 H     1 <1>   0.1500 
 30 H       -3.4280    -4.9990    -0.1370 H     1 <1>   0.0800 
 31 H       -2.8050    -3.9590    -1.3830 H     1 <1>   0.0800 
 32 H       -3.7530    -1.5400    -1.5380 H     1 <1>   0.0800 
 33 H       -5.0300    -1.0810    -0.4580 H     1 <1>   0.0800 
 34 H        3.3470    -3.1110    -1.6440 H     1 <1>   0.1500 
 35 H        2.4260    -3.8670     2.4500 H     1 <1>   0.1500 
 36 H        5.9720    -4.9890     0.0850 H     1 <1>   0.0800 
 37 H        5.4980    -3.4630    -0.6530 H     1 <1>   0.0800 
 38 H        4.7270    -4.9780    -1.1590 H     1 <1>   0.0800 
 39 H       -6.3010    -1.5610     1.8260 H     1 <1>   0.1500 
 40 H       -9.8200    -2.0490    -0.5310 H     1 <1>   0.1500 
 41 H       -8.7730    -0.6450     1.5500 H     1 <1>   0.1500 
@<TRIPOS>BOND
  1   1   2  2   
  2   2   3  am  
  3   2   4  1   
  4   3   5  1   
  5   3   6  1   
  6   4   7  ar  
  7   4   8  ar  
  8   5   9  1   
  9   5  24  1   
 10   5  25  1   
 11   6  10  1   
 12   6  26  1   
 13   6  27  1   
 14   7  11  ar  
 15   7  28  1   
 16   8  12  ar  
 17   8  29  1   
 18   9  13  1   
 19   9  30  1   
 20   9  31  1   
 21  10  13  1   
 22  10  32  1   
 23  10  33  1   
 24  11  14  ar  
 25  11  34  1   
 26  12  14  ar  
 27  12  35  1   
 28  13  15  am  
 29  14  16  1   
 30  15  17  2   
 31  15  18  1   
 32  16  19  1   
 33  18  20  1   
 34  18  21  2   
 35  19  36  1   
 36  19  37  1   
 37  19  38  1   
 38  20  22  1   
 39  21  23  1   
 40  21  39  1   
 41  22  23  2   
 42  22  40  1   
 43  23  41  1   
@<TRIPOS>SUBSTRUCTURE
  1 ****   3 GROUP 4 **** **** 0

# MOE 2024.06 (io_trps.svl 2023.06)
