@<TRIPOS>MOLECULE
NONAME
44 46 1 0 0 
SMALL
USER_CHARGES


@<TRIPOS>ATOM
  1 O       -0.4960     3.5810    -1.4260 O.2   1 <1>  -0.5700 
  2 C        0.1810     2.8420    -0.7490 C.2   1 <1>   0.5690 
  3 N       -0.3080     1.7210    -0.1590 N.am  1 <1>  -0.5790 
  4 C        1.6610     3.1620    -0.5310 C.3   1 <1>   0.1710 
  5 C       -1.6770     1.2010    -0.2400 C.3   1 <1>   0.0490 
  6 N        2.4920     1.9720    -0.1800 N.3   1 <1>  -0.8100 
  7 C       -2.2100     0.4440     0.9300 C.3   1 <1>  -0.2000 
  8 C       -1.8590    -0.2770    -0.3370 C.3   1 <1>  -0.2000 
  9 C        3.8060     2.3860     0.3670 C.3   1 <1>   0.1100 
 10 C        2.7070     1.1050    -1.3680 C.3   1 <1>   0.1100 
 11 C        4.6990     1.1790     0.7150 C.3   1 <1>   0.2090 
 12 C        3.5850    -0.1190    -1.0470 C.3   1 <1>   0.2090 
 13 N        4.8950     0.3050    -0.4770 N.pl3 1 <1>  -0.8380 
 14 C        5.8480    -0.7130    -0.3290 C.ar  1 <1>   0.1000 
 15 C        5.7210    -1.8040     0.5520 C.ar  1 <1>   0.0830 
 16 C        6.9880    -0.6220    -1.1150 C.ar  1 <1>  -0.1500 
 17 O        4.5940    -1.8910     1.3270 O.3   1 <1>  -0.3630 
 18 C        6.7330    -2.7580     0.6140 C.ar  1 <1>  -0.1500 
 19 C        7.9880    -1.5740    -1.0470 C.ar  1 <1>  -0.1500 
 20 C        4.4210    -2.9300     2.2640 C.3   1 <1>   0.0400 
 21 C        7.8600    -2.6440    -0.1810 C.ar  1 <1>  -0.1500 
 22 H        0.3800     1.1530     0.3450 H     1 <1>   0.3700 
 23 H        1.7100     3.8760     0.2710 H     1 <1>   0.0800 
 24 H        2.0490     3.6340    -1.4160 H     1 <1>   0.0800 
 25 H       -2.3450     1.8450    -0.7920 H     1 <1>   0.1000 
 26 H       -3.2490     0.5540     1.1830 H     1 <1>   0.1000 
 27 H       -1.5830     0.3220     1.7960 H     1 <1>   0.1000 
 28 H       -0.9870    -0.9070    -0.3570 H     1 <1>   0.1000 
 29 H       -2.6610    -0.6580    -0.9440 H     1 <1>   0.1000 
 30 H        3.6530     2.9680     1.2590 H     1 <1>   0.0800 
 31 H        4.3250     2.9990    -0.3500 H     1 <1>   0.0800 
 32 H        3.1880     1.6690    -2.1500 H     1 <1>   0.0800 
 33 H        1.7600     0.7580    -1.7430 H     1 <1>   0.0800 
 34 H        4.2390     0.6170     1.5090 H     1 <1>   0.0800 
 35 H        5.6570     1.5260     1.0600 H     1 <1>   0.0800 
 36 H        3.7580    -0.6850    -1.9450 H     1 <1>   0.0800 
 37 H        3.0690    -0.7500    -0.3460 H     1 <1>   0.0800 
 38 H        7.0790     0.2120    -1.7860 H     1 <1>   0.1500 
 39 H        6.6690    -3.6020     1.2730 H     1 <1>   0.1500 
 40 H        8.8620    -1.4800    -1.6670 H     1 <1>   0.1500 
 41 H        3.4800    -2.7780     2.7600 H     1 <1>   0.0800 
 42 H        5.2220    -2.8920     2.9810 H     1 <1>   0.0800 
 43 H        4.4110    -3.8720     1.7430 H     1 <1>   0.0800 
 44 H        8.6370    -3.3860    -0.1260 H     1 <1>   0.1500 
@<TRIPOS>BOND
  1   1   2  2   
  2   2   3  am  
  3   2   4  1   
  4   3   5  1   
  5   3  22  1   
  6   4   6  1   
  7   4  23  1   
  8   4  24  1   
  9   5   7  1   
 10   5   8  1   
 11   5  25  1   
 12   6   9  1   
 13   6  10  1   
 14   7   8  1   
 15   7  26  1   
 16   7  27  1   
 17   8  28  1   
 18   8  29  1   
 19   9  11  1   
 20   9  30  1   
 21   9  31  1   
 22  10  12  1   
 23  10  32  1   
 24  10  33  1   
 25  11  13  1   
 26  11  34  1   
 27  11  35  1   
 28  12  13  1   
 29  12  36  1   
 30  12  37  1   
 31  13  14  1   
 32  14  15  ar  
 33  14  16  ar  
 34  15  17  1   
 35  15  18  ar  
 36  16  19  ar  
 37  16  38  1   
 38  17  20  1   
 39  18  21  ar  
 40  18  39  1   
 41  19  21  ar  
 42  19  40  1   
 43  20  41  1   
 44  20  42  1   
 45  20  43  1   
 46  21  44  1   
@<TRIPOS>SUBSTRUCTURE
  1 ****  12 GROUP 4 **** **** 0

# MOE 2024.06 (io_trps.svl 2023.06)
