@<TRIPOS>MOLECULE
NONAME
56 56 1 0 0 
SMALL
USER_CHARGES


@<TRIPOS>ATOM
  1 O        0.2290     1.2040    -1.6090 O.2   1 <1>  -0.5700 
  2 C       -0.0230     2.0640    -0.7840 C.2   1 <1>   0.5440 
  3 N        0.9850     2.4940     0.0500 N.am  1 <1>  -0.6600 
  4 C       -1.3610     2.6280    -0.7010 C.ar  1 <1>   0.0860 
  5 C        1.8340     3.6500    -0.3590 C.3   1 <1>   0.2200 
  6 C        1.6030     1.5930     1.0720 C.3   1 <1>   0.2200 
  7 C       -1.8330     3.2560     0.4530 C.ar  1 <1>  -0.1500 
  8 C       -2.2380     2.5640    -1.7840 C.ar  1 <1>  -0.1500 
  9 C        1.0950     4.9580    -0.0790 C.3   1 <1>  -0.2400 
 10 C        2.2440     3.5560    -1.8300 C.3   1 <1>  -0.2400 
 11 C        0.8350     0.2780     1.2530 C.3   1 <1>  -0.2400 
 12 C        1.6540     2.3200     2.4200 C.3   1 <1>  -0.2400 
 13 C       -3.1080     3.7840     0.5200 C.ar  1 <1>  -0.1500 
 14 C       -3.5130     3.0930    -1.7180 C.ar  1 <1>  -0.1500 
 15 C       -3.9850     3.7050    -0.5590 C.ar  1 <1>   0.0860 
 16 C       -5.3220     4.2580    -0.4890 C.2   1 <1>   0.5440 
 17 O       -5.6490     5.1000    -1.3060 O.2   1 <1>  -0.5700 
 18 N       -6.2290     3.8840     0.4830 N.am  1 <1>  -0.6600 
 19 C       -7.2060     4.9070     0.9580 C.3   1 <1>   0.2200 
 20 C       -6.5090     2.4570     0.8360 C.3   1 <1>   0.2200 
 21 C       -7.2800     4.9200     2.4860 C.3   1 <1>  -0.2400 
 22 C       -8.5800     4.6890     0.3200 C.3   1 <1>  -0.2400 
 23 C       -5.4680     1.8990     1.8040 C.3   1 <1>  -0.2400 
 24 C       -6.6300     1.5930    -0.4200 C.3   1 <1>  -0.2400 
 25 H        2.7390     3.6450     0.2230 H     1 <1>   0.0800 
 26 H        2.6060     1.3570     0.7570 H     1 <1>   0.0800 
 27 H       -1.1860     3.3290     1.3080 H     1 <1>   0.1500 
 28 H       -1.9060     2.0900    -2.6930 H     1 <1>   0.1500 
 29 H        0.8110     5.0090     0.9560 H     1 <1>   0.0800 
 30 H        0.2180     5.0410    -0.6950 H     1 <1>   0.0800 
 31 H        1.7370     5.7920    -0.2950 H     1 <1>   0.0800 
 32 H        1.3920     3.6530    -2.4780 H     1 <1>   0.0800 
 33 H        2.7220     2.6110    -2.0170 H     1 <1>   0.0800 
 34 H        2.9390     4.3400    -2.0680 H     1 <1>   0.0800 
 35 H       -0.1900     0.4650     1.5210 H     1 <1>   0.0800 
 36 H        1.2880    -0.3080     2.0310 H     1 <1>   0.0800 
 37 H        0.8700    -0.3050     0.3500 H     1 <1>   0.0800 
 38 H        0.6620     2.5760     2.7450 H     1 <1>   0.0800 
 39 H        2.0990     1.6810     3.1620 H     1 <1>   0.0800 
 40 H        2.2480     3.2120     2.3600 H     1 <1>   0.0800 
 41 H       -3.4430     4.2670     1.4220 H     1 <1>   0.1500 
 42 H       -4.1640     3.0390    -2.5740 H     1 <1>   0.1500 
 43 H       -6.8560     5.8790     0.6500 H     1 <1>   0.0800 
 44 H       -7.4590     2.4090     1.3370 H     1 <1>   0.0800 
 45 H       -7.7120     4.0150     2.8700 H     1 <1>   0.0800 
 46 H       -7.8900     5.7440     2.8080 H     1 <1>   0.0800 
 47 H       -6.2950     5.0510     2.8970 H     1 <1>   0.0800 
 48 H       -9.0360     3.7770     0.6540 H     1 <1>   0.0800 
 49 H       -8.4800     4.6680    -0.7510 H     1 <1>   0.0800 
 50 H       -9.2290     5.5050     0.5790 H     1 <1>   0.0800 
 51 H       -5.3060     2.5840     2.6160 H     1 <1>   0.0800 
 52 H       -4.5390     1.7000     1.3050 H     1 <1>   0.0800 
 53 H       -5.8220     0.9700     2.2110 H     1 <1>   0.0800 
 54 H       -6.9850     0.6150    -0.1530 H     1 <1>   0.0800 
 55 H       -7.3350     2.0340    -1.1030 H     1 <1>   0.0800 
 56 H       -5.6820     1.4790    -0.9110 H     1 <1>   0.0800 
@<TRIPOS>BOND
  1   1   2  2   
  2   2   3  am  
  3   2   4  1   
  4   3   5  1   
  5   3   6  1   
  6   4   7  ar  
  7   4   8  ar  
  8   5   9  1   
  9   5  10  1   
 10   5  25  1   
 11   6  11  1   
 12   6  12  1   
 13   6  26  1   
 14   7  13  ar  
 15   7  27  1   
 16   8  14  ar  
 17   8  28  1   
 18   9  29  1   
 19   9  30  1   
 20   9  31  1   
 21  10  32  1   
 22  10  33  1   
 23  10  34  1   
 24  11  35  1   
 25  11  36  1   
 26  11  37  1   
 27  12  38  1   
 28  12  39  1   
 29  12  40  1   
 30  13  15  ar  
 31  13  41  1   
 32  14  15  ar  
 33  14  42  1   
 34  15  16  1   
 35  16  17  2   
 36  16  18  am  
 37  18  19  1   
 38  18  20  1   
 39  19  21  1   
 40  19  22  1   
 41  19  43  1   
 42  20  23  1   
 43  20  24  1   
 44  20  44  1   
 45  21  45  1   
 46  21  46  1   
 47  21  47  1   
 48  22  48  1   
 49  22  49  1   
 50  22  50  1   
 51  23  51  1   
 52  23  52  1   
 53  23  53  1   
 54  24  54  1   
 55  24  55  1   
 56  24  56  1   
@<TRIPOS>SUBSTRUCTURE
  1 ****  13 GROUP 4 **** **** 0

# MOE 2024.06 (io_trps.svl 2023.06)
