@<TRIPOS>MOLECULE
NONAME
44 46 1 0 0 
SMALL
USER_CHARGES


@<TRIPOS>ATOM
  1 O       -0.6060     0.0830    -0.5400 O.2   1 <1>  -0.5700 
  2 C        0.0330     1.0620    -0.2090 C.2   1 <1>   0.6900 
  3 N       -0.5670     2.2430     0.0690 N.am  1 <1>  -0.7300 
  4 N        1.3820     1.0310    -0.0990 N.am  1 <1>  -0.7300 
  5 C       -2.0010     2.5750     0.0350 C.3   1 <1>   0.3000 
  6 C        2.3010    -0.0870    -0.3300 C.3   1 <1>   0.3000 
  7 C       -2.1400     4.0560     0.4380 C.3   1 <1>  -0.1600 
  8 C       -2.7910     1.7140     1.0390 C.3   1 <1>  -0.1600 
  9 C       -2.5780     2.3920    -1.3820 C.3   1 <1>  -0.1600 
 10 C        2.2040    -0.5480    -1.7850 C.3   1 <1>  -0.2400 
 11 C        1.9900    -1.2270     0.6410 C.3   1 <1>  -0.2400 
 12 C        3.7060     0.4450    -0.0570 C.3   1 <1>  -0.2400 
 13 C       -3.6210     4.4810     0.4260 C.3   1 <1>  -0.0800 
 14 C       -4.2790     2.1190     1.0250 C.3   1 <1>  -0.0800 
 15 C       -4.0650     2.7990    -1.4020 C.3   1 <1>  -0.0800 
 16 C       -4.4050     3.6030     1.4200 C.3   1 <1>  -0.1600 
 17 C       -4.1920     4.2780    -0.9900 C.3   1 <1>  -0.1600 
 18 C       -4.8410     1.9250    -0.3970 C.3   1 <1>  -0.1600 
 19 H        0.0240     3.0190     0.3390 H     1 <1>   0.3700 
 20 H        1.8480     1.8850     0.1800 H     1 <1>   0.3700 
 21 H       -1.5900     4.6740    -0.2500 H     1 <1>   0.0800 
 22 H       -1.7380     4.2050     1.4240 H     1 <1>   0.0800 
 23 H       -2.3880     1.8410     2.0280 H     1 <1>   0.0800 
 24 H       -2.7110     0.6750     0.7760 H     1 <1>   0.0800 
 25 H       -2.0260     2.9920    -2.0820 H     1 <1>   0.0800 
 26 H       -2.4950     1.3630    -1.6820 H     1 <1>   0.0800 
 27 H        1.2330    -0.9610    -1.9880 H     1 <1>   0.0800 
 28 H        2.9350    -1.3110    -1.9820 H     1 <1>   0.0800 
 29 H        2.3790     0.2750    -2.4530 H     1 <1>   0.0800 
 30 H        2.7120    -2.0150     0.5320 H     1 <1>   0.0800 
 31 H        1.0180    -1.6400     0.4400 H     1 <1>   0.0800 
 32 H        2.0150    -0.8750     1.6560 H     1 <1>   0.0800 
 33 H        4.4310    -0.3340    -0.2110 H     1 <1>   0.0800 
 34 H        3.7910     0.7840     0.9600 H     1 <1>   0.0800 
 35 H        3.9410     1.2550    -0.7240 H     1 <1>   0.0800 
 36 H       -3.7080     5.5170     0.7090 H     1 <1>   0.0800 
 37 H       -4.8280     1.5070     1.7210 H     1 <1>   0.0800 
 38 H       -4.4660     2.6590    -2.3920 H     1 <1>   0.0800 
 39 H       -4.0230     3.7480     2.4160 H     1 <1>   0.0800 
 40 H       -5.4410     3.8910     1.4230 H     1 <1>   0.0800 
 41 H       -3.6620     4.8980    -1.6910 H     1 <1>   0.0800 
 42 H       -5.2270     4.5730    -1.0110 H     1 <1>   0.0800 
 43 H       -5.8840     2.1880    -0.4150 H     1 <1>   0.0800 
 44 H       -4.7610     0.8890    -0.6800 H     1 <1>   0.0800 
@<TRIPOS>BOND
  1   1   2  2   
  2   2   3  am  
  3   2   4  am  
  4   3   5  1   
  5   3  19  1   
  6   4   6  1   
  7   4  20  1   
  8   5   7  1   
  9   5   8  1   
 10   5   9  1   
 11   6  10  1   
 12   6  11  1   
 13   6  12  1   
 14   7  13  1   
 15   7  21  1   
 16   7  22  1   
 17   8  14  1   
 18   8  23  1   
 19   8  24  1   
 20   9  15  1   
 21   9  25  1   
 22   9  26  1   
 23  10  27  1   
 24  10  28  1   
 25  10  29  1   
 26  11  30  1   
 27  11  31  1   
 28  11  32  1   
 29  12  33  1   
 30  12  34  1   
 31  12  35  1   
 32  13  16  1   
 33  13  17  1   
 34  13  36  1   
 35  14  16  1   
 36  14  18  1   
 37  14  37  1   
 38  15  17  1   
 39  15  18  1   
 40  15  38  1   
 41  16  39  1   
 42  16  40  1   
 43  17  41  1   
 44  17  42  1   
 45  18  43  1   
 46  18  44  1   
@<TRIPOS>SUBSTRUCTURE
  1 ****   3 GROUP 4 **** **** 0

# MOE 2024.06 (io_trps.svl 2023.06)
