@<TRIPOS>MOLECULE
NONAME
30 31 1 0 0 
SMALL
USER_CHARGES


@<TRIPOS>ATOM
  1 O        0.6610     2.0420     1.5040 O.2   1 <1>  -0.5700 
  2 C        0.4470     1.1440     0.7340 C.2   1 <1>   0.6590 
  3 O       -0.6830     1.0320     0.0570 O.3   1 <1>  -0.4300 
  4 C        1.4660     0.0650     0.4790 C.3   1 <1>  -0.1790 
  5 C       -1.7350     1.9590     0.2040 C.3   1 <1>   0.3440 
  6 C       -3.0500     1.2570    -0.1230 C.ar  1 <1>  -0.1440 
  7 C       -1.4880     3.1320    -0.7440 C.3   1 <1>  -0.2400 
  8 C       -4.1500     1.4380     0.7050 C.ar  1 <1>  -0.1500 
  9 C       -3.1710     0.4410    -1.2420 C.ar  1 <1>  -0.1500 
 10 C       -5.3530     0.8160     0.4180 C.ar  1 <1>   0.0830 
 11 C       -4.3700    -0.1900    -1.5320 C.ar  1 <1>  -0.1500 
 12 O       -6.4130     1.0300     1.2390 O.3   1 <1>  -0.3630 
 13 C       -5.4610    -0.0110    -0.7010 C.ar  1 <1>   0.0830 
 14 C       -7.6860     0.6470     0.7520 C.3   1 <1>   0.1200 
 15 O       -6.6220    -0.6520    -0.9930 O.3   1 <1>  -0.3630 
 16 C       -7.5950    -0.7060     0.0330 C.3   1 <1>   0.1200 
 17 H        1.7310     0.0610    -0.5610 H     1 <1>   0.0800 
 18 H        1.0510    -0.8880     0.7460 H     1 <1>   0.0800 
 19 H        2.3450     0.2470     1.0690 H     1 <1>   0.0800 
 20 H       -1.7530     2.2990     1.2260 H     1 <1>   0.0800 
 21 H       -1.4250     2.7880    -1.7600 H     1 <1>   0.0800 
 22 H       -0.5790     3.6410    -0.4760 H     1 <1>   0.0800 
 23 H       -2.3010     3.8300    -0.6690 H     1 <1>   0.0800 
 24 H       -4.0900     2.0650     1.5760 H     1 <1>   0.1500 
 25 H       -2.3260     0.2930    -1.8920 H     1 <1>   0.1500 
 26 H       -4.4620    -0.8230    -2.3950 H     1 <1>   0.1500 
 27 H       -8.0270     1.4090     0.0730 H     1 <1>   0.0800 
 28 H       -8.3580     0.5920     1.5890 H     1 <1>   0.0800 
 29 H       -8.5370    -0.9640    -0.4170 H     1 <1>   0.0800 
 30 H       -7.3090    -1.4780     0.7240 H     1 <1>   0.0800 
@<TRIPOS>BOND
  1   1   2  2   
  2   2   3  1   
  3   2   4  1   
  4   3   5  1   
  5   4  17  1   
  6   4  18  1   
  7   4  19  1   
  8   5   6  1   
  9   5   7  1   
 10   5  20  1   
 11   6   8  ar  
 12   6   9  ar  
 13   7  21  1   
 14   7  22  1   
 15   7  23  1   
 16   8  10  ar  
 17   8  24  1   
 18   9  11  ar  
 19   9  25  1   
 20  10  12  1   
 21  10  13  ar  
 22  11  13  ar  
 23  11  26  1   
 24  12  14  1   
 25  13  15  1   
 26  14  16  1   
 27  14  27  1   
 28  14  28  1   
 29  15  16  1   
 30  16  29  1   
 31  16  30  1   
@<TRIPOS>SUBSTRUCTURE
  1 ****   6 GROUP 4 **** **** 0

# MOE 2024.06 (io_trps.svl 2023.06)
