@<TRIPOS>MOLECULE
NONAME
39 40 1 0 0 
SMALL
USER_CHARGES


@<TRIPOS>ATOM
  1 O       -1.2310    -0.2220     0.5970 O.3   1 <1>  -0.3630 
  2 C       -1.8920     0.6920    -0.1690 C.ar  1 <1>   0.0830 
  3 C        0.1740    -0.2650     0.6970 C.3   1 <1>   0.1200 
  4 C       -1.3800     1.8990    -0.6780 C.ar  1 <1>   0.0830 
  5 C       -3.2050     0.3440    -0.4380 C.ar  1 <1>  -0.1500 
  6 C        0.5580    -1.5780     1.3730 C.3   1 <1>  -0.2400 
  7 O       -0.0960     2.2710    -0.4020 O.3   1 <1>  -0.3620 
  8 C       -2.2110     2.7060    -1.4520 C.ar  1 <1>  -0.1500 
  9 C       -4.0300     1.1600    -1.1940 C.ar  1 <1>  -0.1440 
 10 C        0.4830     3.4520    -0.9130 C.3   1 <1>   0.0400 
 11 C       -3.5220     2.3420    -1.7070 C.ar  1 <1>  -0.1500 
 12 C       -5.4720     0.7620    -1.4380 C.3   1 <1>   0.4860 
 13 N       -6.2070     0.8770    -0.1520 N.4   1 <1>  -0.9590 
 14 C       -7.6110     0.4150    -0.2070 C.3   1 <1>   0.3430 
 15 C       -6.2370     2.2570     0.3910 C.3   1 <1>   0.3430 
 16 C       -8.2600     1.0450     1.0180 C.3   1 <1>  -0.1600 
 17 C       -7.3730     2.2340     1.4040 C.3   1 <1>  -0.1600 
 18 H        0.4990     0.5740     1.2860 H     1 <1>   0.0800 
 19 H        0.5910    -0.2100    -0.2940 H     1 <1>   0.0800 
 20 H       -3.5610    -0.5890    -0.0380 H     1 <1>   0.1500 
 21 H        0.1250    -1.6280     2.3560 H     1 <1>   0.0800 
 22 H        1.6270    -1.6380     1.4650 H     1 <1>   0.0800 
 23 H        0.2170    -2.4110     0.7850 H     1 <1>   0.0800 
 24 H       -1.8580     3.6300    -1.8680 H     1 <1>   0.1500 
 25 H        1.4990     3.5030    -0.5650 H     1 <1>   0.0800 
 26 H       -0.0690     4.3000    -0.5460 H     1 <1>   0.0800 
 27 H        0.4680     3.4140    -1.9880 H     1 <1>   0.0800 
 28 H       -4.1330     2.9920    -2.3100 H     1 <1>   0.1500 
 29 H       -5.5060    -0.2540    -1.7970 H     1 <1>   0.0800 
 30 H       -5.9130     1.4050    -2.1820 H     1 <1>   0.0800 
 31 H       -5.7030     0.3070     0.5390 H     1 <1>   0.4500 
 32 H       -7.6810    -0.6610    -0.1880 H     1 <1>   0.0800 
 33 H       -8.0870     0.7930    -1.0990 H     1 <1>   0.0800 
 34 H       -6.4670     2.9560    -0.3960 H     1 <1>   0.0800 
 35 H       -5.2950     2.5260     0.8460 H     1 <1>   0.0800 
 36 H       -8.2960     0.3290     1.8210 H     1 <1>   0.0800 
 37 H       -9.2670     1.3540     0.7930 H     1 <1>   0.0800 
 38 H       -7.9150     3.1640     1.3800 H     1 <1>   0.0800 
 39 H       -6.9730     2.0990     2.3950 H     1 <1>   0.0800 
@<TRIPOS>BOND
  1   1   2  1   
  2   1   3  1   
  3   2   4  ar  
  4   2   5  ar  
  5   3   6  1   
  6   3  18  1   
  7   3  19  1   
  8   4   7  1   
  9   4   8  ar  
 10   5   9  ar  
 11   5  20  1   
 12   6  21  1   
 13   6  22  1   
 14   6  23  1   
 15   7  10  1   
 16   8  11  ar  
 17   8  24  1   
 18   9  11  ar  
 19   9  12  1   
 20  10  25  1   
 21  10  26  1   
 22  10  27  1   
 23  11  28  1   
 24  12  13  1   
 25  12  29  1   
 26  12  30  1   
 27  13  14  1   
 28  13  15  1   
 29  13  31  1   
 30  14  16  1   
 31  14  32  1   
 32  14  33  1   
 33  15  17  1   
 34  15  34  1   
 35  15  35  1   
 36  16  17  1   
 37  16  36  1   
 38  16  37  1   
 39  17  38  1   
 40  17  39  1   
@<TRIPOS>SUBSTRUCTURE
  1 ****   5 GROUP 4 **** **** 0

# MOE 2024.06 (io_trps.svl 2023.06)
