@<TRIPOS>MOLECULE
NONAME
38 39 1 0 0 
SMALL
USER_CHARGES


@<TRIPOS>ATOM
  1 CL      -2.6570     0.8190     2.7640 Cl    1 <1>  -0.1770 
  2 C       -2.3330     1.2520     1.1010 C.ar  1 <1>   0.1770 
  3 C       -1.0330     1.4830     0.6690 C.ar  1 <1>  -0.1440 
  4 C       -3.4140     1.3640     0.2440 C.ar  1 <1>  -0.1500 
  5 C       -0.8410     1.8470    -0.6590 C.ar  1 <1>  -0.1500 
  6 C        0.1390     1.3530     1.6370 C.3   1 <1>   0.3530 
  7 C       -3.2040     1.7190    -1.0760 C.ar  1 <1>  -0.1500 
  8 C       -1.9170     1.9620    -1.5240 C.ar  1 <1>  -0.1500 
  9 N        1.3550     0.8860     0.9320 N.pl3 1 <1>  -0.8690 
 10 C        2.5980     1.4210     1.0040 C.2   1 <1>  -0.0500 
 11 C        3.7180     0.9870     0.3230 C.2   1 <1>   0.0290 
 12 C        4.9630     1.6640     0.5300 C.2   1 <1>   0.4950 
 13 C        3.6910    -0.1240    -0.5890 C.2   1 <1>   0.4950 
 14 O        5.0830     2.6300     1.2470 O.2   1 <1>  -0.5700 
 15 C        6.2380     1.2140    -0.1640 C.3   1 <1>  -0.0990 
 16 O        2.6970    -0.7530    -0.8790 O.2   1 <1>  -0.5700 
 17 C        4.9550    -0.5880    -1.2940 C.3   1 <1>  -0.0990 
 18 C        6.2380    -0.2810    -0.5100 C.3   1 <1>   0.0000 
 19 C        6.3070    -1.1350     0.7710 C.3   1 <1>  -0.2400 
 20 C        7.4630    -0.6090    -1.3760 C.3   1 <1>  -0.2400 
 21 H       -4.4060     1.1750     0.6110 H     1 <1>   0.1500 
 22 H        0.1520     2.0430    -1.0290 H     1 <1>   0.1500 
 23 H       -0.0890     0.6420     2.4120 H     1 <1>   0.0800 
 24 H        0.3310     2.3060     2.0990 H     1 <1>   0.0800 
 25 H       -4.0380     1.8080    -1.7520 H     1 <1>   0.1500 
 26 H       -1.7490     2.2400    -2.5510 H     1 <1>   0.1500 
 27 H        1.1920     0.0730     0.3090 H     1 <1>   0.4000 
 28 H        2.7040     2.2690     1.6650 H     1 <1>   0.1500 
 29 H        6.3470     1.8010    -1.0580 H     1 <1>   0.0800 
 30 H        7.0770     1.4370     0.4720 H     1 <1>   0.0800 
 31 H        4.8860    -1.6470    -1.4690 H     1 <1>   0.0800 
 32 H        4.9860    -0.1070    -2.2550 H     1 <1>   0.0800 
 33 H        7.2090    -0.9190     1.3180 H     1 <1>   0.0800 
 34 H        6.3120    -2.1820     0.5240 H     1 <1>   0.0800 
 35 H        5.4720    -0.9530     1.4240 H     1 <1>   0.0800 
 36 H        7.4570    -0.0340    -2.2860 H     1 <1>   0.0800 
 37 H        7.4730    -1.6530    -1.6390 H     1 <1>   0.0800 
 38 H        8.3730    -0.3880    -0.8450 H     1 <1>   0.0800 
@<TRIPOS>BOND
  1   1   2  1   
  2   2   3  ar  
  3   2   4  ar  
  4   3   5  ar  
  5   3   6  1   
  6   4   7  ar  
  7   4  21  1   
  8   5   8  ar  
  9   5  22  1   
 10   6   9  1   
 11   6  23  1   
 12   6  24  1   
 13   7   8  ar  
 14   7  25  1   
 15   8  26  1   
 16   9  10  1   
 17   9  27  1   
 18  10  11  2   
 19  10  28  1   
 20  11  12  1   
 21  11  13  1   
 22  12  14  2   
 23  12  15  1   
 24  13  16  2   
 25  13  17  1   
 26  15  18  1   
 27  15  29  1   
 28  15  30  1   
 29  17  18  1   
 30  17  31  1   
 31  17  32  1   
 32  18  19  1   
 33  18  20  1   
 34  19  33  1   
 35  19  34  1   
 36  19  35  1   
 37  20  36  1   
 38  20  37  1   
 39  20  38  1   
@<TRIPOS>SUBSTRUCTURE
  1 ****   9 GROUP 4 **** **** 0

# MOE 2024.06 (io_trps.svl 2023.06)
