@<TRIPOS>MOLECULE
NONAME
39 40 1 0 0 
SMALL
USER_CHARGES


@<TRIPOS>ATOM
  1 CL       0.5490     2.7070     1.2540 Cl    1 <1>  -0.1770 
  2 C        1.9620     2.2260     0.3500 C.ar  1 <1>   0.1770 
  3 C        2.3400     0.8950     0.3410 C.ar  1 <1>  -0.1500 
  4 C        2.6780     3.1850    -0.3450 C.ar  1 <1>  -0.1500 
  5 C        3.4610     0.5110    -0.3760 C.ar  1 <1>  -0.1500 
  6 C        3.8010     2.8020    -1.0600 C.ar  1 <1>  -0.1500 
  7 C        4.1870     1.4710    -1.0670 C.ar  1 <1>   0.1020 
  8 S        5.6630     1.0650    -2.0170 S.3   1 <1>  -0.3320 
  9 C        6.2330    -0.6220    -1.4690 C.3   1 <1>   0.1310 
 10 C        6.5100    -0.6850     0.0290 C.2   1 <1>   0.5690 
 11 O        5.8770    -1.4690     0.6920 O.2   1 <1>  -0.5700 
 12 N        7.4530     0.0770     0.6340 N.am  1 <1>  -0.7300 
 13 C        8.3650     1.0800     0.0510 C.3   1 <1>   0.2200 
 14 C        9.8300     0.7280     0.3850 C.3   1 <1>  -0.0800 
 15 C        7.9770     2.4550     0.6050 C.3   1 <1>  -0.1600 
 16 C       10.7750     1.8310    -0.1260 C.3   1 <1>  -0.1600 
 17 C       10.2500    -0.6260    -0.2110 C.3   1 <1>  -0.2400 
 18 C        8.9230     3.5480     0.0920 C.3   1 <1>  -0.1600 
 19 C       10.3830     3.2110     0.4220 C.3   1 <1>  -0.1600 
 20 H        1.7630     0.1710     0.8890 H     1 <1>   0.1500 
 21 H        2.3600     4.2120    -0.3230 H     1 <1>   0.1500 
 22 H        3.7450    -0.5240    -0.3870 H     1 <1>   0.1500 
 23 H        4.3760     3.5270    -1.6090 H     1 <1>   0.1500 
 24 H        7.1270    -0.8440    -2.0190 H     1 <1>   0.0800 
 25 H        5.4630    -1.3200    -1.7400 H     1 <1>   0.0800 
 26 H        7.5390    -0.0500     1.6430 H     1 <1>   0.3700 
 27 H        8.2580     1.0980    -1.0190 H     1 <1>   0.0800 
 28 H        9.9310     0.6770     1.4560 H     1 <1>   0.0800 
 29 H        8.0150     2.4340     1.6800 H     1 <1>   0.0800 
 30 H        6.9700     2.6900     0.3060 H     1 <1>   0.0800 
 31 H       10.7470     1.8600    -1.2020 H     1 <1>   0.0800 
 32 H       11.7850     1.6090     0.1710 H     1 <1>   0.0800 
 33 H       10.1400    -0.6210    -1.2810 H     1 <1>   0.0800 
 34 H        9.6480    -1.4220     0.1920 H     1 <1>   0.0800 
 35 H       11.2780    -0.8350     0.0280 H     1 <1>   0.0800 
 36 H        8.6610     4.4920     0.5390 H     1 <1>   0.0800 
 37 H        8.8110     3.6470    -0.9740 H     1 <1>   0.0800 
 38 H       11.0290     3.9620     0.0010 H     1 <1>   0.0800 
 39 H       10.5190     3.2220     1.4900 H     1 <1>   0.0800 
@<TRIPOS>BOND
  1   1   2  1   
  2   2   3  ar  
  3   2   4  ar  
  4   3   5  ar  
  5   3  20  1   
  6   4   6  ar  
  7   4  21  1   
  8   5   7  ar  
  9   5  22  1   
 10   6   7  ar  
 11   6  23  1   
 12   7   8  1   
 13   8   9  1   
 14   9  10  1   
 15   9  24  1   
 16   9  25  1   
 17  10  11  2   
 18  10  12  am  
 19  12  13  1   
 20  12  26  1   
 21  13  14  1   
 22  13  15  1   
 23  13  27  1   
 24  14  16  1   
 25  14  17  1   
 26  14  28  1   
 27  15  18  1   
 28  15  29  1   
 29  15  30  1   
 30  16  19  1   
 31  16  31  1   
 32  16  32  1   
 33  17  33  1   
 34  17  34  1   
 35  17  35  1   
 36  18  19  1   
 37  18  36  1   
 38  18  37  1   
 39  19  38  1   
 40  19  39  1   
@<TRIPOS>SUBSTRUCTURE
  1 ****  12 GROUP 4 **** **** 0

# MOE 2024.06 (io_trps.svl 2023.06)
