@<TRIPOS>MOLECULE
NONAME
42 43 1 0 0 
SMALL
USER_CHARGES


@<TRIPOS>ATOM
  1 O       -2.9660     1.3970     1.2050 O.2   1 <1>  -0.5700 
  2 C       -1.9550     1.3260     0.5520 C.2   1 <1>   0.6590 
  3 O       -1.2760     0.1860     0.4580 O.3   1 <1>  -0.4300 
  4 C       -1.3820     2.4730    -0.2630 C.3   1 <1>   0.0420 
  5 C       -1.6650    -0.9700     1.1710 C.3   1 <1>   0.0400 
  6 C       -0.0470     2.8490     0.3510 C.2   1 <1>   0.5690 
  7 C       -2.2700     3.7260    -0.4860 C.3   1 <1>  -0.0800 
  8 O        0.0360     2.9950     1.5460 O.2   1 <1>  -0.5700 
  9 N        1.0180     3.0190    -0.4960 N.am  1 <1>  -0.5470 
 10 C       -2.6490     4.5230     0.7710 C.3   1 <1>  -0.1600 
 11 C       -3.5970     3.4540    -1.1980 C.3   1 <1>  -0.1600 
 12 C        2.3380     3.4200    -0.2300 C.ar  1 <1>   0.1170 
 13 C       -4.0370     5.1190     0.5020 C.3   1 <1>  -0.1600 
 14 C       -4.4190     4.7080    -0.9200 C.3   1 <1>  -0.1600 
 15 C        3.3430     3.0340    -1.1100 C.ar  1 <1>  -0.1500 
 16 C        2.6840     4.2080     0.8630 C.ar  1 <1>  -0.1500 
 17 C        4.6580     3.4170    -0.9080 C.ar  1 <1>  -0.1500 
 18 C        3.9960     4.5930     1.0710 C.ar  1 <1>  -0.1500 
 19 C        4.9920     4.2030     0.1910 C.ar  1 <1>   0.0830 
 20 O        6.2530     4.6260     0.4670 O.3   1 <1>  -0.3630 
 21 C        7.3400     4.2510    -0.3490 C.3   1 <1>   0.0400 
 22 H       -1.1880     2.0600    -1.2330 H     1 <1>   0.0800 
 23 H       -0.9690    -1.7590     0.9500 H     1 <1>   0.0800 
 24 H       -2.6580    -1.2510     0.8660 H     1 <1>   0.0800 
 25 H       -1.6500    -0.7470     2.2250 H     1 <1>   0.0800 
 26 H       -1.7180     4.4010    -1.1190 H     1 <1>   0.0800 
 27 H        0.8470     2.7880    -1.4710 H     1 <1>   0.3700 
 28 H       -1.9250     5.2970     0.9610 H     1 <1>   0.0800 
 29 H       -2.6980     3.8910     1.6400 H     1 <1>   0.0800 
 30 H       -4.1000     2.6080    -0.7620 H     1 <1>   0.0800 
 31 H       -3.4700     3.2860    -2.2530 H     1 <1>   0.0800 
 32 H       -4.0380     6.1890     0.6130 H     1 <1>   0.0800 
 33 H       -4.7410     4.6960     1.1990 H     1 <1>   0.0800 
 34 H       -5.4760     4.5270    -1.0160 H     1 <1>   0.0800 
 35 H       -4.1300     5.4860    -1.6060 H     1 <1>   0.0800 
 36 H        3.1000     2.4240    -1.9600 H     1 <1>   0.1500 
 37 H        1.9300     4.5280     1.5590 H     1 <1>   0.1500 
 38 H        5.4040     3.0970    -1.6100 H     1 <1>   0.1500 
 39 H        4.2550     5.2000     1.9190 H     1 <1>   0.1500 
 40 H        8.2330     4.6840     0.0660 H     1 <1>   0.0800 
 41 H        7.1780     4.6310    -1.3420 H     1 <1>   0.0800 
 42 H        7.4220     3.1790    -0.3520 H     1 <1>   0.0800 
@<TRIPOS>BOND
  1   1   2  2   
  2   2   3  1   
  3   2   4  1   
  4   3   5  1   
  5   4   6  1   
  6   4   7  1   
  7   4  22  1   
  8   5  23  1   
  9   5  24  1   
 10   5  25  1   
 11   6   8  2   
 12   6   9  am  
 13   7  10  1   
 14   7  11  1   
 15   7  26  1   
 16   9  12  1   
 17   9  27  1   
 18  10  13  1   
 19  10  28  1   
 20  10  29  1   
 21  11  14  1   
 22  11  30  1   
 23  11  31  1   
 24  12  15  ar  
 25  12  16  ar  
 26  13  14  1   
 27  13  32  1   
 28  13  33  1   
 29  14  34  1   
 30  14  35  1   
 31  15  17  ar  
 32  15  36  1   
 33  16  18  ar  
 34  16  37  1   
 35  17  19  ar  
 36  17  38  1   
 37  18  19  ar  
 38  18  39  1   
 39  19  20  1   
 40  20  21  1   
 41  21  40  1   
 42  21  41  1   
 43  21  42  1   
@<TRIPOS>SUBSTRUCTURE
  1 ****   6 GROUP 4 **** **** 0

# MOE 2024.06 (io_trps.svl 2023.06)
