@<TRIPOS>MOLECULE
NONAME
46 48 1 0 0 
SMALL
USER_CHARGES


@<TRIPOS>ATOM
  1 CL       8.3070    -1.8700     3.2670 Cl    1 <1>  -0.1770 
  2 C        7.6090    -0.6340     2.2520 C.ar  1 <1>   0.1770 
  3 C        7.2220    -0.9540     0.9650 C.ar  1 <1>  -0.1500 
  4 C        7.4580     0.6460     2.7500 C.ar  1 <1>  -0.1500 
  5 C        6.6740     0.0310     0.1600 C.ar  1 <1>  -0.1500 
  6 C        6.9080     1.6270     1.9410 C.ar  1 <1>  -0.1500 
  7 C        6.5150     1.3230     0.6440 C.ar  1 <1>  -0.1430 
  8 C        5.9390     2.3980    -0.2600 C.3   1 <1>   0.2840 
  9 N        7.0650     2.9980    -0.9860 N.am  1 <1>  -0.7300 
 10 C        7.4290     2.6810    -2.2510 C.2   1 <1>   0.5690 
 11 O        6.6940     2.0980    -3.0130 O.2   1 <1>  -0.5700 
 12 C        8.8530     3.0430    -2.6820 C.3   1 <1>   0.1710 
 13 N        9.8270     3.0610    -1.5500 N.3   1 <1>  -0.8100 
 14 C       11.1140     3.6670    -1.9560 C.3   1 <1>   0.1100 
 15 C       10.0720     1.6890    -1.0330 C.3   1 <1>   0.1100 
 16 C       12.1280     3.6980    -0.7950 C.3   1 <1>   0.2090 
 17 C       11.0650     1.6810     0.1440 C.3   1 <1>   0.2090 
 18 N       12.3540     2.3300    -0.2400 N.pl3 1 <1>  -0.8380 
 19 C       13.3960     2.2120     0.6880 C.ar  1 <1>   0.1000 
 20 C       13.4060     2.7870     1.9650 C.ar  1 <1>   0.1900 
 21 C       14.5140     1.4700     0.3280 C.ar  1 <1>  -0.1500 
 22 F       12.3820     3.5020     2.3690 F     1 <1>  -0.1900 
 23 C       14.4610     2.6390     2.8440 C.ar  1 <1>  -0.1500 
 24 C       15.5830     1.3100     1.1950 C.ar  1 <1>  -0.1500 
 25 C       15.5610     1.8920     2.4530 C.ar  1 <1>  -0.1500 
 26 H        7.3500    -1.9570     0.6000 H     1 <1>   0.1500 
 27 H        7.7680     0.8690     3.7550 H     1 <1>   0.1500 
 28 H        6.3770    -0.2050    -0.8490 H     1 <1>   0.1500 
 29 H        6.7930     2.6270     2.3230 H     1 <1>   0.1500 
 30 H        5.4360     3.1540     0.3160 H     1 <1>   0.0800 
 31 H        5.2340     1.9700    -0.9540 H     1 <1>   0.0800 
 32 H        7.8320     3.3470    -0.4020 H     1 <1>   0.3700 
 33 H        8.8120     4.0200    -3.1300 H     1 <1>   0.0800 
 34 H        9.1770     2.3450    -3.4330 H     1 <1>   0.0800 
 35 H       10.9440     4.6750    -2.2910 H     1 <1>   0.0800 
 36 H       11.5420     3.1080    -2.7710 H     1 <1>   0.0800 
 37 H       10.4680     1.0670    -1.8180 H     1 <1>   0.0800 
 38 H        9.1490     1.2510    -0.6980 H     1 <1>   0.0800 
 39 H       11.7560     4.3470    -0.0210 H     1 <1>   0.0800 
 40 H       13.0640     4.0960    -1.1460 H     1 <1>   0.0800 
 41 H       11.2540     0.6660     0.4460 H     1 <1>   0.0800 
 42 H       10.6260     2.2030     0.9770 H     1 <1>   0.0800 
 43 H       14.5330     1.0170    -0.6460 H     1 <1>   0.1500 
 44 H       14.4210     3.1000     3.8140 H     1 <1>   0.1500 
 45 H       16.4360     0.7290     0.8890 H     1 <1>   0.1500 
 46 H       16.3940     1.7650     3.1230 H     1 <1>   0.1500 
@<TRIPOS>BOND
  1   1   2  1   
  2   2   3  ar  
  3   2   4  ar  
  4   3   5  ar  
  5   3  26  1   
  6   4   6  ar  
  7   4  27  1   
  8   5   7  ar  
  9   5  28  1   
 10   6   7  ar  
 11   6  29  1   
 12   7   8  1   
 13   8   9  1   
 14   8  30  1   
 15   8  31  1   
 16   9  10  am  
 17   9  32  1   
 18  10  11  2   
 19  10  12  1   
 20  12  13  1   
 21  12  33  1   
 22  12  34  1   
 23  13  14  1   
 24  13  15  1   
 25  14  16  1   
 26  14  35  1   
 27  14  36  1   
 28  15  17  1   
 29  15  37  1   
 30  15  38  1   
 31  16  18  1   
 32  16  39  1   
 33  16  40  1   
 34  17  18  1   
 35  17  41  1   
 36  17  42  1   
 37  18  19  1   
 38  19  20  ar  
 39  19  21  ar  
 40  20  22  1   
 41  20  23  ar  
 42  21  24  ar  
 43  21  43  1   
 44  23  25  ar  
 45  23  44  1   
 46  24  25  ar  
 47  24  45  1   
 48  25  46  1   
@<TRIPOS>SUBSTRUCTURE
  1 ****  17 GROUP 4 **** **** 0

# MOE 2024.06 (io_trps.svl 2023.06)
