@<TRIPOS>MOLECULE
NONAME
37 37 1 0 0 
SMALL
USER_CHARGES


@<TRIPOS>ATOM
  1 O       -4.2720     1.9820     0.6670 O.3   1 <1>  -0.3630 
  2 C       -5.5700     1.8580     0.2980 C.ar  1 <1>   0.0830 
  3 C       -3.2970     2.4910    -0.2120 C.3   1 <1>   0.1200 
  4 C       -6.0700     2.2670    -0.9340 C.ar  1 <1>  -0.1500 
  5 C       -6.4260     1.2850     1.2220 C.ar  1 <1>  -0.1500 
  6 C       -1.9520     2.4610     0.5070 C.3   1 <1>  -0.2400 
  7 C       -7.4140     2.1030    -1.2260 C.ar  1 <1>  -0.1500 
  8 C       -7.7680     1.1200     0.9320 C.ar  1 <1>  -0.1500 
  9 C       -8.2700     1.5340    -0.2940 C.ar  1 <1>  -0.1430 
 10 C       -9.7400     1.3740    -0.6040 C.3   1 <1>   0.4860 
 11 N      -10.4050     2.5920    -0.0990 N.4   1 <1>  -0.9060 
 12 C      -11.8700     2.6010    -0.3040 C.3   1 <1>   0.3430 
 13 C      -12.4380     3.9020     0.2570 C.3   1 <1>  -0.1600 
 14 C      -13.9590     3.9590     0.0680 C.3   1 <1>  -0.1600 
 15 C      -14.5310     5.2630     0.6310 C.3   1 <1>  -0.2400 
 16 H       -3.5650     3.5010    -0.4730 H     1 <1>   0.0800 
 17 H       -3.2720     1.8700    -1.0910 H     1 <1>   0.0800 
 18 H       -5.4280     2.7100    -1.6730 H     1 <1>   0.1500 
 19 H       -6.0260     0.9670     2.1690 H     1 <1>   0.1500 
 20 H       -1.9930     3.0700     1.3920 H     1 <1>   0.0800 
 21 H       -1.1840     2.8460    -0.1400 H     1 <1>   0.0800 
 22 H       -1.7000     1.4520     0.7770 H     1 <1>   0.0800 
 23 H       -7.7740     2.4240    -2.1900 H     1 <1>   0.1500 
 24 H       -8.4020     0.6630     1.6730 H     1 <1>   0.1500 
 25 H      -10.1270     0.4970    -0.1110 H     1 <1>   0.0800 
 26 H       -9.8860     1.2730    -1.6670 H     1 <1>   0.0800 
 27 H       -9.9700     3.4020    -0.5550 H     1 <1>   0.4500 
 28 H      -10.1790     2.6840     0.8980 H     1 <1>   0.4500 
 29 H      -12.3230     1.7620     0.2010 H     1 <1>   0.0800 
 30 H      -12.1000     2.5320    -1.3560 H     1 <1>   0.0800 
 31 H      -11.9940     4.7420    -0.2490 H     1 <1>   0.0800 
 32 H      -12.2170     3.9720     1.3090 H     1 <1>   0.0800 
 33 H      -14.4270     3.1290     0.5720 H     1 <1>   0.0800 
 34 H      -14.2060     3.8960    -0.9790 H     1 <1>   0.0800 
 35 H      -14.3290     5.3460     1.6850 H     1 <1>   0.0800 
 36 H      -15.5980     5.2880     0.4910 H     1 <1>   0.0800 
 37 H      -14.1060     6.1150     0.1290 H     1 <1>   0.0800 
@<TRIPOS>BOND
  1   1   2  1   
  2   1   3  1   
  3   2   4  ar  
  4   2   5  ar  
  5   3   6  1   
  6   3  16  1   
  7   3  17  1   
  8   4   7  ar  
  9   4  18  1   
 10   5   8  ar  
 11   5  19  1   
 12   6  20  1   
 13   6  21  1   
 14   6  22  1   
 15   7   9  ar  
 16   7  23  1   
 17   8   9  ar  
 18   8  24  1   
 19   9  10  1   
 20  10  11  1   
 21  10  25  1   
 22  10  26  1   
 23  11  12  1   
 24  11  27  1   
 25  11  28  1   
 26  12  13  1   
 27  12  29  1   
 28  12  30  1   
 29  13  14  1   
 30  13  31  1   
 31  13  32  1   
 32  14  15  1   
 33  14  33  1   
 34  14  34  1   
 35  15  35  1   
 36  15  36  1   
 37  15  37  1   
@<TRIPOS>SUBSTRUCTURE
  1 ****   9 GROUP 4 **** **** 0

# MOE 2024.06 (io_trps.svl 2023.06)
