@<TRIPOS>MOLECULE
NONAME
49 50 1 0 0 
SMALL
USER_CHARGES


@<TRIPOS>ATOM
  1 S       -0.6760     0.7720    -1.2360 S.o2  1 <1>   1.4470 
  2 O       -1.5660     1.4560    -2.1420 O.2   1 <1>  -0.6500 
  3 O        0.1160    -0.3520    -1.6800 O.2   1 <1>  -0.6500 
  4 N       -1.6730     0.2140    -0.0160 N.am  1 <1>  -0.9140 
  5 C        0.3590     1.9720    -0.3560 C.ar  1 <1>  -0.0090 
  6 C       -2.5580    -0.8660    -0.4790 C.3   1 <1>   0.3370 
  7 C        1.3700     1.5480     0.4990 C.ar  1 <1>  -0.1500 
  8 C        0.1500     3.3410    -0.4880 C.ar  1 <1>  -0.1500 
  9 C       -3.9590    -0.3230    -0.8620 C.2   1 <1>   0.5690 
 10 C       -2.5990    -2.0070     0.5740 C.3   1 <1>  -0.0800 
 11 C        2.1490     2.4560     1.1970 C.ar  1 <1>  -0.1500 
 12 C        0.9240     4.2560     0.2050 C.ar  1 <1>  -0.1500 
 13 O       -4.4680    -0.7850    -1.8580 O.2   1 <1>  -0.5700 
 14 N       -4.5940     0.6700    -0.1340 N.am  1 <1>  -0.6600 
 15 C       -1.1910    -2.5490     0.8890 C.3   1 <1>  -0.2400 
 16 C       -3.4790    -3.1810     0.1120 C.3   1 <1>  -0.2400 
 17 C        1.9250     3.8120     1.0500 C.ar  1 <1>  -0.1500 
 18 C       -4.3060     1.0900     1.2710 C.3   1 <1>   0.1400 
 19 C       -5.8210     1.3060    -0.6870 C.3   1 <1>   0.1400 
 20 C       -3.7140     2.5070     1.3650 C.3   1 <1>  -0.1600 
 21 C       -5.4640     2.5460    -1.5130 C.3   1 <1>  -0.1600 
 22 C       -4.4880     3.6180     0.6330 C.3   1 <1>  -0.1600 
 23 C       -4.4130     3.4870    -0.8970 C.3   1 <1>  -0.1600 
 24 H       -2.3280     0.9890     0.0970 H     1 <1>   0.4200 
 25 H       -2.1510    -1.3020    -1.3770 H     1 <1>   0.0800 
 26 H        1.5480     0.4920     0.6190 H     1 <1>   0.1500 
 27 H       -0.6260     3.6990    -1.1450 H     1 <1>   0.1500 
 28 H       -3.0210    -1.6290     1.4860 H     1 <1>   0.0800 
 29 H        2.9280     2.1060     1.8530 H     1 <1>   0.1500 
 30 H        0.7480     5.3110     0.0870 H     1 <1>   0.1500 
 31 H       -0.7150    -2.9040    -0.0090 H     1 <1>   0.0800 
 32 H       -0.5740    -1.7790     1.3170 H     1 <1>   0.0800 
 33 H       -1.2460    -3.3590     1.5940 H     1 <1>   0.0800 
 34 H       -3.1180    -3.5800    -0.8210 H     1 <1>   0.0800 
 35 H       -4.4990    -2.8660    -0.0260 H     1 <1>   0.0800 
 36 H       -3.4740    -3.9680     0.8450 H     1 <1>   0.0800 
 37 H        2.5300     4.5210     1.5900 H     1 <1>   0.1500 
 38 H       -3.6330     0.3990     1.7430 H     1 <1>   0.0800 
 39 H       -5.2240     1.0570     1.8330 H     1 <1>   0.0800 
 40 H       -6.4800     1.5850     0.1160 H     1 <1>   0.0800 
 41 H       -6.3580     0.6070    -1.3070 H     1 <1>   0.0800 
 42 H       -2.6960     2.5050     1.0220 H     1 <1>   0.0800 
 43 H       -3.6750     2.7650     2.4090 H     1 <1>   0.0800 
 44 H       -6.3720     3.0970    -1.6800 H     1 <1>   0.0800 
 45 H       -5.1120     2.2220    -2.4780 H     1 <1>   0.0800 
 46 H       -4.0400     4.5590     0.9040 H     1 <1>   0.0800 
 47 H       -5.5130     3.6510     0.9610 H     1 <1>   0.0800 
 48 H       -4.5410     4.4600    -1.3390 H     1 <1>   0.0800 
 49 H       -3.4310     3.1470    -1.1780 H     1 <1>   0.0800 
@<TRIPOS>BOND
  1   1   2  2   
  2   1   3  2   
  3   1   4  am  
  4   1   5  1   
  5   4   6  1   
  6   4  24  1   
  7   5   7  ar  
  8   5   8  ar  
  9   6   9  1   
 10   6  10  1   
 11   6  25  1   
 12   7  11  ar  
 13   7  26  1   
 14   8  12  ar  
 15   8  27  1   
 16   9  13  2   
 17   9  14  am  
 18  10  15  1   
 19  10  16  1   
 20  10  28  1   
 21  11  17  ar  
 22  11  29  1   
 23  12  17  ar  
 24  12  30  1   
 25  14  18  1   
 26  14  19  1   
 27  15  31  1   
 28  15  32  1   
 29  15  33  1   
 30  16  34  1   
 31  16  35  1   
 32  16  36  1   
 33  17  37  1   
 34  18  20  1   
 35  18  38  1   
 36  18  39  1   
 37  19  21  1   
 38  19  40  1   
 39  19  41  1   
 40  20  22  1   
 41  20  42  1   
 42  20  43  1   
 43  21  23  1   
 44  21  44  1   
 45  21  45  1   
 46  22  23  1   
 47  22  46  1   
 48  22  47  1   
 49  23  48  1   
 50  23  49  1   
@<TRIPOS>SUBSTRUCTURE
  1 ****   4 GROUP 4 **** **** 0

# MOE 2024.06 (io_trps.svl 2023.06)
