@<TRIPOS>MOLECULE
NONAME
43 44 1 0 0 
SMALL
USER_CHARGES


@<TRIPOS>ATOM
  1 CL      -3.7020    -3.9930     2.0910 Cl    1 <1>  -0.1770 
  2 C       -2.0820    -3.6880     1.4780 C.ar  1 <1>   0.1770 
  3 C       -0.9840    -4.2870     2.0700 C.ar  1 <1>   0.1770 
  4 C       -1.9290    -2.8440     0.3810 C.ar  1 <1>   0.1170 
  5 CL      -1.1850    -5.3470     3.4470 Cl    1 <1>  -0.1770 
  6 C        0.2910    -4.0620     1.5820 C.ar  1 <1>  -0.1500 
  7 N       -3.0600    -2.2410    -0.1910 N.am  1 <1>  -0.5470 
  8 C       -0.6420    -2.6260    -0.1050 C.ar  1 <1>  -0.1500 
  9 C        0.4570    -3.2280     0.4880 C.ar  1 <1>  -0.1500 
 10 C       -3.3550    -1.9120    -1.4810 C.2   1 <1>   0.5690 
 11 O       -2.5670    -1.9750    -2.3910 O.2   1 <1>  -0.5700 
 12 C       -4.8010    -1.4900    -1.7580 C.3   1 <1>   0.1710 
 13 N       -5.7920    -2.0920    -0.8050 N.3   1 <1>  -0.8100 
 14 C       -5.9460    -3.5500    -1.0260 C.3   1 <1>   0.1100 
 15 C       -7.0990    -1.4090    -0.8810 C.3   1 <1>   0.1100 
 16 C       -6.9260    -4.1730    -0.0100 C.3   1 <1>   0.3430 
 17 C       -8.1030    -2.0020     0.1320 C.3   1 <1>   0.3430 
 18 N       -8.2670    -3.4910    -0.0380 N.4   1 <1>  -0.9590 
 19 C       -9.1700    -4.0810     0.9870 C.3   1 <1>   0.3430 
 20 C      -10.6180    -3.6550     0.7370 C.3   1 <1>  -0.1600 
 21 C      -11.5690    -4.3490     1.7190 C.3   1 <1>  -0.2400 
 22 H        1.1370    -4.5340     2.0510 H     1 <1>   0.1500 
 23 H       -3.8880    -2.2000     0.4110 H     1 <1>   0.3700 
 24 H       -0.4970    -1.9800    -0.9540 H     1 <1>   0.1500 
 25 H        1.4440    -3.0450     0.0960 H     1 <1>   0.1500 
 26 H       -5.0500    -1.7550    -2.7710 H     1 <1>   0.0800 
 27 H       -4.8340    -0.4170    -1.6810 H     1 <1>   0.0800 
 28 H       -4.9920    -4.0380    -0.9180 H     1 <1>   0.0800 
 29 H       -6.2950    -3.7380    -2.0280 H     1 <1>   0.0800 
 30 H       -7.5010    -1.4870    -1.8780 H     1 <1>   0.0800 
 31 H       -6.9660    -0.3630    -0.6600 H     1 <1>   0.0800 
 32 H       -6.4930    -4.0850     0.9730 H     1 <1>   0.0800 
 33 H       -7.0420    -5.2210    -0.2290 H     1 <1>   0.0800 
 34 H       -9.0540    -1.5100     0.0110 H     1 <1>   0.0800 
 35 H       -7.7450    -1.7890     1.1260 H     1 <1>   0.0800 
 36 H       -8.6800    -3.6580    -0.9640 H     1 <1>   0.4500 
 37 H       -8.8620    -3.7760     1.9750 H     1 <1>   0.0800 
 38 H       -9.1160    -5.1580     0.9390 H     1 <1>   0.0800 
 39 H      -10.9090    -3.9190    -0.2650 H     1 <1>   0.0800 
 40 H      -10.7240    -2.5920     0.8610 H     1 <1>   0.0800 
 41 H      -11.5200    -5.4190     1.6100 H     1 <1>   0.0800 
 42 H      -12.5830    -4.0390     1.5290 H     1 <1>   0.0800 
 43 H      -11.3250    -4.0930     2.7360 H     1 <1>   0.0800 
@<TRIPOS>BOND
  1   1   2  1   
  2   2   3  ar  
  3   2   4  ar  
  4   3   5  1   
  5   3   6  ar  
  6   4   7  1   
  7   4   8  ar  
  8   6   9  ar  
  9   6  22  1   
 10   7  10  am  
 11   7  23  1   
 12   8   9  ar  
 13   8  24  1   
 14   9  25  1   
 15  10  11  2   
 16  10  12  1   
 17  12  13  1   
 18  12  26  1   
 19  12  27  1   
 20  13  14  1   
 21  13  15  1   
 22  14  16  1   
 23  14  28  1   
 24  14  29  1   
 25  15  17  1   
 26  15  30  1   
 27  15  31  1   
 28  16  18  1   
 29  16  32  1   
 30  16  33  1   
 31  17  18  1   
 32  17  34  1   
 33  17  35  1   
 34  18  19  1   
 35  18  36  1   
 36  19  20  1   
 37  19  37  1   
 38  19  38  1   
 39  20  21  1   
 40  20  39  1   
 41  20  40  1   
 42  21  41  1   
 43  21  42  1   
 44  21  43  1   
@<TRIPOS>SUBSTRUCTURE
  1 ****   7 GROUP 4 **** **** 0

# MOE 2024.06 (io_trps.svl 2023.06)
