@<TRIPOS>MOLECULE
NONAME
35 36 1 0 0 
SMALL
USER_CHARGES


@<TRIPOS>ATOM
  1 O       -0.2950    -0.2610     0.2230 O.3   1 <1>  -0.3630 
  2 C       -1.4770    -0.8560    -0.0640 C.ar  1 <1>   0.0830 
  3 C        0.5080    -0.6930     1.3010 C.3   1 <1>   0.0400 
  4 C       -2.0290    -1.8910     0.6850 C.ar  1 <1>  -0.1500 
  5 C       -2.1540    -0.3880    -1.1780 C.ar  1 <1>  -0.1500 
  6 C       -3.2470    -2.4380     0.3210 C.ar  1 <1>  -0.1500 
  7 C       -3.3700    -0.9350    -1.5430 C.ar  1 <1>  -0.1500 
  8 C       -3.9280    -1.9600    -0.7910 C.ar  1 <1>  -0.1430 
  9 C       -5.2720    -2.5440    -1.1800 C.3   1 <1>   0.4860 
 10 N       -6.3030    -2.0420    -0.2310 N.4   1 <1>  -0.9590 
 11 C       -7.6000    -2.7560    -0.4060 C.3   1 <1>   0.3430 
 12 C       -6.4580    -0.5590    -0.3170 C.3   1 <1>   0.3430 
 13 C       -8.5820    -2.3130     0.6800 C.3   1 <1>  -0.1600 
 14 C       -7.4220    -0.0770     0.7680 C.3   1 <1>  -0.1600 
 15 C       -8.7770    -0.7920     0.6850 C.3   1 <1>  -0.1600 
 16 H        1.3970    -0.0890     1.3170 H     1 <1>   0.0800 
 17 H        0.7710    -1.7250     1.1490 H     1 <1>   0.0800 
 18 H       -0.0390    -0.5630     2.2180 H     1 <1>   0.0800 
 19 H       -1.5220    -2.2780     1.5490 H     1 <1>   0.1500 
 20 H       -1.7140     0.4070    -1.7540 H     1 <1>   0.1500 
 21 H       -3.6490    -3.2420     0.9130 H     1 <1>   0.1500 
 22 H       -3.8670    -0.5510    -2.4190 H     1 <1>   0.1500 
 23 H       -5.2160    -3.6190    -1.1330 H     1 <1>   0.0800 
 24 H       -5.5210    -2.2580    -2.1880 H     1 <1>   0.0800 
 25 H       -5.9530    -2.2390     0.7140 H     1 <1>   0.4500 
 26 H       -7.4510    -3.8220    -0.3410 H     1 <1>   0.0800 
 27 H       -8.0130    -2.5290    -1.3760 H     1 <1>   0.0800 
 28 H       -6.8410    -0.2860    -1.2870 H     1 <1>   0.0800 
 29 H       -5.5020    -0.0760    -0.1810 H     1 <1>   0.0800 
 30 H       -8.2250    -2.6410     1.6410 H     1 <1>   0.0800 
 31 H       -9.5320    -2.7920     0.5120 H     1 <1>   0.0800 
 32 H       -7.5720     0.9830     0.6590 H     1 <1>   0.0800 
 33 H       -6.9790    -0.2390     1.7350 H     1 <1>   0.0800 
 34 H       -9.3940    -0.5040     1.5220 H     1 <1>   0.0800 
 35 H       -9.2880    -0.4910    -0.2150 H     1 <1>   0.0800 
@<TRIPOS>BOND
  1   1   2  1   
  2   1   3  1   
  3   2   4  ar  
  4   2   5  ar  
  5   3  16  1   
  6   3  17  1   
  7   3  18  1   
  8   4   6  ar  
  9   4  19  1   
 10   5   7  ar  
 11   5  20  1   
 12   6   8  ar  
 13   6  21  1   
 14   7   8  ar  
 15   7  22  1   
 16   8   9  1   
 17   9  10  1   
 18   9  23  1   
 19   9  24  1   
 20  10  11  1   
 21  10  12  1   
 22  10  25  1   
 23  11  13  1   
 24  11  26  1   
 25  11  27  1   
 26  12  14  1   
 27  12  28  1   
 28  12  29  1   
 29  13  15  1   
 30  13  30  1   
 31  13  31  1   
 32  14  15  1   
 33  14  32  1   
 34  14  33  1   
 35  15  34  1   
 36  15  35  1   
@<TRIPOS>SUBSTRUCTURE
  1 ****   8 GROUP 4 **** **** 0

# MOE 2024.06 (io_trps.svl 2023.06)
