@<TRIPOS>MOLECULE
NONAME
48 50 1 0 0 
SMALL
USER_CHARGES


@<TRIPOS>ATOM
  1 O       -0.3750    -2.3530     3.4330 O.2   1 <1>  -0.5700 
  2 C        0.1100    -2.0240     2.3790 C.2   1 <1>   0.5690 
  3 N       -0.5980    -1.4660     1.3490 N.am  1 <1>  -0.5470 
  4 C        1.6030    -2.2420     2.1880 C.3   1 <1>   0.0450 
  5 C       -1.9560    -1.1400     1.1900 C.ar  1 <1>   0.1170 
  6 C        2.1290    -1.6440     0.8850 C.ar  1 <1>  -0.1430 
  7 C       -2.3220    -0.3760     0.0880 C.ar  1 <1>  -0.1500 
  8 C       -2.9540    -1.5480     2.0700 C.ar  1 <1>  -0.1500 
  9 C        2.1560    -2.4060    -0.2730 C.ar  1 <1>  -0.1500 
 10 C        2.5600    -0.3270     0.8450 C.ar  1 <1>  -0.1500 
 11 C       -3.6410    -0.0210    -0.1330 C.ar  1 <1>  -0.1500 
 12 C       -4.2740    -1.1960     1.8550 C.ar  1 <1>  -0.1500 
 13 C        2.6040    -1.8520    -1.4590 C.ar  1 <1>  -0.1500 
 14 C        3.0110     0.2280    -0.3400 C.ar  1 <1>  -0.1500 
 15 C       -4.6290    -0.4300     0.7570 C.ar  1 <1>   0.0830 
 16 C        3.0330    -0.5360    -1.5030 C.ar  1 <1>   0.0830 
 17 O       -5.9470    -0.1250     0.6250 O.3   1 <1>  -0.3630 
 18 O        3.4550    -0.0710    -2.7050 O.3   1 <1>  -0.3630 
 19 C       -6.4010     0.7010    -0.4290 C.3   1 <1>   0.1200 
 20 C        3.9830     1.2290    -2.8450 C.3   1 <1>   0.0400 
 21 C       -7.9170     0.9070    -0.3230 C.3   1 <1>   0.2000 
 22 O       -8.5990    -0.2670    -0.6200 O.3   1 <1>  -0.5600 
 23 C       -8.4720     1.9130    -1.3220 C.3   1 <1>  -0.1600 
 24 C       -9.9120     0.0190    -0.9780 C.3   1 <1>   0.1200 
 25 C       -9.9080     1.4510    -1.5090 C.3   1 <1>  -0.1600 
 26 H       -0.0100    -1.2180     0.5510 H     1 <1>   0.3700 
 27 H        1.7950    -3.2990     2.2100 H     1 <1>   0.0800 
 28 H        2.1180    -1.8040     3.0230 H     1 <1>   0.0800 
 29 H       -1.5680    -0.0530    -0.6070 H     1 <1>   0.1500 
 30 H       -2.7110    -2.1450     2.9290 H     1 <1>   0.1500 
 31 H        1.8260    -3.4310    -0.2620 H     1 <1>   0.1500 
 32 H        2.5450     0.2760     1.7370 H     1 <1>   0.1500 
 33 H       -3.8790     0.5680    -0.9980 H     1 <1>   0.1500 
 34 H       -5.0400    -1.5150     2.5390 H     1 <1>   0.1500 
 35 H        2.6270    -2.4380    -2.3600 H     1 <1>   0.1500 
 36 H        3.3380     1.2500    -0.3390 H     1 <1>   0.1500 
 37 H       -6.1570     0.2330    -1.3660 H     1 <1>   0.0800 
 38 H       -5.8970     1.6470    -0.3450 H     1 <1>   0.0800 
 39 H        4.2770     1.3610    -3.8710 H     1 <1>   0.0800 
 40 H        4.8410     1.3280    -2.2040 H     1 <1>   0.0800 
 41 H        3.2230     1.9450    -2.5880 H     1 <1>   0.0800 
 42 H       -8.1820     1.1990     0.6800 H     1 <1>   0.0800 
 43 H       -7.9370     1.8350    -2.2530 H     1 <1>   0.0800 
 44 H       -8.4050     2.9210    -0.9540 H     1 <1>   0.0800 
 45 H      -10.5270    -0.0740    -0.1000 H     1 <1>   0.0800 
 46 H      -10.2240    -0.6920    -1.7240 H     1 <1>   0.0800 
 47 H      -10.2050     1.4830    -2.5430 H     1 <1>   0.0800 
 48 H      -10.5880     2.0510    -0.9300 H     1 <1>   0.0800 
@<TRIPOS>BOND
  1   1   2  2   
  2   2   3  am  
  3   2   4  1   
  4   3   5  1   
  5   3  26  1   
  6   4   6  1   
  7   4  27  1   
  8   4  28  1   
  9   5   7  ar  
 10   5   8  ar  
 11   6   9  ar  
 12   6  10  ar  
 13   7  11  ar  
 14   7  29  1   
 15   8  12  ar  
 16   8  30  1   
 17   9  13  ar  
 18   9  31  1   
 19  10  14  ar  
 20  10  32  1   
 21  11  15  ar  
 22  11  33  1   
 23  12  15  ar  
 24  12  34  1   
 25  13  16  ar  
 26  13  35  1   
 27  14  16  ar  
 28  14  36  1   
 29  15  17  1   
 30  16  18  1   
 31  17  19  1   
 32  18  20  1   
 33  19  21  1   
 34  19  37  1   
 35  19  38  1   
 36  20  39  1   
 37  20  40  1   
 38  20  41  1   
 39  21  22  1   
 40  21  23  1   
 41  21  42  1   
 42  22  24  1   
 43  23  25  1   
 44  23  43  1   
 45  23  44  1   
 46  24  25  1   
 47  24  45  1   
 48  24  46  1   
 49  25  47  1   
 50  25  48  1   
@<TRIPOS>SUBSTRUCTURE
  1 ****   7 GROUP 4 **** **** 0

# MOE 2024.06 (io_trps.svl 2023.06)
