@<TRIPOS>MOLECULE
NONAME
32 33 1 0 0 
SMALL
USER_CHARGES


@<TRIPOS>ATOM
  1 O        0.5750     1.2430    -2.1580 O.2   1 <1>  -0.5700 
  2 C        0.8950     1.5690    -1.0310 C.2   1 <1>   0.5440 
  3 N       -0.0560     2.0110    -0.1550 N.am  1 <1>  -0.5790 
  4 C        2.2740     1.5010    -0.5900 C.ar  1 <1>   0.0860 
  5 C       -1.4930     2.1430    -0.4280 C.3   1 <1>   0.0490 
  6 C        3.1300     2.5980    -0.7410 C.ar  1 <1>  -0.1440 
  7 C        2.7770     0.3430     0.0160 C.ar  1 <1>  -0.1430 
  8 C       -2.2280     3.2720     0.2160 C.3   1 <1>  -0.2000 
  9 C       -2.4470     1.8650     0.6850 C.3   1 <1>  -0.2000 
 10 C        4.4350     2.5380    -0.2820 C.ar  1 <1>  -0.1500 
 11 C        2.6410     3.8730    -1.4190 C.3   1 <1>  -0.0970 
 12 C        4.0840     0.3000     0.4690 C.ar  1 <1>  -0.1500 
 13 C        1.8950    -0.8890     0.1800 C.3   1 <1>  -0.0970 
 14 C        4.9180     1.3950     0.3280 C.ar  1 <1>  -0.1430 
 15 C        6.3510     1.3370     0.8270 C.3   1 <1>  -0.0970 
 16 H        0.2390     2.2780     0.7830 H     1 <1>   0.3700 
 17 H       -1.7670     1.8510    -1.4310 H     1 <1>   0.1000 
 18 H       -3.0160     3.7530    -0.3370 H     1 <1>   0.1000 
 19 H       -1.6830     3.9560     0.8420 H     1 <1>   0.1000 
 20 H       -2.0560     1.5630     1.6410 H     1 <1>   0.1000 
 21 H       -3.3840     1.3910     0.4520 H     1 <1>   0.1000 
 22 H        5.0860     3.3860    -0.4010 H     1 <1>   0.1500 
 23 H        3.4360     4.5910    -1.5160 H     1 <1>   0.0800 
 24 H        2.2720     3.6450    -2.4040 H     1 <1>   0.0800 
 25 H        1.8480     4.3180    -0.8460 H     1 <1>   0.0800 
 26 H        4.4620    -0.5930     0.9350 H     1 <1>   0.1500 
 27 H        1.0660    -0.6700     0.8290 H     1 <1>   0.0800 
 28 H        2.4480    -1.7100     0.5990 H     1 <1>   0.0800 
 29 H        1.5120    -1.1950    -0.7780 H     1 <1>   0.0800 
 30 H        6.6840     2.3140     1.1270 H     1 <1>   0.0800 
 31 H        6.9930     0.9770     0.0430 H     1 <1>   0.0800 
 32 H        6.4290     0.6780     1.6720 H     1 <1>   0.0800 
@<TRIPOS>BOND
  1   1   2  2   
  2   2   3  am  
  3   2   4  1   
  4   3   5  1   
  5   3  16  1   
  6   4   6  ar  
  7   4   7  ar  
  8   5   8  1   
  9   5   9  1   
 10   5  17  1   
 11   6  10  ar  
 12   6  11  1   
 13   7  12  ar  
 14   7  13  1   
 15   8   9  1   
 16   8  18  1   
 17   8  19  1   
 18   9  20  1   
 19   9  21  1   
 20  10  14  ar  
 21  10  22  1   
 22  11  23  1   
 23  11  24  1   
 24  11  25  1   
 25  12  14  ar  
 26  12  26  1   
 27  13  27  1   
 28  13  28  1   
 29  13  29  1   
 30  14  15  1   
 31  15  30  1   
 32  15  31  1   
 33  15  32  1   
@<TRIPOS>SUBSTRUCTURE
  1 ****   4 GROUP 4 **** **** 0

# MOE 2024.06 (io_trps.svl 2023.06)
