@<TRIPOS>MOLECULE
NONAME
36 36 1 0 0 
SMALL
USER_CHARGES


@<TRIPOS>ATOM
  1 F        1.0400    -0.0440     1.9510 F     1 <1>  -0.1500 
  2 C        1.8450    -0.8590     1.3020 C.2   1 <1>   0.1640 
  3 C        2.9540    -0.2910     0.5950 C.2   1 <1>   0.6160 
  4 C        1.6020    -2.1840     1.3200 C.2   1 <1>  -0.0410 
  5 O        3.1610     0.9120     0.5540 O.2   1 <1>  -0.5700 
  6 N        3.8060    -1.1680    -0.0620 N.am  1 <1>  -0.4200 
  7 N        2.4540    -3.0360     0.6270 N.am  1 <1>  -0.4690 
  8 C        3.5570    -2.5360    -0.0640 C.2   1 <1>   0.6900 
  9 C        5.0010    -0.6270    -0.7780 C.3   1 <1>   0.1400 
 10 C        2.1850    -4.5030     0.6380 C.3   1 <1>   0.1400 
 11 O        4.2960    -3.2980    -0.6610 O.2   1 <1>  -0.5700 
 12 C        6.1620    -0.3100     0.1880 C.3   1 <1>  -0.0800 
 13 C        1.4590    -4.9660    -0.6400 C.3   1 <1>  -0.0800 
 14 C        7.3360     0.2940    -0.5920 C.3   1 <1>  -0.2400 
 15 C        6.6440    -1.5500     0.9560 C.3   1 <1>  -0.2400 
 16 C        0.0870    -4.2970    -0.8180 C.3   1 <1>  -0.2400 
 17 C        1.2840    -6.4900    -0.6160 C.3   1 <1>  -0.2400 
 18 H        0.7670    -2.6130     1.8490 H     1 <1>   0.1500 
 19 H        4.7160     0.2720    -1.2970 H     1 <1>   0.0800 
 20 H        5.3360    -1.3280    -1.5230 H     1 <1>   0.0800 
 21 H        1.5940    -4.7520     1.5010 H     1 <1>   0.0800 
 22 H        3.1220    -5.0270     0.7260 H     1 <1>   0.0800 
 23 H        5.8240     0.4280     0.8970 H     1 <1>   0.0800 
 24 H        2.0770    -4.7200    -1.4880 H     1 <1>   0.0800 
 25 H        7.7150    -0.4080    -1.3140 H     1 <1>   0.0800 
 26 H        8.1330     0.5600     0.0800 H     1 <1>   0.0800 
 27 H        7.0230     1.1850    -1.1080 H     1 <1>   0.0800 
 28 H        6.9350    -2.3290     0.2730 H     1 <1>   0.0800 
 29 H        5.8670    -1.9290     1.5940 H     1 <1>   0.0800 
 30 H        7.4880    -1.3030     1.5760 H     1 <1>   0.0800 
 31 H       -0.5440    -4.4880     0.0320 H     1 <1>   0.0800 
 32 H       -0.4000    -4.6770    -1.6990 H     1 <1>   0.0800 
 33 H        0.1970    -3.2340    -0.9380 H     1 <1>   0.0800 
 34 H        0.6690    -6.7910     0.2140 H     1 <1>   0.0800 
 35 H        2.2410    -6.9740    -0.5310 H     1 <1>   0.0800 
 36 H        0.8200    -6.8260    -1.5270 H     1 <1>   0.0800 
@<TRIPOS>BOND
  1   1   2  1   
  2   2   3  1   
  3   2   4  2   
  4   3   5  2   
  5   3   6  am  
  6   4   7  1   
  7   4  18  1   
  8   6   8  am  
  9   6   9  1   
 10   7   8  am  
 11   7  10  1   
 12   8  11  2   
 13   9  12  1   
 14   9  19  1   
 15   9  20  1   
 16  10  13  1   
 17  10  21  1   
 18  10  22  1   
 19  12  14  1   
 20  12  15  1   
 21  12  23  1   
 22  13  16  1   
 23  13  17  1   
 24  13  24  1   
 25  14  25  1   
 26  14  26  1   
 27  14  27  1   
 28  15  28  1   
 29  15  29  1   
 30  15  30  1   
 31  16  31  1   
 32  16  32  1   
 33  16  33  1   
 34  17  34  1   
 35  17  35  1   
 36  17  36  1   
@<TRIPOS>SUBSTRUCTURE
  1 ****   8 GROUP 4 **** **** 0

# MOE 2024.06 (io_trps.svl 2023.06)
