@<TRIPOS>MOLECULE
NONAME
40 40 1 0 0 
SMALL
USER_CHARGES


@<TRIPOS>ATOM
  1 O        1.1260     1.7630     0.0340 O.3   1 <1>  -0.5600 
  2 C        1.5480     0.9200     1.0740 C.3   1 <1>   0.4800 
  3 C       -0.2420     1.8620    -0.2450 C.3   1 <1>   0.1200 
  4 C        3.0260     1.1220     1.1490 C.1   1 <1>  -0.2000 
  5 C        1.2330    -0.5610     0.7620 C.3   1 <1>  -0.1600 
  6 C        0.9300     1.3690     2.4030 C.3   1 <1>  -0.2400 
  7 C       -0.4070     2.7220    -1.4950 C.3   1 <1>   0.0400 
  8 C        4.1990     1.3200     1.1580 C.1   1 <1>  -0.2000 
  9 C        1.7060    -1.0580    -0.6180 C.3   1 <1>  -0.2400 
 10 C       -1.8470     2.8510    -1.8350 C.1   1 <1>   0.3570 
 11 C        5.6450     1.6430     1.0640 C.3   1 <1>   0.5430 
 12 N       -2.9540     2.9380    -2.0780 N.1   1 <1>  -0.5570 
 13 N        5.8500     2.3010    -0.2480 N.4   1 <1>  -0.9590 
 14 C        7.2670     2.5260    -0.6070 C.3   1 <1>   0.3430 
 15 C        5.1700     3.6150    -0.3620 C.3   1 <1>   0.3430 
 16 C        7.2090     3.5810    -1.7040 C.3   1 <1>  -0.1600 
 17 C        5.8630     4.2950    -1.5360 C.3   1 <1>  -0.1600 
 18 H       -0.7420     2.3250     0.5880 H     1 <1>   0.0800 
 19 H       -0.6490     0.8820    -0.4200 H     1 <1>   0.0800 
 20 H        0.1760    -0.7320     0.8550 H     1 <1>   0.0800 
 21 H        1.7010    -1.1680     1.5170 H     1 <1>   0.0800 
 22 H        1.3860     0.8300     3.2140 H     1 <1>   0.0800 
 23 H       -0.1240     1.1650     2.4320 H     1 <1>   0.0800 
 24 H        1.1000     2.4190     2.5570 H     1 <1>   0.0800 
 25 H        0.1030     2.2660    -2.3220 H     1 <1>   0.0800 
 26 H       -0.0030     3.7020    -1.3210 H     1 <1>   0.0800 
 27 H        1.2450    -0.4910    -1.4070 H     1 <1>   0.0800 
 28 H        1.4400    -2.0930    -0.7450 H     1 <1>   0.0800 
 29 H        2.7730    -0.9700    -0.7100 H     1 <1>   0.0800 
 30 H        6.2220     0.7340     1.1230 H     1 <1>   0.0800 
 31 H        5.9350     2.2980     1.8690 H     1 <1>   0.0800 
 32 H        5.4210     1.6880    -0.9530 H     1 <1>   0.4500 
 33 H        7.7440     1.6210    -0.9470 H     1 <1>   0.0800 
 34 H        7.8030     2.9210     0.2420 H     1 <1>   0.0800 
 35 H        5.3300     4.1910     0.5350 H     1 <1>   0.0800 
 36 H        4.1100     3.5010    -0.5300 H     1 <1>   0.0800 
 37 H        7.2630     3.1050    -2.6680 H     1 <1>   0.0800 
 38 H        8.0370     4.2630    -1.6150 H     1 <1>   0.0800 
 39 H        5.9900     5.3450    -1.3370 H     1 <1>   0.0800 
 40 H        5.2650     4.1860    -2.4240 H     1 <1>   0.0800 
@<TRIPOS>BOND
  1   1   2  1   
  2   1   3  1   
  3   2   4  1   
  4   2   5  1   
  5   2   6  1   
  6   3   7  1   
  7   3  18  1   
  8   3  19  1   
  9   4   8  3   
 10   5   9  1   
 11   5  20  1   
 12   5  21  1   
 13   6  22  1   
 14   6  23  1   
 15   6  24  1   
 16   7  10  1   
 17   7  25  1   
 18   7  26  1   
 19   8  11  1   
 20   9  27  1   
 21   9  28  1   
 22   9  29  1   
 23  10  12  3   
 24  11  13  1   
 25  11  30  1   
 26  11  31  1   
 27  13  14  1   
 28  13  15  1   
 29  13  32  1   
 30  14  16  1   
 31  14  33  1   
 32  14  34  1   
 33  15  17  1   
 34  15  35  1   
 35  15  36  1   
 36  16  17  1   
 37  16  37  1   
 38  16  38  1   
 39  17  39  1   
 40  17  40  1   
@<TRIPOS>SUBSTRUCTURE
  1 ****   1 GROUP 4 **** **** 0

# MOE 2024.06 (io_trps.svl 2023.06)
