@<TRIPOS>MOLECULE
NONAME
42 43 1 0 0 
SMALL
USER_CHARGES


@<TRIPOS>ATOM
  1 CL       1.1730     0.5000     1.0060 Cl    1 <1>  -0.1770 
  2 C        0.9260    -1.1710     0.5400 C.ar  1 <1>   0.1770 
  3 C        2.0120    -1.9790     0.2210 C.ar  1 <1>   0.0820 
  4 C       -0.3670    -1.6550     0.5020 C.ar  1 <1>  -0.1500 
  5 O        3.2570    -1.4350     0.2830 O.3   1 <1>  -0.3630 
  6 C        1.7710    -3.3020    -0.1450 C.ar  1 <1>  -0.1500 
  7 C       -0.5910    -2.9710     0.1370 C.ar  1 <1>  -0.1500 
  8 C        4.4110    -2.1810    -0.0130 C.3   1 <1>   0.1200 
  9 C        0.4750    -3.7960    -0.1880 C.ar  1 <1>  -0.1440 
 10 C        5.6110    -1.2490     0.1660 C.3   1 <1>  -0.1600 
 11 C        0.2230    -5.2400    -0.5860 C.3   1 <1>  -0.0970 
 12 C        6.9420    -1.9590    -0.1210 C.3   1 <1>  -0.1600 
 13 C        8.1100    -0.9870     0.0580 C.3   1 <1>   0.3430 
 14 N        9.3950    -1.6360    -0.3160 N.4   1 <1>  -0.9590 
 15 C        9.8340    -2.7320     0.6170 C.3   1 <1>   0.3430 
 16 C       10.5060    -0.6410    -0.5000 C.3   1 <1>   0.3430 
 17 C       11.2130    -3.3060     0.2140 C.3   1 <1>   0.1200 
 18 C       11.8230    -1.3360    -0.9220 C.3   1 <1>   0.1200 
 19 O       11.6710    -2.7290    -0.9790 O.3   1 <1>  -0.5600 
 20 H       -1.1860    -1.0060     0.7550 H     1 <1>   0.1500 
 21 H        2.5780    -3.9610    -0.3980 H     1 <1>   0.1500 
 22 H       -1.5990    -3.3490     0.1080 H     1 <1>   0.1500 
 23 H        4.3380    -2.5290    -1.0300 H     1 <1>   0.0800 
 24 H        4.4600    -3.0130     0.6680 H     1 <1>   0.0800 
 25 H        5.6060    -0.8800     1.1780 H     1 <1>   0.0800 
 26 H        5.4930    -0.4130    -0.5030 H     1 <1>   0.0800 
 27 H        0.9410    -5.5590    -1.3200 H     1 <1>   0.0800 
 28 H       -0.7600    -5.3500    -1.0070 H     1 <1>   0.0800 
 29 H        0.3030    -5.8750     0.2780 H     1 <1>   0.0800 
 30 H        6.9290    -2.3270    -1.1330 H     1 <1>   0.0800 
 31 H        7.0410    -2.7910     0.5540 H     1 <1>   0.0800 
 32 H        8.1500    -0.6460     1.0800 H     1 <1>   0.0800 
 33 H        7.9430    -0.1290    -0.5740 H     1 <1>   0.0800 
 34 H        9.2970    -2.0900    -1.2370 H     1 <1>   0.4500 
 35 H        9.1120    -3.5320     0.6110 H     1 <1>   0.0800 
 36 H        9.8930    -2.3580     1.6260 H     1 <1>   0.0800 
 37 H       10.6750    -0.1050     0.4190 H     1 <1>   0.0800 
 38 H       10.2360     0.0820    -1.2530 H     1 <1>   0.0800 
 39 H       11.1420    -4.3690     0.0600 H     1 <1>   0.0800 
 40 H       11.9420    -3.1270     0.9860 H     1 <1>   0.0800 
 41 H       12.6160    -1.1030    -0.2310 H     1 <1>   0.0800 
 42 H       12.1220    -1.0010    -1.9000 H     1 <1>   0.0800 
@<TRIPOS>BOND
  1   1   2  1   
  2   2   3  ar  
  3   2   4  ar  
  4   3   5  1   
  5   3   6  ar  
  6   4   7  ar  
  7   4  20  1   
  8   5   8  1   
  9   6   9  ar  
 10   6  21  1   
 11   7   9  ar  
 12   7  22  1   
 13   8  10  1   
 14   8  23  1   
 15   8  24  1   
 16   9  11  1   
 17  10  12  1   
 18  10  25  1   
 19  10  26  1   
 20  11  27  1   
 21  11  28  1   
 22  11  29  1   
 23  12  13  1   
 24  12  30  1   
 25  12  31  1   
 26  13  14  1   
 27  13  32  1   
 28  13  33  1   
 29  14  15  1   
 30  14  16  1   
 31  14  34  1   
 32  15  17  1   
 33  15  35  1   
 34  15  36  1   
 35  16  18  1   
 36  16  37  1   
 37  16  38  1   
 38  17  19  1   
 39  17  39  1   
 40  17  40  1   
 41  18  19  1   
 42  18  41  1   
 43  18  42  1   
@<TRIPOS>SUBSTRUCTURE
  1 ****   8 GROUP 4 **** **** 0

# MOE 2024.06 (io_trps.svl 2023.06)
