@<TRIPOS>MOLECULE
NONAME
51 53 1 0 0 
SMALL
USER_CHARGES


@<TRIPOS>ATOM
  1 O       -0.5220     0.5800     0.6420 O.2   1 <1>  -0.5700 
  2 C       -0.4000     1.4560    -0.1910 C.2   1 <1>   0.6160 
  3 N       -1.5090     1.9440    -0.8160 N.am  1 <1>  -0.7300 
  4 C        0.8870     1.9940    -0.5130 C.2   1 <1>  -0.1360 
  5 C       -2.9110     1.5420    -0.5130 C.3   1 <1>   0.1400 
  6 C        2.0730     1.6540     0.0440 C.2   1 <1>  -0.1050 
  7 C       -3.7550     2.6280     0.2040 C.3   1 <1>   0.1430 
  8 C        3.3590     2.1910    -0.2750 C.2   1 <1>   0.0950 
  9 C       -5.1510     2.0080     0.4090 C.ar  1 <1>  -0.1430 
 10 C       -3.1200     3.0760     1.5340 C.3   1 <1>  -0.1600 
 11 C       -3.8090     3.9510    -0.5880 C.3   1 <1>  -0.1600 
 12 O        4.4270     1.7520     0.3750 O.3   1 <1>  -0.2800 
 13 C        3.7550     3.1340    -1.1740 C.2   1 <1>  -0.1500 
 14 C       -6.1670     2.1870    -0.5250 C.ar  1 <1>  -0.1500 
 15 C       -5.4180     1.2180     1.5240 C.ar  1 <1>  -0.1500 
 16 C       -2.2060     4.2700     1.2370 C.3   1 <1>  -0.1600 
 17 C       -2.6350     4.8190    -0.1250 C.3   1 <1>  -0.1600 
 18 C        5.4870     2.3810    -0.0790 C.2   1 <1>  -0.0100 
 19 C        5.1380     3.2560    -1.0460 C.2   1 <1>  -0.1500 
 20 C       -7.4190     1.6220    -0.3450 C.ar  1 <1>   0.0830 
 21 C       -6.6600     0.6350     1.7060 C.ar  1 <1>  -0.1500 
 22 O       -8.3610     1.8850    -1.2840 O.3   1 <1>  -0.3630 
 23 C       -7.6630     0.8190     0.7720 C.ar  1 <1>   0.0830 
 24 C       -9.4700     2.6460    -0.8580 C.3   1 <1>   0.0400 
 25 O       -8.8460     0.1930     0.9890 O.3   1 <1>  -0.3630 
 26 C       -9.1890    -0.8250     0.0750 C.3   1 <1>   0.0400 
 27 H       -1.4220     2.7610    -1.4170 H     1 <1>   0.3700 
 28 H        0.8660     2.7410    -1.2790 H     1 <1>   0.1500 
 29 H       -3.3950     1.2790    -1.4370 H     1 <1>   0.0800 
 30 H       -2.9020     0.6560     0.0990 H     1 <1>   0.0800 
 31 H        2.0930     0.9010     0.8140 H     1 <1>   0.1500 
 32 H       -3.8970     3.4130     2.1990 H     1 <1>   0.0800 
 33 H       -2.5790     2.2780     2.0140 H     1 <1>   0.0800 
 34 H       -3.7970     3.7930    -1.6520 H     1 <1>   0.0800 
 35 H       -4.7150     4.4730    -0.3300 H     1 <1>   0.0800 
 36 H        3.1450     3.6900    -1.8610 H     1 <1>   0.1500 
 37 H       -6.0130     2.7700    -1.4130 H     1 <1>   0.1500 
 38 H       -4.6570     1.0380     2.2630 H     1 <1>   0.1500 
 39 H       -2.3000     5.0180     2.0060 H     1 <1>   0.0800 
 40 H       -1.1800     3.9480     1.1990 H     1 <1>   0.0800 
 41 H       -1.8180     4.7500    -0.8200 H     1 <1>   0.0800 
 42 H       -2.9330     5.8510    -0.0490 H     1 <1>   0.0800 
 43 H        6.4510     2.1480     0.3390 H     1 <1>   0.1500 
 44 H        5.7690     3.9180    -1.6120 H     1 <1>   0.1500 
 45 H       -6.8530     0.0270     2.5710 H     1 <1>   0.1500 
 46 H       -9.1150     3.5540    -0.4040 H     1 <1>   0.0800 
 47 H      -10.0440     2.0760    -0.1500 H     1 <1>   0.0800 
 48 H      -10.0720     2.8740    -1.7180 H     1 <1>   0.0800 
 49 H      -10.0930    -1.2940     0.4180 H     1 <1>   0.0800 
 50 H       -8.3900    -1.5430     0.0400 H     1 <1>   0.0800 
 51 H       -9.3460    -0.3930    -0.8970 H     1 <1>   0.0800 
@<TRIPOS>BOND
  1   1   2  2   
  2   2   3  am  
  3   2   4  1   
  4   3   5  1   
  5   3  27  1   
  6   4   6  2   
  7   4  28  1   
  8   5   7  1   
  9   5  29  1   
 10   5  30  1   
 11   6   8  1   
 12   6  31  1   
 13   7   9  1   
 14   7  10  1   
 15   7  11  1   
 16   8  12  1   
 17   8  13  2   
 18   9  14  ar  
 19   9  15  ar  
 20  10  16  1   
 21  10  32  1   
 22  10  33  1   
 23  11  17  1   
 24  11  34  1   
 25  11  35  1   
 26  12  18  1   
 27  13  19  1   
 28  13  36  1   
 29  14  20  ar  
 30  14  37  1   
 31  15  21  ar  
 32  15  38  1   
 33  16  17  1   
 34  16  39  1   
 35  16  40  1   
 36  17  41  1   
 37  17  42  1   
 38  18  19  2   
 39  18  43  1   
 40  19  44  1   
 41  20  22  1   
 42  20  23  ar  
 43  21  23  ar  
 44  21  45  1   
 45  22  24  1   
 46  23  25  1   
 47  24  46  1   
 48  24  47  1   
 49  24  48  1   
 50  25  26  1   
 51  26  49  1   
 52  26  50  1   
 53  26  51  1   
@<TRIPOS>SUBSTRUCTURE
  1 ****   5 GROUP 4 **** **** 0

# MOE 2024.06 (io_trps.svl 2023.06)
