@<TRIPOS>MOLECULE
NONAME
26 26 1 0 0 
SMALL
USER_CHARGES


@<TRIPOS>ATOM
  1 CL      -0.2650     0.7670    -0.5480 Cl    1 <1>  -0.1770 
  2 C       -1.9440     0.3230    -0.3660 C.ar  1 <1>   0.1770 
  3 C       -2.9090     1.0210    -1.0660 C.ar  1 <1>  -0.1500 
  4 C       -2.2800    -0.7190     0.4760 C.ar  1 <1>  -0.1500 
  5 C       -4.2440     0.6750    -0.9270 C.ar  1 <1>  -0.1440 
  6 C       -3.6110    -1.0700     0.6200 C.ar  1 <1>  -0.1500 
  7 C       -4.5990    -0.3760    -0.0800 C.ar  1 <1>   0.0830 
  8 C       -5.3050     1.4460    -1.7000 C.3   1 <1>  -0.0960 
  9 O       -5.9210    -0.6760     0.0220 O.3   1 <1>  -0.3630 
 10 C       -6.3830    -1.7310     0.8590 C.3   1 <1>   0.1810 
 11 C       -7.9000    -1.8710     0.8020 C.2   1 <1>   0.5690 
 12 O       -8.4210    -2.7330     1.4690 O.2   1 <1>  -0.5700 
 13 N       -8.6250    -1.0330     0.0110 N.am  1 <1>  -0.7300 
 14 C      -10.0990    -1.0440    -0.1500 C.3   1 <1>   0.0600 
 15 H       -2.6070     1.8260    -1.7110 H     1 <1>   0.1500 
 16 H       -1.5080    -1.2440     1.0080 H     1 <1>   0.1500 
 17 H       -3.8520    -1.8830     1.2780 H     1 <1>   0.1500 
 18 H       -4.8630     2.2190    -2.3020 H     1 <1>   0.0800 
 19 H       -5.9970     1.9000    -1.0140 H     1 <1>   0.0800 
 20 H       -5.8440     0.7760    -2.3450 H     1 <1>   0.0800 
 21 H       -6.0880    -1.5180     1.8690 H     1 <1>   0.0800 
 22 H       -5.9340    -2.6490     0.5280 H     1 <1>   0.0800 
 23 H       -8.1030    -0.3300    -0.5210 H     1 <1>   0.3700 
 24 H      -10.5350    -1.8210     0.4560 H     1 <1>   0.0800 
 25 H      -10.3520    -1.2240    -1.1800 H     1 <1>   0.0800 
 26 H      -10.5060    -0.0960     0.1570 H     1 <1>   0.0800 
@<TRIPOS>BOND
  1   1   2  1   
  2   2   3  ar  
  3   2   4  ar  
  4   3   5  ar  
  5   3  15  1   
  6   4   6  ar  
  7   4  16  1   
  8   5   7  ar  
  9   5   8  1   
 10   6   7  ar  
 11   6  17  1   
 12   7   9  1   
 13   8  18  1   
 14   8  19  1   
 15   8  20  1   
 16   9  10  1   
 17  10  11  1   
 18  10  21  1   
 19  10  22  1   
 20  11  12  2   
 21  11  13  am  
 22  13  14  1   
 23  13  23  1   
 24  14  24  1   
 25  14  25  1   
 26  14  26  1   
@<TRIPOS>SUBSTRUCTURE
  1 ****   7 GROUP 4 **** **** 0

# MOE 2024.06 (io_trps.svl 2023.06)
