@<TRIPOS>MOLECULE
NONAME
50 52 1 0 0 
SMALL
USER_CHARGES


@<TRIPOS>ATOM
  1 F       -0.8610    -0.1040     0.8220 F     1 <1>  -0.1900 
  2 C       -1.0120    -1.3420     0.4390 C.ar  1 <1>   0.1900 
  3 C       -0.1330    -2.2940     0.9170 C.ar  1 <1>  -0.1500 
  4 C       -2.0400    -1.6520    -0.4290 C.ar  1 <1>  -0.1500 
  5 C       -0.2810    -3.6120     0.5060 C.ar  1 <1>  -0.1440 
  6 C       -2.1900    -2.9690    -0.8290 C.ar  1 <1>  -0.1500 
  7 C       -1.3170    -3.9410    -0.3640 C.ar  1 <1>  -0.1500 
  8 C        0.6780    -4.6790     0.9990 C.3   1 <1>   0.4870 
  9 N        1.6340    -5.0000    -0.0940 N.4   1 <1>  -0.9590 
 10 C        2.4550    -6.2160     0.2570 C.3   1 <1>   0.3430 
 11 C        2.5090    -3.8110    -0.4180 C.3   1 <1>   0.3430 
 12 C        3.5230    -6.5250    -0.8110 C.3   1 <1>   0.1400 
 13 C        3.5770    -4.1360    -1.4840 C.3   1 <1>   0.1400 
 14 N        4.3670    -5.3210    -1.0570 N.am  1 <1>  -0.6600 
 15 C        5.3960    -5.0910    -0.1960 C.2   1 <1>   0.6900 
 16 O        5.2730    -5.3950     0.9760 O.2   1 <1>  -0.5700 
 17 N        6.4990    -4.4770    -0.6640 N.am  1 <1>  -0.7300 
 18 C        7.7120    -4.1950     0.1210 C.3   1 <1>   0.2200 
 19 C        8.0880    -2.7210    -0.0630 C.3   1 <1>  -0.1600 
 20 C        8.8380    -5.1190    -0.3550 C.3   1 <1>  -0.1600 
 21 C        9.4070    -2.3930     0.6520 C.3   1 <1>  -0.1600 
 22 C       10.1590    -4.7960     0.3600 C.3   1 <1>  -0.1600 
 23 C       10.5380    -3.3200     0.1840 C.3   1 <1>  -0.1600 
 24 H        0.6420    -1.9880     1.5980 H     1 <1>   0.1500 
 25 H       -2.7060    -0.8820    -0.7770 H     1 <1>   0.1500 
 26 H       -2.9910    -3.2340    -1.5010 H     1 <1>   0.1500 
 27 H       -1.4660    -4.9580    -0.6860 H     1 <1>   0.1500 
 28 H        0.1180    -5.5580     1.2750 H     1 <1>   0.0800 
 29 H        1.2100    -4.3270     1.8690 H     1 <1>   0.0800 
 30 H        1.0770    -5.2060    -0.9310 H     1 <1>   0.4500 
 31 H        1.8150    -7.0740     0.3750 H     1 <1>   0.0800 
 32 H        2.9640    -6.0510     1.1940 H     1 <1>   0.0800 
 33 H        3.0190    -3.4860     0.4750 H     1 <1>   0.0800 
 34 H        1.9010    -2.9910    -0.7680 H     1 <1>   0.0800 
 35 H        3.0580    -6.8370    -1.7300 H     1 <1>   0.0800 
 36 H        4.1470    -7.3330    -0.4660 H     1 <1>   0.0800 
 37 H        4.2290    -3.2860    -1.6040 H     1 <1>   0.0800 
 38 H        3.1110    -4.3310    -2.4340 H     1 <1>   0.0800 
 39 H        6.6170    -4.4330    -1.6730 H     1 <1>   0.3700 
 40 H        7.5230    -4.3810     1.1660 H     1 <1>   0.0800 
 41 H        7.3060    -2.1010     0.3370 H     1 <1>   0.0800 
 42 H        8.1970    -2.5040    -1.1110 H     1 <1>   0.0800 
 43 H        8.9780    -5.0040    -1.4150 H     1 <1>   0.0800 
 44 H        8.5680    -6.1410    -0.1530 H     1 <1>   0.0800 
 45 H        9.2740    -2.5040     1.7150 H     1 <1>   0.0800 
 46 H        9.6770    -1.3690     0.4600 H     1 <1>   0.0800 
 47 H       10.9440    -5.4200    -0.0320 H     1 <1>   0.0800 
 48 H       10.0580    -5.0150     1.4090 H     1 <1>   0.0800 
 49 H       11.4320    -3.1090     0.7450 H     1 <1>   0.0800 
 50 H       10.7500    -3.1270    -0.8550 H     1 <1>   0.0800 
@<TRIPOS>BOND
  1   1   2  1   
  2   2   3  ar  
  3   2   4  ar  
  4   3   5  ar  
  5   3  24  1   
  6   4   6  ar  
  7   4  25  1   
  8   5   7  ar  
  9   5   8  1   
 10   6   7  ar  
 11   6  26  1   
 12   7  27  1   
 13   8   9  1   
 14   8  28  1   
 15   8  29  1   
 16   9  10  1   
 17   9  11  1   
 18   9  30  1   
 19  10  12  1   
 20  10  31  1   
 21  10  32  1   
 22  11  13  1   
 23  11  33  1   
 24  11  34  1   
 25  12  14  1   
 26  12  35  1   
 27  12  36  1   
 28  13  14  1   
 29  13  37  1   
 30  13  38  1   
 31  14  15  am  
 32  15  16  2   
 33  15  17  am  
 34  17  18  1   
 35  17  39  1   
 36  18  19  1   
 37  18  20  1   
 38  18  40  1   
 39  19  21  1   
 40  19  41  1   
 41  19  42  1   
 42  20  22  1   
 43  20  43  1   
 44  20  44  1   
 45  21  23  1   
 46  21  45  1   
 47  21  46  1   
 48  22  23  1   
 49  22  47  1   
 50  22  48  1   
 51  23  49  1   
 52  23  50  1   
@<TRIPOS>SUBSTRUCTURE
  1 ****  11 GROUP 4 **** **** 0

# MOE 2024.06 (io_trps.svl 2023.06)
