@<TRIPOS>MOLECULE
Structure1640
26 26 1 0 0 
SMALL
USER_CHARGES


@<TRIPOS>ATOM
  1 O       -0.5140    -1.4960     1.7870 O.co2 1 <1>  -0.9000 
  2 C       -0.8790    -1.4320     0.6230 C.2   1 <1>   0.9060 
  3 O       -0.2300    -1.8750    -0.3300 O.co2 1 <1>  -0.9000 
  4 C       -2.3080    -1.1460     0.3550 C.3   1 <1>  -0.2660 
  5 C       -2.9380    -2.5170     0.4070 C.3   1 <1>   0.5660 
  6 N       -2.4010    -3.3400    -0.6770 N.4   1 <1>  -0.8530 
  7 C       -4.4490    -2.5000     0.2430 C.ar  1 <1>  -0.1440 
  8 C       -5.2350    -3.1820     1.1610 C.ar  1 <1>  -0.1500 
  9 C       -5.0670    -1.8360    -0.8090 C.ar  1 <1>  -0.1500 
 10 C       -6.6110    -3.2070     1.0260 C.ar  1 <1>  -0.1500 
 11 C       -6.4450    -1.8620    -0.9420 C.ar  1 <1>  -0.1500 
 12 C       -7.2240    -2.5480    -0.0260 C.ar  1 <1>  -0.1440 
 13 C       -8.7350    -2.5760    -0.1730 C.3   1 <1>  -0.0970 
 14 H       -2.4220    -0.6600    -0.5930 H     1 <1>   0.0800 
 15 H       -2.6950    -0.5210     1.1370 H     1 <1>   0.0800 
 16 H       -2.6820    -2.9630     1.3570 H     1 <1>   0.0800 
 17 H       -2.8530    -3.0990    -1.5550 H     1 <1>   0.4500 
 18 H       -2.4740    -4.3320    -0.4680 H     1 <1>   0.4500 
 19 H       -1.3890    -3.0680    -0.7460 H     1 <1>   0.4500 
 20 H       -4.7860    -3.7000     1.9930 H     1 <1>   0.1500 
 21 H       -4.4950    -1.2850    -1.5350 H     1 <1>   0.1500 
 22 H       -7.2080    -3.7410     1.7460 H     1 <1>   0.1500 
 23 H       -6.9120    -1.3430    -1.7610 H     1 <1>   0.1500 
 24 H       -9.0290    -3.4210    -0.7690 H     1 <1>   0.0800 
 25 H       -9.0850    -1.6780    -0.6490 H     1 <1>   0.0800 
 26 H       -9.2060    -2.6520     0.7910 H     1 <1>   0.0800 
@<TRIPOS>BOND
  1   1   2  ar  
  2   2   3  ar  
  3   2   4  1   
  4   4   5  1   
  5   4  14  1   
  6   4  15  1   
  7   5   6  1   
  8   5   7  1   
  9   5  16  1   
 10   6  17  1   
 11   6  18  1   
 12   6  19  1   
 13   7   8  ar  
 14   7   9  ar  
 15   8  10  ar  
 16   8  20  1   
 17   9  11  ar  
 18   9  21  1   
 19  10  12  ar  
 20  10  22  1   
 21  11  12  ar  
 22  11  23  1   
 23  12  13  1   
 24  13  24  1   
 25  13  25  1   
 26  13  26  1   
@<TRIPOS>SUBSTRUCTURE
  1 ****   7 GROUP 4 **** **** 0

# MOE 2024.06 (io_trps.svl 2023.06)
