@<TRIPOS>MOLECULE
NONAME
51 53 1 0 0 
SMALL
USER_CHARGES


@<TRIPOS>ATOM
  1 N       -0.2690     1.0120    -0.2520 N.3   1 <1>  -0.8100 
  2 C       -0.4740     0.1360    -1.4370 C.3   1 <1>   0.1100 
  3 C        0.8270     1.9740    -0.5070 C.3   1 <1>   0.1100 
  4 C       -1.5070     1.6940     0.1500 C.3   1 <1>   0.2480 
  5 C        0.8400    -0.5290    -1.9160 C.3   1 <1>   0.3430 
  6 C        2.1580     1.2570    -0.8480 C.3   1 <1>   0.3430 
  7 C       -2.5110     0.6540     0.5960 C.2   1 <1>  -0.2880 
  8 N        1.9650    -0.2280    -0.9730 N.4   1 <1>  -0.9590 
  9 C       -3.7100     0.4420     0.0260 C.2   1 <1>  -0.1780 
 10 C        3.1930    -1.0250    -1.2600 C.3   1 <1>   0.3430 
 11 C       -4.7130    -0.5390     0.3840 C.ar  1 <1>   0.0280 
 12 C        4.2320    -0.9210    -0.1320 C.3   1 <1>  -0.0800 
 13 C       -5.8620    -0.6730    -0.3920 C.ar  1 <1>  -0.1500 
 14 C       -4.5810    -1.3780     1.4890 C.ar  1 <1>  -0.1500 
 15 C        4.9040    -2.2920     0.0790 C.3   1 <1>  -0.0220 
 16 C        5.3070     0.1520    -0.4170 C.3   1 <1>  -0.1600 
 17 C       -6.8370    -1.6060    -0.0830 C.ar  1 <1>  -0.1500 
 18 C       -5.5510    -2.3130     1.8030 C.ar  1 <1>  -0.1500 
 19 C        6.0840    -2.1810     1.0260 C.2   1 <1>  -0.2880 
 20 C        6.2580     0.3210     0.7790 C.3   1 <1>  -0.0220 
 21 C       -6.6820    -2.4300     1.0170 C.ar  1 <1>  -0.1500 
 22 C        6.6730    -1.0250     1.3420 C.2   1 <1>  -0.2880 
 23 H       -1.1750    -0.6430    -1.1900 H     1 <1>   0.0800 
 24 H       -0.8990     0.7040    -2.2470 H     1 <1>   0.0800 
 25 H        0.5580     2.6280    -1.3190 H     1 <1>   0.0800 
 26 H        0.9800     2.5870     0.3660 H     1 <1>   0.0800 
 27 H       -1.3070     2.3580     0.9750 H     1 <1>   0.0800 
 28 H       -1.9010     2.2740    -0.6680 H     1 <1>   0.0800 
 29 H        1.0800    -0.1680    -2.9020 H     1 <1>   0.0800 
 30 H        0.6850    -1.5930    -1.9830 H     1 <1>   0.0800 
 31 H        2.8650     1.4640    -0.0630 H     1 <1>   0.0800 
 32 H        2.5560     1.6600    -1.7650 H     1 <1>   0.0800 
 33 H       -2.1460     0.0880     1.4340 H     1 <1>   0.1500 
 34 H        1.5790    -0.4970    -0.0530 H     1 <1>   0.4500 
 35 H       -4.0020     1.0550    -0.8090 H     1 <1>   0.1500 
 36 H        2.9110    -2.0600    -1.3650 H     1 <1>   0.0800 
 37 H        3.6360    -0.7110    -2.1920 H     1 <1>   0.0800 
 38 H        3.7330    -0.6750     0.7900 H     1 <1>   0.0800 
 39 H       -6.0000    -0.0410    -1.2500 H     1 <1>   0.1500 
 40 H       -3.7150    -1.3040     2.1180 H     1 <1>   0.1500 
 41 H        4.1880    -2.9820     0.4930 H     1 <1>   0.0800 
 42 H        5.2570    -2.6940    -0.8550 H     1 <1>   0.0800 
 43 H        5.8890    -0.1530    -1.2710 H     1 <1>   0.0800 
 44 H        4.8720     1.1060    -0.6460 H     1 <1>   0.0800 
 45 H       -7.7160    -1.6910    -0.6970 H     1 <1>   0.1500 
 46 H       -5.4250    -2.9500     2.6620 H     1 <1>   0.1500 
 47 H        6.4100    -3.1300     1.4220 H     1 <1>   0.1500 
 48 H        5.7780     0.8880     1.5580 H     1 <1>   0.0800 
 49 H        7.1330     0.8630     0.4630 H     1 <1>   0.0800 
 50 H       -7.4370    -3.1560     1.2600 H     1 <1>   0.1500 
 51 H        7.5010    -0.9610     2.0300 H     1 <1>   0.1500 
@<TRIPOS>BOND
  1   1   2  1   
  2   1   3  1   
  3   1   4  1   
  4   2   5  1   
  5   2  23  1   
  6   2  24  1   
  7   3   6  1   
  8   3  25  1   
  9   3  26  1   
 10   4   7  1   
 11   4  27  1   
 12   4  28  1   
 13   5   8  1   
 14   5  29  1   
 15   5  30  1   
 16   6   8  1   
 17   6  31  1   
 18   6  32  1   
 19   7   9  2   
 20   7  33  1   
 21   8  10  1   
 22   8  34  1   
 23   9  11  1   
 24   9  35  1   
 25  10  12  1   
 26  10  36  1   
 27  10  37  1   
 28  11  13  ar  
 29  11  14  ar  
 30  12  15  1   
 31  12  16  1   
 32  12  38  1   
 33  13  17  ar  
 34  13  39  1   
 35  14  18  ar  
 36  14  40  1   
 37  15  19  1   
 38  15  41  1   
 39  15  42  1   
 40  16  20  1   
 41  16  43  1   
 42  16  44  1   
 43  17  21  ar  
 44  17  45  1   
 45  18  21  ar  
 46  18  46  1   
 47  19  22  2   
 48  19  47  1   
 49  20  22  1   
 50  20  48  1   
 51  20  49  1   
 52  21  50  1   
 53  22  51  1   
@<TRIPOS>SUBSTRUCTURE
  1 ****   1 GROUP 4 **** **** 0

# MOE 2024.06 (io_trps.svl 2023.06)
