@<TRIPOS>MOLECULE
NONAME
34 34 1 0 0 
SMALL
USER_CHARGES


@<TRIPOS>ATOM
  1 O        0.2740     1.3110    -1.6930 O.2   1 <1>  -0.5700 
  2 C        0.7410     1.6750    -0.6310 C.2   1 <1>   0.5440 
  3 N       -0.0900     2.1800     0.3280 N.am  1 <1>  -0.7300 
  4 C        2.1630     1.5840    -0.3620 C.ar  1 <1>   0.0860 
  5 C       -1.5480     2.3760     0.1950 C.3   1 <1>   0.1400 
  6 C        2.7290     0.3980     0.1210 C.ar  1 <1>  -0.1430 
  7 C        3.0020     2.6880    -0.5600 C.ar  1 <1>  -0.1430 
  8 C       -1.8830     3.8340     0.5110 C.3   1 <1>  -0.1600 
  9 C        4.0810     0.3320     0.4090 C.ar  1 <1>  -0.1500 
 10 C        1.8640    -0.8390     0.3330 C.3   1 <1>  -0.0970 
 11 C        4.3530     2.6040    -0.2660 C.ar  1 <1>  -0.1500 
 12 C        2.4440     3.9950    -1.1090 C.3   1 <1>  -0.0970 
 13 C       -3.3880     4.0980     0.3930 C.3   1 <1>  -0.2400 
 14 C        4.8990     1.4310     0.2220 C.ar  1 <1>  -0.1430 
 15 C        6.3810     1.3480     0.5390 C.3   1 <1>  -0.0970 
 16 H        0.3210     2.4620     1.2190 H     1 <1>   0.3700 
 17 H       -2.0570     1.7180     0.8780 H     1 <1>   0.0800 
 18 H       -1.8630     2.1360    -0.8070 H     1 <1>   0.0800 
 19 H       -1.3590     4.4720    -0.1800 H     1 <1>   0.0800 
 20 H       -1.5610     4.0690     1.5100 H     1 <1>   0.0800 
 21 H        4.5070    -0.5840     0.7800 H     1 <1>   0.1500 
 22 H        1.1010    -0.6370     1.0630 H     1 <1>   0.0800 
 23 H        2.4520    -1.6710     0.6750 H     1 <1>   0.0800 
 24 H        1.3920    -1.1160    -0.5930 H     1 <1>   0.0800 
 25 H        4.9900     3.4570    -0.4210 H     1 <1>   0.1500 
 26 H        3.2280     4.7080    -1.2880 H     1 <1>   0.0800 
 27 H        1.9350     3.8130    -2.0400 H     1 <1>   0.0800 
 28 H        1.7460     4.4220    -0.4120 H     1 <1>   0.0800 
 29 H       -3.7280     3.8860    -0.6060 H     1 <1>   0.0800 
 30 H       -3.5990     5.1290     0.6140 H     1 <1>   0.0800 
 31 H       -3.9350     3.4810     1.0850 H     1 <1>   0.0800 
 32 H        6.5570     0.6500     1.3380 H     1 <1>   0.0800 
 33 H        6.7560     2.3100     0.8410 H     1 <1>   0.0800 
 34 H        6.9210     1.0230    -0.3320 H     1 <1>   0.0800 
@<TRIPOS>BOND
  1   1   2  2   
  2   2   3  am  
  3   2   4  1   
  4   3   5  1   
  5   3  16  1   
  6   4   6  ar  
  7   4   7  ar  
  8   5   8  1   
  9   5  17  1   
 10   5  18  1   
 11   6   9  ar  
 12   6  10  1   
 13   7  11  ar  
 14   7  12  1   
 15   8  13  1   
 16   8  19  1   
 17   8  20  1   
 18   9  14  ar  
 19   9  21  1   
 20  10  22  1   
 21  10  23  1   
 22  10  24  1   
 23  11  14  ar  
 24  11  25  1   
 25  12  26  1   
 26  12  27  1   
 27  12  28  1   
 28  13  29  1   
 29  13  30  1   
 30  13  31  1   
 31  14  15  1   
 32  15  32  1   
 33  15  33  1   
 34  15  34  1   
@<TRIPOS>SUBSTRUCTURE
  1 ****   4 GROUP 4 **** **** 0

# MOE 2024.06 (io_trps.svl 2023.06)
