@<TRIPOS>MOLECULE
NONAME
42 43 1 0 0 
SMALL
USER_CHARGES


@<TRIPOS>ATOM
  1 S       -0.3880    -0.2230     0.6580 S.3   1 <1>  -0.3320 
  2 C       -1.9440    -0.8900     0.0460 C.ar  1 <1>   0.1020 
  3 C        0.1090    -1.2540     2.1080 C.3   1 <1>  -0.0100 
  4 C       -2.5970    -1.9390     0.6710 C.ar  1 <1>  -0.1500 
  5 C       -2.4700    -0.3060    -1.0910 C.ar  1 <1>  -0.1500 
  6 C       -3.7950    -2.4000     0.1500 C.ar  1 <1>  -0.1500 
  7 C       -3.6660    -0.7700    -1.6100 C.ar  1 <1>  -0.1500 
  8 C       -4.3380    -1.8140    -0.9870 C.ar  1 <1>  -0.1430 
  9 C       -5.6620    -2.3070    -1.5360 C.3   1 <1>   0.4860 
 10 N       -6.7360    -1.7400    -0.6820 N.4   1 <1>  -0.9590 
 11 C       -8.0170    -2.4830    -0.8190 C.3   1 <1>   0.4860 
 12 C       -6.9090    -0.2660    -0.9140 C.3   1 <1>   0.3430 
 13 C       -8.9030    -2.1090     0.3500 C.ar  1 <1>  -0.1430 
 14 C       -6.8700     0.5380     0.3920 C.3   1 <1>   0.1200 
 15 C       -8.6650    -2.6500     1.6060 C.ar  1 <1>  -0.1500 
 16 C       -9.9500    -1.2150     0.1790 C.ar  1 <1>  -0.1500 
 17 O       -7.0580     1.8690     0.0650 O.3   1 <1>  -0.6800 
 18 C       -9.4570    -2.2880     2.6810 C.ar  1 <1>  -0.1500 
 19 C      -10.7410    -0.8540     1.2550 C.ar  1 <1>  -0.1500 
 20 C      -10.4930    -1.3890     2.5070 C.ar  1 <1>  -0.1500 
 21 H        1.0540    -0.8810     2.4610 H     1 <1>   0.0800 
 22 H        0.2040    -2.2720     1.7760 H     1 <1>   0.0800 
 23 H       -0.6470    -1.1530     2.8660 H     1 <1>   0.0800 
 24 H       -2.1880    -2.3980     1.5500 H     1 <1>   0.1500 
 25 H       -1.9400     0.5040    -1.5620 H     1 <1>   0.1500 
 26 H       -4.2870    -3.2210     0.6420 H     1 <1>   0.1500 
 27 H       -4.0550    -0.3040    -2.5000 H     1 <1>   0.1500 
 28 H       -5.6790    -3.3840    -1.4970 H     1 <1>   0.0800 
 29 H       -5.7860    -1.9960    -2.5610 H     1 <1>   0.0800 
 30 H       -6.4260    -1.8540     0.2890 H     1 <1>   0.4500 
 31 H       -7.8380    -3.5460    -0.7970 H     1 <1>   0.0800 
 32 H       -8.5010    -2.2350    -1.7500 H     1 <1>   0.0800 
 33 H       -7.8480    -0.0780    -1.4070 H     1 <1>   0.0800 
 34 H       -6.1190     0.1010    -1.5470 H     1 <1>   0.0800 
 35 H       -5.9110     0.4450     0.8730 H     1 <1>   0.0800 
 36 H       -7.6600     0.2460     1.0620 H     1 <1>   0.0800 
 37 H       -7.8710    -3.3590     1.7680 H     1 <1>   0.1500 
 38 H      -10.1670    -0.7860    -0.7860 H     1 <1>   0.1500 
 39 H       -7.0410     2.4410     0.8620 H     1 <1>   0.4000 
 40 H       -9.2750    -2.7080     3.6570 H     1 <1>   0.1500 
 41 H      -11.5530    -0.1590     1.1230 H     1 <1>   0.1500 
 42 H      -11.1110    -1.1090     3.3440 H     1 <1>   0.1500 
@<TRIPOS>BOND
  1   1   2  1   
  2   1   3  1   
  3   2   4  ar  
  4   2   5  ar  
  5   3  21  1   
  6   3  22  1   
  7   3  23  1   
  8   4   6  ar  
  9   4  24  1   
 10   5   7  ar  
 11   5  25  1   
 12   6   8  ar  
 13   6  26  1   
 14   7   8  ar  
 15   7  27  1   
 16   8   9  1   
 17   9  10  1   
 18   9  28  1   
 19   9  29  1   
 20  10  11  1   
 21  10  12  1   
 22  10  30  1   
 23  11  13  1   
 24  11  31  1   
 25  11  32  1   
 26  12  14  1   
 27  12  33  1   
 28  12  34  1   
 29  13  15  ar  
 30  13  16  ar  
 31  14  17  1   
 32  14  35  1   
 33  14  36  1   
 34  15  18  ar  
 35  15  37  1   
 36  16  19  ar  
 37  16  38  1   
 38  17  39  1   
 39  18  20  ar  
 40  18  40  1   
 41  19  20  ar  
 42  19  41  1   
 43  20  42  1   
@<TRIPOS>SUBSTRUCTURE
  1 ****  10 GROUP 4 **** **** 0

# MOE 2024.06 (io_trps.svl 2023.06)
