@<TRIPOS>MOLECULE
NONAME
34 35 1 0 0 
SMALL
USER_CHARGES


@<TRIPOS>ATOM
  1 BR      -0.0590    -0.0010    -1.1230 Br    1 <1>  -0.1110 
  2 C       -1.9030     0.0030    -0.5860 C.ar  1 <1>   0.1110 
  3 C       -2.3460    -0.9600     0.2980 C.ar  1 <1>  -0.1500 
  4 C       -2.7470     0.9700    -1.0960 C.ar  1 <1>  -0.1500 
  5 C       -3.6760    -0.9480     0.6780 C.ar  1 <1>  -0.1500 
  6 C       -4.0740     0.9660    -0.7050 C.ar  1 <1>  -0.1500 
  7 C       -4.5740     0.0100     0.1900 C.ar  1 <1>   0.0860 
  8 C       -5.9650    -0.0010     0.6050 C.2   1 <1>   0.6340 
  9 O       -6.4250    -0.8140     1.3800 O.2   1 <1>  -0.5700 
 10 O       -6.7860     0.9310     0.1040 O.3   1 <1>  -0.4300 
 11 C       -8.1460     1.0060     0.4640 C.3   1 <1>   0.2000 
 12 C       -8.9380    -0.0160    -0.3580 C.3   1 <1>  -0.1600 
 13 C       -8.6280     2.4270     0.1790 C.3   1 <1>  -0.1600 
 14 C      -10.4330     0.1380    -0.1040 C.3   1 <1>   0.3430 
 15 C      -10.1310     2.5420     0.4190 C.3   1 <1>   0.3430 
 16 N      -10.8570     1.5370    -0.4130 N.4   1 <1>  -0.9590 
 17 C      -12.3360     1.6880    -0.2580 C.3   1 <1>   0.2630 
 18 H       -1.6640    -1.7000     0.6780 H     1 <1>   0.1500 
 19 H       -2.3690     1.7060    -1.7840 H     1 <1>   0.1500 
 20 H       -4.0310    -1.6960     1.3680 H     1 <1>   0.1500 
 21 H       -4.7320     1.7200    -1.1020 H     1 <1>   0.1500 
 22 H       -8.2360     0.7990     1.5190 H     1 <1>   0.0800 
 23 H       -8.6440    -1.0110    -0.0740 H     1 <1>   0.0800 
 24 H       -8.7340     0.1100    -1.4070 H     1 <1>   0.0800 
 25 H       -8.4040     2.6990    -0.8380 H     1 <1>   0.0800 
 26 H       -8.1160     3.1120     0.8320 H     1 <1>   0.0800 
 27 H      -10.6480    -0.0900     0.9280 H     1 <1>   0.0800 
 28 H      -10.9750    -0.5590    -0.7240 H     1 <1>   0.0800 
 29 H      -10.4590     3.5390     0.1660 H     1 <1>   0.0800 
 30 H      -10.3420     2.3720     1.4630 H     1 <1>   0.0800 
 31 H      -10.6150     1.7200    -1.3990 H     1 <1>   0.4500 
 32 H      -12.6280     1.5020     0.7630 H     1 <1>   0.0800 
 33 H      -12.8530     0.9900    -0.8960 H     1 <1>   0.0800 
 34 H      -12.6410     2.6870    -0.5270 H     1 <1>   0.0800 
@<TRIPOS>BOND
  1   1   2  1   
  2   2   3  ar  
  3   2   4  ar  
  4   3   5  ar  
  5   3  18  1   
  6   4   6  ar  
  7   4  19  1   
  8   5   7  ar  
  9   5  20  1   
 10   6   7  ar  
 11   6  21  1   
 12   7   8  1   
 13   8   9  2   
 14   8  10  1   
 15  10  11  1   
 16  11  12  1   
 17  11  13  1   
 18  11  22  1   
 19  12  14  1   
 20  12  23  1   
 21  12  24  1   
 22  13  15  1   
 23  13  25  1   
 24  13  26  1   
 25  14  16  1   
 26  14  27  1   
 27  14  28  1   
 28  15  16  1   
 29  15  29  1   
 30  15  30  1   
 31  16  17  1   
 32  16  31  1   
 33  17  32  1   
 34  17  33  1   
 35  17  34  1   
@<TRIPOS>SUBSTRUCTURE
  1 ****  10 GROUP 4 **** **** 0

# MOE 2024.06 (io_trps.svl 2023.06)
