@<TRIPOS>MOLECULE
NONAME
35 36 1 0 0 
SMALL
USER_CHARGES


@<TRIPOS>ATOM
  1 CL      -1.6570    -0.1110     1.6210 Cl    1 <1>  -0.1770 
  2 C       -1.8530     1.5160     1.0090 C.ar  1 <1>   0.1770 
  3 C       -0.7580     2.3400     0.8110 C.ar  1 <1>   0.1900 
  4 C       -3.1230     1.9780     0.7230 C.ar  1 <1>  -0.1500 
  5 F        0.4480     1.9060     1.0800 F     1 <1>  -0.1900 
  6 C       -0.9090     3.6260     0.3300 C.ar  1 <1>  -0.1500 
  7 C       -3.3050     3.2690     0.2340 C.ar  1 <1>   0.1170 
  8 C       -2.1860     4.0830     0.0460 C.ar  1 <1>  -0.1500 
  9 N       -4.6120     3.7020    -0.0360 N.am  1 <1>  -0.5470 
 10 C       -5.0850     4.6800    -0.8720 C.2   1 <1>   0.5690 
 11 O       -4.3700     5.3530    -1.5730 O.2   1 <1>  -0.5700 
 12 C       -6.5830     4.9350    -0.9250 C.3   1 <1>   0.1310 
 13 S       -7.5510     3.4540    -0.3460 S.3   1 <1>  -0.2860 
 14 C       -9.2430     4.0570    -0.3890 C.2   1 <1>   0.2430 
 15 N       -9.5540     5.2600    -0.7140 N.2   1 <1>  -0.3380 
 16 N      -10.2940     3.2970    -0.0820 N.pl3 1 <1>   0.0480 
 17 N      -10.8860     5.3260    -0.6230 N.2   1 <1>  -0.3380 
 18 C      -11.3060     4.1620    -0.2500 C.2   1 <1>   0.0060 
 19 C      -10.3240     1.8760     0.3280 C.3   1 <1>   0.0960 
 20 C      -12.7680     3.8270    -0.0310 C.3   1 <1>  -0.0600 
 21 C      -10.1890     1.7480     1.8480 C.3   1 <1>  -0.2400 
 22 H       -3.9640     1.3290     0.8780 H     1 <1>   0.1500 
 23 H       -0.0480     4.2540     0.1820 H     1 <1>   0.1500 
 24 H       -2.3080     5.0860    -0.3230 H     1 <1>   0.1500 
 25 H       -5.3520     3.1570     0.4100 H     1 <1>   0.3700 
 26 H       -6.8940     5.1440    -1.9320 H     1 <1>   0.0800 
 27 H       -6.8450     5.7590    -0.2880 H     1 <1>   0.0800 
 28 H       -9.5180     1.3560    -0.1590 H     1 <1>   0.0800 
 29 H      -11.2500     1.4370     0.0010 H     1 <1>   0.0800 
 30 H      -13.0790     3.0580    -0.7140 H     1 <1>   0.0800 
 31 H      -13.3710     4.7010    -0.2020 H     1 <1>   0.0800 
 32 H      -12.9260     3.4950     0.9790 H     1 <1>   0.0800 
 33 H       -9.2540     2.1670     2.1780 H     1 <1>   0.0800 
 34 H      -10.2140     0.7100     2.1300 H     1 <1>   0.0800 
 35 H      -10.9980     2.2550     2.3430 H     1 <1>   0.0800 
@<TRIPOS>BOND
  1   1   2  1   
  2   2   3  ar  
  3   2   4  ar  
  4   3   5  1   
  5   3   6  ar  
  6   4   7  ar  
  7   4  22  1   
  8   6   8  ar  
  9   6  23  1   
 10   7   8  ar  
 11   7   9  1   
 12   8  24  1   
 13   9  10  am  
 14   9  25  1   
 15  10  11  2   
 16  10  12  1   
 17  12  13  1   
 18  12  26  1   
 19  12  27  1   
 20  13  14  1   
 21  14  15  2   
 22  14  16  1   
 23  15  17  1   
 24  16  18  1   
 25  16  19  1   
 26  17  18  2   
 27  18  20  1   
 28  19  21  1   
 29  19  28  1   
 30  19  29  1   
 31  20  30  1   
 32  20  31  1   
 33  20  32  1   
 34  21  33  1   
 35  21  34  1   
 36  21  35  1   
@<TRIPOS>SUBSTRUCTURE
  1 ****   9 GROUP 4 **** **** 0

# MOE 2024.06 (io_trps.svl 2023.06)
