@<TRIPOS>MOLECULE
NONAME
50 50 1 0 0 
SMALL
USER_CHARGES


@<TRIPOS>ATOM
  1 O        6.7940    -4.8020     0.0000 O.3   1 <1>  -0.3630 
  2 C        8.1530    -4.7400     0.0110 C.ar  1 <1>   0.0830 
  3 C        6.0760    -6.0070     0.1370 C.3   1 <1>   0.1200 
  4 C        8.7810    -3.4910    -0.1260 C.ar  1 <1>  -0.1440 
  5 C        8.9120    -5.9020     0.1580 C.ar  1 <1>  -0.1500 
  6 C        4.5890    -5.6730     0.0790 C.3   1 <1>   0.1200 
  7 C       10.1760    -3.4800    -0.1100 C.ar  1 <1>  -0.1500 
  8 C        7.9800    -2.1650    -0.2920 C.3   1 <1>   0.1440 
  9 C       10.2910    -5.8570     0.1720 C.ar  1 <1>  -0.1440 
 10 O        3.8540    -6.8540     0.2130 O.3   1 <1>  -0.5600 
 11 C       10.9190    -4.6360     0.0360 C.ar  1 <1>  -0.1500 
 12 C        8.8830    -0.9210    -0.4250 C.3   1 <1>  -0.2400 
 13 C        7.0890    -1.9110     0.9370 C.3   1 <1>  -0.2400 
 14 C        7.1220    -2.2030    -1.5690 C.3   1 <1>  -0.2400 
 15 C       11.1040    -7.1300     0.3310 C.3   1 <1>  -0.0970 
 16 C        2.4780    -6.6760     0.1750 C.3   1 <1>   0.1200 
 17 C        1.8330    -8.0560     0.3570 C.3   1 <1>   0.3430 
 18 N        0.3310    -8.0040     0.3950 N.4   1 <1>  -0.9590 
 19 C       -0.2130    -9.3320     0.8200 C.3   1 <1>   0.2630 
 20 C       -0.2560    -7.6050    -0.9240 C.3   1 <1>   0.2630 
 21 H        6.3270    -6.4440     1.0870 H     1 <1>   0.0800 
 22 H        6.3480    -6.6570    -0.6750 H     1 <1>   0.0800 
 23 H        8.4450    -6.8610     0.2620 H     1 <1>   0.1500 
 24 H        4.3540    -5.2210    -0.8700 H     1 <1>   0.0800 
 25 H        4.3330    -5.0080     0.8860 H     1 <1>   0.0800 
 26 H       10.7370    -2.5710    -0.2100 H     1 <1>   0.1500 
 27 H       11.9930    -4.5780     0.0410 H     1 <1>   0.1500 
 28 H        9.5160    -1.0040    -1.2900 H     1 <1>   0.0800 
 29 H        9.4940    -0.8010     0.4520 H     1 <1>   0.0800 
 30 H        8.2910    -0.0300    -0.5360 H     1 <1>   0.0800 
 31 H        7.6870    -1.9300     1.8310 H     1 <1>   0.0800 
 32 H        6.3220    -2.6530     1.0320 H     1 <1>   0.0800 
 33 H        6.6070    -0.9530     0.8670 H     1 <1>   0.0800 
 34 H        7.7430    -2.4260    -2.4180 H     1 <1>   0.0800 
 35 H        6.6420    -1.2560    -1.7340 H     1 <1>   0.0800 
 36 H        6.3550    -2.9500    -1.5100 H     1 <1>   0.0800 
 37 H       10.6060    -7.8110     0.9980 H     1 <1>   0.0800 
 38 H       12.0750    -6.9110     0.7340 H     1 <1>   0.0800 
 39 H       11.2240    -7.6050    -0.6260 H     1 <1>   0.0800 
 40 H        2.2210    -6.2470    -0.7770 H     1 <1>   0.0800 
 41 H        2.2000    -6.0150     0.9790 H     1 <1>   0.0800 
 42 H        2.1980    -8.4710     1.2820 H     1 <1>   0.0800 
 43 H        2.1540    -8.6970    -0.4480 H     1 <1>   0.0800 
 44 H        0.0530    -7.3090     1.1060 H     1 <1>   0.4500 
 45 H        0.0600   -10.0940     0.1090 H     1 <1>   0.0800 
 46 H       -1.2880    -9.2930     0.8870 H     1 <1>   0.0800 
 47 H        0.1800    -9.6060     1.7860 H     1 <1>   0.0800 
 48 H        0.0300    -8.3080    -1.6900 H     1 <1>   0.0800 
 49 H        0.0870    -6.6240    -1.2100 H     1 <1>   0.0800 
 50 H       -1.3330    -7.5840    -0.8630 H     1 <1>   0.0800 
@<TRIPOS>BOND
  1   1   2  1   
  2   1   3  1   
  3   2   4  ar  
  4   2   5  ar  
  5   3   6  1   
  6   3  21  1   
  7   3  22  1   
  8   4   7  ar  
  9   4   8  1   
 10   5   9  ar  
 11   5  23  1   
 12   6  10  1   
 13   6  24  1   
 14   6  25  1   
 15   7  11  ar  
 16   7  26  1   
 17   8  12  1   
 18   8  13  1   
 19   8  14  1   
 20   9  11  ar  
 21   9  15  1   
 22  10  16  1   
 23  11  27  1   
 24  12  28  1   
 25  12  29  1   
 26  12  30  1   
 27  13  31  1   
 28  13  32  1   
 29  13  33  1   
 30  14  34  1   
 31  14  35  1   
 32  14  36  1   
 33  15  37  1   
 34  15  38  1   
 35  15  39  1   
 36  16  17  1   
 37  16  40  1   
 38  16  41  1   
 39  17  18  1   
 40  17  42  1   
 41  17  43  1   
 42  18  19  1   
 43  18  20  1   
 44  18  44  1   
 45  19  45  1   
 46  19  46  1   
 47  19  47  1   
 48  20  48  1   
 49  20  49  1   
 50  20  50  1   
@<TRIPOS>SUBSTRUCTURE
  1 ****   1 GROUP 4 **** **** 0

# MOE 2024.06 (io_trps.svl 2023.06)
