@<TRIPOS>MOLECULE
NONAME
47 49 1 0 0 
SMALL
USER_CHARGES


@<TRIPOS>ATOM
  1 F       -1.2630     0.7420    -1.8830 F     1 <1>  -0.1900 
  2 C       -0.7770     1.6400    -1.0590 C.ar  1 <1>   0.1900 
  3 C       -1.6630     2.4780    -0.3830 C.ar  1 <1>   0.1170 
  4 C        0.5950     1.7060    -0.9100 C.ar  1 <1>  -0.1500 
  5 N       -3.0500     2.3450    -0.5980 N.am  1 <1>  -0.5470 
  6 C       -1.0990     3.4230     0.4720 C.ar  1 <1>  -0.1500 
  7 C        1.1240     2.6520    -0.0490 C.ar  1 <1>  -0.1500 
  8 C       -4.1290     2.8110     0.0890 C.2   1 <1>   0.6900 
  9 C        0.2760     3.5060     0.6370 C.ar  1 <1>  -0.1500 
 10 O       -4.0290     3.4280     1.1300 O.2   1 <1>  -0.5700 
 11 N       -5.3600     2.5660    -0.4250 N.am  1 <1>  -0.7300 
 12 C       -6.6030     2.9670     0.2480 C.3   1 <1>   0.2200 
 13 C       -7.7310     2.0120    -0.1290 C.3   1 <1>  -0.1600 
 14 C       -6.9510     4.4010    -0.1450 C.3   1 <1>  -0.1600 
 15 C       -9.0390     2.4610     0.5190 C.3   1 <1>   0.3430 
 16 C       -8.2600     4.8250     0.5110 C.3   1 <1>   0.3430 
 17 N       -9.3440     3.8740     0.1320 N.4   1 <1>  -0.9590 
 18 C      -10.6610     4.3130     0.6730 C.3   1 <1>   0.4860 
 19 C      -11.7450     3.4620     0.0430 C.ar  1 <1>  -0.1430 
 20 C      -12.3750     2.4720     0.7840 C.ar  1 <1>  -0.1500 
 21 C      -12.1120     3.6630    -1.2800 C.ar  1 <1>  -0.1500 
 22 C      -13.3500     1.6810     0.2020 C.ar  1 <1>  -0.1500 
 23 C      -13.0870     2.8700    -1.8600 C.ar  1 <1>  -0.1500 
 24 C      -13.7040     1.8780    -1.1200 C.ar  1 <1>  -0.1500 
 25 H        1.2320     1.0320    -1.4540 H     1 <1>   0.1500 
 26 H       -3.2750     1.6830    -1.3350 H     1 <1>   0.3700 
 27 H       -1.7260     4.1050     1.0150 H     1 <1>   0.1500 
 28 H        2.1900     2.7240     0.0870 H     1 <1>   0.1500 
 29 H        0.6860     4.2440     1.3060 H     1 <1>   0.1500 
 30 H       -5.4370     2.1810    -1.3640 H     1 <1>   0.3700 
 31 H       -6.4470     2.9220     1.3160 H     1 <1>   0.0800 
 32 H       -7.4930     1.0230     0.2220 H     1 <1>   0.0800 
 33 H       -7.8560     1.9720    -1.1960 H     1 <1>   0.0800 
 34 H       -7.0300     4.4940    -1.2140 H     1 <1>   0.0800 
 35 H       -6.1680     5.0590     0.1920 H     1 <1>   0.0800 
 36 H       -8.9530     2.3870     1.5910 H     1 <1>   0.0800 
 37 H       -9.8370     1.8080     0.1990 H     1 <1>   0.0800 
 38 H       -8.5120     5.8250     0.1920 H     1 <1>   0.0800 
 39 H       -8.1360     4.8320     1.5820 H     1 <1>   0.0800 
 40 H       -9.4460     3.8840    -0.8910 H     1 <1>   0.4500 
 41 H      -10.8380     5.3480     0.4300 H     1 <1>   0.0800 
 42 H      -10.6810     4.2050     1.7460 H     1 <1>   0.0800 
 43 H      -12.1220     2.3020     1.8170 H     1 <1>   0.1500 
 44 H      -11.6540     4.4340    -1.8760 H     1 <1>   0.1500 
 45 H      -13.8390     0.9120     0.7770 H     1 <1>   0.1500 
 46 H      -13.3730     3.0240    -2.8870 H     1 <1>   0.1500 
 47 H      -14.4650     1.2630    -1.5710 H     1 <1>   0.1500 
@<TRIPOS>BOND
  1   1   2  1   
  2   2   3  ar  
  3   2   4  ar  
  4   3   5  1   
  5   3   6  ar  
  6   4   7  ar  
  7   4  25  1   
  8   5   8  am  
  9   5  26  1   
 10   6   9  ar  
 11   6  27  1   
 12   7   9  ar  
 13   7  28  1   
 14   8  10  2   
 15   8  11  am  
 16   9  29  1   
 17  11  12  1   
 18  11  30  1   
 19  12  13  1   
 20  12  14  1   
 21  12  31  1   
 22  13  15  1   
 23  13  32  1   
 24  13  33  1   
 25  14  16  1   
 26  14  34  1   
 27  14  35  1   
 28  15  17  1   
 29  15  36  1   
 30  15  37  1   
 31  16  17  1   
 32  16  38  1   
 33  16  39  1   
 34  17  18  1   
 35  17  40  1   
 36  18  19  1   
 37  18  41  1   
 38  18  42  1   
 39  19  20  ar  
 40  19  21  ar  
 41  20  22  ar  
 42  20  43  1   
 43  21  23  ar  
 44  21  44  1   
 45  22  24  ar  
 46  22  45  1   
 47  23  24  ar  
 48  23  46  1   
 49  24  47  1   
@<TRIPOS>SUBSTRUCTURE
  1 ****  12 GROUP 4 **** **** 0

# MOE 2024.06 (io_trps.svl 2023.06)
