@<TRIPOS>MOLECULE
NONAME
51 53 1 0 0 
SMALL
USER_CHARGES


@<TRIPOS>ATOM
  1 CL       4.8140     2.7950     4.8820 Cl    1 <1>  -0.1770 
  2 C        4.3100     2.2920     3.2880 C.ar  1 <1>   0.1770 
  3 C        5.0960     1.4080     2.5790 C.ar  1 <1>  -0.1500 
  4 C        3.1340     2.7910     2.7640 C.ar  1 <1>  -0.1500 
  5 C        4.7160     1.0030     1.3080 C.ar  1 <1>   0.1990 
  6 C        2.7350     2.3910     1.4990 C.ar  1 <1>  -0.1500 
  7 N        5.5440     0.1100     0.6210 N.am  1 <1>  -0.6930 
  8 C        3.5140     1.4980     0.7700 C.ar  1 <1>   0.0830 
  9 S        5.3960    -1.5910     0.9350 S.o2  1 <1>   1.4470 
 10 C        6.0410     0.5270    -0.7340 C.3   1 <1>   0.2570 
 11 O        3.1440     1.0750    -0.4750 O.3   1 <1>  -0.3630 
 12 O        6.6650    -2.2040     0.6230 O.2   1 <1>  -0.6500 
 13 O        4.8760    -1.7050     2.2790 O.2   1 <1>  -0.6500 
 14 C        4.1260    -2.1160    -0.2500 C.ar  1 <1>  -0.0090 
 15 C        7.3890    -0.0490    -1.1870 C.2   1 <1>   0.5690 
 16 C        1.7940     1.1150    -0.8850 C.3   1 <1>   0.0400 
 17 C        2.7810    -2.1350     0.1030 C.ar  1 <1>  -0.1500 
 18 C        4.4600    -2.4870    -1.5480 C.ar  1 <1>  -0.1500 
 19 O        7.3770    -0.6830    -2.2190 O.2   1 <1>  -0.5700 
 20 N        8.5500     0.1610    -0.4780 N.am  1 <1>  -0.6600 
 21 C        1.8040    -2.5100    -0.8030 C.ar  1 <1>  -0.1500 
 22 C        3.4900    -2.8600    -2.4620 C.ar  1 <1>  -0.1500 
 23 C        8.6310     0.9100     0.8080 C.3   1 <1>   0.1400 
 24 C        9.8000    -0.5640    -0.8380 C.3   1 <1>   0.1400 
 25 C        2.1590    -2.8720    -2.0890 C.ar  1 <1>  -0.1500 
 26 C        9.8040     1.8960     0.7690 C.3   1 <1>  -0.1600 
 27 C       10.9780     0.4140    -0.8930 C.3   1 <1>  -0.1600 
 28 C       11.1240     1.1960     0.4190 C.3   1 <1>  -0.1600 
 29 H        6.0000     1.0260     3.0160 H     1 <1>   0.1500 
 30 H        2.5430     3.4800     3.3400 H     1 <1>   0.1500 
 31 H        1.8210     2.7900     1.1000 H     1 <1>   0.1500 
 32 H        6.1210     1.5980    -0.7610 H     1 <1>   0.0800 
 33 H        5.3070     0.2490    -1.4690 H     1 <1>   0.0800 
 34 H        1.7090     0.5550    -1.8000 H     1 <1>   0.0800 
 35 H        1.5080     2.1370    -1.0550 H     1 <1>   0.0800 
 36 H        1.1830     0.6620    -0.1240 H     1 <1>   0.0800 
 37 H        2.4970    -1.8510     1.1030 H     1 <1>   0.1500 
 38 H        5.4960    -2.4870    -1.8510 H     1 <1>   0.1500 
 39 H        0.7690    -2.5230    -0.5050 H     1 <1>   0.1500 
 40 H        3.7750    -3.1410    -3.4610 H     1 <1>   0.1500 
 41 H        8.7700     0.2040     1.6090 H     1 <1>   0.0800 
 42 H        7.7270     1.4580     0.9970 H     1 <1>   0.0800 
 43 H        9.6970    -1.0540    -1.7910 H     1 <1>   0.0800 
 44 H        9.9840    -1.3220    -0.0950 H     1 <1>   0.0800 
 45 H        1.4030    -3.1650    -2.7980 H     1 <1>   0.1500 
 46 H        9.8940     2.3770     1.7260 H     1 <1>   0.0800 
 47 H        9.5930     2.6570     0.0380 H     1 <1>   0.0800 
 48 H       10.8220     1.0950    -1.7110 H     1 <1>   0.0800 
 49 H       11.8830    -0.1340    -1.0910 H     1 <1>   0.0800 
 50 H       11.3890     0.5170     1.2110 H     1 <1>   0.0800 
 51 H       11.9100     1.9250     0.3240 H     1 <1>   0.0800 
@<TRIPOS>BOND
  1   1   2  1   
  2   2   3  ar  
  3   2   4  ar  
  4   3   5  ar  
  5   3  29  1   
  6   4   6  ar  
  7   4  30  1   
  8   5   7  1   
  9   5   8  ar  
 10   6   8  ar  
 11   6  31  1   
 12   7   9  am  
 13   7  10  1   
 14   8  11  1   
 15   9  12  2   
 16   9  13  2   
 17   9  14  1   
 18  10  15  1   
 19  10  32  1   
 20  10  33  1   
 21  11  16  1   
 22  14  17  ar  
 23  14  18  ar  
 24  15  19  2   
 25  15  20  am  
 26  16  34  1   
 27  16  35  1   
 28  16  36  1   
 29  17  21  ar  
 30  17  37  1   
 31  18  22  ar  
 32  18  38  1   
 33  20  23  1   
 34  20  24  1   
 35  21  25  ar  
 36  21  39  1   
 37  22  25  ar  
 38  22  40  1   
 39  23  26  1   
 40  23  41  1   
 41  23  42  1   
 42  24  27  1   
 43  24  43  1   
 44  24  44  1   
 45  25  45  1   
 46  26  28  1   
 47  26  46  1   
 48  26  47  1   
 49  27  28  1   
 50  27  48  1   
 51  27  49  1   
 52  28  50  1   
 53  28  51  1   
@<TRIPOS>SUBSTRUCTURE
  1 ****   7 GROUP 4 **** **** 0

# MOE 2024.06 (io_trps.svl 2023.06)
