@<TRIPOS>MOLECULE
NONAME
38 39 1 0 0 
SMALL
USER_CHARGES


@<TRIPOS>ATOM
  1 O       -0.0290     0.8050     1.4960 O.2   1 <1>  -0.5700 
  2 C        0.0230     1.7760     0.7650 C.2   1 <1>   0.5440 
  3 N       -1.1260     2.1880     0.1240 N.am  1 <1>  -0.6600 
  4 C        1.2890     2.4580     0.5860 C.ar  1 <1>   0.0860 
  5 C       -2.4640     1.6150     0.4550 C.3   1 <1>   0.1400 
  6 C       -1.1630     3.1150    -1.0460 C.3   1 <1>   0.1400 
  7 C        2.4040     1.7740     0.1110 C.ar  1 <1>  -0.1500 
  8 C        1.4360     3.8110     0.8860 C.ar  1 <1>  -0.1500 
  9 C       -3.5240     2.7270     0.5300 C.3   1 <1>   0.1200 
 10 C       -2.2890     4.1480    -0.8770 C.3   1 <1>   0.1200 
 11 C        3.6230     2.4120    -0.0820 C.ar  1 <1>   0.0830 
 12 C        2.6400     4.4650     0.7000 C.ar  1 <1>  -0.1500 
 13 O       -3.5110     3.5110    -0.6320 O.3   1 <1>  -0.5600 
 14 O        4.7240     1.7560    -0.5500 O.3   1 <1>  -0.3630 
 15 C        3.7450     3.7740     0.2100 C.ar  1 <1>   0.0830 
 16 C        4.7500     0.3520    -0.6790 C.3   1 <1>   0.0400 
 17 O        4.9490     4.3720     0.0040 O.3   1 <1>  -0.3630 
 18 C        5.1880     5.7210     0.3260 C.3   1 <1>   0.1200 
 19 C        6.6430     6.0340    -0.0090 C.3   1 <1>  -0.2400 
 20 H       -2.4290     1.0970     1.3980 H     1 <1>   0.0800 
 21 H       -2.7430     0.9060    -0.3040 H     1 <1>   0.0800 
 22 H       -1.3480     2.5430    -1.9390 H     1 <1>   0.0800 
 23 H       -0.2250     3.6230    -1.1720 H     1 <1>   0.0800 
 24 H        2.2820     0.7290    -0.1010 H     1 <1>   0.1500 
 25 H        0.5900     4.3510     1.2740 H     1 <1>   0.1500 
 26 H       -3.3410     3.3640     1.3780 H     1 <1>   0.0800 
 27 H       -4.5050     2.2980     0.6260 H     1 <1>   0.0800 
 28 H       -2.3980     4.7300    -1.7750 H     1 <1>   0.0800 
 29 H       -2.0750     4.8120    -0.0570 H     1 <1>   0.0800 
 30 H        2.7000     5.5080     0.9440 H     1 <1>   0.1500 
 31 H        5.7400     0.0650    -0.9810 H     1 <1>   0.0800 
 32 H        4.0390     0.0570    -1.4310 H     1 <1>   0.0800 
 33 H        4.5140    -0.0910     0.2720 H     1 <1>   0.0800 
 34 H        5.0010     5.8590     1.3770 H     1 <1>   0.0800 
 35 H        4.5230     6.3340    -0.2580 H     1 <1>   0.0800 
 36 H        7.2960     5.4030     0.5660 H     1 <1>   0.0800 
 37 H        6.8600     7.0600     0.2260 H     1 <1>   0.0800 
 38 H        6.8210     5.8750    -1.0570 H     1 <1>   0.0800 
@<TRIPOS>BOND
  1   1   2  2   
  2   2   3  am  
  3   2   4  1   
  4   3   5  1   
  5   3   6  1   
  6   4   7  ar  
  7   4   8  ar  
  8   5   9  1   
  9   5  20  1   
 10   5  21  1   
 11   6  10  1   
 12   6  22  1   
 13   6  23  1   
 14   7  11  ar  
 15   7  24  1   
 16   8  12  ar  
 17   8  25  1   
 18   9  13  1   
 19   9  26  1   
 20   9  27  1   
 21  10  13  1   
 22  10  28  1   
 23  10  29  1   
 24  11  14  1   
 25  11  15  ar  
 26  12  15  ar  
 27  12  30  1   
 28  14  16  1   
 29  15  17  1   
 30  16  31  1   
 31  16  32  1   
 32  16  33  1   
 33  17  18  1   
 34  18  19  1   
 35  18  34  1   
 36  18  35  1   
 37  19  36  1   
 38  19  37  1   
 39  19  38  1   
@<TRIPOS>SUBSTRUCTURE
  1 ****   4 GROUP 4 **** **** 0

# MOE 2024.06 (io_trps.svl 2023.06)
