@<TRIPOS>MOLECULE
NONAME
40 41 1 0 0 
SMALL
USER_CHARGES


@<TRIPOS>ATOM
  1 S       -0.0640     0.2400    -0.0870 S.o2  1 <1>   1.3330 
  2 O        1.2570    -0.2990     0.1100 O.2   1 <1>  -0.6500 
  3 O       -0.5220     1.4030     0.6290 O.2   1 <1>  -0.6500 
  4 N       -1.1050    -1.0720     0.2890 N.am  1 <1>  -0.7570 
  5 C       -0.3420     0.4480    -1.8320 C.3   1 <1>  -0.1350 
  6 C       -2.4790    -1.1140     0.4560 C.ar  1 <1>   0.1990 
  7 C       -3.0790    -2.3300     0.7620 C.ar  1 <1>  -0.1500 
  8 C       -3.3040     0.0000     0.3320 C.ar  1 <1>  -0.1500 
  9 C       -4.4460    -2.4300     0.9270 C.ar  1 <1>  -0.1500 
 10 C       -4.6710    -0.1020     0.5000 C.ar  1 <1>  -0.1500 
 11 C       -5.2860    -1.3230     0.7940 C.ar  1 <1>   0.0860 
 12 C       -6.7220    -1.4490     0.9600 C.2   1 <1>   0.5440 
 13 O       -7.1940    -2.3780     1.5870 O.2   1 <1>  -0.5700 
 14 N       -7.5750    -0.5370     0.4010 N.am  1 <1>  -0.7300 
 15 C       -9.0430    -0.5490     0.5160 C.3   1 <1>   0.2200 
 16 C       -9.6450    -0.8150    -0.8670 C.3   1 <1>  -0.1600 
 17 C       -9.5040     0.8020     1.0740 C.3   1 <1>  -0.1600 
 18 C      -11.1780    -0.7280    -0.8310 C.3   1 <1>  -0.1600 
 19 C      -11.0370     0.8920     1.1140 C.3   1 <1>  -0.1600 
 20 C      -11.6440     0.6230    -0.2690 C.3   1 <1>  -0.1600 
 21 H       -0.5490    -1.8730     0.5750 H     1 <1>   0.4200 
 22 H        0.2880     1.2290    -2.2120 H     1 <1>   0.0800 
 23 H       -1.3640     0.7090    -2.0170 H     1 <1>   0.0800 
 24 H       -0.1150    -0.4600    -2.3540 H     1 <1>   0.0800 
 25 H       -2.4680    -3.2080     0.8710 H     1 <1>   0.1500 
 26 H       -2.8820     0.9630     0.1150 H     1 <1>   0.1500 
 27 H       -4.8850    -3.3850     1.1650 H     1 <1>   0.1500 
 28 H       -5.2700     0.7860     0.4130 H     1 <1>   0.1500 
 29 H       -7.2040     0.1830    -0.2150 H     1 <1>   0.3700 
 30 H       -9.3520    -1.3310     1.1910 H     1 <1>   0.0800 
 31 H       -9.3530    -1.7970    -1.1950 H     1 <1>   0.0800 
 32 H       -9.2700    -0.0930    -1.5700 H     1 <1>   0.0800 
 33 H       -9.1230     1.5960     0.4570 H     1 <1>   0.0800 
 34 H       -9.1150     0.9240     2.0700 H     1 <1>   0.0800 
 35 H      -11.5640    -1.5220    -0.2140 H     1 <1>   0.0800 
 36 H      -11.5710    -0.8620    -1.8240 H     1 <1>   0.0800 
 37 H      -11.3330     1.8690     1.4560 H     1 <1>   0.0800 
 38 H      -11.4170     0.1680     1.8160 H     1 <1>   0.0800 
 39 H      -12.7190     0.6310    -0.1980 H     1 <1>   0.0800 
 40 H      -11.3540     1.4090    -0.9450 H     1 <1>   0.0800 
@<TRIPOS>BOND
  1   1   2  2   
  2   1   3  2   
  3   1   4  am  
  4   1   5  1   
  5   4   6  1   
  6   4  21  1   
  7   5  22  1   
  8   5  23  1   
  9   5  24  1   
 10   6   7  ar  
 11   6   8  ar  
 12   7   9  ar  
 13   7  25  1   
 14   8  10  ar  
 15   8  26  1   
 16   9  11  ar  
 17   9  27  1   
 18  10  11  ar  
 19  10  28  1   
 20  11  12  1   
 21  12  13  2   
 22  12  14  am  
 23  14  15  1   
 24  14  29  1   
 25  15  16  1   
 26  15  17  1   
 27  15  30  1   
 28  16  18  1   
 29  16  31  1   
 30  16  32  1   
 31  17  19  1   
 32  17  33  1   
 33  17  34  1   
 34  18  20  1   
 35  18  35  1   
 36  18  36  1   
 37  19  20  1   
 38  19  37  1   
 39  19  38  1   
 40  20  39  1   
 41  20  40  1   
@<TRIPOS>SUBSTRUCTURE
  1 ****  10 GROUP 4 **** **** 0

# MOE 2024.06 (io_trps.svl 2023.06)
