@<TRIPOS>MOLECULE
NONAME
31 33 1 0 0 
SMALL
USER_CHARGES


@<TRIPOS>ATOM
  1 O        0.6130     0.1300    -1.1990 O.2   1 <1>  -0.5700 
  2 C        1.7290     0.1120    -0.7510 C.2   1 <1>   0.5690 
  3 N        2.5230    -0.9860    -0.6520 N.am  1 <1>  -0.4900 
  4 C        2.4780     1.2500    -0.0690 C.3   1 <1>   0.2510 
  5 C        3.7600    -0.6580    -0.1980 C.2   1 <1>   0.5690 
  6 N        2.5700     2.6760    -0.3620 N.3   1 <1>  -0.5400 
  7 C        3.9020     0.8310    -0.3080 C.3   1 <1>  -0.0190 
  8 O        4.5840    -1.4230     0.2200 O.2   1 <1>  -0.5700 
  9 N        3.8340     3.0710     0.2790 N.3   1 <1>  -0.6300 
 10 C        1.4470     3.4430     0.1680 C.3   1 <1>   0.0300 
 11 C        4.6190     1.8370     0.5560 C.3   1 <1>   0.3330 
 12 C        6.0950     1.9580     0.1890 C.ar  1 <1>  -0.1440 
 13 C        6.9960     1.0500     0.7310 C.ar  1 <1>  -0.1500 
 14 C        6.5620     2.9350    -0.6840 C.ar  1 <1>  -0.1500 
 15 C        8.3410     1.1210     0.4150 C.ar  1 <1>  -0.1500 
 16 C        7.9070     3.0100    -1.0030 C.ar  1 <1>  -0.1500 
 17 C        8.7920     2.1010    -0.4490 C.ar  1 <1>   0.0820 
 18 O       10.0970     2.1620    -0.7510 O.3   1 <1>  -0.5330 
 19 H        2.2130    -1.9350    -0.8450 H     1 <1>   0.3700 
 20 H        2.2510     1.1500     0.9800 H     1 <1>   0.0800 
 21 H        4.1700     1.0280    -1.3320 H     1 <1>   0.0800 
 22 H        3.6750     3.5710     1.1650 H     1 <1>   0.3600 
 23 H        0.5330     3.1090    -0.2930 H     1 <1>   0.0800 
 24 H        1.5870     4.4840    -0.0660 H     1 <1>   0.0800 
 25 H        1.3710     3.3260     1.2340 H     1 <1>   0.0800 
 26 H        4.5150     1.5750     1.5960 H     1 <1>   0.0800 
 27 H        6.6560     0.2750     1.3970 H     1 <1>   0.1500 
 28 H        5.8780     3.6410    -1.1230 H     1 <1>   0.1500 
 29 H        9.0410     0.4200     0.8320 H     1 <1>   0.1500 
 30 H        8.2520     3.7720    -1.6770 H     1 <1>   0.1500 
 31 H       10.3080     2.8790    -1.3720 H     1 <1>   0.4500 
@<TRIPOS>BOND
  1   1   2  2   
  2   2   3  am  
  3   2   4  1   
  4   3   5  am  
  5   3  19  1   
  6   4   6  1   
  7   4   7  1   
  8   4  20  1   
  9   5   7  1   
 10   5   8  2   
 11   6   9  1   
 12   6  10  1   
 13   7  11  1   
 14   7  21  1   
 15   9  11  1   
 16   9  22  1   
 17  10  23  1   
 18  10  24  1   
 19  10  25  1   
 20  11  12  1   
 21  11  26  1   
 22  12  13  ar  
 23  12  14  ar  
 24  13  15  ar  
 25  13  27  1   
 26  14  16  ar  
 27  14  28  1   
 28  15  17  ar  
 29  15  29  1   
 30  16  17  ar  
 31  16  30  1   
 32  17  18  1   
 33  18  31  1   
@<TRIPOS>SUBSTRUCTURE
  1 ****  11 GROUP 4 **** **** 0

# MOE 2024.06 (io_trps.svl 2023.06)
