@<TRIPOS>MOLECULE
NONAME
39 41 1 0 0 
SMALL
USER_CHARGES


@<TRIPOS>ATOM
  1 BR      -0.1440     0.7410     2.4540 Br    1 <1>  -0.0580 
  2 C       -1.7600     0.9840     1.4430 C.2   1 <1>   0.1980 
  3 O       -2.7200     0.1090     1.5960 O.3   1 <1>  -0.2800 
  4 C       -2.0680     1.9570     0.5650 C.2   1 <1>  -0.1500 
  5 C       -3.7260     0.4830     0.8010 C.2   1 <1>   0.0550 
  6 C       -3.3590     1.6280     0.1440 C.2   1 <1>  -0.1500 
  7 C       -4.9520    -0.2830     0.7400 C.2   1 <1>   0.7150 
  8 O       -5.1090    -1.3100     1.3730 O.2   1 <1>  -0.5700 
  9 N       -5.9810     0.1510    -0.0480 N.am  1 <1>  -0.7300 
 10 C       -7.3390    -0.4600    -0.1110 C.3   1 <1>   0.1400 
 11 C       -8.4750     0.5850    -0.2800 C.3   1 <1>   0.1430 
 12 C       -9.8740    -0.0800    -0.3140 C.ar  1 <1>  -0.1430 
 13 C       -8.2460     1.4090    -1.5750 C.3   1 <1>  -0.1600 
 14 C       -8.4100     1.6180     0.8710 C.3   1 <1>  -0.1600 
 15 C      -10.9980     0.7090    -0.5440 C.ar  1 <1>  -0.1500 
 16 C      -10.0750    -1.4470    -0.1230 C.ar  1 <1>  -0.1500 
 17 C       -8.1660     2.8830    -1.1700 C.3   1 <1>  -0.1600 
 18 C       -7.7630     2.8790     0.2990 C.3   1 <1>  -0.1600 
 19 C      -12.2690     0.1630    -0.5860 C.ar  1 <1>  -0.1500 
 20 C      -11.3450    -1.9960    -0.1640 C.ar  1 <1>  -0.1500 
 21 C      -12.4450    -1.1930    -0.3960 C.ar  1 <1>  -0.1500 
 22 H       -1.4720     2.7960     0.2510 H     1 <1>   0.1500 
 23 H       -3.9290     2.1940    -0.5710 H     1 <1>   0.1500 
 24 H       -5.8890     1.0410    -0.5350 H     1 <1>   0.3700 
 25 H       -7.5070    -1.0170     0.7950 H     1 <1>   0.0800 
 26 H       -7.3650    -1.1510    -0.9370 H     1 <1>   0.0800 
 27 H       -9.0340     1.2580    -2.2930 H     1 <1>   0.0800 
 28 H       -7.3290     1.1260    -2.0610 H     1 <1>   0.0800 
 29 H       -7.8650     1.2480     1.7220 H     1 <1>   0.0800 
 30 H       -9.4000     1.8670     1.2090 H     1 <1>   0.0800 
 31 H      -10.8930     1.7680    -0.6920 H     1 <1>   0.1500 
 32 H       -9.2610    -2.1220     0.0630 H     1 <1>   0.1500 
 33 H       -9.1400     3.3320    -1.2670 H     1 <1>   0.0800 
 34 H       -7.4710     3.4350    -1.7790 H     1 <1>   0.0800 
 35 H       -6.6930     2.8130     0.3860 H     1 <1>   0.0800 
 36 H       -8.0980     3.7660     0.8090 H     1 <1>   0.0800 
 37 H      -13.1200     0.7960    -0.7660 H     1 <1>   0.1500 
 38 H      -11.4770    -3.0530    -0.0140 H     1 <1>   0.1500 
 39 H      -13.4320    -1.6210    -0.4280 H     1 <1>   0.1500 
@<TRIPOS>BOND
  1   1   2  1   
  2   2   3  1   
  3   2   4  2   
  4   3   5  1   
  5   4   6  1   
  6   4  22  1   
  7   5   6  2   
  8   5   7  1   
  9   6  23  1   
 10   7   8  2   
 11   7   9  am  
 12   9  10  1   
 13   9  24  1   
 14  10  11  1   
 15  10  25  1   
 16  10  26  1   
 17  11  12  1   
 18  11  13  1   
 19  11  14  1   
 20  12  15  ar  
 21  12  16  ar  
 22  13  17  1   
 23  13  27  1   
 24  13  28  1   
 25  14  18  1   
 26  14  29  1   
 27  14  30  1   
 28  15  19  ar  
 29  15  31  1   
 30  16  20  ar  
 31  16  32  1   
 32  17  18  1   
 33  17  33  1   
 34  17  34  1   
 35  18  35  1   
 36  18  36  1   
 37  19  21  ar  
 38  19  37  1   
 39  20  21  ar  
 40  20  38  1   
 41  21  39  1   
@<TRIPOS>SUBSTRUCTURE
  1 ****   9 GROUP 4 **** **** 0

# MOE 2024.06 (io_trps.svl 2023.06)
