@<TRIPOS>MOLECULE
NONAME
46 47 1 0 0 
SMALL
USER_CHARGES


@<TRIPOS>ATOM
  1 O        0.0410    -0.4120     1.6120 O.2   1 <1>  -0.5700 
  2 C       -0.2190     0.5800     0.9730 C.2   1 <1>   0.5690 
  3 N        0.6940     1.2750     0.2310 N.am  1 <1>  -0.5470 
  4 C       -1.6560     1.0840     0.9990 C.3   1 <1>   0.1810 
  5 C        2.0690     1.1270    -0.0310 C.ar  1 <1>   0.1170 
  6 O       -1.8090     2.2550     0.2070 O.3   1 <1>  -0.3630 
  7 C        2.6870     2.0690    -0.8600 C.ar  1 <1>   0.0830 
  8 C        2.8350     0.0920     0.4930 C.ar  1 <1>  -0.1500 
  9 C       -3.0110     2.8720     0.0900 C.ar  1 <1>   0.0830 
 10 O        1.9020     3.0740    -1.3580 O.3   1 <1>  -0.3630 
 11 C        4.0440     1.9600    -1.1460 C.ar  1 <1>  -0.1500 
 12 C        4.1860    -0.0160     0.2100 C.ar  1 <1>  -0.1430 
 13 C       -4.1740     2.4320     0.7140 C.ar  1 <1>  -0.1500 
 14 C       -3.0540     4.0050    -0.7040 C.ar  1 <1>  -0.1500 
 15 C        2.4360     4.0720    -2.2000 C.3   1 <1>   0.0400 
 16 C        4.7870     0.9210    -0.6130 C.ar  1 <1>  -0.1500 
 17 C        5.0010    -1.1560     0.7930 C.3   1 <1>  -0.0970 
 18 C       -5.3580     3.1260     0.5370 C.ar  1 <1>  -0.1500 
 19 C       -4.2400     4.6950    -0.8770 C.ar  1 <1>  -0.1500 
 20 C       -5.4050     4.2620    -0.2590 C.ar  1 <1>  -0.1430 
 21 C       -6.7230     5.0130    -0.4400 C.3   1 <1>   0.0630 
 22 C       -7.1520     5.0150    -1.9100 C.3   1 <1>  -0.2400 
 23 C       -6.6150     6.4430     0.0990 C.3   1 <1>  -0.2400 
 24 H        0.2990     2.0930    -0.2440 H     1 <1>   0.3700 
 25 H       -1.9300     1.3190     2.0110 H     1 <1>   0.0800 
 26 H       -2.3050     0.3220     0.6080 H     1 <1>   0.0800 
 27 H        2.3760    -0.6410     1.1290 H     1 <1>   0.1500 
 28 H        4.5430     2.6670    -1.7790 H     1 <1>   0.1500 
 29 H       -4.1830     1.5580     1.3370 H     1 <1>   0.1500 
 30 H       -2.1550     4.3440    -1.1850 H     1 <1>   0.1500 
 31 H        1.6420     4.7470    -2.4630 H     1 <1>   0.0800 
 32 H        2.8280     3.6070    -3.0880 H     1 <1>   0.0800 
 33 H        3.2060     4.6020    -1.6690 H     1 <1>   0.0800 
 34 H        5.8350     0.8450    -0.8420 H     1 <1>   0.1500 
 35 H        4.5630    -1.5000     1.7130 H     1 <1>   0.0800 
 36 H        6.0060    -0.8330     0.9980 H     1 <1>   0.0800 
 37 H        5.0320    -1.9740     0.0970 H     1 <1>   0.0800 
 38 H       -6.2500     2.7740     1.0250 H     1 <1>   0.1500 
 39 H       -4.2510     5.5720    -1.4980 H     1 <1>   0.1500 
 40 H       -7.4890     4.5080     0.1240 H     1 <1>   0.0800 
 41 H       -6.4450     5.5530    -2.5160 H     1 <1>   0.0800 
 42 H       -8.1170     5.4780    -2.0160 H     1 <1>   0.0800 
 43 H       -7.2160     4.0050    -2.2740 H     1 <1>   0.0800 
 44 H       -5.8970     7.0110    -0.4630 H     1 <1>   0.0800 
 45 H       -6.3070     6.4230     1.1290 H     1 <1>   0.0800 
 46 H       -7.5680     6.9370     0.0370 H     1 <1>   0.0800 
@<TRIPOS>BOND
  1   1   2  2   
  2   2   3  am  
  3   2   4  1   
  4   3   5  1   
  5   3  24  1   
  6   4   6  1   
  7   4  25  1   
  8   4  26  1   
  9   5   7  ar  
 10   5   8  ar  
 11   6   9  1   
 12   7  10  1   
 13   7  11  ar  
 14   8  12  ar  
 15   8  27  1   
 16   9  13  ar  
 17   9  14  ar  
 18  10  15  1   
 19  11  16  ar  
 20  11  28  1   
 21  12  16  ar  
 22  12  17  1   
 23  13  18  ar  
 24  13  29  1   
 25  14  19  ar  
 26  14  30  1   
 27  15  31  1   
 28  15  32  1   
 29  15  33  1   
 30  16  34  1   
 31  17  35  1   
 32  17  36  1   
 33  17  37  1   
 34  18  20  ar  
 35  18  38  1   
 36  19  20  ar  
 37  19  39  1   
 38  20  21  1   
 39  21  22  1   
 40  21  23  1   
 41  21  40  1   
 42  22  41  1   
 43  22  42  1   
 44  22  43  1   
 45  23  44  1   
 46  23  45  1   
 47  23  46  1   
@<TRIPOS>SUBSTRUCTURE
  1 ****   6 GROUP 4 **** **** 0

# MOE 2024.06 (io_trps.svl 2023.06)
