@<TRIPOS>MOLECULE
NONAME
33 33 1 0 0 
SMALL
USER_CHARGES


@<TRIPOS>ATOM
  1 O       -1.7910     0.8980    -2.4690 O.2   1 <1>  -0.5700 
  2 C       -2.0580     0.7320    -1.3080 C.2   1 <1>   0.5690 
  3 N       -3.3270     0.8790    -0.8770 N.am  1 <1>  -0.7300 
  4 C       -0.9510     0.3590    -0.3520 C.3   1 <1>  -0.1790 
  5 C       -3.8880     0.6410     0.4560 C.3   1 <1>   0.3640 
  6 C       -5.2770     0.0350     0.2990 C.ar  1 <1>  -0.1440 
  7 C       -3.9330     1.9640     1.2160 C.3   1 <1>  -0.2400 
  8 C       -6.2920     0.7180    -0.3560 C.ar  1 <1>  -0.1500 
  9 C       -5.5480    -1.2230     0.8120 C.ar  1 <1>  -0.1500 
 10 C       -7.5590     0.1750    -0.5000 C.ar  1 <1>   0.0820 
 11 C       -6.8040    -1.7880     0.6710 C.ar  1 <1>  -0.1500 
 12 O       -8.4460     0.9800    -1.1540 O.3   1 <1>  -0.3630 
 13 C       -7.8240    -1.1070     0.0090 C.ar  1 <1>   0.0820 
 14 C       -9.8340     0.9010    -0.9200 C.3   1 <1>   0.0400 
 15 O       -9.0550    -1.6740    -0.1600 O.3   1 <1>  -0.3630 
 16 C       -9.3000    -3.0350     0.1200 C.3   1 <1>   0.0400 
 17 H       -4.0240     1.0750    -1.5970 H     1 <1>   0.3700 
 18 H       -0.9290     1.0460     0.4720 H     1 <1>   0.0800 
 19 H       -0.0070     0.4020    -0.8620 H     1 <1>   0.0800 
 20 H       -1.1050    -0.6400     0.0080 H     1 <1>   0.0800 
 21 H       -3.2580    -0.0480     0.9920 H     1 <1>   0.0800 
 22 H       -4.5110     2.6950     0.6800 H     1 <1>   0.0800 
 23 H       -2.9380     2.3420     1.3630 H     1 <1>   0.0800 
 24 H       -4.3850     1.8110     2.1790 H     1 <1>   0.0800 
 25 H       -6.1150     1.6950    -0.7660 H     1 <1>   0.1500 
 26 H       -4.7800    -1.7770     1.3250 H     1 <1>   0.1500 
 27 H       -6.9620    -2.7640     1.0860 H     1 <1>   0.1500 
 28 H      -10.2290     0.0590    -1.4600 H     1 <1>   0.0800 
 29 H      -10.0070     0.7940     0.1360 H     1 <1>   0.0800 
 30 H      -10.2860     1.8070    -1.2790 H     1 <1>   0.0800 
 31 H      -10.3040    -3.2630    -0.1890 H     1 <1>   0.0800 
 32 H       -8.6010    -3.6370    -0.4340 H     1 <1>   0.0800 
 33 H       -9.2000    -3.1980     1.1780 H     1 <1>   0.0800 
@<TRIPOS>BOND
  1   1   2  2   
  2   2   3  am  
  3   2   4  1   
  4   3   5  1   
  5   3  17  1   
  6   4  18  1   
  7   4  19  1   
  8   4  20  1   
  9   5   6  1   
 10   5   7  1   
 11   5  21  1   
 12   6   8  ar  
 13   6   9  ar  
 14   7  22  1   
 15   7  23  1   
 16   7  24  1   
 17   8  10  ar  
 18   8  25  1   
 19   9  11  ar  
 20   9  26  1   
 21  10  12  1   
 22  10  13  ar  
 23  11  13  ar  
 24  11  27  1   
 25  12  14  1   
 26  13  15  1   
 27  14  28  1   
 28  14  29  1   
 29  14  30  1   
 30  15  16  1   
 31  16  31  1   
 32  16  32  1   
 33  16  33  1   
@<TRIPOS>SUBSTRUCTURE
  1 ****   6 GROUP 4 **** **** 0

# MOE 2024.06 (io_trps.svl 2023.06)
