@<TRIPOS>MOLECULE
NONAME
52 55 1 0 0 
SMALL
USER_CHARGES


@<TRIPOS>ATOM
  1 S       -0.4800    -0.0390    -0.6850 S.3   1 <1>  -0.0800 
  2 C        1.0920     0.6820    -0.3140 C.ar  1 <1>   0.2970 
  3 C       -1.3350     1.2840     0.1240 C.2   1 <1>  -0.0450 
  4 N        2.2270     0.1180    -0.6880 N.ar  1 <1>  -0.5670 
  5 C        0.9190     1.8660     0.3920 C.ar  1 <1>   0.0000 
  6 C       -2.7290     1.4400     0.2620 C.2   1 <1>   0.7150 
  7 C       -0.4620     2.1840     0.6260 C.2   1 <1>   0.1250 
  8 C        3.2990     0.8020    -0.3220 C.ar  1 <1>   0.1660 
  9 C        2.0630     2.5550     0.7570 C.ar  1 <1>  -0.1500 
 10 O       -3.5390     0.6330    -0.1760 O.2   1 <1>  -0.5700 
 11 N       -3.1420     2.5770     0.9350 N.am  1 <1>  -0.4200 
 12 N       -0.9100     3.2930     1.2940 N.2   1 <1>  -0.5750 
 13 C        3.2750     2.0050     0.3880 C.ar  1 <1>  -0.1430 
 14 C        4.6340     0.1980    -0.7080 C.3   1 <1>  -0.0170 
 15 C       -2.1820     3.4550     1.4250 C.2   1 <1>   0.4490 
 16 C       -4.6100     2.8110     1.0850 C.3   1 <1>   0.1400 
 17 C        4.5670     2.7290     0.7450 C.3   1 <1>   0.2640 
 18 C        5.7710     1.2320    -0.6840 C.3   1 <1>   0.2800 
 19 C       -2.6280     4.6970     2.1750 C.3   1 <1>  -0.1790 
 20 C       -5.1520     3.5750    -0.1270 C.3   1 <1>  -0.1600 
 21 O        5.7020     1.9430     0.5130 O.3   1 <1>  -0.5600 
 22 C        7.1300     0.5310    -0.6670 C.3   1 <1>  -0.2400 
 23 C        5.7190     2.2010    -1.8770 C.3   1 <1>  -0.2400 
 24 C       -6.6570     3.7930    -0.0050 C.3   1 <1>   0.1200 
 25 O       -7.0490     4.5860    -1.0730 O.3   1 <1>  -0.5600 
 26 C       -8.4140     4.8290    -1.1300 C.3   1 <1>   0.1200 
 27 C       -8.6700     5.7150    -2.3430 C.3   1 <1>  -0.2400 
 28 H        1.9840     3.4790     1.3040 H     1 <1>   0.1500 
 29 H        4.5640    -0.2350    -1.6890 H     1 <1>   0.0800 
 30 H        4.8510    -0.5950    -0.0170 H     1 <1>   0.0800 
 31 H       -4.8140     3.3560     1.9880 H     1 <1>   0.0800 
 32 H       -5.1190     1.8650     1.1690 H     1 <1>   0.0800 
 33 H        4.5670     2.9870     1.7890 H     1 <1>   0.0800 
 34 H        4.6600     3.6340     0.1710 H     1 <1>   0.0800 
 35 H       -3.2730     5.2980     1.5620 H     1 <1>   0.0800 
 36 H       -1.7740     5.2940     2.4410 H     1 <1>   0.0800 
 37 H       -3.1360     4.4220     3.0800 H     1 <1>   0.0800 
 38 H       -4.9600     3.0110    -1.0230 H     1 <1>   0.0800 
 39 H       -4.6670     4.5320    -0.2030 H     1 <1>   0.0800 
 40 H        7.2090    -0.1090     0.1930 H     1 <1>   0.0800 
 41 H        7.9220     1.2580    -0.6320 H     1 <1>   0.0800 
 42 H        7.2550    -0.0670    -1.5510 H     1 <1>   0.0800 
 43 H        4.7480     2.6500    -1.9800 H     1 <1>   0.0800 
 44 H        5.9230     1.6680    -2.7880 H     1 <1>   0.0800 
 45 H        6.4600     2.9710    -1.7640 H     1 <1>   0.0800 
 46 H       -6.9010     4.3090     0.9090 H     1 <1>   0.0800 
 47 H       -7.1840     2.8550    -0.0550 H     1 <1>   0.0800 
 48 H       -8.7190     5.3280    -0.2250 H     1 <1>   0.0800 
 49 H       -8.9320     3.8900    -1.2300 H     1 <1>   0.0800 
 50 H       -8.1360     6.6420    -2.2410 H     1 <1>   0.0800 
 51 H       -9.7200     5.9280    -2.4250 H     1 <1>   0.0800 
 52 H       -8.3480     5.2130    -3.2380 H     1 <1>   0.0800 
@<TRIPOS>BOND
  1   1   2  1   
  2   1   3  1   
  3   2   4  ar  
  4   2   5  ar  
  5   3   6  1   
  6   3   7  2   
  7   4   8  ar  
  8   5   7  1   
  9   5   9  ar  
 10   6  10  2   
 11   6  11  am  
 12   7  12  1   
 13   8  13  ar  
 14   8  14  1   
 15   9  13  ar  
 16   9  28  1   
 17  11  15  1   
 18  11  16  1   
 19  12  15  2   
 20  13  17  1   
 21  14  18  1   
 22  14  29  1   
 23  14  30  1   
 24  15  19  1   
 25  16  20  1   
 26  16  31  1   
 27  16  32  1   
 28  17  21  1   
 29  17  33  1   
 30  17  34  1   
 31  18  21  1   
 32  18  22  1   
 33  18  23  1   
 34  19  35  1   
 35  19  36  1   
 36  19  37  1   
 37  20  24  1   
 38  20  38  1   
 39  20  39  1   
 40  22  40  1   
 41  22  41  1   
 42  22  42  1   
 43  23  43  1   
 44  23  44  1   
 45  23  45  1   
 46  24  25  1   
 47  24  46  1   
 48  24  47  1   
 49  25  26  1   
 50  26  27  1   
 51  26  48  1   
 52  26  49  1   
 53  27  50  1   
 54  27  51  1   
 55  27  52  1   
@<TRIPOS>SUBSTRUCTURE
  1 ****   7 GROUP 4 **** **** 0

# MOE 2024.06 (io_trps.svl 2023.06)
