@<TRIPOS>MOLECULE
NONAME
40 41 1 0 0 
SMALL
USER_CHARGES


@<TRIPOS>ATOM
  1 S        0.1520    -0.2160     0.8550 S.o2  1 <1>   1.4470 
  2 O       -1.0150     0.1350     0.0720 O.2   1 <1>  -0.6500 
  3 O        0.0290    -0.2530     2.2960 O.2   1 <1>  -0.6500 
  4 N        0.6030    -1.7740     0.3660 N.am  1 <1>  -0.8490 
  5 C        1.5680     0.8490     0.4120 C.ar  1 <1>  -0.0090 
  6 C        0.5440    -2.0130    -1.0680 C.3   1 <1>   0.1960 
  7 C       -0.2080    -2.8170     0.9650 C.3   1 <1>   0.1960 
  8 C        1.4590     2.2400     0.3360 C.ar  1 <1>  -0.1440 
  9 C        2.8150     0.2880     0.1610 C.ar  1 <1>  -0.1500 
 10 C        0.6360    -3.5270    -1.1920 C.3   1 <1>  -0.1600 
 11 C        0.0800    -4.0590     0.1290 C.3   1 <1>  -0.1600 
 12 C        2.5580     3.0090    -0.0130 C.ar  1 <1>  -0.1500 
 13 C        0.1440     2.9530     0.6300 C.3   1 <1>  -0.0970 
 14 C        3.9350     1.0360    -0.1900 C.ar  1 <1>   0.0860 
 15 C        3.7760     2.4160    -0.2770 C.ar  1 <1>  -0.1500 
 16 C        5.2070     0.3900    -0.4580 C.2   1 <1>   0.5440 
 17 O        5.2440    -0.7130    -0.9670 O.2   1 <1>  -0.5700 
 18 N        6.3820     1.0060    -0.1280 N.am  1 <1>  -0.7300 
 19 C        7.7290     0.4530    -0.3690 C.3   1 <1>   0.1400 
 20 C        8.6540     1.5910    -0.7830 C.3   1 <1>  -0.2400 
 21 H        1.3490    -1.5180    -1.5850 H     1 <1>   0.0800 
 22 H       -0.4010    -1.6790    -1.4670 H     1 <1>   0.0800 
 23 H       -1.2530    -2.5570     0.8890 H     1 <1>   0.0800 
 24 H        0.0510    -2.9570     2.0020 H     1 <1>   0.0800 
 25 H        2.9410    -0.7790     0.2400 H     1 <1>   0.1500 
 26 H        1.6680    -3.8130    -1.3030 H     1 <1>   0.0800 
 27 H        0.0800    -3.8810    -2.0420 H     1 <1>   0.0800 
 28 H       -0.8180    -4.6340    -0.0130 H     1 <1>   0.0800 
 29 H        0.8140    -4.6700     0.6250 H     1 <1>   0.0800 
 30 H        2.4700     4.0800    -0.0830 H     1 <1>   0.1500 
 31 H       -0.2670     2.6180     1.5670 H     1 <1>   0.0800 
 32 H       -0.5680     2.7550    -0.1520 H     1 <1>   0.0800 
 33 H        0.2850     4.0170     0.6950 H     1 <1>   0.0800 
 34 H        4.6110     3.0310    -0.5620 H     1 <1>   0.1500 
 35 H        6.3540     1.8660     0.4190 H     1 <1>   0.3700 
 36 H        7.6880    -0.2910    -1.1480 H     1 <1>   0.0800 
 37 H        8.0890    -0.0150     0.5320 H     1 <1>   0.0800 
 38 H        8.2920     2.0540    -1.6840 H     1 <1>   0.0800 
 39 H        9.6370     1.2020    -0.9730 H     1 <1>   0.0800 
 40 H        8.7240     2.3260    -0.0010 H     1 <1>   0.0800 
@<TRIPOS>BOND
  1   1   2  2   
  2   1   3  2   
  3   1   4  am  
  4   1   5  1   
  5   4   6  1   
  6   4   7  1   
  7   5   8  ar  
  8   5   9  ar  
  9   6  10  1   
 10   6  21  1   
 11   6  22  1   
 12   7  11  1   
 13   7  23  1   
 14   7  24  1   
 15   8  12  ar  
 16   8  13  1   
 17   9  14  ar  
 18   9  25  1   
 19  10  11  1   
 20  10  26  1   
 21  10  27  1   
 22  11  28  1   
 23  11  29  1   
 24  12  15  ar  
 25  12  30  1   
 26  13  31  1   
 27  13  32  1   
 28  13  33  1   
 29  14  15  ar  
 30  14  16  1   
 31  15  34  1   
 32  16  17  2   
 33  16  18  am  
 34  18  19  1   
 35  18  35  1   
 36  19  20  1   
 37  19  36  1   
 38  19  37  1   
 39  20  38  1   
 40  20  39  1   
 41  20  40  1   
@<TRIPOS>SUBSTRUCTURE
  1 ****   9 GROUP 4 **** **** 0

# MOE 2024.06 (io_trps.svl 2023.06)
