@<TRIPOS>MOLECULE
NONAME
43 45 1 0 0 
SMALL
USER_CHARGES


@<TRIPOS>ATOM
  1 O       -0.7000     0.1760     0.1020 O.2   1 <1>  -0.5700 
  2 C       -0.9150     1.3660     0.0320 C.2   1 <1>   0.4950 
  3 C       -2.1510     2.0130    -0.2620 C.2   1 <1>  -0.0260 
  4 C        0.1530     2.4050     0.3170 C.3   1 <1>  -0.0040 
  5 C       -3.3850     1.4610    -0.3950 C.2   1 <1>  -0.0290 
  6 C       -1.7980     3.4770    -0.4210 C.3   1 <1>  -0.0600 
  7 C       -0.7190     3.6140     0.6690 C.3   1 <1>  -0.1950 
  8 N       -3.5590     0.0900    -0.2450 N.am  1 <1>  -0.5390 
  9 C       -4.6170     2.3000    -0.7110 C.3   1 <1>  -0.1020 
 10 C       -1.5340     4.7720     0.2330 C.3   1 <1>  -0.1900 
 11 C       -4.6440    -0.7610    -0.2970 C.2   1 <1>   0.6160 
 12 C       -2.6090     5.3290     1.1740 C.3   1 <1>  -0.1450 
 13 C       -0.8340     5.8840    -0.5550 C.3   1 <1>  -0.1450 
 14 O       -5.7640    -0.3350    -0.4970 O.2   1 <1>  -0.5700 
 15 C       -4.4210    -2.1660    -0.1060 C.2   1 <1>  -0.1360 
 16 C       -5.3550    -3.1470    -0.1180 C.2   1 <1>  -0.1780 
 17 C       -5.1870    -4.5680     0.0670 C.ar  1 <1>   0.0280 
 18 C       -3.9430    -5.1670     0.2750 C.ar  1 <1>  -0.1500 
 19 C       -6.3020    -5.4040     0.0420 C.ar  1 <1>  -0.1500 
 20 C       -3.8210    -6.5340     0.4480 C.ar  1 <1>  -0.1500 
 21 C       -6.1880    -6.7710     0.2150 C.ar  1 <1>  -0.1500 
 22 C       -4.9440    -7.3400     0.4190 C.ar  1 <1>  -0.1500 
 23 H        0.7680     2.1020     1.1440 H     1 <1>   0.0800 
 24 H        0.7570     2.5830    -0.5540 H     1 <1>   0.0800 
 25 H       -1.5710     3.5840    -1.4690 H     1 <1>   0.1000 
 26 H       -0.9370     3.4690     1.7150 H     1 <1>   0.1000 
 27 H       -2.6740    -0.3990    -0.0620 H     1 <1>   0.3700 
 28 H       -5.3380     2.1990     0.0800 H     1 <1>   0.0800 
 29 H       -5.0640     1.9610    -1.6280 H     1 <1>   0.0800 
 30 H       -4.3810     3.3420    -0.8180 H     1 <1>   0.0800 
 31 H       -2.1650     5.9910     1.8960 H     1 <1>   0.0800 
 32 H       -3.1070     4.5340     1.7010 H     1 <1>   0.0800 
 33 H       -3.3470     5.8740     0.6130 H     1 <1>   0.0800 
 34 H       -1.5450     6.4120    -1.1650 H     1 <1>   0.0800 
 35 H       -0.0690     5.4780    -1.1940 H     1 <1>   0.0800 
 36 H       -0.3730     6.5810     0.1210 H     1 <1>   0.0800 
 37 H       -3.3920    -2.4130     0.0590 H     1 <1>   0.1500 
 38 H       -6.3770    -2.8530    -0.2860 H     1 <1>   0.1500 
 39 H       -3.0540    -4.5670     0.3010 H     1 <1>   0.1500 
 40 H       -7.2770    -4.9770    -0.1160 H     1 <1>   0.1500 
 41 H       -2.8520    -6.9720     0.6070 H     1 <1>   0.1500 
 42 H       -7.0660    -7.3930     0.1910 H     1 <1>   0.1500 
 43 H       -4.8520    -8.4040     0.5540 H     1 <1>   0.1500 
@<TRIPOS>BOND
  1   1   2  2   
  2   2   3  1   
  3   2   4  1   
  4   3   5  2   
  5   3   6  1   
  6   4   7  1   
  7   4  23  1   
  8   4  24  1   
  9   5   8  1   
 10   5   9  1   
 11   6   7  1   
 12   6  10  1   
 13   6  25  1   
 14   7  10  1   
 15   7  26  1   
 16   8  11  am  
 17   8  27  1   
 18   9  28  1   
 19   9  29  1   
 20   9  30  1   
 21  10  12  1   
 22  10  13  1   
 23  11  14  2   
 24  11  15  1   
 25  12  31  1   
 26  12  32  1   
 27  12  33  1   
 28  13  34  1   
 29  13  35  1   
 30  13  36  1   
 31  15  16  2   
 32  15  37  1   
 33  16  17  1   
 34  16  38  1   
 35  17  18  ar  
 36  17  19  ar  
 37  18  20  ar  
 38  18  39  1   
 39  19  21  ar  
 40  19  40  1   
 41  20  22  ar  
 42  20  41  1   
 43  21  22  ar  
 44  21  42  1   
 45  22  43  1   
@<TRIPOS>SUBSTRUCTURE
  1 ****   8 GROUP 4 **** **** 0

# MOE 2024.06 (io_trps.svl 2023.06)
