@<TRIPOS>MOLECULE
NONAME
56 59 1 0 0 
SMALL
USER_CHARGES


@<TRIPOS>ATOM
  1 O        3.8630     1.0730    -1.6020 O.2   1 <1>  -0.5700 
  2 C        3.7280     2.2580    -1.3260 C.2   1 <1>   0.5440 
  3 N        4.6230     3.2010    -1.8170 N.am  1 <1>  -0.2980 
  4 C        2.6550     2.7260    -0.4960 C.ar  1 <1>   0.0860 
  5 N        4.5590     4.5390    -1.5540 N.2   1 <1>  -0.5120 
  6 C        5.7220     2.7580    -2.7060 C.3   1 <1>   0.0600 
  7 C        2.5840     4.1010    -0.2320 C.ar  1 <1>   0.0860 
  8 C        1.6940     1.8690     0.0480 C.ar  1 <1>  -0.1500 
  9 C        3.5840     4.9690    -0.8090 C.2   1 <1>   0.2780 
 10 C        1.5410     4.5650     0.5840 C.ar  1 <1>  -0.1500 
 11 C        0.6770     2.3490     0.8430 C.ar  1 <1>  -0.1500 
 12 C        3.5060     6.3840    -0.5520 C.ar  1 <1>   0.0860 
 13 C        0.6020     3.7060     1.1130 C.ar  1 <1>  -0.1500 
 14 C        4.2500     6.9660     0.4690 C.ar  1 <1>  -0.1500 
 15 C        2.6990     7.2190    -1.3180 C.ar  1 <1>  -0.1500 
 16 C        4.2280     8.3300     0.7100 C.ar  1 <1>  -0.1430 
 17 C        2.6490     8.5790    -1.0750 C.ar  1 <1>  -0.1500 
 18 C        3.4130     9.1480    -0.0670 C.ar  1 <1>  -0.1430 
 19 C        5.1490     8.8610     1.8010 C.3   1 <1>   0.2840 
 20 C        3.3460    10.6540     0.1440 C.3   1 <1>  -0.0970 
 21 N        6.5230     8.7260     1.2970 N.am  1 <1>  -0.7300 
 22 C        7.4830     7.9400     1.8390 C.2   1 <1>   0.5690 
 23 O        7.4110     7.5240     2.9710 O.2   1 <1>  -0.5700 
 24 C        8.6680     7.5500     0.9460 C.3   1 <1>   0.1710 
 25 N        8.3640     7.6030    -0.5220 N.3   1 <1>  -0.8100 
 26 C        9.5980     7.5450    -1.3260 C.3   1 <1>   0.1100 
 27 C        7.4510     6.4960    -0.9210 C.3   1 <1>   0.1100 
 28 C       10.3140     6.1730    -1.2520 C.3   1 <1>   0.1200 
 29 C        8.1650     5.2270    -1.4350 C.3   1 <1>   0.1200 
 30 O        9.4560     5.1190    -0.9070 O.3   1 <1>  -0.5600 
 31 H        6.4360     2.1930    -2.1350 H     1 <1>   0.0800 
 32 H        6.2060     3.6110    -3.1470 H     1 <1>   0.0800 
 33 H        5.3240     2.1370    -3.4890 H     1 <1>   0.0800 
 34 H        1.7570     0.8140    -0.1630 H     1 <1>   0.1500 
 35 H        1.4610     5.6140     0.8110 H     1 <1>   0.1500 
 36 H       -0.0570     1.6770     1.2560 H     1 <1>   0.1500 
 37 H       -0.1920     4.0820     1.7370 H     1 <1>   0.1500 
 38 H        4.8740     6.3300     1.0740 H     1 <1>   0.1500 
 39 H        2.1130     6.7950    -2.1150 H     1 <1>   0.1500 
 40 H        2.0140     9.1960    -1.6870 H     1 <1>   0.1500 
 41 H        5.0260     8.2830     2.7020 H     1 <1>   0.0800 
 42 H        4.9540     9.8920     2.0340 H     1 <1>   0.0800 
 43 H        2.9650    10.8720     1.1250 H     1 <1>   0.0800 
 44 H        2.6990    11.1170    -0.5790 H     1 <1>   0.0800 
 45 H        4.3250    11.0850     0.0410 H     1 <1>   0.0800 
 46 H        6.6340     8.9010     0.2920 H     1 <1>   0.3700 
 47 H        8.9890     6.5600     1.2200 H     1 <1>   0.0800 
 48 H        9.4690     8.2310     1.1690 H     1 <1>   0.0800 
 49 H       10.2750     8.3260    -1.0240 H     1 <1>   0.0800 
 50 H        9.3410     7.7380    -2.3540 H     1 <1>   0.0800 
 51 H        6.7900     6.8470    -1.6950 H     1 <1>   0.0800 
 52 H        6.8270     6.2140    -0.0930 H     1 <1>   0.0800 
 53 H       11.0890     6.2060    -0.5080 H     1 <1>   0.0800 
 54 H       10.7670     5.9420    -2.2000 H     1 <1>   0.0800 
 55 H        8.2380     5.2460    -2.5080 H     1 <1>   0.0800 
 56 H        7.6100     4.3520    -1.1450 H     1 <1>   0.0800 
@<TRIPOS>BOND
  1   1   2  2   
  2   2   3  am  
  3   2   4  1   
  4   3   5  1   
  5   3   6  1   
  6   4   7  ar  
  7   4   8  ar  
  8   5   9  2   
  9   6  31  1   
 10   6  32  1   
 11   6  33  1   
 12   7   9  1   
 13   7  10  ar  
 14   8  11  ar  
 15   8  34  1   
 16   9  12  1   
 17  10  13  ar  
 18  10  35  1   
 19  11  13  ar  
 20  11  36  1   
 21  12  14  ar  
 22  12  15  ar  
 23  13  37  1   
 24  14  16  ar  
 25  14  38  1   
 26  15  17  ar  
 27  15  39  1   
 28  16  18  ar  
 29  16  19  1   
 30  17  18  ar  
 31  17  40  1   
 32  18  20  1   
 33  19  21  1   
 34  19  41  1   
 35  19  42  1   
 36  20  43  1   
 37  20  44  1   
 38  20  45  1   
 39  21  22  am  
 40  21  46  1   
 41  22  23  2   
 42  22  24  1   
 43  24  25  1   
 44  24  47  1   
 45  24  48  1   
 46  25  26  1   
 47  25  27  1   
 48  26  28  1   
 49  26  49  1   
 50  26  50  1   
 51  27  29  1   
 52  27  51  1   
 53  27  52  1   
 54  28  30  1   
 55  28  53  1   
 56  28  54  1   
 57  29  30  1   
 58  29  55  1   
 59  29  56  1   
@<TRIPOS>SUBSTRUCTURE
  1 ****  14 GROUP 4 **** **** 0

# MOE 2024.06 (io_trps.svl 2023.06)
