@<TRIPOS>MOLECULE
NONAME
34 36 1 0 0 
SMALL
USER_CHARGES


@<TRIPOS>ATOM
  1 N       -0.3080    -0.1150    -0.0710 N.2   1 <1>  -0.6520 
  2 N       -0.1800     1.2650     0.0410 N.pl3 1 <1>   0.5050 
  3 C       -1.3230    -0.6070     0.5640 C.2   1 <1>   0.4860 
  4 C       -1.0040     2.0870     0.7340 C.2   1 <1>   0.1420 
  5 C        0.7190     2.1150    -0.4610 C.2   1 <1>   0.0060 
  6 N       -1.5140    -1.9750     0.4980 N.pl3 1 <1>  -0.7880 
  7 C       -2.2470     0.1660     1.3200 C.2   1 <1>  -0.1360 
  8 N       -0.6140     3.3340     0.6440 N.2   1 <1>  -0.3380 
  9 C       -2.0970     1.5130     1.4120 C.2   1 <1>  -0.1050 
 10 N        0.4760     3.3410    -0.1140 N.2   1 <1>  -0.3380 
 11 C        1.8840     1.6910    -1.3340 C.3   1 <1>  -0.0600 
 12 C       -0.4330    -2.7690     1.1620 C.3   1 <1>   0.2090 
 13 C       -1.8490    -2.4720    -0.8730 C.3   1 <1>   0.2090 
 14 C       -0.7390    -4.2820     1.1450 C.3   1 <1>   0.3430 
 15 C       -2.1470    -3.9880    -0.8770 C.3   1 <1>   0.3430 
 16 N       -1.0420    -4.7960    -0.2410 N.4   1 <1>  -0.9590 
 17 C       -1.3830    -6.2520    -0.2170 C.3   1 <1>   0.2630 
 18 H       -3.0530    -0.3510     1.8060 H     1 <1>   0.1500 
 19 H       -2.7590     2.1560     1.9660 H     1 <1>   0.1500 
 20 H        1.5200     1.2130    -2.2250 H     1 <1>   0.0800 
 21 H        2.5140     1.0060    -0.7980 H     1 <1>   0.0800 
 22 H        2.4660     2.5510    -1.6140 H     1 <1>   0.0800 
 23 H       -0.3310    -2.4400     2.1820 H     1 <1>   0.0800 
 24 H        0.5070    -2.5860     0.6660 H     1 <1>   0.0800 
 25 H       -1.0320    -2.2640    -1.5440 H     1 <1>   0.0800 
 26 H       -2.7130    -1.9420    -1.2390 H     1 <1>   0.0800 
 27 H       -1.5860    -4.4590     1.7870 H     1 <1>   0.0800 
 28 H        0.1020    -4.8140     1.5570 H     1 <1>   0.0800 
 29 H       -2.3000    -4.3110    -1.8930 H     1 <1>   0.0800 
 30 H       -3.0660    -4.1490    -0.3390 H     1 <1>   0.0800 
 31 H       -0.1940    -4.6650    -0.8130 H     1 <1>   0.4500 
 32 H       -2.2680    -6.4220     0.3750 H     1 <1>   0.0800 
 33 H       -0.5710    -6.8210     0.2090 H     1 <1>   0.0800 
 34 H       -1.5630    -6.6130    -1.2170 H     1 <1>   0.0800 
@<TRIPOS>BOND
  1   1   2  1   
  2   1   3  2   
  3   2   4  1   
  4   2   5  1   
  5   3   6  1   
  6   3   7  1   
  7   4   8  2   
  8   4   9  1   
  9   5  10  2   
 10   5  11  1   
 11   6  12  1   
 12   6  13  1   
 13   7   9  2   
 14   7  18  1   
 15   8  10  1   
 16   9  19  1   
 17  11  20  1   
 18  11  21  1   
 19  11  22  1   
 20  12  14  1   
 21  12  23  1   
 22  12  24  1   
 23  13  15  1   
 24  13  25  1   
 25  13  26  1   
 26  14  16  1   
 27  14  27  1   
 28  14  28  1   
 29  15  16  1   
 30  15  29  1   
 31  15  30  1   
 32  16  17  1   
 33  16  31  1   
 34  17  32  1   
 35  17  33  1   
 36  17  34  1   
@<TRIPOS>SUBSTRUCTURE
  1 ****   3 GROUP 4 **** **** 0

# MOE 2024.06 (io_trps.svl 2023.06)
