@<TRIPOS>MOLECULE
NONAME
49 51 1 0 0 
SMALL
USER_CHARGES


@<TRIPOS>ATOM
  1 O        0.5530     0.4820    -0.6520 O.2   1 <1>  -0.5700 
  2 C        0.9690     1.5210    -0.1760 C.2   1 <1>   0.5440 
  3 N        2.2560     1.5580     0.3190 N.am  1 <1>  -0.6600 
  4 C        0.1130     2.6940    -0.1640 C.ar  1 <1>   0.0860 
  5 C        3.0610     0.3110     0.5110 C.3   1 <1>   0.1400 
  6 C        3.0650     2.8110     0.4280 C.3   1 <1>   0.1400 
  7 C       -0.5410     3.1170    -1.3160 C.ar  1 <1>  -0.1500 
  8 C       -0.0870     3.4430     0.9910 C.ar  1 <1>  -0.1500 
  9 C        4.2380     0.2750    -0.4720 C.3   1 <1>   0.1400 
 10 C        4.2660     2.7770    -0.5340 C.3   1 <1>   0.1400 
 11 C       -1.3380     4.2470    -1.3230 C.ar  1 <1>  -0.1500 
 12 C       -0.8830     4.5730     0.9880 C.ar  1 <1>  -0.1500 
 13 N        5.0600     1.5220    -0.3590 N.am  1 <1>  -0.6600 
 14 C       -1.5230     5.0040    -0.1690 C.ar  1 <1>  -0.1430 
 15 C        6.3260     1.5060     0.1940 C.2   1 <1>   0.7150 
 16 C       -2.4010     6.2740    -0.1250 C.3   1 <1>   0.1430 
 17 O        6.6730     0.5130     0.8110 O.2   1 <1>  -0.5700 
 18 C        7.2270     2.6300     0.0470 C.2   1 <1>   0.0550 
 19 C       -1.5490     7.4750     0.3110 C.3   1 <1>  -0.2400 
 20 C       -3.0300     6.6230    -1.4850 C.3   1 <1>  -0.2400 
 21 C       -3.5470     6.0710     0.8770 C.3   1 <1>  -0.2400 
 22 O        8.0110     3.0210     1.0480 O.3   1 <1>  -0.2800 
 23 C        7.4560     3.4520    -1.0180 C.2   1 <1>  -0.1500 
 24 C        8.7230     4.0530     0.6570 C.2   1 <1>  -0.0100 
 25 C        8.4250     4.3740    -0.6200 C.2   1 <1>  -0.1500 
 26 H        2.4490    -0.5630     0.3680 H     1 <1>   0.0800 
 27 H        3.4400     0.2830     1.5170 H     1 <1>   0.0800 
 28 H        3.4220     2.9110     1.4380 H     1 <1>   0.0800 
 29 H        2.4670     3.6750     0.2000 H     1 <1>   0.0800 
 30 H       -0.4200     2.5430    -2.2190 H     1 <1>   0.1500 
 31 H        0.3890     3.1300     1.9040 H     1 <1>   0.1500 
 32 H        3.8560     0.1910    -1.4740 H     1 <1>   0.0800 
 33 H        4.8390    -0.5970    -0.2780 H     1 <1>   0.0800 
 34 H        4.8730     3.6450    -0.3530 H     1 <1>   0.0800 
 35 H        3.9080     2.8280    -1.5480 H     1 <1>   0.0800 
 36 H       -1.8100     4.5140    -2.2500 H     1 <1>   0.1500 
 37 H       -1.0040     5.1180     1.9070 H     1 <1>   0.1500 
 38 H       -0.7240     7.6060    -0.3660 H     1 <1>   0.0800 
 39 H       -1.1540     7.3330     1.3000 H     1 <1>   0.0800 
 40 H       -2.1360     8.3770     0.3140 H     1 <1>   0.0800 
 41 H       -2.2660     6.7970    -2.2210 H     1 <1>   0.0800 
 42 H       -3.6270     7.5140    -1.4090 H     1 <1>   0.0800 
 43 H       -3.6670     5.8250    -1.8220 H     1 <1>   0.0800 
 44 H       -3.1720     5.9150     1.8710 H     1 <1>   0.0800 
 45 H       -4.1300     5.2110     0.5980 H     1 <1>   0.0800 
 46 H       -4.1930     6.9310     0.8960 H     1 <1>   0.0800 
 47 H        6.9970     3.4100    -1.9900 H     1 <1>   0.1500 
 48 H        9.4190     4.4980     1.3460 H     1 <1>   0.1500 
 49 H        8.8360     5.1630    -1.2260 H     1 <1>   0.1500 
@<TRIPOS>BOND
  1   1   2  2   
  2   2   3  am  
  3   2   4  1   
  4   3   5  1   
  5   3   6  1   
  6   4   7  ar  
  7   4   8  ar  
  8   5   9  1   
  9   5  26  1   
 10   5  27  1   
 11   6  10  1   
 12   6  28  1   
 13   6  29  1   
 14   7  11  ar  
 15   7  30  1   
 16   8  12  ar  
 17   8  31  1   
 18   9  13  1   
 19   9  32  1   
 20   9  33  1   
 21  10  13  1   
 22  10  34  1   
 23  10  35  1   
 24  11  14  ar  
 25  11  36  1   
 26  12  14  ar  
 27  12  37  1   
 28  13  15  am  
 29  14  16  1   
 30  15  17  2   
 31  15  18  1   
 32  16  19  1   
 33  16  20  1   
 34  16  21  1   
 35  18  22  1   
 36  18  23  2   
 37  19  38  1   
 38  19  39  1   
 39  19  40  1   
 40  20  41  1   
 41  20  42  1   
 42  20  43  1   
 43  21  44  1   
 44  21  45  1   
 45  21  46  1   
 46  22  24  1   
 47  23  25  1   
 48  23  47  1   
 49  24  25  2   
 50  24  48  1   
 51  25  49  1   
@<TRIPOS>SUBSTRUCTURE
  1 ****   6 GROUP 4 **** **** 0

# MOE 2024.06 (io_trps.svl 2023.06)
