@<TRIPOS>MOLECULE
NONAME
31 31 1 0 0 
SMALL
USER_CHARGES


@<TRIPOS>ATOM
  1 CL       1.1140     0.9640    -1.6480 Cl    1 <1>  -0.1770 
  2 C        0.5340     2.1980    -0.5520 C.ar  1 <1>   0.1770 
  3 C        1.2860     2.6120     0.5520 C.ar  1 <1>   0.0860 
  4 C       -0.7110     2.7310    -0.8360 C.ar  1 <1>  -0.1500 
  5 C        2.6010     2.0970     0.8860 C.2   1 <1>   0.5440 
  6 C        0.7040     3.5860     1.3660 C.ar  1 <1>  -0.1500 
  7 C       -1.2590     3.7000    -0.0150 C.ar  1 <1>  -0.1430 
  8 O        2.9260     1.9750     2.0510 O.2   1 <1>  -0.5700 
  9 N        3.5120     1.7770    -0.0800 N.am  1 <1>  -0.7300 
 10 C       -0.5410     4.1230     1.0900 C.ar  1 <1>  -0.1500 
 11 C       -2.6240     4.2950    -0.3130 C.3   1 <1>  -0.0970 
 12 C        4.8570     1.2280     0.1440 C.3   1 <1>   0.2200 
 13 C        5.8760     2.2100    -0.4500 C.3   1 <1>  -0.1600 
 14 C        4.9010    -0.1500    -0.5140 C.3   1 <1>  -0.2400 
 15 C        7.3340     1.8110    -0.1830 C.3   1 <1>  -0.2400 
 16 H       -1.2460     2.3800    -1.7000 H     1 <1>   0.1500 
 17 H        1.2450     3.9260     2.2330 H     1 <1>   0.1500 
 18 H        3.2140     1.7850    -1.0560 H     1 <1>   0.3700 
 19 H       -0.9510     4.8750     1.7440 H     1 <1>   0.1500 
 20 H       -3.1710     3.6730    -0.9990 H     1 <1>   0.0800 
 21 H       -2.5090     5.2710    -0.7480 H     1 <1>   0.0800 
 22 H       -3.1960     4.3840     0.5930 H     1 <1>   0.0800 
 23 H        5.0360     1.1250     1.2020 H     1 <1>   0.0800 
 24 H        5.7070     3.1770    -0.0080 H     1 <1>   0.0800 
 25 H        5.7220     2.2960    -1.5120 H     1 <1>   0.0800 
 26 H        4.7800    -0.0700    -1.5790 H     1 <1>   0.0800 
 27 H        4.1190    -0.7690    -0.1110 H     1 <1>   0.0800 
 28 H        5.8400    -0.6300    -0.3080 H     1 <1>   0.0800 
 29 H        7.5000     1.6860     0.8730 H     1 <1>   0.0800 
 30 H        7.9940     2.5800    -0.5420 H     1 <1>   0.0800 
 31 H        7.5820     0.8940    -0.6860 H     1 <1>   0.0800 
@<TRIPOS>BOND
  1   1   2  1   
  2   2   3  ar  
  3   2   4  ar  
  4   3   5  1   
  5   3   6  ar  
  6   4   7  ar  
  7   4  16  1   
  8   5   8  2   
  9   5   9  am  
 10   6  10  ar  
 11   6  17  1   
 12   7  10  ar  
 13   7  11  1   
 14   9  12  1   
 15   9  18  1   
 16  10  19  1   
 17  11  20  1   
 18  11  21  1   
 19  11  22  1   
 20  12  13  1   
 21  12  14  1   
 22  12  23  1   
 23  13  15  1   
 24  13  24  1   
 25  13  25  1   
 26  14  26  1   
 27  14  27  1   
 28  14  28  1   
 29  15  29  1   
 30  15  30  1   
 31  15  31  1   
@<TRIPOS>SUBSTRUCTURE
  1 ****   3 GROUP 4 **** **** 0

# MOE 2024.06 (io_trps.svl 2023.06)
