@<TRIPOS>MOLECULE
NONAME
43 45 1 0 0 
SMALL
USER_CHARGES


@<TRIPOS>ATOM
  1 F        1.0560    -2.3820     1.5670 F     1 <1>  -0.1900 
  2 C        0.3030    -2.5070     0.5000 C.ar  1 <1>   0.1900 
  3 C        0.8950    -2.6900    -0.7560 C.ar  1 <1>   0.1000 
  4 C       -1.0650    -2.4480     0.6820 C.ar  1 <1>  -0.1500 
  5 N        2.2730    -2.7570    -1.0000 N.pl3 1 <1>  -0.8380 
  6 C        0.0340    -2.8150    -1.8390 C.ar  1 <1>  -0.1500 
  7 C       -1.8950    -2.5760    -0.4200 C.ar  1 <1>  -0.1500 
  8 C        3.0130    -3.9960    -0.6130 C.3   1 <1>   0.2090 
  9 C        3.0800    -1.5020    -0.9290 C.3   1 <1>   0.2090 
 10 C       -1.3420    -2.7590    -1.6780 C.ar  1 <1>  -0.1500 
 11 C        3.8790    -3.8040     0.6470 C.3   1 <1>   0.1100 
 12 C        3.9440    -1.4170     0.3450 C.3   1 <1>   0.1100 
 13 N        4.7740    -2.6250     0.5510 N.3   1 <1>  -0.8100 
 14 C        5.5970    -2.4860     1.7900 C.3   1 <1>   0.1710 
 15 C        6.7320    -3.5090     1.9120 C.2   1 <1>   0.5690 
 16 O        7.1910    -3.7680     2.9990 O.2   1 <1>  -0.5700 
 17 N        7.1920    -4.0920     0.7810 N.am  1 <1>  -0.7300 
 18 C        8.3170    -5.0430     0.6880 C.3   1 <1>   0.3200 
 19 C        9.1520    -4.7570    -0.5490 C.2   1 <1>  -0.0400 
 20 O       10.1020    -5.6150    -0.8720 O.3   1 <1>  -0.2800 
 21 C        9.1170    -3.7400    -1.4410 C.2   1 <1>  -0.1500 
 22 C       10.6890    -5.1710    -1.9650 C.2   1 <1>  -0.0100 
 23 C       10.1270    -4.0140    -2.3720 C.2   1 <1>  -0.1500 
 24 H       -1.4720    -2.3060     1.6660 H     1 <1>   0.1500 
 25 H        0.4590    -2.9570    -2.8160 H     1 <1>   0.1500 
 26 H       -2.9640    -2.5340    -0.3000 H     1 <1>   0.1500 
 27 H        3.6470    -4.2870    -1.4320 H     1 <1>   0.0800 
 28 H        2.3110    -4.7940    -0.4430 H     1 <1>   0.0800 
 29 H        2.4210    -0.6520    -0.9690 H     1 <1>   0.0800 
 30 H        3.7240    -1.4590    -1.7900 H     1 <1>   0.0800 
 31 H       -1.9840    -2.8590    -2.5360 H     1 <1>   0.1500 
 32 H        4.4670    -4.6940     0.7930 H     1 <1>   0.0800 
 33 H        3.2290    -3.7010     1.4990 H     1 <1>   0.0800 
 34 H        3.2990    -1.2670     1.1930 H     1 <1>   0.0800 
 35 H        4.5840    -0.5560     0.2620 H     1 <1>   0.0800 
 36 H        4.9680    -2.5620     2.6590 H     1 <1>   0.0800 
 37 H        6.0560    -1.5140     1.8010 H     1 <1>   0.0800 
 38 H        6.7090    -3.8540    -0.0900 H     1 <1>   0.3700 
 39 H        7.9270    -6.0430     0.6290 H     1 <1>   0.0800 
 40 H        8.9370    -4.9690     1.5660 H     1 <1>   0.0800 
 41 H        8.4680    -2.8830    -1.4610 H     1 <1>   0.1500 
 42 H       11.4990    -5.7400    -2.3870 H     1 <1>   0.1500 
 43 H       10.3750    -3.4040    -3.2220 H     1 <1>   0.1500 
@<TRIPOS>BOND
  1   1   2  1   
  2   2   3  ar  
  3   2   4  ar  
  4   3   5  1   
  5   3   6  ar  
  6   4   7  ar  
  7   4  24  1   
  8   5   8  1   
  9   5   9  1   
 10   6  10  ar  
 11   6  25  1   
 12   7  10  ar  
 13   7  26  1   
 14   8  11  1   
 15   8  27  1   
 16   8  28  1   
 17   9  12  1   
 18   9  29  1   
 19   9  30  1   
 20  10  31  1   
 21  11  13  1   
 22  11  32  1   
 23  11  33  1   
 24  12  13  1   
 25  12  34  1   
 26  12  35  1   
 27  13  14  1   
 28  14  15  1   
 29  14  36  1   
 30  14  37  1   
 31  15  16  2   
 32  15  17  am  
 33  17  18  1   
 34  17  38  1   
 35  18  19  1   
 36  18  39  1   
 37  18  40  1   
 38  19  20  1   
 39  19  21  2   
 40  20  22  1   
 41  21  23  1   
 42  21  41  1   
 43  22  23  2   
 44  22  42  1   
 45  23  43  1   
@<TRIPOS>SUBSTRUCTURE
  1 ****  13 GROUP 4 **** **** 0

# MOE 2024.06 (io_trps.svl 2023.06)
