@<TRIPOS>MOLECULE
NONAME
49 50 1 0 0 
SMALL
USER_CHARGES


@<TRIPOS>ATOM
  1 O       -1.6350     3.0870     0.1770 O.3   1 <1>  -0.3630 
  2 C       -2.9100     2.8690    -0.2330 C.ar  1 <1>   0.0830 
  3 C       -0.5320     2.7160    -0.6210 C.3   1 <1>   0.1200 
  4 C       -3.9170     3.2970     0.6150 C.ar  1 <1>  -0.1500 
  5 C       -3.2430     2.2530    -1.4370 C.ar  1 <1>  -0.1500 
  6 C        0.7500     3.1410     0.1060 C.3   1 <1>   0.2000 
  7 C       -5.2480     3.1220     0.2800 C.ar  1 <1>   0.0830 
  8 C       -4.5730     2.0750    -1.7770 C.ar  1 <1>  -0.1500 
  9 O        0.6410     4.4850     0.4710 O.3   1 <1>  -0.6800 
 10 C        2.0130     2.9580    -0.7620 C.3   1 <1>   0.3430 
 11 O       -6.1650     3.5740     1.1710 O.3   1 <1>  -0.3620 
 12 C       -5.5760     2.5060    -0.9250 C.ar  1 <1>  -0.1500 
 13 N        3.1030     3.8620    -0.2870 N.4   1 <1>  -0.9590 
 14 C       -7.5480     3.4500     0.9260 C.3   1 <1>   0.0400 
 15 C        4.0410     4.2880    -1.3570 C.3   1 <1>   0.3430 
 16 C        3.8010     3.3590     0.9410 C.3   1 <1>   0.3430 
 17 C        4.8280     5.5270    -0.8900 C.3   1 <1>  -0.0800 
 18 C        5.1020     4.1330     1.2470 C.3   1 <1>  -0.0800 
 19 C        5.0810     5.5460     0.6360 C.3   1 <1>  -0.1600 
 20 C        4.1170     6.8190    -1.3200 C.3   1 <1>  -0.2400 
 21 C        6.3490     3.3470     0.8030 C.3   1 <1>  -0.2400 
 22 H       -0.6160     3.2170    -1.5700 H     1 <1>   0.0800 
 23 H       -0.5580     1.6500    -0.7620 H     1 <1>   0.0800 
 24 H       -3.6690     3.7720     1.5450 H     1 <1>   0.1500 
 25 H       -2.4930     1.9060    -2.1210 H     1 <1>   0.1500 
 26 H        0.8460     2.5640     1.0100 H     1 <1>   0.0800 
 27 H       -4.8310     1.5990    -2.7070 H     1 <1>   0.1500 
 28 H       -0.2750     4.6400     0.8070 H     1 <1>   0.4000 
 29 H        1.7580     3.2160    -1.7760 H     1 <1>   0.0800 
 30 H        2.3340     1.9290    -0.7520 H     1 <1>   0.0800 
 31 H       -6.5980     2.3550    -1.2140 H     1 <1>   0.1500 
 32 H        2.5860     4.7130     0.0120 H     1 <1>   0.4500 
 33 H       -8.0740     3.8750     1.7610 H     1 <1>   0.0800 
 34 H       -7.7930     2.4070     0.8330 H     1 <1>   0.0800 
 35 H       -7.7930     3.9870     0.0270 H     1 <1>   0.0800 
 36 H        3.5030     4.5260    -2.2600 H     1 <1>   0.0800 
 37 H        4.7240     3.4840    -1.5720 H     1 <1>   0.0800 
 38 H        4.0380     2.3140     0.8290 H     1 <1>   0.0800 
 39 H        3.1330     3.4570     1.7820 H     1 <1>   0.0800 
 40 H        5.7810     5.5000    -1.3920 H     1 <1>   0.0800 
 41 H        5.1700     4.2340     2.3180 H     1 <1>   0.0800 
 42 H        4.2970     6.1020     1.1240 H     1 <1>   0.0800 
 43 H        6.0040     6.0600     0.8460 H     1 <1>   0.0800 
 44 H        3.1410     6.8950    -0.8730 H     1 <1>   0.0800 
 45 H        4.0080     6.8530    -2.3900 H     1 <1>   0.0800 
 46 H        4.6940     7.6770    -1.0190 H     1 <1>   0.0800 
 47 H        6.3670     3.1750    -0.2570 H     1 <1>   0.0800 
 48 H        6.3870     2.3930     1.3010 H     1 <1>   0.0800 
 49 H        7.2400     3.8900     1.0690 H     1 <1>   0.0800 
@<TRIPOS>BOND
  1   1   2  1   
  2   1   3  1   
  3   2   4  ar  
  4   2   5  ar  
  5   3   6  1   
  6   3  22  1   
  7   3  23  1   
  8   4   7  ar  
  9   4  24  1   
 10   5   8  ar  
 11   5  25  1   
 12   6   9  1   
 13   6  10  1   
 14   6  26  1   
 15   7  11  1   
 16   7  12  ar  
 17   8  12  ar  
 18   8  27  1   
 19   9  28  1   
 20  10  13  1   
 21  10  29  1   
 22  10  30  1   
 23  11  14  1   
 24  12  31  1   
 25  13  15  1   
 26  13  16  1   
 27  13  32  1   
 28  14  33  1   
 29  14  34  1   
 30  14  35  1   
 31  15  17  1   
 32  15  36  1   
 33  15  37  1   
 34  16  18  1   
 35  16  38  1   
 36  16  39  1   
 37  17  19  1   
 38  17  20  1   
 39  17  40  1   
 40  18  19  1   
 41  18  21  1   
 42  18  41  1   
 43  19  42  1   
 44  19  43  1   
 45  20  44  1   
 46  20  45  1   
 47  20  46  1   
 48  21  47  1   
 49  21  48  1   
 50  21  49  1   
@<TRIPOS>SUBSTRUCTURE
  1 ****   6 GROUP 4 **** **** 0

# MOE 2024.06 (io_trps.svl 2023.06)
