@<TRIPOS>MOLECULE
NONAME
43 45 1 0 0 
SMALL
USER_CHARGES


@<TRIPOS>ATOM
  1 O       -1.3680    -6.8620     1.9470 O.3   1 <1>  -0.5600 
  2 C       -1.7450    -8.1450     1.5200 C.3   1 <1>   0.1200 
  3 C       -1.9380    -5.8050     1.2310 C.3   1 <1>   0.1200 
  4 C       -1.8200    -8.2690    -0.0200 C.3   1 <1>   0.3430 
  5 C       -1.4510    -5.8120    -0.2360 C.3   1 <1>   0.3430 
  6 N       -1.0490    -7.1810    -0.7090 N.4   1 <1>  -0.9590 
  7 C       -1.0250    -7.2950    -2.2010 C.3   1 <1>   0.3430 
  8 C       -0.2860    -8.5530    -2.6860 C.3   1 <1>   0.1200 
  9 O        1.0030    -8.5890    -2.1070 O.3   1 <1>  -0.3630 
 10 C        1.2360    -9.2970    -0.9780 C.ar  1 <1>   0.0820 
 11 C        1.7780    -8.6470     0.1400 C.ar  1 <1>   0.0000 
 12 C        0.9380   -10.6530    -0.9430 C.ar  1 <1>  -0.1500 
 13 C        2.0830    -7.2270     0.1480 C.ar  1 <1>   0.0000 
 14 C        1.9930    -9.4100     1.2850 C.ar  1 <1>  -0.1500 
 15 C        1.1520   -11.3810     0.2110 C.ar  1 <1>  -0.1500 
 16 C        1.6680    -6.4160     1.2020 C.ar  1 <1>  -0.1500 
 17 C        2.7830    -6.6170    -0.8920 C.ar  1 <1>  -0.1500 
 18 C        1.6800   -10.7560     1.3270 C.ar  1 <1>  -0.1500 
 19 C        1.9070    -5.0540     1.2050 C.ar  1 <1>  -0.1500 
 20 C        3.0250    -5.2560    -0.8980 C.ar  1 <1>  -0.1500 
 21 C        2.5830    -4.4690     0.1500 C.ar  1 <1>  -0.1500 
 22 H       -2.6960    -8.3860     1.9620 H     1 <1>   0.0800 
 23 H       -1.0140    -8.8360     1.9050 H     1 <1>   0.0800 
 24 H       -1.6540    -4.8840     1.7110 H     1 <1>   0.0800 
 25 H       -3.0100    -5.8960     1.2810 H     1 <1>   0.0800 
 26 H       -2.8540    -8.2200    -0.3170 H     1 <1>   0.0800 
 27 H       -1.4440    -9.2370    -0.3070 H     1 <1>   0.0800 
 28 H       -0.6050    -5.1490    -0.3210 H     1 <1>   0.0800 
 29 H       -2.2360    -5.4170    -0.8580 H     1 <1>   0.0800 
 30 H       -0.0670    -7.2980    -0.3910 H     1 <1>   0.4500 
 31 H       -0.5200    -6.4360    -2.6140 H     1 <1>   0.0800 
 32 H       -2.0310    -7.3000    -2.5850 H     1 <1>   0.0800 
 33 H       -0.1590    -8.5110    -3.7530 H     1 <1>   0.0800 
 34 H       -0.8290    -9.4470    -2.4420 H     1 <1>   0.0800 
 35 H        0.5570   -11.1500    -1.8170 H     1 <1>   0.1500 
 36 H        2.4210    -8.9460     2.1570 H     1 <1>   0.1500 
 37 H        0.9240   -12.4340     0.2420 H     1 <1>   0.1500 
 38 H        1.1520    -6.8520     2.0410 H     1 <1>   0.1500 
 39 H        3.1480    -7.2200    -1.7060 H     1 <1>   0.1500 
 40 H        1.8580   -11.3230     2.2260 H     1 <1>   0.1500 
 41 H        1.5780    -4.4500     2.0340 H     1 <1>   0.1500 
 42 H        3.5670    -4.8090    -1.7140 H     1 <1>   0.1500 
 43 H        2.7770    -3.4100     0.1500 H     1 <1>   0.1500 
@<TRIPOS>BOND
  1   1   2  1   
  2   1   3  1   
  3   2   4  1   
  4   2  22  1   
  5   2  23  1   
  6   3   5  1   
  7   3  24  1   
  8   3  25  1   
  9   4   6  1   
 10   4  26  1   
 11   4  27  1   
 12   5   6  1   
 13   5  28  1   
 14   5  29  1   
 15   6   7  1   
 16   6  30  1   
 17   7   8  1   
 18   7  31  1   
 19   7  32  1   
 20   8   9  1   
 21   8  33  1   
 22   8  34  1   
 23   9  10  1   
 24  10  11  ar  
 25  10  12  ar  
 26  11  13  1   
 27  11  14  ar  
 28  12  15  ar  
 29  12  35  1   
 30  13  16  ar  
 31  13  17  ar  
 32  14  18  ar  
 33  14  36  1   
 34  15  18  ar  
 35  15  37  1   
 36  16  19  ar  
 37  16  38  1   
 38  17  20  ar  
 39  17  39  1   
 40  18  40  1   
 41  19  21  ar  
 42  19  41  1   
 43  20  21  ar  
 44  20  42  1   
 45  21  43  1   
@<TRIPOS>SUBSTRUCTURE
  1 ****  11 GROUP 4 **** **** 0

# MOE 2024.06 (io_trps.svl 2023.06)
