@<TRIPOS>MOLECULE
NONAME
52 52 1 0 0 
SMALL
USER_CHARGES


@<TRIPOS>ATOM
  1 O       -1.2200     0.2990    -0.4850 O.2   1 <1>  -0.5700 
  2 C       -1.9480     1.1680    -0.0620 C.2   1 <1>   0.4950 
  3 C       -1.7410     2.5660    -0.3070 C.2   1 <1>   0.0290 
  4 C       -3.1280     0.7640     0.8160 C.3   1 <1>   0.0420 
  5 C       -2.9640     3.2400    -0.6050 C.2   1 <1>   0.4950 
  6 C       -0.4900     3.1760    -0.2450 C.2   1 <1>  -0.0380 
  7 C       -3.2330    -0.7460     0.9720 C.2   1 <1>   0.6590 
  8 C       -4.4470     1.4780     0.4050 C.3   1 <1>   0.0000 
  9 O       -3.1700     3.9570    -1.5560 O.2   1 <1>  -0.5700 
 10 C       -4.1470     2.9850     0.3110 C.3   1 <1>  -0.0990 
 11 N       -0.1970     4.4960    -0.4080 N.pl3 1 <1>  -0.8690 
 12 C        0.7580     2.3260     0.0600 C.3   1 <1>  -0.0220 
 13 O       -3.1240    -1.2520     2.0600 O.2   1 <1>  -0.5700 
 14 O       -3.4710    -1.4760    -0.1130 O.3   1 <1>  -0.4300 
 15 C       -4.9940     0.9980    -0.9560 C.3   1 <1>  -0.2400 
 16 C       -5.5390     1.2550     1.4670 C.3   1 <1>  -0.2400 
 17 C       -1.0410     5.6800    -0.6810 C.3   1 <1>   0.2090 
 18 C        1.9990     3.0910     0.5620 C.3   1 <1>  -0.1600 
 19 C       -3.5420    -2.8850    -0.0630 C.3   1 <1>   0.0400 
 20 C       -0.2540     6.9510    -0.3520 C.3   1 <1>  -0.1600 
 21 C        3.1280     2.1300     0.9520 C.3   1 <1>  -0.2400 
 22 C        0.9800     7.1490    -1.2490 C.3   1 <1>  -0.1600 
 23 C        1.6870     8.4680    -0.9250 C.3   1 <1>  -0.2400 
 24 H       -2.8730     1.1250     1.7950 H     1 <1>   0.0800 
 25 H       -3.9110     3.3840     1.2810 H     1 <1>   0.0800 
 26 H       -5.0080     3.5170    -0.0560 H     1 <1>   0.0800 
 27 H        0.7910     4.7710    -0.3620 H     1 <1>   0.4000 
 28 H        0.5140     1.5990     0.8140 H     1 <1>   0.0800 
 29 H        1.0240     1.7890    -0.8340 H     1 <1>   0.0800 
 30 H       -5.8120     1.6200    -1.2760 H     1 <1>   0.0800 
 31 H       -5.3670    -0.0090    -0.8930 H     1 <1>   0.0800 
 32 H       -4.2380     1.0260    -1.7210 H     1 <1>   0.0800 
 33 H       -5.2110     1.5890     2.4360 H     1 <1>   0.0800 
 34 H       -5.7950     0.2120     1.5420 H     1 <1>   0.0800 
 35 H       -6.4330     1.7970     1.2100 H     1 <1>   0.0800 
 36 H       -1.3290     5.6840    -1.7190 H     1 <1>   0.0800 
 37 H       -1.9270     5.6440    -0.0720 H     1 <1>   0.0800 
 38 H        2.3600     3.7460    -0.2110 H     1 <1>   0.0800 
 39 H        1.7310     3.6850     1.4200 H     1 <1>   0.0800 
 40 H       -4.3380    -3.1710     0.6020 H     1 <1>   0.0800 
 41 H       -2.6010    -3.2660     0.2960 H     1 <1>   0.0800 
 42 H       -3.7340    -3.2510    -1.0560 H     1 <1>   0.0800 
 43 H       -0.9150     7.7900    -0.4820 H     1 <1>   0.0800 
 44 H        0.0370     6.9260     0.6830 H     1 <1>   0.0800 
 45 H        3.4200     1.5310     0.1060 H     1 <1>   0.0800 
 46 H        2.8100     1.4760     1.7450 H     1 <1>   0.0800 
 47 H        3.9850     2.6850     1.2900 H     1 <1>   0.0800 
 48 H        1.6750     6.3390    -1.1130 H     1 <1>   0.0800 
 49 H        0.6760     7.1540    -2.2820 H     1 <1>   0.0800 
 50 H        2.0170     8.4780     0.0990 H     1 <1>   0.0800 
 51 H        1.0250     9.3010    -1.0840 H     1 <1>   0.0800 
 52 H        2.5460     8.5900    -1.5620 H     1 <1>   0.0800 
@<TRIPOS>BOND
  1   1   2  2   
  2   2   3  1   
  3   2   4  1   
  4   3   5  1   
  5   3   6  2   
  6   4   7  1   
  7   4   8  1   
  8   4  24  1   
  9   5   9  2   
 10   5  10  1   
 11   6  11  1   
 12   6  12  1   
 13   7  13  2   
 14   7  14  1   
 15   8  10  1   
 16   8  15  1   
 17   8  16  1   
 18  10  25  1   
 19  10  26  1   
 20  11  17  1   
 21  11  27  1   
 22  12  18  1   
 23  12  28  1   
 24  12  29  1   
 25  14  19  1   
 26  15  30  1   
 27  15  31  1   
 28  15  32  1   
 29  16  33  1   
 30  16  34  1   
 31  16  35  1   
 32  17  20  1   
 33  17  36  1   
 34  17  37  1   
 35  18  21  1   
 36  18  38  1   
 37  18  39  1   
 38  19  40  1   
 39  19  41  1   
 40  19  42  1   
 41  20  22  1   
 42  20  43  1   
 43  20  44  1   
 44  21  45  1   
 45  21  46  1   
 46  21  47  1   
 47  22  23  1   
 48  22  48  1   
 49  22  49  1   
 50  23  50  1   
 51  23  51  1   
 52  23  52  1   
@<TRIPOS>SUBSTRUCTURE
  1 ****   3 GROUP 4 **** **** 0

# MOE 2024.06 (io_trps.svl 2023.06)
