@<TRIPOS>MOLECULE
NONAME
46 47 1 0 0 
SMALL
USER_CHARGES


@<TRIPOS>ATOM
  1 P        0.4830    -0.4930     0.3490 P.3   1 <1>   0.9780 
  2 O       -0.3760    -1.2010     1.2970 O.2   1 <1>  -0.7000 
  3 C        2.1290    -0.1400     0.9440 C.ar  1 <1>  -0.1390 
  4 C       -0.2360     1.0220    -0.2560 C.ar  1 <1>  -0.1390 
  5 C        0.6490    -1.4780    -1.1120 C.3   1 <1>  -0.1600 
  6 C        3.2330     0.0200     0.1090 C.ar  1 <1>  -0.1500 
  7 C        2.3510     0.0090     2.3080 C.ar  1 <1>  -0.1500 
  8 C       -1.5350     1.3750     0.0940 C.ar  1 <1>  -0.1500 
  9 C        0.4430     1.8880    -1.1080 C.ar  1 <1>  -0.1500 
 10 C       -0.7180    -1.8780    -1.6610 C.3   1 <1>   0.3430 
 11 C        4.4910     0.3050     0.6090 C.ar  1 <1>  -0.1500 
 12 C        3.6030     0.2930     2.8220 C.ar  1 <1>  -0.1500 
 13 C       -2.1380     2.5220    -0.3920 C.ar  1 <1>  -0.1500 
 14 C       -0.1480     3.0370    -1.6010 C.ar  1 <1>  -0.1500 
 15 N       -1.4630    -2.7480    -0.7040 N.4   1 <1>  -0.9590 
 16 C        4.6790     0.4420     1.9700 C.ar  1 <1>  -0.1500 
 17 C       -1.4440     3.3560    -1.2460 C.ar  1 <1>  -0.1500 
 18 C       -0.9980    -4.1610    -0.7160 C.3   1 <1>   0.3430 
 19 C       -2.9280    -2.6270    -0.9150 C.3   1 <1>   0.3430 
 20 C       -0.3910    -4.4860     0.6420 C.3   1 <1>  -0.2400 
 21 C       -3.6640    -3.0930     0.3360 C.3   1 <1>  -0.2400 
 22 H        1.2300    -2.3620    -0.9310 H     1 <1>   0.0800 
 23 H        1.1540    -0.9290    -1.8840 H     1 <1>   0.0800 
 24 H        3.1340    -0.0740    -0.9570 H     1 <1>   0.1500 
 25 H        1.5260    -0.1020     2.9940 H     1 <1>   0.1500 
 26 H       -2.0940     0.7480     0.7700 H     1 <1>   0.1500 
 27 H        1.4580     1.6810    -1.3980 H     1 <1>   0.1500 
 28 H       -0.6010    -2.3910    -2.6030 H     1 <1>   0.0800 
 29 H       -1.2860    -0.9790    -1.8440 H     1 <1>   0.0800 
 30 H        5.3280     0.4220    -0.0590 H     1 <1>   0.1500 
 31 H        3.7390     0.4000     3.8850 H     1 <1>   0.1500 
 32 H       -3.1440     2.7710    -0.1010 H     1 <1>   0.1500 
 33 H        0.4010     3.6900    -2.2590 H     1 <1>   0.1500 
 34 H       -1.2760    -2.3770     0.2560 H     1 <1>   0.4500 
 35 H        5.6560     0.6640     2.3640 H     1 <1>   0.1500 
 36 H       -1.9070     4.2510    -1.6260 H     1 <1>   0.1500 
 37 H       -0.2610    -4.3090    -1.4890 H     1 <1>   0.0800 
 38 H       -1.8260    -4.8250    -0.9070 H     1 <1>   0.0800 
 39 H       -3.2350    -3.2090    -1.7700 H     1 <1>   0.0800 
 40 H       -3.1830    -1.5950    -1.0970 H     1 <1>   0.0800 
 41 H        0.4660    -3.8700     0.8430 H     1 <1>   0.0800 
 42 H       -0.0730    -5.5130     0.6540 H     1 <1>   0.0800 
 43 H       -1.1150    -4.3530     1.4270 H     1 <1>   0.0800 
 44 H       -3.5170    -4.1430     0.5110 H     1 <1>   0.0800 
 45 H       -4.7190    -2.9270     0.2080 H     1 <1>   0.0800 
 46 H       -3.3410    -2.5330     1.1960 H     1 <1>   0.0800 
@<TRIPOS>BOND
  1   1   2  2   
  2   1   3  1   
  3   1   4  1   
  4   1   5  1   
  5   3   6  ar  
  6   3   7  ar  
  7   4   8  ar  
  8   4   9  ar  
  9   5  10  1   
 10   5  22  1   
 11   5  23  1   
 12   6  11  ar  
 13   6  24  1   
 14   7  12  ar  
 15   7  25  1   
 16   8  13  ar  
 17   8  26  1   
 18   9  14  ar  
 19   9  27  1   
 20  10  15  1   
 21  10  28  1   
 22  10  29  1   
 23  11  16  ar  
 24  11  30  1   
 25  12  16  ar  
 26  12  31  1   
 27  13  17  ar  
 28  13  32  1   
 29  14  17  ar  
 30  14  33  1   
 31  15  18  1   
 32  15  19  1   
 33  15  34  1   
 34  16  35  1   
 35  17  36  1   
 36  18  20  1   
 37  18  37  1   
 38  18  38  1   
 39  19  21  1   
 40  19  39  1   
 41  19  40  1   
 42  20  41  1   
 43  20  42  1   
 44  20  43  1   
 45  21  44  1   
 46  21  45  1   
 47  21  46  1   
@<TRIPOS>SUBSTRUCTURE
  1 ****   1 GROUP 4 **** **** 0

# MOE 2024.06 (io_trps.svl 2023.06)
