@<TRIPOS>MOLECULE
NONAME
47 48 1 0 0 
SMALL
USER_CHARGES


@<TRIPOS>ATOM
  1 F       -4.6680    -2.3320     0.1500 F     1 <1>  -0.1900 
  2 C       -3.4440    -2.7900     0.1860 C.ar  1 <1>   0.1900 
  3 C       -2.4300    -2.0240    -0.3570 C.ar  1 <1>  -0.1500 
  4 C       -3.2110    -4.0220     0.7660 C.ar  1 <1>  -0.1500 
  5 C       -1.1330    -2.5100    -0.3190 C.ar  1 <1>  -0.1500 
  6 C       -1.9120    -4.5000     0.8000 C.ar  1 <1>  -0.1500 
  7 C       -0.8720    -3.7520     0.2620 C.ar  1 <1>   0.0830 
  8 O        0.3680    -4.3000     0.3400 O.3   1 <1>  -0.3630 
  9 C        1.4950    -3.6390    -0.1740 C.3   1 <1>   0.1200 
 10 C        2.7000    -4.5430     0.0810 C.3   1 <1>  -0.1600 
 11 C        3.9790    -3.9040    -0.4540 C.3   1 <1>   0.3430 
 12 N        5.1630    -4.7380    -0.1030 N.4   1 <1>  -0.9590 
 13 C        6.4210    -3.9400    -0.2870 C.3   1 <1>   0.3430 
 14 C        5.2080    -6.0140    -0.8850 C.3   1 <1>   0.3430 
 15 C        7.6610    -4.7310     0.1440 C.3   1 <1>  -0.0190 
 16 C        6.4070    -6.8540    -0.4390 C.3   1 <1>  -0.1600 
 17 C        8.8910    -3.8850    -0.1300 C.2   1 <1>   0.6590 
 18 C        7.7300    -6.0870    -0.5840 C.3   1 <1>  -0.1600 
 19 O        8.8250    -2.8870    -0.8000 O.2   1 <1>  -0.5700 
 20 O       10.0190    -4.3110     0.4130 O.3   1 <1>  -0.4300 
 21 C       11.2340    -3.6190     0.2320 C.3   1 <1>   0.1200 
 22 C       12.3260    -4.3780     0.9790 C.3   1 <1>  -0.2400 
 23 H       -2.6570    -1.0700    -0.7980 H     1 <1>   0.1500 
 24 H       -4.0260    -4.5890     1.1780 H     1 <1>   0.1500 
 25 H       -0.3520    -1.9080    -0.7420 H     1 <1>   0.1500 
 26 H       -1.6980    -5.4560     1.2450 H     1 <1>   0.1500 
 27 H        1.5960    -2.6970     0.3390 H     1 <1>   0.0800 
 28 H        1.3410    -3.4800    -1.2280 H     1 <1>   0.0800 
 29 H        2.5190    -5.4840    -0.4070 H     1 <1>   0.0800 
 30 H        2.7870    -4.6990     1.1420 H     1 <1>   0.0800 
 31 H        4.0870    -2.9260    -0.0130 H     1 <1>   0.0800 
 32 H        3.9140    -3.7840    -1.5240 H     1 <1>   0.0800 
 33 H        5.0910    -4.9880     0.8920 H     1 <1>   0.4500 
 34 H        6.3690    -3.0290     0.2880 H     1 <1>   0.0800 
 35 H        6.5280    -3.6670    -1.3250 H     1 <1>   0.0800 
 36 H        5.2950    -5.7940    -1.9370 H     1 <1>   0.0800 
 37 H        4.3030    -6.5790    -0.7310 H     1 <1>   0.0800 
 38 H        7.6160    -4.8950     1.2050 H     1 <1>   0.0800 
 39 H        6.4490    -7.7470    -1.0390 H     1 <1>   0.0800 
 40 H        6.2690    -7.1630     0.5830 H     1 <1>   0.0800 
 41 H        8.5380    -6.6770    -0.1830 H     1 <1>   0.0800 
 42 H        7.9350    -5.9240    -1.6300 H     1 <1>   0.0800 
 43 H       11.1230    -2.6210     0.6220 H     1 <1>   0.0800 
 44 H       11.4490    -3.5730    -0.8230 H     1 <1>   0.0800 
 45 H       12.0970    -4.4240     2.0290 H     1 <1>   0.0800 
 46 H       13.2660    -3.8720     0.8580 H     1 <1>   0.0800 
 47 H       12.4220    -5.3750     0.5870 H     1 <1>   0.0800 
@<TRIPOS>BOND
  1   1   2  1   
  2   2   3  ar  
  3   2   4  ar  
  4   3   5  ar  
  5   3  23  1   
  6   4   6  ar  
  7   4  24  1   
  8   5   7  ar  
  9   5  25  1   
 10   6   7  ar  
 11   6  26  1   
 12   7   8  1   
 13   8   9  1   
 14   9  10  1   
 15   9  27  1   
 16   9  28  1   
 17  10  11  1   
 18  10  29  1   
 19  10  30  1   
 20  11  12  1   
 21  11  31  1   
 22  11  32  1   
 23  12  13  1   
 24  12  14  1   
 25  12  33  1   
 26  13  15  1   
 27  13  34  1   
 28  13  35  1   
 29  14  16  1   
 30  14  36  1   
 31  14  37  1   
 32  15  17  1   
 33  15  18  1   
 34  15  38  1   
 35  16  18  1   
 36  16  39  1   
 37  16  40  1   
 38  17  19  2   
 39  17  20  1   
 40  18  41  1   
 41  18  42  1   
 42  20  21  1   
 43  21  22  1   
 44  21  43  1   
 45  21  44  1   
 46  22  45  1   
 47  22  46  1   
 48  22  47  1   
@<TRIPOS>SUBSTRUCTURE
  1 ****  11 GROUP 4 **** **** 0

# MOE 2024.06 (io_trps.svl 2023.06)
