@<TRIPOS>MOLECULE
NONAME
35 36 1 0 0 
SMALL
USER_CHARGES


@<TRIPOS>ATOM
  1 O       -0.1030     0.5000    -1.6200 O.2   1 <1>  -0.5700 
  2 C       -0.9940     1.2210    -1.1910 C.2   1 <1>   0.6160 
  3 N       -2.2840     0.8000    -1.1590 N.am  1 <1>  -0.5470 
  4 C       -0.9100     2.5480    -0.6650 C.2   1 <1>  -0.0140 
  5 C       -3.0740     1.8000    -0.6260 C.ar  1 <1>   0.1170 
  6 C       -2.2620     2.8830    -0.3130 C.ar  1 <1>   0.0280 
  7 C        0.1990     3.3340    -0.5190 C.2   1 <1>  -0.0500 
  8 C       -4.4400     1.8260    -0.3990 C.ar  1 <1>  -0.1500 
  9 C       -2.8360     4.0230     0.2420 C.ar  1 <1>  -0.1500 
 10 N        1.4560     2.9570    -0.8760 N.pl3 1 <1>  -0.8690 
 11 C       -5.0000     2.9640     0.1540 C.ar  1 <1>  -0.1500 
 12 C       -4.2000     4.0580     0.4730 C.ar  1 <1>  -0.1500 
 13 C        2.7060     3.7310    -0.6780 C.3   1 <1>   0.2090 
 14 C        3.7720     2.9220     0.1010 C.3   1 <1>   0.0000 
 15 C        5.0390     3.7790     0.2440 C.3   1 <1>  -0.2400 
 16 C        4.1390     1.6280    -0.6480 C.3   1 <1>  -0.2400 
 17 C        3.2640     2.5620     1.5080 C.3   1 <1>  -0.2400 
 18 H       -2.5620    -0.1220    -1.4870 H     1 <1>   0.3700 
 19 H        0.0940     4.3180    -0.0930 H     1 <1>   0.1500 
 20 H       -5.0470     0.9750    -0.6490 H     1 <1>   0.1500 
 21 H       -2.2180     4.8680     0.4880 H     1 <1>   0.1500 
 22 H        1.5970     2.0150    -1.2790 H     1 <1>   0.4000 
 23 H       -6.0600     3.0070     0.3400 H     1 <1>   0.1500 
 24 H       -4.6500     4.9370     0.9020 H     1 <1>   0.1500 
 25 H        3.0950     4.0030    -1.6440 H     1 <1>   0.0800 
 26 H        2.4790     4.6380    -0.1450 H     1 <1>   0.0800 
 27 H        5.7990     3.2430     0.7860 H     1 <1>   0.0800 
 28 H        4.8230     4.6880     0.7760 H     1 <1>   0.0800 
 29 H        5.4330     4.0350    -0.7240 H     1 <1>   0.0800 
 30 H        4.4700     1.8500    -1.6470 H     1 <1>   0.0800 
 31 H        3.2910     0.9690    -0.7090 H     1 <1>   0.0800 
 32 H        4.9280     1.1060    -0.1360 H     1 <1>   0.0800 
 33 H        4.0200     2.0340     2.0620 H     1 <1>   0.0800 
 34 H        2.3930     1.9340     1.4450 H     1 <1>   0.0800 
 35 H        2.9980     3.4510     2.0520 H     1 <1>   0.0800 
@<TRIPOS>BOND
  1   1   2  2   
  2   2   3  am  
  3   2   4  1   
  4   3   5  1   
  5   3  18  1   
  6   4   6  1   
  7   4   7  2   
  8   5   6  ar  
  9   5   8  ar  
 10   6   9  ar  
 11   7  10  1   
 12   7  19  1   
 13   8  11  ar  
 14   8  20  1   
 15   9  12  ar  
 16   9  21  1   
 17  10  13  1   
 18  10  22  1   
 19  11  12  ar  
 20  11  23  1   
 21  12  24  1   
 22  13  14  1   
 23  13  25  1   
 24  13  26  1   
 25  14  15  1   
 26  14  16  1   
 27  14  17  1   
 28  15  27  1   
 29  15  28  1   
 30  15  29  1   
 31  16  30  1   
 32  16  31  1   
 33  16  32  1   
 34  17  33  1   
 35  17  34  1   
 36  17  35  1   
@<TRIPOS>SUBSTRUCTURE
  1 ****   4 GROUP 4 **** **** 0

# MOE 2024.06 (io_trps.svl 2023.06)
