@<TRIPOS>MOLECULE
NONAME
37 37 1 0 0 
SMALL
USER_CHARGES


@<TRIPOS>ATOM
  1 S        0.8940    -0.0920    -0.9690 S.o2  1 <1>   1.4470 
  2 O        0.8090    -0.6570    -2.2920 O.2   1 <1>  -0.6500 
  3 O        0.4110     1.2420    -0.7060 O.2   1 <1>  -0.6500 
  4 N       -0.1640    -1.0270    -0.1090 N.am  1 <1>  -0.9780 
  5 C        2.5080    -0.3980    -0.1970 C.ar  1 <1>  -0.0090 
  6 C        2.9680     0.3960     0.8500 C.ar  1 <1>  -0.1500 
  7 C        3.3160    -1.4520    -0.6160 C.ar  1 <1>  -0.1500 
  8 C        4.1910     0.1550     1.4540 C.ar  1 <1>  -0.1500 
  9 C        4.5400    -1.7010    -0.0190 C.ar  1 <1>  -0.1500 
 10 C        4.9850    -0.8940     1.0130 C.ar  1 <1>   0.0830 
 11 O        6.1800    -1.1730     1.5780 O.3   1 <1>  -0.3630 
 12 C        7.1480    -0.1380     1.7220 C.3   1 <1>   0.2610 
 13 C        8.2380    -0.2720     0.6490 C.2   1 <1>   0.5690 
 14 C        7.7150    -0.2440     3.1410 C.3   1 <1>  -0.2400 
 15 O        8.8420     0.7180     0.3050 O.2   1 <1>  -0.5700 
 16 N        8.5070    -1.4970     0.1200 N.am  1 <1>  -0.7300 
 17 C        9.4830    -1.7880    -0.9320 C.3   1 <1>   0.2200 
 18 C        8.7220    -2.2750    -2.1600 C.3   1 <1>  -0.2400 
 19 C       10.4410    -2.8530    -0.4100 C.3   1 <1>  -0.2400 
 20 H       -0.6430    -1.5600    -0.8310 H     1 <1>   0.4200 
 21 H       -0.8410    -0.3520     0.2390 H     1 <1>   0.4200 
 22 H        2.3580     1.2120     1.1980 H     1 <1>   0.1500 
 23 H        2.9800    -2.0860    -1.4200 H     1 <1>   0.1500 
 24 H        4.5140     0.7750     2.2710 H     1 <1>   0.1500 
 25 H        5.1520    -2.5190    -0.3530 H     1 <1>   0.1500 
 26 H        6.6720     0.8170     1.5930 H     1 <1>   0.0800 
 27 H        8.1970    -1.1950     3.2790 H     1 <1>   0.0800 
 28 H        6.9280    -0.1280     3.8640 H     1 <1>   0.0800 
 29 H        8.4430     0.5330     3.2970 H     1 <1>   0.0800 
 30 H        7.9300    -2.2830     0.4230 H     1 <1>   0.3700 
 31 H       10.0340    -0.8940    -1.1770 H     1 <1>   0.0800 
 32 H        8.1670    -3.1680    -1.9380 H     1 <1>   0.0800 
 33 H        9.4130    -2.4880    -2.9550 H     1 <1>   0.0800 
 34 H        8.0470    -1.5090    -2.4970 H     1 <1>   0.0800 
 35 H        9.9120    -3.7550    -0.1600 H     1 <1>   0.0800 
 36 H       10.9550    -2.4860     0.4600 H     1 <1>   0.0800 
 37 H       11.1750    -3.0820    -1.1620 H     1 <1>   0.0800 
@<TRIPOS>BOND
  1   1   2  2   
  2   1   3  2   
  3   1   4  am  
  4   1   5  1   
  5   4  20  1   
  6   4  21  1   
  7   5   6  ar  
  8   5   7  ar  
  9   6   8  ar  
 10   6  22  1   
 11   7   9  ar  
 12   7  23  1   
 13   8  10  ar  
 14   8  24  1   
 15   9  10  ar  
 16   9  25  1   
 17  10  11  1   
 18  11  12  1   
 19  12  13  1   
 20  12  14  1   
 21  12  26  1   
 22  13  15  2   
 23  13  16  am  
 24  14  27  1   
 25  14  28  1   
 26  14  29  1   
 27  16  17  1   
 28  16  30  1   
 29  17  18  1   
 30  17  19  1   
 31  17  31  1   
 32  18  32  1   
 33  18  33  1   
 34  18  34  1   
 35  19  35  1   
 36  19  36  1   
 37  19  37  1   
@<TRIPOS>SUBSTRUCTURE
  1 ****  10 GROUP 4 **** **** 0

# MOE 2024.06 (io_trps.svl 2023.06)
