@<TRIPOS>MOLECULE
NONAME
39 40 1 0 0 
SMALL
USER_CHARGES


@<TRIPOS>ATOM
  1 BR       1.1950    -0.0880    -1.7140 Br    1 <1>  -0.1110 
  2 C        0.4500    -1.7290    -1.0240 C.ar  1 <1>   0.1110 
  3 C        1.1350    -2.4610    -0.0690 C.ar  1 <1>   0.0830 
  4 C       -0.7780    -2.1330    -1.5130 C.ar  1 <1>  -0.1500 
  5 O        2.3300    -2.0550     0.4070 O.3   1 <1>  -0.5330 
  6 C        0.5780    -3.6430     0.4080 C.ar  1 <1>   0.0830 
  7 C       -1.3470    -3.3030    -1.0270 C.ar  1 <1>  -0.1430 
  8 O        1.2940    -4.3360     1.3390 O.3   1 <1>  -0.3630 
  9 C       -0.6640    -4.0570    -0.0750 C.ar  1 <1>  -0.1500 
 10 C       -2.7080    -3.7460    -1.5320 C.3   1 <1>   0.4860 
 11 C        0.9290    -5.6400     1.7360 C.3   1 <1>   0.0400 
 12 N       -3.7300    -3.4310    -0.4980 N.4   1 <1>  -0.9590 
 13 C       -5.0520    -4.0620    -0.8160 C.3   1 <1>   0.3430 
 14 C       -3.8650    -1.9680    -0.2450 C.3   1 <1>   0.3430 
 15 C       -6.1900    -3.5330     0.0840 C.3   1 <1>  -0.0800 
 16 C       -4.6670    -1.7470     1.0440 C.3   1 <1>  -0.1600 
 17 C       -5.6620    -2.8770     1.3710 C.3   1 <1>  -0.1600 
 18 C       -7.1740    -4.6590     0.4260 C.3   1 <1>  -0.2400 
 19 H       -1.2620    -1.5270    -2.2590 H     1 <1>   0.1500 
 20 H        2.6680    -2.6980     1.0620 H     1 <1>   0.4500 
 21 H       -1.1000    -4.9680     0.2890 H     1 <1>   0.1500 
 22 H       -2.6870    -4.8070    -1.7210 H     1 <1>   0.0800 
 23 H       -2.9420    -3.2400    -2.4550 H     1 <1>   0.0800 
 24 H        1.6860    -6.0080     2.4070 H     1 <1>   0.0800 
 25 H        0.8780    -6.2720     0.8670 H     1 <1>   0.0800 
 26 H       -0.0170    -5.6020     2.2460 H     1 <1>   0.0800 
 27 H       -3.4000    -3.8310     0.3880 H     1 <1>   0.4500 
 28 H       -4.9710    -5.1290    -0.6850 H     1 <1>   0.0800 
 29 H       -5.3140    -3.8760    -1.8450 H     1 <1>   0.0800 
 30 H       -4.3790    -1.5070    -1.0730 H     1 <1>   0.0800 
 31 H       -2.8970    -1.5030    -0.1440 H     1 <1>   0.0800 
 32 H       -6.7310    -2.7880    -0.4750 H     1 <1>   0.0800 
 33 H       -5.2010    -0.8180     0.9430 H     1 <1>   0.0800 
 34 H       -3.9870    -1.6230     1.8700 H     1 <1>   0.0800 
 35 H       -5.1710    -3.6210     1.9750 H     1 <1>   0.0800 
 36 H       -6.4780    -2.4800     1.9520 H     1 <1>   0.0800 
 37 H       -6.6930    -5.4360     0.9950 H     1 <1>   0.0800 
 38 H       -7.5830    -5.0930    -0.4700 H     1 <1>   0.0800 
 39 H       -7.9930    -4.2740     1.0100 H     1 <1>   0.0800 
@<TRIPOS>BOND
  1   1   2  1   
  2   2   3  ar  
  3   2   4  ar  
  4   3   5  1   
  5   3   6  ar  
  6   4   7  ar  
  7   4  19  1   
  8   5  20  1   
  9   6   8  1   
 10   6   9  ar  
 11   7   9  ar  
 12   7  10  1   
 13   8  11  1   
 14   9  21  1   
 15  10  12  1   
 16  10  22  1   
 17  10  23  1   
 18  11  24  1   
 19  11  25  1   
 20  11  26  1   
 21  12  13  1   
 22  12  14  1   
 23  12  27  1   
 24  13  15  1   
 25  13  28  1   
 26  13  29  1   
 27  14  16  1   
 28  14  30  1   
 29  14  31  1   
 30  15  17  1   
 31  15  18  1   
 32  15  32  1   
 33  16  17  1   
 34  16  33  1   
 35  16  34  1   
 36  17  35  1   
 37  17  36  1   
 38  18  37  1   
 39  18  38  1   
 40  18  39  1   
@<TRIPOS>SUBSTRUCTURE
  1 ****   7 GROUP 4 **** **** 0

# MOE 2024.06 (io_trps.svl 2023.06)
