@<TRIPOS>MOLECULE
NONAME
49 51 1 0 0 
SMALL
USER_CHARGES


@<TRIPOS>ATOM
  1 CL       1.3480    -0.0450     3.5880 Cl    1 <1>  -0.1770 
  2 C        2.4430     0.0970     2.2370 C.ar  1 <1>   0.1770 
  3 C        2.7120     1.3460     1.7100 C.ar  1 <1>  -0.1500 
  4 C        3.0240    -1.0420     1.7130 C.ar  1 <1>  -0.1500 
  5 C        3.5820     1.4540     0.6380 C.ar  1 <1>  -0.1500 
  6 C        3.8930    -0.9280     0.6400 C.ar  1 <1>  -0.1500 
  7 C        4.1770     0.3200     0.0990 C.ar  1 <1>  -0.1430 
  8 C        5.1320     0.4500    -1.0790 C.3   1 <1>   0.2540 
  9 N        6.3200     1.2450    -0.7040 N.3   1 <1>  -0.8100 
 10 C        7.0940     0.6130     0.3960 C.3   1 <1>   0.1100 
 11 C        7.1930     1.5010    -1.8740 C.3   1 <1>   0.1100 
 12 C        8.3470     1.4340     0.7860 C.3   1 <1>   0.3430 
 13 C        8.4430     2.3380    -1.5040 C.3   1 <1>   0.3430 
 14 N        8.4520     2.6810    -0.0400 N.4   1 <1>  -0.9590 
 15 C        9.5200     3.6060     0.4190 C.3   1 <1>   0.4230 
 16 C        9.2380     5.0350    -0.0790 C.3   1 <1>  -0.1600 
 17 C       10.9180     3.1220     0.0120 C.3   1 <1>  -0.1600 
 18 C       10.5130     5.8940    -0.2170 C.3   1 <1>  -0.0800 
 19 C       12.0080     4.0130     0.6380 C.3   1 <1>  -0.1600 
 20 C       11.5700     5.4800     0.8170 C.3   1 <1>  -0.1600 
 21 C       10.1800     7.3850    -0.0920 C.3   1 <1>  -0.2400 
 22 H        2.2450     2.2160     2.1340 H     1 <1>   0.1500 
 23 H        2.7940    -2.0010     2.1400 H     1 <1>   0.1500 
 24 H        3.7990     2.4220     0.2210 H     1 <1>   0.1500 
 25 H        4.3410    -1.8170     0.2310 H     1 <1>   0.1500 
 26 H        4.6120     0.9420    -1.8850 H     1 <1>   0.0800 
 27 H        5.4330    -0.5250    -1.4230 H     1 <1>   0.0800 
 28 H        7.3970    -0.3810     0.1100 H     1 <1>   0.0800 
 29 H        6.4700     0.5180     1.2700 H     1 <1>   0.0800 
 30 H        6.6330     2.0310    -2.6270 H     1 <1>   0.0800 
 31 H        7.5110     0.5670    -2.3070 H     1 <1>   0.0800 
 32 H        9.2260     0.8260     0.6500 H     1 <1>   0.0800 
 33 H        8.2820     1.6900     1.8300 H     1 <1>   0.0800 
 34 H        8.4460     3.2380    -2.0960 H     1 <1>   0.0800 
 35 H        9.3290     1.7800    -1.7560 H     1 <1>   0.0800 
 36 H        7.5360     3.1330     0.1060 H     1 <1>   0.4500 
 37 H        9.5010     3.6400     1.4970 H     1 <1>   0.0800 
 38 H        8.5770     5.4970     0.6340 H     1 <1>   0.0800 
 39 H        8.7420     5.0320    -1.0310 H     1 <1>   0.0800 
 40 H       11.0190     3.1730    -1.0580 H     1 <1>   0.0800 
 41 H       11.0820     2.1070     0.3230 H     1 <1>   0.0800 
 42 H       10.9330     5.7340    -1.1980 H     1 <1>   0.0800 
 43 H       12.8830     3.9770     0.0110 H     1 <1>   0.0800 
 44 H       12.2940     3.6220     1.6010 H     1 <1>   0.0800 
 45 H       11.1670     5.6160     1.8070 H     1 <1>   0.0800 
 46 H       12.4360     6.1170     0.7370 H     1 <1>   0.0800 
 47 H        9.7880     7.6120     0.8840 H     1 <1>   0.0800 
 48 H        9.4510     7.6710    -0.8310 H     1 <1>   0.0800 
 49 H       11.0640     7.9780    -0.2480 H     1 <1>   0.0800 
@<TRIPOS>BOND
  1   1   2  1   
  2   2   3  ar  
  3   2   4  ar  
  4   3   5  ar  
  5   3  22  1   
  6   4   6  ar  
  7   4  23  1   
  8   5   7  ar  
  9   5  24  1   
 10   6   7  ar  
 11   6  25  1   
 12   7   8  1   
 13   8   9  1   
 14   8  26  1   
 15   8  27  1   
 16   9  10  1   
 17   9  11  1   
 18  10  12  1   
 19  10  28  1   
 20  10  29  1   
 21  11  13  1   
 22  11  30  1   
 23  11  31  1   
 24  12  14  1   
 25  12  32  1   
 26  12  33  1   
 27  13  14  1   
 28  13  34  1   
 29  13  35  1   
 30  14  15  1   
 31  14  36  1   
 32  15  16  1   
 33  15  17  1   
 34  15  37  1   
 35  16  18  1   
 36  16  38  1   
 37  16  39  1   
 38  17  19  1   
 39  17  40  1   
 40  17  41  1   
 41  18  20  1   
 42  18  21  1   
 43  18  42  1   
 44  19  20  1   
 45  19  43  1   
 46  19  44  1   
 47  20  45  1   
 48  20  46  1   
 49  21  47  1   
 50  21  48  1   
 51  21  49  1   
@<TRIPOS>SUBSTRUCTURE
  1 ****   9 GROUP 4 **** **** 0

# MOE 2024.06 (io_trps.svl 2023.06)
