@<TRIPOS>MOLECULE
NONAME
29 30 1 0 0 
SMALL
USER_CHARGES


@<TRIPOS>ATOM
  1 CL      -1.6500     0.8240     1.8690 Cl    1 <1>  -0.1770 
  2 C       -0.8200     2.0770     0.9800 C.ar  1 <1>   0.1770 
  3 C       -1.3230     2.4860    -0.2430 C.ar  1 <1>  -0.1440 
  4 C        0.3180     2.6470     1.5260 C.ar  1 <1>  -0.1500 
  5 C       -0.6440     3.4970    -0.8980 C.ar  1 <1>   0.1900 
  6 C       -2.5570     1.8510    -0.8470 C.3   1 <1>   0.4860 
  7 C        0.9790     3.6560     0.8420 C.ar  1 <1>  -0.1500 
  8 F       -1.1040     3.9190    -2.0450 F     1 <1>  -0.1900 
  9 C        0.4950     4.0890    -0.3830 C.ar  1 <1>  -0.1500 
 10 N       -3.7610     2.2900    -0.0900 N.4   1 <1>  -0.9590 
 11 C       -4.9810     1.5100    -0.4920 C.3   1 <1>   0.3430 
 12 C       -4.0040     3.7700    -0.2300 C.3   1 <1>   0.3430 
 13 C       -6.2440     2.0390     0.2140 C.3   1 <1>   0.1200 
 14 C       -5.3160     4.1940     0.4580 C.3   1 <1>   0.1200 
 15 O       -6.3800     3.4130    -0.0060 O.3   1 <1>  -0.5600 
 16 H        0.6860     2.3050     2.4790 H     1 <1>   0.1500 
 17 H       -2.4600     0.7780    -0.7920 H     1 <1>   0.0800 
 18 H       -2.6480     2.1290    -1.8850 H     1 <1>   0.0800 
 19 H        1.8670     4.1020     1.2600 H     1 <1>   0.1500 
 20 H        0.9950     4.8720    -0.9290 H     1 <1>   0.1500 
 21 H       -3.5760     2.0940     0.9040 H     1 <1>   0.4500 
 22 H       -4.8500     0.4680    -0.2520 H     1 <1>   0.0800 
 23 H       -5.1320     1.5910    -1.5560 H     1 <1>   0.0800 
 24 H       -4.0690     4.0330    -1.2740 H     1 <1>   0.0800 
 25 H       -3.1840     4.3240     0.1980 H     1 <1>   0.0800 
 26 H       -6.2040     1.8590     1.2750 H     1 <1>   0.0800 
 27 H       -7.1200     1.5570    -0.1830 H     1 <1>   0.0800 
 28 H       -5.5400     5.2210     0.2280 H     1 <1>   0.0800 
 29 H       -5.2480     4.0900     1.5270 H     1 <1>   0.0800 
@<TRIPOS>BOND
  1   1   2  1   
  2   2   3  ar  
  3   2   4  ar  
  4   3   5  ar  
  5   3   6  1   
  6   4   7  ar  
  7   4  16  1   
  8   5   8  1   
  9   5   9  ar  
 10   6  10  1   
 11   6  17  1   
 12   6  18  1   
 13   7   9  ar  
 14   7  19  1   
 15   9  20  1   
 16  10  11  1   
 17  10  12  1   
 18  10  21  1   
 19  11  13  1   
 20  11  22  1   
 21  11  23  1   
 22  12  14  1   
 23  12  24  1   
 24  12  25  1   
 25  13  15  1   
 26  13  26  1   
 27  13  27  1   
 28  14  15  1   
 29  14  28  1   
 30  14  29  1   
@<TRIPOS>SUBSTRUCTURE
  1 ****   3 GROUP 4 **** **** 0

# MOE 2024.06 (io_trps.svl 2023.06)
