@<TRIPOS>MOLECULE
NONAME
46 48 1 0 0 
SMALL
USER_CHARGES


@<TRIPOS>ATOM
  1 O       -0.3150    -0.0620     0.9880 O.2   1 <1>  -0.5700 
  2 C       -0.8030    -0.9060     0.2610 C.2   1 <1>   0.6900 
  3 N       -2.0980    -0.7740    -0.1740 N.am  1 <1>  -0.6600 
  4 N       -0.0880    -2.0100    -0.1100 N.am  1 <1>  -0.5470 
  5 C       -2.7560    -1.5890    -1.2440 C.3   1 <1>   0.1400 
  6 C       -2.9950     0.2990     0.3650 C.3   1 <1>   0.1400 
  7 C        1.2540    -2.3650     0.1030 C.ar  1 <1>   0.1170 
  8 C       -4.0910    -2.1780    -0.7520 C.3   1 <1>   0.2090 
  9 C       -4.3340    -0.2860     0.8470 C.3   1 <1>   0.2090 
 10 C        1.6160    -3.7140     0.2090 C.ar  1 <1>  -0.1440 
 11 C        2.2430    -1.3900     0.1810 C.ar  1 <1>  -0.1500 
 12 N       -4.9850    -1.1120    -0.2160 N.pl3 1 <1>  -0.8380 
 13 C        2.9560    -4.0410     0.3850 C.ar  1 <1>  -0.1500 
 14 C        0.5260    -4.7930     0.1330 C.3   1 <1>  -0.0170 
 15 C        3.5690    -1.7280     0.3610 C.ar  1 <1>  -0.1500 
 16 C       -6.3010    -1.4920     0.0230 C.ar  1 <1>   0.1000 
 17 C        3.9260    -3.0580     0.4620 C.ar  1 <1>  -0.1500 
 18 C        0.9800    -6.2300     0.4200 C.3   1 <1>  -0.2400 
 19 C       -6.6370    -2.3360     1.0760 C.ar  1 <1>  -0.1500 
 20 C       -7.3110    -1.0260    -0.8080 C.ar  1 <1>  -0.1500 
 21 C       -7.9530    -2.7050     1.2920 C.ar  1 <1>  -0.1500 
 22 C       -8.6280    -1.3920    -0.5970 C.ar  1 <1>  -0.1500 
 23 C       -8.9510    -2.2330     0.4550 C.ar  1 <1>  -0.1500 
 24 H       -0.6650    -2.7420    -0.4970 H     1 <1>   0.3700 
 25 H       -2.1180    -2.3840    -1.5800 H     1 <1>   0.0800 
 26 H       -2.9550    -0.9520    -2.0890 H     1 <1>   0.0800 
 27 H       -3.1860     1.0190    -0.4110 H     1 <1>   0.0800 
 28 H       -2.5250     0.8140     1.1840 H     1 <1>   0.0800 
 29 H       -3.8990    -2.9060     0.0170 H     1 <1>   0.0800 
 30 H       -4.5860    -2.6750    -1.5680 H     1 <1>   0.0800 
 31 H       -4.9940     0.5170     1.1250 H     1 <1>   0.0800 
 32 H       -4.1590    -0.8910     1.7200 H     1 <1>   0.0800 
 33 H        1.9750    -0.3520     0.0980 H     1 <1>   0.1500 
 34 H        3.2770    -5.0620     0.4690 H     1 <1>   0.1500 
 35 H        0.0890    -4.7690    -0.8490 H     1 <1>   0.0800 
 36 H       -0.2430    -4.5470     0.8450 H     1 <1>   0.0800 
 37 H        4.3190    -0.9590     0.4220 H     1 <1>   0.1500 
 38 H        4.9590    -3.3290     0.6010 H     1 <1>   0.1500 
 39 H        1.6950    -6.5540    -0.3160 H     1 <1>   0.0800 
 40 H        0.1350    -6.8940     0.3860 H     1 <1>   0.0800 
 41 H        1.4220    -6.2940     1.3990 H     1 <1>   0.0800 
 42 H       -5.8640    -2.7020     1.7240 H     1 <1>   0.1500 
 43 H       -7.0490    -0.3730    -1.6190 H     1 <1>   0.1500 
 44 H       -8.2020    -3.3580     2.1090 H     1 <1>   0.1500 
 45 H       -9.4000    -1.0230    -1.2480 H     1 <1>   0.1500 
 46 H       -9.9740    -2.5190     0.6210 H     1 <1>   0.1500 
@<TRIPOS>BOND
  1   1   2  2   
  2   2   3  am  
  3   2   4  am  
  4   3   5  1   
  5   3   6  1   
  6   4   7  1   
  7   4  24  1   
  8   5   8  1   
  9   5  25  1   
 10   5  26  1   
 11   6   9  1   
 12   6  27  1   
 13   6  28  1   
 14   7  10  ar  
 15   7  11  ar  
 16   8  12  1   
 17   8  29  1   
 18   8  30  1   
 19   9  12  1   
 20   9  31  1   
 21   9  32  1   
 22  10  13  ar  
 23  10  14  1   
 24  11  15  ar  
 25  11  33  1   
 26  12  16  1   
 27  13  17  ar  
 28  13  34  1   
 29  14  18  1   
 30  14  35  1   
 31  14  36  1   
 32  15  17  ar  
 33  15  37  1   
 34  16  19  ar  
 35  16  20  ar  
 36  17  38  1   
 37  18  39  1   
 38  18  40  1   
 39  18  41  1   
 40  19  21  ar  
 41  19  42  1   
 42  20  22  ar  
 43  20  43  1   
 44  21  23  ar  
 45  21  44  1   
 46  22  23  ar  
 47  22  45  1   
 48  23  46  1   
@<TRIPOS>SUBSTRUCTURE
  1 ****   3 GROUP 4 **** **** 0

# MOE 2024.06 (io_trps.svl 2023.06)
