@<TRIPOS>MOLECULE
NONAME
38 39 1 0 0 
SMALL
USER_CHARGES


@<TRIPOS>ATOM
  1 CL      -0.2370    -0.3710    -0.0960 Cl    1 <1>  -0.1770 
  2 C       -1.6800     0.6050     0.0790 C.ar  1 <1>   0.1770 
  3 C       -2.9470     0.0490    -0.0630 C.ar  1 <1>  -0.1440 
  4 C       -1.4960     1.9430     0.3700 C.ar  1 <1>  -0.1500 
  5 C       -4.0620     0.8760     0.1120 C.ar  1 <1>   0.1170 
  6 C       -3.1260    -1.4320    -0.4040 C.3   1 <1>  -0.0960 
  7 C       -2.5990     2.7590     0.5330 C.ar  1 <1>  -0.1500 
  8 N       -5.3550     0.3360     0.0190 N.am  1 <1>  -0.5470 
  9 C       -3.8670     2.2240     0.4080 C.ar  1 <1>  -0.1500 
 10 C       -6.5450     0.8840    -0.3710 C.2   1 <1>   0.6900 
 11 O       -6.6110     2.0360    -0.7530 O.2   1 <1>  -0.5700 
 12 N       -7.6710     0.1010    -0.3430 N.am  1 <1>  -0.6600 
 13 C       -9.0170     0.6780    -0.6540 C.3   1 <1>   0.1400 
 14 C       -7.6770    -1.3500     0.0170 C.3   1 <1>   0.1400 
 15 C      -10.1190     0.1480     0.2970 C.3   1 <1>   0.2000 
 16 C       -9.0840    -1.9710    -0.0970 C.3   1 <1>   0.2000 
 17 O       -9.9920    -1.2100     0.6360 O.3   1 <1>  -0.5600 
 18 C      -11.5160     0.3320    -0.2920 C.3   1 <1>  -0.2400 
 19 C       -9.1340    -3.3900     0.4650 C.3   1 <1>  -0.2400 
 20 H       -0.5010     2.3370     0.4670 H     1 <1>   0.1500 
 21 H       -2.2340    -1.8580    -0.8230 H     1 <1>   0.0800 
 22 H       -3.9050    -1.5590    -1.1340 H     1 <1>   0.0800 
 23 H       -3.3800    -1.9830     0.4840 H     1 <1>   0.0800 
 24 H       -2.4740     3.8040     0.7590 H     1 <1>   0.1500 
 25 H       -5.4200    -0.6520     0.2210 H     1 <1>   0.3700 
 26 H       -4.7170     2.8660     0.5470 H     1 <1>   0.1500 
 27 H       -9.2680     0.4290    -1.6690 H     1 <1>   0.0800 
 28 H       -8.9930     1.7520    -0.5860 H     1 <1>   0.0800 
 29 H       -7.3320    -1.4610     1.0300 H     1 <1>   0.0800 
 30 H       -7.0070    -1.8810    -0.6360 H     1 <1>   0.0800 
 31 H      -10.0570     0.6960     1.2220 H     1 <1>   0.0800 
 32 H       -9.4050    -1.9830    -1.1250 H     1 <1>   0.0800 
 33 H      -11.6180    -0.2340    -1.2000 H     1 <1>   0.0800 
 34 H      -11.6910     1.3700    -0.5080 H     1 <1>   0.0800 
 35 H      -12.2550     0.0030     0.4170 H     1 <1>   0.0800 
 36 H       -8.8570    -3.3900     1.5040 H     1 <1>   0.0800 
 37 H       -8.4600    -4.0280    -0.0760 H     1 <1>   0.0800 
 38 H      -10.1300    -3.7830     0.3660 H     1 <1>   0.0800 
@<TRIPOS>BOND
  1   1   2  1   
  2   2   3  ar  
  3   2   4  ar  
  4   3   5  ar  
  5   3   6  1   
  6   4   7  ar  
  7   4  20  1   
  8   5   8  1   
  9   5   9  ar  
 10   6  21  1   
 11   6  22  1   
 12   6  23  1   
 13   7   9  ar  
 14   7  24  1   
 15   8  10  am  
 16   8  25  1   
 17   9  26  1   
 18  10  11  2   
 19  10  12  am  
 20  12  13  1   
 21  12  14  1   
 22  13  15  1   
 23  13  27  1   
 24  13  28  1   
 25  14  16  1   
 26  14  29  1   
 27  14  30  1   
 28  15  17  1   
 29  15  18  1   
 30  15  31  1   
 31  16  17  1   
 32  16  19  1   
 33  16  32  1   
 34  18  33  1   
 35  18  34  1   
 36  18  35  1   
 37  19  36  1   
 38  19  37  1   
 39  19  38  1   
@<TRIPOS>SUBSTRUCTURE
  1 ****   8 GROUP 4 **** **** 0

# MOE 2024.06 (io_trps.svl 2023.06)
