@<TRIPOS>MOLECULE
NONAME
37 38 1 0 0 
SMALL
USER_CHARGES


@<TRIPOS>ATOM
  1 F        0.0910     1.0950     1.3070 F     1 <1>  -0.1900 
  2 C       -0.2980     2.1880     0.7050 C.ar  1 <1>   0.1900 
  3 C       -1.3940     2.1490    -0.1430 C.ar  1 <1>  -0.1440 
  4 C        0.4120     3.3490     0.9490 C.ar  1 <1>  -0.1500 
  5 C       -1.7820     3.3310    -0.7580 C.ar  1 <1>  -0.1500 
  6 C       -2.1670     0.8690    -0.4080 C.3   1 <1>   0.2840 
  7 C        0.0130     4.5190     0.3240 C.ar  1 <1>  -0.1500 
  8 C       -1.0830     4.5070    -0.5260 C.ar  1 <1>  -0.1500 
  9 N       -3.4530     0.9400     0.3090 N.am  1 <1>  -0.7300 
 10 C       -4.6490     1.0930    -0.2950 C.2   1 <1>   0.6900 
 11 O       -4.7440     1.0940    -1.5060 O.2   1 <1>  -0.5700 
 12 N       -5.7290     1.2540     0.4970 N.am  1 <1>  -0.7300 
 13 C       -7.1090     1.4310     0.0220 C.3   1 <1>   0.2200 
 14 C       -7.6830     2.7120     0.6350 C.3   1 <1>  -0.1600 
 15 C       -7.9340     0.2040     0.4230 C.3   1 <1>  -0.1600 
 16 C       -9.1610     2.8950     0.2580 C.3   1 <1>  -0.1600 
 17 C       -9.4130     0.3810     0.0460 C.3   1 <1>  -0.1600 
 18 C       -9.9910     1.6660     0.6560 C.3   1 <1>  -0.1600 
 19 H        1.2580     3.3350     1.6120 H     1 <1>   0.1500 
 20 H       -2.6340     3.3360    -1.4180 H     1 <1>   0.1500 
 21 H       -1.6200     0.0070    -0.0690 H     1 <1>   0.0800 
 22 H       -2.3320     0.7590    -1.4670 H     1 <1>   0.0800 
 23 H        0.5500     5.4350     0.4980 H     1 <1>   0.1500 
 24 H       -1.3950     5.4160    -1.0100 H     1 <1>   0.1500 
 25 H       -3.3760     1.1870     1.2910 H     1 <1>   0.3700 
 26 H       -5.6220     1.1390     1.5000 H     1 <1>   0.3700 
 27 H       -7.1160     1.5230    -1.0530 H     1 <1>   0.0800 
 28 H       -7.1190     3.5570     0.2800 H     1 <1>   0.0800 
 29 H       -7.5980     2.6690     1.7060 H     1 <1>   0.0800 
 30 H       -7.8600     0.0500     1.4850 H     1 <1>   0.0800 
 31 H       -7.5420    -0.6640    -0.0770 H     1 <1>   0.0800 
 32 H       -9.2400     3.0480    -0.8050 H     1 <1>   0.0800 
 33 H       -9.5530     3.7700     0.7470 H     1 <1>   0.0800 
 34 H       -9.9780    -0.4680     0.3900 H     1 <1>   0.0800 
 35 H       -9.5030     0.4250    -1.0260 H     1 <1>   0.0800 
 36 H      -11.0070     1.7960     0.3250 H     1 <1>   0.0800 
 37 H      -10.0030     1.5770     1.7290 H     1 <1>   0.0800 
@<TRIPOS>BOND
  1   1   2  1   
  2   2   3  ar  
  3   2   4  ar  
  4   3   5  ar  
  5   3   6  1   
  6   4   7  ar  
  7   4  19  1   
  8   5   8  ar  
  9   5  20  1   
 10   6   9  1   
 11   6  21  1   
 12   6  22  1   
 13   7   8  ar  
 14   7  23  1   
 15   8  24  1   
 16   9  10  am  
 17   9  25  1   
 18  10  11  2   
 19  10  12  am  
 20  12  13  1   
 21  12  26  1   
 22  13  14  1   
 23  13  15  1   
 24  13  27  1   
 25  14  16  1   
 26  14  28  1   
 27  14  29  1   
 28  15  17  1   
 29  15  30  1   
 30  15  31  1   
 31  16  18  1   
 32  16  32  1   
 33  16  33  1   
 34  17  18  1   
 35  17  34  1   
 36  17  35  1   
 37  18  36  1   
 38  18  37  1   
@<TRIPOS>SUBSTRUCTURE
  1 ****  10 GROUP 4 **** **** 0

# MOE 2024.06 (io_trps.svl 2023.06)
