@<TRIPOS>MOLECULE
NONAME
38 39 1 0 0 
SMALL
USER_CHARGES


@<TRIPOS>ATOM
  1 CL       1.3020     0.4790    -0.2800 Cl    1 <1>  -0.1770 
  2 C        1.4990    -1.2580    -0.1990 C.ar  1 <1>   0.1770 
  3 C        0.4000    -2.1010    -0.2000 C.ar  1 <1>   0.1900 
  4 C        2.7730    -1.7870    -0.1330 C.ar  1 <1>  -0.1500 
  5 F       -0.8090    -1.6030    -0.2620 F     1 <1>  -0.1900 
  6 C        0.5520    -3.4730    -0.1390 C.ar  1 <1>  -0.1500 
  7 C        2.9560    -3.1660    -0.0670 C.ar  1 <1>   0.1170 
  8 C        1.8330    -3.9960    -0.0750 C.ar  1 <1>  -0.1500 
  9 N        4.2670    -3.6630    -0.0100 N.am  1 <1>  -0.5470 
 10 C        4.7630    -4.8480     0.4670 C.2   1 <1>   0.5690 
 11 O        4.0720    -5.6990     0.9700 O.2   1 <1>  -0.5700 
 12 C        6.2570    -5.1130     0.3590 C.3   1 <1>   0.1310 
 13 S        7.2220    -3.5290     0.2050 S.3   1 <1>  -0.2860 
 14 C        8.9040    -4.1220    -0.0150 C.2   1 <1>   0.2430 
 15 N        9.2060    -5.3690    -0.0860 N.2   1 <1>  -0.3380 
 16 N        9.9540    -3.3090    -0.1230 N.pl3 1 <1>   0.0480 
 17 N       10.5310    -5.4100    -0.2520 N.2   1 <1>  -0.3380 
 18 C       10.9570    -4.1900    -0.2700 C.2   1 <1>   0.0060 
 19 C        9.9820    -1.8300    -0.0900 C.3   1 <1>   0.0960 
 20 C       12.4220    -3.8180    -0.4400 C.3   1 <1>   0.0200 
 21 C        9.7620    -1.2540    -1.4930 C.3   1 <1>  -0.2400 
 22 C       13.0860    -3.5500     0.9150 C.3   1 <1>  -0.2400 
 23 H        3.6170    -1.1230    -0.1300 H     1 <1>   0.1500 
 24 H       -0.3120    -4.1130    -0.1410 H     1 <1>   0.1500 
 25 H        1.9560    -5.0640    -0.0320 H     1 <1>   0.1500 
 26 H        4.9930    -3.0100    -0.3100 H     1 <1>   0.3700 
 27 H        6.4700    -5.7050    -0.5110 H     1 <1>   0.0800 
 28 H        6.6140    -5.6190     1.2370 H     1 <1>   0.0800 
 29 H       10.9300    -1.5040     0.2960 H     1 <1>   0.0800 
 30 H        9.2130    -1.4820     0.5760 H     1 <1>   0.0800 
 31 H       12.5120    -2.9560    -1.0760 H     1 <1>   0.0800 
 32 H       12.9300    -4.6340    -0.9230 H     1 <1>   0.0800 
 33 H       10.5340    -1.5880    -2.1630 H     1 <1>   0.0800 
 34 H        9.7870    -0.1800    -1.4530 H     1 <1>   0.0800 
 35 H        8.8030    -1.5570    -1.8770 H     1 <1>   0.0800 
 36 H       12.6100    -2.7300     1.4210 H     1 <1>   0.0800 
 37 H       14.1260    -3.3150     0.7760 H     1 <1>   0.0800 
 38 H       13.0120    -4.4260     1.5350 H     1 <1>   0.0800 
@<TRIPOS>BOND
  1   1   2  1   
  2   2   3  ar  
  3   2   4  ar  
  4   3   5  1   
  5   3   6  ar  
  6   4   7  ar  
  7   4  23  1   
  8   6   8  ar  
  9   6  24  1   
 10   7   8  ar  
 11   7   9  1   
 12   8  25  1   
 13   9  10  am  
 14   9  26  1   
 15  10  11  2   
 16  10  12  1   
 17  12  13  1   
 18  12  27  1   
 19  12  28  1   
 20  13  14  1   
 21  14  15  2   
 22  14  16  1   
 23  15  17  1   
 24  16  18  1   
 25  16  19  1   
 26  17  18  2   
 27  18  20  1   
 28  19  21  1   
 29  19  29  1   
 30  19  30  1   
 31  20  22  1   
 32  20  31  1   
 33  20  32  1   
 34  21  33  1   
 35  21  34  1   
 36  21  35  1   
 37  22  36  1   
 38  22  37  1   
 39  22  38  1   
@<TRIPOS>SUBSTRUCTURE
  1 ****  13 GROUP 4 **** **** 0

# MOE 2024.06 (io_trps.svl 2023.06)
