@<TRIPOS>MOLECULE
NONAME
40 42 1 0 0 
SMALL
USER_CHARGES


@<TRIPOS>ATOM
  1 N       -0.5030     0.2310     0.6310 N.2   1 <1>  -0.5030 
  2 N        0.8590     0.1320     0.5680 N.pl3 1 <1>  -0.5690 
  3 C       -1.1160     1.3040     0.2700 C.2   1 <1>   0.4740 
  4 C       -2.5410     1.4060     0.2930 C.2   1 <1>  -0.2370 
  5 C       -0.4090     2.5680    -0.2430 C.3   1 <1>  -0.0990 
  6 N       -3.4000     0.4010     0.6560 N.pl3 1 <1>   0.0330 
  7 C       -3.2830     2.4960    -0.0450 C.2   1 <1>  -0.1810 
  8 C       -1.2050     3.8700     0.0190 C.3   1 <1>  -0.1600 
  9 C       -4.6890     0.8600     0.5370 C.ar  1 <1>  -0.1520 
 10 C       -4.6460     2.1770     0.0960 C.ar  1 <1>   0.0000 
 11 C       -2.6570     3.8000    -0.4900 C.3   1 <1>   0.0210 
 12 C       -5.9090     0.2340     0.7780 C.ar  1 <1>  -0.1500 
 13 C       -5.8390     2.8780    -0.1090 C.ar  1 <1>  -0.1500 
 14 C       -7.0720     0.9410     0.5720 C.ar  1 <1>  -0.1500 
 15 C       -7.0630     2.2760     0.1240 C.ar  1 <1>  -0.1430 
 16 C       -8.4110     3.0010    -0.0850 C.3   1 <1>   0.1430 
 17 C       -8.2460     4.4500    -0.5750 C.3   1 <1>  -0.2400 
 18 C       -9.2440     2.2500    -1.1350 C.3   1 <1>  -0.2400 
 19 C       -9.1820     3.0480     1.2430 C.3   1 <1>  -0.2400 
 20 H        1.4550     0.8520     0.1410 H     1 <1>   0.3110 
 21 H        1.3350    -0.7440     0.8230 H     1 <1>   0.3110 
 22 H        0.5530     2.6670     0.2220 H     1 <1>   0.0800 
 23 H       -0.2600     2.4520    -1.3010 H     1 <1>   0.0800 
 24 H       -3.1040    -0.5320     0.9590 H     1 <1>   0.2700 
 25 H       -1.2310     4.0400     1.0820 H     1 <1>   0.0800 
 26 H       -0.7030     4.7060    -0.4350 H     1 <1>   0.0800 
 27 H       -2.6780     3.8470    -1.5650 H     1 <1>   0.0800 
 28 H       -3.2220     4.6290    -0.1000 H     1 <1>   0.0800 
 29 H       -5.9330    -0.7840     1.1200 H     1 <1>   0.1500 
 30 H       -5.7480     3.8890    -0.4510 H     1 <1>   0.1500 
 31 H       -8.0090     0.4510     0.7600 H     1 <1>   0.1500 
 32 H       -9.2050     4.9170    -0.7080 H     1 <1>   0.0800 
 33 H       -7.7320     4.4710    -1.5200 H     1 <1>   0.0800 
 34 H       -7.6890     5.0280     0.1400 H     1 <1>   0.0800 
 35 H      -10.1690     2.7640    -1.3260 H     1 <1>   0.0800 
 36 H       -9.4770     1.2550    -0.8060 H     1 <1>   0.0800 
 37 H       -8.6930     2.1800    -2.0560 H     1 <1>   0.0800 
 38 H       -8.5890     3.5390     1.9930 H     1 <1>   0.0800 
 39 H       -9.4150     2.0590     1.5920 H     1 <1>   0.0800 
 40 H      -10.1050     3.5870     1.1280 H     1 <1>   0.0800 
@<TRIPOS>BOND
  1   1   2  1   
  2   1   3  2   
  3   2  20  1   
  4   2  21  1   
  5   3   4  1   
  6   3   5  1   
  7   4   6  1   
  8   4   7  2   
  9   5   8  1   
 10   5  22  1   
 11   5  23  1   
 12   6   9  1   
 13   6  24  1   
 14   7  10  1   
 15   7  11  1   
 16   8  11  1   
 17   8  25  1   
 18   8  26  1   
 19   9  10  ar  
 20   9  12  ar  
 21  10  13  ar  
 22  11  27  1   
 23  11  28  1   
 24  12  14  ar  
 25  12  29  1   
 26  13  15  ar  
 27  13  30  1   
 28  14  15  ar  
 29  14  31  1   
 30  15  16  1   
 31  16  17  1   
 32  16  18  1   
 33  16  19  1   
 34  17  32  1   
 35  17  33  1   
 36  17  34  1   
 37  18  35  1   
 38  18  36  1   
 39  18  37  1   
 40  19  38  1   
 41  19  39  1   
 42  19  40  1   
@<TRIPOS>SUBSTRUCTURE
  1 ****  10 GROUP 4 **** **** 0

# MOE 2024.06 (io_trps.svl 2023.06)
