@<TRIPOS>MOLECULE
NONAME
46 47 1 0 0 
SMALL
USER_CHARGES


@<TRIPOS>ATOM
  1 CL       0.0160    -0.1680     1.0040 Cl    1 <1>  -0.1770 
  2 C        1.5050    -0.9210     0.5000 C.ar  1 <1>   0.1770 
  3 C        2.0680    -1.9080     1.2870 C.ar  1 <1>  -0.1500 
  4 C        2.1020    -0.5220    -0.6810 C.ar  1 <1>  -0.1500 
  5 C        3.2510    -2.5040     0.8850 C.ar  1 <1>  -0.1500 
  6 C        3.2860    -1.1200    -1.0790 C.ar  1 <1>  -0.1500 
  7 C        3.8670    -2.1090    -0.2960 C.ar  1 <1>  -0.1430 
  8 C        5.1720    -2.7520    -0.7240 C.3   1 <1>  -0.0160 
  9 C        6.3270    -1.9790    -0.0880 C.3   1 <1>   0.3430 
 10 N        7.6470    -2.5610    -0.4850 N.4   1 <1>  -0.9060 
 11 C        8.8190    -1.9020     0.1470 C.3   1 <1>   0.4230 
 12 C        9.0240    -0.4940    -0.4220 C.3   1 <1>  -0.1600 
 13 C       10.0610    -2.7580    -0.1010 C.3   1 <1>  -0.1600 
 14 C       10.2890     0.1520     0.1480 C.3   1 <1>   0.3430 
 15 C       11.3160    -2.0920     0.4690 C.3   1 <1>   0.3430 
 16 N       11.4720    -0.7210    -0.1020 N.4   1 <1>  -0.9590 
 17 C       12.7050    -0.0520     0.4220 C.3   1 <1>   0.3430 
 18 C       13.9600    -0.6940    -0.1740 C.3   1 <1>  -0.1600 
 19 C       15.2170     0.0650     0.2650 C.3   1 <1>  -0.2400 
 20 H        1.5780    -2.2020     2.1980 H     1 <1>   0.1500 
 21 H        1.6380     0.2450    -1.2760 H     1 <1>   0.1500 
 22 H        3.6760    -3.2760     1.5030 H     1 <1>   0.1500 
 23 H        3.7380    -0.8050    -2.0040 H     1 <1>   0.1500 
 24 H        5.2460    -2.7260    -1.7980 H     1 <1>   0.0800 
 25 H        5.1820    -3.7790    -0.4040 H     1 <1>   0.0800 
 26 H        6.2150    -2.0110     0.9850 H     1 <1>   0.0800 
 27 H        6.2650    -0.9480    -0.3990 H     1 <1>   0.0800 
 28 H        7.7310    -2.5340    -1.5100 H     1 <1>   0.4500 
 29 H        7.6400    -3.5580    -0.2280 H     1 <1>   0.4500 
 30 H        8.6550    -1.8320     1.2130 H     1 <1>   0.0800 
 31 H        8.1910     0.1350    -0.1640 H     1 <1>   0.0800 
 32 H        9.1030    -0.5240    -1.4950 H     1 <1>   0.0800 
 33 H       10.2080    -2.9250    -1.1540 H     1 <1>   0.0800 
 34 H        9.9460    -3.7150     0.3780 H     1 <1>   0.0800 
 35 H       10.1720     0.3090     1.2090 H     1 <1>   0.0800 
 36 H       10.4410     1.1160    -0.3150 H     1 <1>   0.0800 
 37 H       12.1790    -2.6940     0.2290 H     1 <1>   0.0800 
 38 H       11.2430    -2.0320     1.5440 H     1 <1>   0.0800 
 39 H       11.6160    -0.7980    -1.1210 H     1 <1>   0.4500 
 40 H       12.7380    -0.1120     1.4980 H     1 <1>   0.0800 
 41 H       12.6960     0.9920     0.1470 H     1 <1>   0.0800 
 42 H       13.9100    -0.6720    -1.2490 H     1 <1>   0.0800 
 43 H       14.0570    -1.7150     0.1500 H     1 <1>   0.0800 
 44 H       15.1840     1.0900    -0.0660 H     1 <1>   0.0800 
 45 H       16.0920    -0.3950    -0.1630 H     1 <1>   0.0800 
 46 H       15.3230     0.0500     1.3360 H     1 <1>   0.0800 
@<TRIPOS>BOND
  1   1   2  1   
  2   2   3  ar  
  3   2   4  ar  
  4   3   5  ar  
  5   3  20  1   
  6   4   6  ar  
  7   4  21  1   
  8   5   7  ar  
  9   5  22  1   
 10   6   7  ar  
 11   6  23  1   
 12   7   8  1   
 13   8   9  1   
 14   8  24  1   
 15   8  25  1   
 16   9  10  1   
 17   9  26  1   
 18   9  27  1   
 19  10  11  1   
 20  10  28  1   
 21  10  29  1   
 22  11  12  1   
 23  11  13  1   
 24  11  30  1   
 25  12  14  1   
 26  12  31  1   
 27  12  32  1   
 28  13  15  1   
 29  13  33  1   
 30  13  34  1   
 31  14  16  1   
 32  14  35  1   
 33  14  36  1   
 34  15  16  1   
 35  15  37  1   
 36  15  38  1   
 37  16  17  1   
 38  16  39  1   
 39  17  18  1   
 40  17  40  1   
 41  17  41  1   
 42  18  19  1   
 43  18  42  1   
 44  18  43  1   
 45  19  44  1   
 46  19  45  1   
 47  19  46  1   
@<TRIPOS>SUBSTRUCTURE
  1 ****   9 GROUP 4 **** **** 0

# MOE 2024.06 (io_trps.svl 2023.06)
