@<TRIPOS>MOLECULE
NONAME
39 40 1 0 0 
SMALL
USER_CHARGES


@<TRIPOS>ATOM
  1 O       -0.3160    -0.0170    -0.6400 O.2   1 <1>  -0.5700 
  2 C       -0.4140     1.0100     0.0020 C.2   1 <1>   0.6900 
  3 N        0.6690     1.6740     0.4930 N.am  1 <1>  -0.5470 
  4 N       -1.6280     1.5580     0.2430 N.am  1 <1>  -0.7300 
  5 C        2.0460     1.4080     0.4100 C.ar  1 <1>   0.1170 
  6 C       -2.8790     1.1120    -0.4000 C.3   1 <1>   0.2200 
  7 C        2.9370     2.4610     0.5850 C.ar  1 <1>  -0.1500 
  8 C        2.5640     0.1380     0.1790 C.ar  1 <1>  -0.1500 
  9 C       -3.9080     2.2700    -0.3860 C.3   1 <1>   0.2000 
 10 C       -3.3880    -0.1500     0.3040 C.3   1 <1>  -0.2400 
 11 C        4.3050     2.2590     0.5270 C.ar  1 <1>  -0.1500 
 12 C        3.9300    -0.0700     0.1190 C.ar  1 <1>  -0.1500 
 13 O       -3.2900     3.4760    -0.7230 O.3   1 <1>  -0.5600 
 14 C       -4.5580     2.5770     0.9620 C.3   1 <1>  -0.1600 
 15 C        4.8110     0.9840     0.2920 C.ar  1 <1>   0.0830 
 16 C       -4.0960     4.5440    -0.3420 C.3   1 <1>   0.1200 
 17 C       -4.9070     4.0540     0.8550 C.3   1 <1>  -0.1600 
 18 O        6.1370     0.6940     0.2180 O.3   1 <1>  -0.3620 
 19 C        7.1090     1.7060     0.3550 C.3   1 <1>   0.0400 
 20 H        0.4250     2.5190     0.9940 H     1 <1>   0.3700 
 21 H       -1.6610     2.5720     0.3630 H     1 <1>   0.3700 
 22 H       -2.6670     0.8690    -1.4280 H     1 <1>   0.0800 
 23 H        2.5590     3.4500     0.7640 H     1 <1>   0.1500 
 24 H        1.9020    -0.6980     0.0470 H     1 <1>   0.1500 
 25 H       -4.6740     2.0810    -1.1200 H     1 <1>   0.0800 
 26 H       -3.5130     0.0170     1.3580 H     1 <1>   0.0800 
 27 H       -2.6860    -0.9530     0.1630 H     1 <1>   0.0800 
 28 H       -4.3290    -0.4530    -0.1170 H     1 <1>   0.0800 
 29 H        4.9570     3.1000     0.6660 H     1 <1>   0.1500 
 30 H        4.3210    -1.0550    -0.0630 H     1 <1>   0.1500 
 31 H       -3.8470     2.4250     1.7550 H     1 <1>   0.0800 
 32 H       -5.4220     1.9610     1.1370 H     1 <1>   0.0800 
 33 H       -4.7350     4.7940    -1.1720 H     1 <1>   0.0800 
 34 H       -3.4660     5.3820    -0.0960 H     1 <1>   0.0800 
 35 H       -4.6380     4.5870     1.7490 H     1 <1>   0.0800 
 36 H       -5.9560     4.1950     0.6640 H     1 <1>   0.0800 
 37 H        8.0790     1.2530     0.2530 H     1 <1>   0.0800 
 38 H        7.0150     2.1510     1.3300 H     1 <1>   0.0800 
 39 H        6.9640     2.4370    -0.4200 H     1 <1>   0.0800 
@<TRIPOS>BOND
  1   1   2  2   
  2   2   3  am  
  3   2   4  am  
  4   3   5  1   
  5   3  20  1   
  6   4   6  1   
  7   4  21  1   
  8   5   7  ar  
  9   5   8  ar  
 10   6   9  1   
 11   6  10  1   
 12   6  22  1   
 13   7  11  ar  
 14   7  23  1   
 15   8  12  ar  
 16   8  24  1   
 17   9  13  1   
 18   9  14  1   
 19   9  25  1   
 20  10  26  1   
 21  10  27  1   
 22  10  28  1   
 23  11  15  ar  
 24  11  29  1   
 25  12  15  ar  
 26  12  30  1   
 27  13  16  1   
 28  14  17  1   
 29  14  31  1   
 30  14  32  1   
 31  15  18  1   
 32  16  17  1   
 33  16  33  1   
 34  16  34  1   
 35  17  35  1   
 36  17  36  1   
 37  18  19  1   
 38  19  37  1   
 39  19  38  1   
 40  19  39  1   
@<TRIPOS>SUBSTRUCTURE
  1 ****   3 GROUP 4 **** **** 0

# MOE 2024.06 (io_trps.svl 2023.06)
