@<TRIPOS>MOLECULE
NONAME
46 47 1 0 0 
SMALL
USER_CHARGES


@<TRIPOS>ATOM
  1 CL       1.2070    -1.9420    -1.9970 Cl    1 <1>  -0.1770 
  2 C       -0.1580    -2.7120    -1.2210 C.ar  1 <1>   0.1770 
  3 C       -0.0240    -3.4080    -0.0220 C.ar  1 <1>  -0.1440 
  4 C       -1.3790    -2.5940    -1.8560 C.ar  1 <1>  -0.1500 
  5 C       -1.1590    -3.9910     0.5360 C.ar  1 <1>  -0.1500 
  6 C        1.3100    -3.5660     0.7100 C.3   1 <1>   0.5020 
  7 C       -2.4910    -3.1810    -1.2870 C.ar  1 <1>   0.0830 
  8 C       -2.3980    -3.8840    -0.0910 C.ar  1 <1>   0.0830 
  9 N        1.6900    -2.2650     1.2540 N.am  1 <1>  -0.7300 
 10 C        2.4110    -4.2060    -0.1320 C.2   1 <1>  -0.1240 
 11 O       -3.6840    -3.0730    -1.8960 O.3   1 <1>  -0.5320 
 12 O       -3.5460    -4.4340     0.4000 O.3   1 <1>  -0.3630 
 13 C        2.8460    -1.6390     0.9910 C.2   1 <1>   0.6900 
 14 C        3.5980    -3.5540    -0.3070 C.2   1 <1>  -0.0290 
 15 C        2.0080    -5.4790    -0.6510 C.2   1 <1>   0.7060 
 16 C       -3.5530    -5.1590     1.6080 C.3   1 <1>   0.1200 
 17 O        2.9870    -0.5180     1.4390 O.2   1 <1>  -0.5700 
 18 N        3.8170    -2.2750     0.2330 N.am  1 <1>  -0.4690 
 19 C        4.7550    -4.1770    -1.0940 C.3   1 <1>  -0.1020 
 20 O        2.3850    -5.9390    -1.7110 O.2   1 <1>  -0.5700 
 21 O        1.1470    -6.2090     0.0750 O.3   1 <1>  -0.4300 
 22 C       -4.9800    -5.6320     1.8640 C.3   1 <1>  -0.2400 
 23 C        5.0500    -1.4780    -0.0570 C.3   1 <1>   0.1400 
 24 C        0.6560    -7.4530    -0.3870 C.3   1 <1>   0.0400 
 25 C        6.0650    -1.6470     1.0760 C.3   1 <1>  -0.2400 
 26 H       -1.4650    -2.0540    -2.7800 H     1 <1>   0.1500 
 27 H       -1.0650    -4.5320     1.4590 H     1 <1>   0.1500 
 28 H        1.1570    -4.2080     1.5600 H     1 <1>   0.0800 
 29 H        0.9580    -1.6980     1.6730 H     1 <1>   0.3700 
 30 H       -4.3620    -3.5380    -1.3670 H     1 <1>   0.4500 
 31 H       -3.2210    -4.5090     2.3990 H     1 <1>   0.0800 
 32 H       -2.8870    -5.9990     1.5070 H     1 <1>   0.0800 
 33 H        4.8340    -3.7080    -2.0580 H     1 <1>   0.0800 
 34 H        4.6310    -5.2310    -1.2450 H     1 <1>   0.0800 
 35 H        5.6820    -4.0610    -0.5660 H     1 <1>   0.0800 
 36 H       -5.6410    -4.7880     1.9500 H     1 <1>   0.0800 
 37 H       -5.0190    -6.1910     2.7820 H     1 <1>   0.0800 
 38 H       -5.3100    -6.2680     1.0630 H     1 <1>   0.0800 
 39 H        4.7930    -0.4370    -0.1530 H     1 <1>   0.0800 
 40 H        5.4840    -1.7710    -0.9950 H     1 <1>   0.0800 
 41 H       -0.0130    -7.8540     0.3530 H     1 <1>   0.0800 
 42 H        1.4860    -8.1220    -0.5380 H     1 <1>   0.0800 
 43 H        0.1320    -7.2970    -1.3150 H     1 <1>   0.0800 
 44 H        5.6530    -1.2680     1.9950 H     1 <1>   0.0800 
 45 H        6.9550    -1.0890     0.8500 H     1 <1>   0.0800 
 46 H        6.3280    -2.6800     1.2050 H     1 <1>   0.0800 
@<TRIPOS>BOND
  1   1   2  1   
  2   2   3  ar  
  3   2   4  ar  
  4   3   5  ar  
  5   3   6  1   
  6   4   7  ar  
  7   4  26  1   
  8   5   8  ar  
  9   5  27  1   
 10   6   9  1   
 11   6  10  1   
 12   6  28  1   
 13   7   8  ar  
 14   7  11  1   
 15   8  12  1   
 16   9  13  am  
 17   9  29  1   
 18  10  14  2   
 19  10  15  1   
 20  11  30  1   
 21  12  16  1   
 22  13  17  2   
 23  13  18  am  
 24  14  18  1   
 25  14  19  1   
 26  15  20  2   
 27  15  21  1   
 28  16  22  1   
 29  16  31  1   
 30  16  32  1   
 31  18  23  1   
 32  19  33  1   
 33  19  34  1   
 34  19  35  1   
 35  21  24  1   
 36  22  36  1   
 37  22  37  1   
 38  22  38  1   
 39  23  25  1   
 40  23  39  1   
 41  23  40  1   
 42  24  41  1   
 43  24  42  1   
 44  24  43  1   
 45  25  44  1   
 46  25  45  1   
 47  25  46  1   
@<TRIPOS>SUBSTRUCTURE
  1 ****   3 GROUP 4 **** **** 0

# MOE 2024.06 (io_trps.svl 2023.06)
