@<TRIPOS>MOLECULE
NONAME
38 39 1 0 0 
SMALL
USER_CHARGES


@<TRIPOS>ATOM
  1 O        0.6710     0.1920     0.3360 O.2   1 <1>  -0.5700 
  2 C        0.8440     1.1880     1.0080 C.2   1 <1>   0.6900 
  3 N       -0.1040     2.1580     1.1400 N.am  1 <1>  -0.5470 
  4 N        2.0230     1.3800     1.6490 N.am  1 <1>  -0.7300 
  5 C       -1.4350     2.2150     0.6990 C.ar  1 <1>   0.1170 
  6 C        3.1570     0.4120     1.6330 C.3   1 <1>   0.1400 
  7 C       -2.0370     3.4590     0.5510 C.ar  1 <1>  -0.1500 
  8 C       -2.1920     1.0820     0.4210 C.ar  1 <1>  -0.1500 
  9 C        3.7920     0.2760     0.2400 C.3   1 <1>   0.2000 
 10 C       -3.3520     3.5700     0.1360 C.ar  1 <1>  -0.1500 
 11 C       -3.5070     1.1900     0.0040 C.ar  1 <1>  -0.1500 
 12 O        4.9870    -0.4260     0.3480 O.3   1 <1>  -0.5600 
 13 C        4.1990     1.5880    -0.4200 C.3   1 <1>  -0.1600 
 14 C       -4.0970     2.4350    -0.1400 C.ar  1 <1>  -0.1430 
 15 C        5.7670    -0.1990    -0.7800 C.3   1 <1>   0.1200 
 16 C        5.3810     1.1880    -1.2900 C.3   1 <1>  -0.1600 
 17 C       -5.5420     2.5540    -0.5980 C.3   1 <1>  -0.0170 
 18 C       -5.6160     2.6530    -2.1230 C.3   1 <1>  -0.2400 
 19 H        0.2450     3.0160     1.5460 H     1 <1>   0.3700 
 20 H        2.0940     2.1200     2.3440 H     1 <1>   0.3700 
 21 H        2.7990    -0.5540     1.9460 H     1 <1>   0.0800 
 22 H        3.9080     0.7440     2.3280 H     1 <1>   0.0800 
 23 H       -1.4760     4.3500     0.7580 H     1 <1>   0.1500 
 24 H       -1.7580     0.1050     0.5300 H     1 <1>   0.1500 
 25 H        3.1430    -0.2890    -0.4100 H     1 <1>   0.0800 
 26 H       -3.7950     4.5440     0.0250 H     1 <1>   0.1500 
 27 H       -4.0680     0.2980    -0.2100 H     1 <1>   0.1500 
 28 H        4.5100     2.2930     0.3300 H     1 <1>   0.0800 
 29 H        3.3870     2.0060    -0.9890 H     1 <1>   0.0800 
 30 H        5.5330    -0.9600    -1.5050 H     1 <1>   0.0800 
 31 H        6.8040    -0.2600    -0.5000 H     1 <1>   0.0800 
 32 H        6.1980     1.8790    -1.1840 H     1 <1>   0.0800 
 33 H        5.1010     1.1290    -2.3270 H     1 <1>   0.0800 
 34 H       -5.9920     3.4260    -0.1560 H     1 <1>   0.0800 
 35 H       -6.0990     1.6950    -0.2650 H     1 <1>   0.0800 
 36 H       -5.0760     3.5180    -2.4650 H     1 <1>   0.0800 
 37 H       -6.6400     2.7360    -2.4410 H     1 <1>   0.0800 
 38 H       -5.1820     1.7780    -2.5720 H     1 <1>   0.0800 
@<TRIPOS>BOND
  1   1   2  2   
  2   2   3  am  
  3   2   4  am  
  4   3   5  1   
  5   3  19  1   
  6   4   6  1   
  7   4  20  1   
  8   5   7  ar  
  9   5   8  ar  
 10   6   9  1   
 11   6  21  1   
 12   6  22  1   
 13   7  10  ar  
 14   7  23  1   
 15   8  11  ar  
 16   8  24  1   
 17   9  12  1   
 18   9  13  1   
 19   9  25  1   
 20  10  14  ar  
 21  10  26  1   
 22  11  14  ar  
 23  11  27  1   
 24  12  15  1   
 25  13  16  1   
 26  13  28  1   
 27  13  29  1   
 28  14  17  1   
 29  15  16  1   
 30  15  30  1   
 31  15  31  1   
 32  16  32  1   
 33  16  33  1   
 34  17  18  1   
 35  17  34  1   
 36  17  35  1   
 37  18  36  1   
 38  18  37  1   
 39  18  38  1   
@<TRIPOS>SUBSTRUCTURE
  1 ****   2 GROUP 4 **** **** 0

# MOE 2024.06 (io_trps.svl 2023.06)
