@<TRIPOS>MOLECULE
NONAME
49 51 1 0 0 
SMALL
USER_CHARGES


@<TRIPOS>ATOM
  1 N       -0.0550     0.2080    -0.0390 N.pl3 1 <1>  -0.8380 
  2 C       -1.2390    -0.4880    -0.2540 C.ar  1 <1>   0.1000 
  3 C        1.2020    -0.5250    -0.3430 C.3   1 <1>   0.2090 
  4 C       -0.0010     1.0560     1.1810 C.3   1 <1>   0.2090 
  5 C       -2.0680    -0.1210    -1.3050 C.ar  1 <1>  -0.1500 
  6 C       -1.6190    -1.5490     0.5610 C.ar  1 <1>  -0.1500 
  7 C        2.3820     0.4660    -0.4330 C.3   1 <1>   0.3430 
  8 C        1.1840     2.0400     1.0880 C.3   1 <1>   0.3430 
  9 C       -3.2520    -0.7960    -1.5400 C.ar  1 <1>  -0.1500 
 10 C       -2.8010    -2.2270     0.3280 C.ar  1 <1>  -0.1500 
 11 N        2.5110     1.3550     0.7970 N.4   1 <1>  -0.9590 
 12 C       -3.6200    -1.8510    -0.7230 C.ar  1 <1>  -0.1500 
 13 C        3.6460     2.3290     0.7740 C.3   1 <1>   0.4230 
 14 C        3.6140     3.2500    -0.4540 C.3   1 <1>  -0.1600 
 15 C        4.9860     1.5920     0.8450 C.3   1 <1>  -0.1600 
 16 C        4.7890     4.2290    -0.4230 C.3   1 <1>   0.3430 
 17 C        6.1500     2.5850     0.8630 C.3   1 <1>   0.3430 
 18 N        6.0780     3.4830    -0.3300 N.4   1 <1>  -0.9590 
 19 C        7.2170     4.4490    -0.3510 C.3   1 <1>   0.3430 
 20 C        8.5070     3.7180    -0.7030 C.3   1 <1>  -0.2400 
 21 H        1.0920    -1.0400    -1.2830 H     1 <1>   0.0800 
 22 H        1.3890    -1.2620     0.4180 H     1 <1>   0.0800 
 23 H        0.0950     0.4350     2.0540 H     1 <1>   0.0800 
 24 H       -0.9220     1.6080     1.2670 H     1 <1>   0.0800 
 25 H       -1.7810     0.6980    -1.9370 H     1 <1>   0.1500 
 26 H       -0.9900    -1.8470     1.3780 H     1 <1>   0.1500 
 27 H        2.2210     1.0770    -1.3060 H     1 <1>   0.0800 
 28 H        3.2880    -0.0950    -0.5840 H     1 <1>   0.0800 
 29 H        1.2470     2.5900     2.0130 H     1 <1>   0.0800 
 30 H        0.9590     2.7410     0.3020 H     1 <1>   0.0800 
 31 H       -3.8870    -0.5030    -2.3580 H     1 <1>   0.1500 
 32 H       -3.0890    -3.0480     0.9630 H     1 <1>   0.1500 
 33 H        2.6590     0.7130     1.5880 H     1 <1>   0.4500 
 34 H       -4.5410    -2.3780    -0.9050 H     1 <1>   0.1500 
 35 H        3.5700     2.9490     1.6540 H     1 <1>   0.0800 
 36 H        2.7050     3.8240    -0.4640 H     1 <1>   0.0800 
 37 H        3.6660     2.6870    -1.3680 H     1 <1>   0.0800 
 38 H        5.1140     0.9310     0.0070 H     1 <1>   0.0800 
 39 H        5.0300     1.0070     1.7470 H     1 <1>   0.0800 
 40 H        4.6900     4.8910     0.4230 H     1 <1>   0.0800 
 41 H        4.7780     4.8320    -1.3190 H     1 <1>   0.0800 
 42 H        7.0820     2.0410     0.8610 H     1 <1>   0.0800 
 43 H        6.1130     3.1760     1.7650 H     1 <1>   0.0800 
 44 H        6.1880     2.9110    -1.1810 H     1 <1>   0.4500 
 45 H        7.3160     4.9390     0.6050 H     1 <1>   0.0800 
 46 H        7.0380     5.2070    -1.0990 H     1 <1>   0.0800 
 47 H        8.7930     3.0190     0.0630 H     1 <1>   0.0800 
 48 H        9.3020     4.4380    -0.7920 H     1 <1>   0.0800 
 49 H        8.4200     3.2100    -1.6470 H     1 <1>   0.0800 
@<TRIPOS>BOND
  1   1   2  1   
  2   1   3  1   
  3   1   4  1   
  4   2   5  ar  
  5   2   6  ar  
  6   3   7  1   
  7   3  21  1   
  8   3  22  1   
  9   4   8  1   
 10   4  23  1   
 11   4  24  1   
 12   5   9  ar  
 13   5  25  1   
 14   6  10  ar  
 15   6  26  1   
 16   7  11  1   
 17   7  27  1   
 18   7  28  1   
 19   8  11  1   
 20   8  29  1   
 21   8  30  1   
 22   9  12  ar  
 23   9  31  1   
 24  10  12  ar  
 25  10  32  1   
 26  11  13  1   
 27  11  33  1   
 28  12  34  1   
 29  13  14  1   
 30  13  15  1   
 31  13  35  1   
 32  14  16  1   
 33  14  36  1   
 34  14  37  1   
 35  15  17  1   
 36  15  38  1   
 37  15  39  1   
 38  16  18  1   
 39  16  40  1   
 40  16  41  1   
 41  17  18  1   
 42  17  42  1   
 43  17  43  1   
 44  18  19  1   
 45  18  44  1   
 46  19  20  1   
 47  19  45  1   
 48  19  46  1   
 49  20  47  1   
 50  20  48  1   
 51  20  49  1   
@<TRIPOS>SUBSTRUCTURE
  1 ****   7 GROUP 4 **** **** 0

# MOE 2024.06 (io_trps.svl 2023.06)
