@<TRIPOS>MOLECULE
NONAME
37 39 1 0 0 
SMALL
USER_CHARGES


@<TRIPOS>ATOM
  1 O        4.2840    -4.9130    -0.4120 O.3   1 <1>  -0.3630 
  2 C        3.0540    -4.3680    -0.2080 C.ar  1 <1>   0.0830 
  3 C        5.4620    -4.1930    -0.1240 C.3   1 <1>   0.0400 
  4 C        1.9690    -5.1570    -0.5040 C.ar  1 <1>  -0.1500 
  5 C        2.8620    -3.0610     0.2820 C.ar  1 <1>  -0.1500 
  6 C        0.6700    -4.6630    -0.3180 C.ar  1 <1>   0.0000 
  7 C        1.5940    -2.5640     0.4680 C.ar  1 <1>  -0.1500 
  8 C       -0.6130    -5.2030    -0.5340 C.2   1 <1>   0.0190 
  9 C        0.4930    -3.3730     0.1650 C.ar  1 <1>  -0.1520 
 10 C       -0.8280    -6.4900    -1.1200 C.1   1 <1>   0.5380 
 11 C       -1.5370    -4.2580    -0.1430 C.2   1 <1>  -0.2270 
 12 N       -0.8500    -3.1340     0.2480 N.pl3 1 <1>   0.0480 
 13 N       -1.0780    -7.5190    -1.5430 N.1   1 <1>  -0.5570 
 14 C       -2.9750    -4.2270    -0.1650 C.cat 1 <1>   0.7840 
 15 C       -1.5040    -1.8170     0.4110 C.3   1 <1>   0.0960 
 16 N       -3.5340    -3.0450    -0.3690 N.pl3 1 <1>  -0.7940 
 17 N       -3.7710    -5.2790     0.0510 N.pl3 1 <1>  -0.8330 
 18 C       -2.7740    -1.7640    -0.4570 C.3   1 <1>   0.3290 
 19 C       -5.2240    -5.3450    -0.3060 C.3   1 <1>   0.2490 
 20 C       -3.3230    -6.5290     0.7460 C.3   1 <1>   0.2490 
 21 H        6.3020    -4.8220    -0.3570 H     1 <1>   0.0800 
 22 H        5.4730    -3.9430     0.9220 H     1 <1>   0.0800 
 23 H        5.4890    -3.3080    -0.7360 H     1 <1>   0.0800 
 24 H        2.1190    -6.1530    -0.8800 H     1 <1>   0.1500 
 25 H        3.7040    -2.4380     0.5170 H     1 <1>   0.1500 
 26 H        1.4510    -1.5680     0.8470 H     1 <1>   0.1500 
 27 H       -0.8250    -1.0350     0.1200 H     1 <1>   0.0800 
 28 H       -1.7580    -1.6840     1.4470 H     1 <1>   0.0800 
 29 H       -4.5480    -2.9660    -0.4020 H     1 <1>   0.4500 
 30 H       -2.5010    -1.5850    -1.4840 H     1 <1>   0.0800 
 31 H       -3.3940    -0.9460    -0.1300 H     1 <1>   0.0800 
 32 H       -5.4500    -6.3060    -0.7400 H     1 <1>   0.0800 
 33 H       -5.4860    -4.5930    -1.0290 H     1 <1>   0.0800 
 34 H       -5.8280    -5.2150     0.5770 H     1 <1>   0.0800 
 35 H       -4.0150    -6.7800     1.5330 H     1 <1>   0.0800 
 36 H       -2.3540    -6.4050     1.1970 H     1 <1>   0.0800 
 37 H       -3.2880    -7.3500     0.0500 H     1 <1>   0.0800 
@<TRIPOS>BOND
  1   1   2  1   
  2   1   3  1   
  3   2   4  ar  
  4   2   5  ar  
  5   3  21  1   
  6   3  22  1   
  7   3  23  1   
  8   4   6  ar  
  9   4  24  1   
 10   5   7  ar  
 11   5  25  1   
 12   6   8  1   
 13   6   9  ar  
 14   7   9  ar  
 15   7  26  1   
 16   8  10  1   
 17   8  11  2   
 18   9  12  1   
 19  10  13  3   
 20  11  12  1   
 21  11  14  1   
 22  12  15  1   
 23  14  16  ar  
 24  14  17  ar  
 25  15  18  1   
 26  15  27  1   
 27  15  28  1   
 28  16  18  1   
 29  16  29  1   
 30  17  19  1   
 31  17  20  1   
 32  18  30  1   
 33  18  31  1   
 34  19  32  1   
 35  19  33  1   
 36  19  34  1   
 37  20  35  1   
 38  20  36  1   
 39  20  37  1   
@<TRIPOS>SUBSTRUCTURE
  1 ****   8 GROUP 4 **** **** 0

# MOE 2024.06 (io_trps.svl 2023.06)
