@<TRIPOS>MOLECULE
NONAME
56 58 1 0 0 
SMALL
USER_CHARGES


@<TRIPOS>ATOM
  1 S       -1.0080     0.6200     0.2700 S.o2  1 <1>   1.3330 
  2 O       -1.6770     0.7650    -0.9980 O.2   1 <1>  -0.6500 
  3 O        0.3370     1.1200     0.4230 O.2   1 <1>  -0.6500 
  4 N       -0.9550    -1.0650     0.6920 N.am  1 <1>  -0.6930 
  5 C       -1.9680     1.3800     1.5630 C.3   1 <1>  -0.1350 
  6 C        0.2060    -1.8060     0.5070 C.ar  1 <1>   0.1990 
  7 C       -2.1860    -1.7760     1.1290 C.3   1 <1>   0.3390 
  8 C        0.9460    -1.7060    -0.6680 C.ar  1 <1>  -0.1500 
  9 C        0.6630    -2.6830     1.4880 C.ar  1 <1>  -0.1500 
 10 C       -3.4370    -1.5030     0.2980 C.ar  1 <1>  -0.1430 
 11 C        2.0940    -2.4510    -0.8540 C.ar  1 <1>  -0.1500 
 12 C        1.8110    -3.4270     1.2990 C.ar  1 <1>  -0.1500 
 13 C       -3.5320    -1.8260    -1.0550 C.ar  1 <1>  -0.1430 
 14 C       -4.5370    -0.9420     0.9370 C.ar  1 <1>  -0.1500 
 15 C        2.5610    -3.3250     0.1280 C.ar  1 <1>   0.0860 
 16 C       -4.7050    -1.5540    -1.7420 C.ar  1 <1>  -0.1500 
 17 C       -2.3870    -2.4670    -1.8270 C.3   1 <1>  -0.0970 
 18 C       -5.7040    -0.6780     0.2440 C.ar  1 <1>  -0.1500 
 19 C        3.7710    -4.1000    -0.0520 C.2   1 <1>   0.5440 
 20 C       -5.7870    -0.9820    -1.1000 C.ar  1 <1>  -0.1500 
 21 O        3.7190    -5.3080     0.0900 O.2   1 <1>  -0.5700 
 22 N        4.9800    -3.5100    -0.3700 N.am  1 <1>  -0.6600 
 23 C        5.2600    -2.0560    -0.2030 C.3   1 <1>   0.1400 
 24 C        6.1720    -4.3220    -0.7450 C.3   1 <1>   0.1400 
 25 C        6.3610    -1.8570     0.8430 C.3   1 <1>  -0.1600 
 26 C        7.2740    -4.1390     0.3040 C.3   1 <1>  -0.1600 
 27 C        7.6280    -2.6570     0.4980 C.3   1 <1>  -0.0800 
 28 C        8.6850    -2.4930     1.5950 C.3   1 <1>  -0.2400 
 29 H       -1.9250     2.4470     1.4600 H     1 <1>   0.0800 
 30 H       -1.5750     1.1140     2.5230 H     1 <1>   0.0800 
 31 H       -2.9930     1.0830     1.4990 H     1 <1>   0.0800 
 32 H       -2.3730    -1.5180     2.1560 H     1 <1>   0.0800 
 33 H       -2.0070    -2.8370     1.1040 H     1 <1>   0.0800 
 34 H        0.6160    -1.0370    -1.4420 H     1 <1>   0.1500 
 35 H        0.1190    -2.7770     2.4090 H     1 <1>   0.1500 
 36 H        2.6450    -2.3610    -1.7740 H     1 <1>   0.1500 
 37 H        2.1480    -4.1060     2.0640 H     1 <1>   0.1500 
 38 H       -4.5010    -0.7050     1.9850 H     1 <1>   0.1500 
 39 H       -4.7820    -1.7850    -2.7900 H     1 <1>   0.1500 
 40 H       -1.6930    -1.7070    -2.1360 H     1 <1>   0.0800 
 41 H       -2.7530    -2.9660    -2.7060 H     1 <1>   0.0800 
 42 H       -1.8700    -3.1930    -1.2280 H     1 <1>   0.0800 
 43 H       -6.5470    -0.2390     0.7470 H     1 <1>   0.1500 
 44 H       -6.6900    -0.7750    -1.6480 H     1 <1>   0.1500 
 45 H        4.3810    -1.5230     0.1130 H     1 <1>   0.0800 
 46 H        5.5760    -1.6500    -1.1480 H     1 <1>   0.0800 
 47 H        6.5260    -3.9970    -1.7070 H     1 <1>   0.0800 
 48 H        5.9160    -5.3650    -0.8220 H     1 <1>   0.0800 
 49 H        5.9830    -2.1670     1.8020 H     1 <1>   0.0800 
 50 H        6.5990    -0.8100     0.9070 H     1 <1>   0.0800 
 51 H        8.1470    -4.6860    -0.0070 H     1 <1>   0.0800 
 52 H        6.9330    -4.5640     1.2320 H     1 <1>   0.0800 
 53 H        8.0320    -2.2770    -0.4260 H     1 <1>   0.0800 
 54 H        8.3170    -2.8640     2.5350 H     1 <1>   0.0800 
 55 H        8.9440    -1.4550     1.7130 H     1 <1>   0.0800 
 56 H        9.5770    -3.0360     1.3370 H     1 <1>   0.0800 
@<TRIPOS>BOND
  1   1   2  2   
  2   1   3  2   
  3   1   4  am  
  4   1   5  1   
  5   4   6  1   
  6   4   7  1   
  7   5  29  1   
  8   5  30  1   
  9   5  31  1   
 10   6   8  ar  
 11   6   9  ar  
 12   7  10  1   
 13   7  32  1   
 14   7  33  1   
 15   8  11  ar  
 16   8  34  1   
 17   9  12  ar  
 18   9  35  1   
 19  10  13  ar  
 20  10  14  ar  
 21  11  15  ar  
 22  11  36  1   
 23  12  15  ar  
 24  12  37  1   
 25  13  16  ar  
 26  13  17  1   
 27  14  18  ar  
 28  14  38  1   
 29  15  19  1   
 30  16  20  ar  
 31  16  39  1   
 32  17  40  1   
 33  17  41  1   
 34  17  42  1   
 35  18  20  ar  
 36  18  43  1   
 37  19  21  2   
 38  19  22  am  
 39  20  44  1   
 40  22  23  1   
 41  22  24  1   
 42  23  25  1   
 43  23  45  1   
 44  23  46  1   
 45  24  26  1   
 46  24  47  1   
 47  24  48  1   
 48  25  27  1   
 49  25  49  1   
 50  25  50  1   
 51  26  27  1   
 52  26  51  1   
 53  26  52  1   
 54  27  28  1   
 55  27  53  1   
 56  28  54  1   
 57  28  55  1   
 58  28  56  1   
@<TRIPOS>SUBSTRUCTURE
  1 ****   6 GROUP 4 **** **** 0

# MOE 2024.06 (io_trps.svl 2023.06)
