@<TRIPOS>MOLECULE
NONAME
41 45 1 0 0 
SMALL
USER_CHARGES


@<TRIPOS>ATOM
  1 F       -0.6200    -0.5210     0.5660 F     1 <1>  -0.1900 
  2 C       -1.1030     0.6850     0.4340 C.ar  1 <1>   0.1900 
  3 C       -0.4420     1.7370     1.0420 C.ar  1 <1>  -0.1500 
  4 C       -2.2540     0.8630    -0.3120 C.ar  1 <1>  -0.1500 
  5 C       -0.9600     3.0140     0.9040 C.ar  1 <1>  -0.1500 
  6 C       -2.7660     2.1430    -0.4480 C.ar  1 <1>  -0.1500 
  7 C       -2.1230     3.2120     0.1700 C.ar  1 <1>   0.0830 
  8 O       -2.6110     4.4700     0.0650 O.3   1 <1>  -0.2320 
  9 C       -3.8850     4.8040     0.2560 C.2   1 <1>   0.6590 
 10 O       -4.3810     5.6920    -0.3890 O.2   1 <1>  -0.5700 
 11 C       -4.6690     4.0880     1.3630 C.3   1 <1>   0.2010 
 12 N       -6.1300     4.0880     1.1030 N.am  1 <1>  -0.4200 
 13 C       -7.0390     4.8920     1.7450 C.2   1 <1>   0.5690 
 14 C       -6.6930     3.5060    -0.0050 C.2   1 <1>   0.5690 
 15 O       -6.8130     5.6780     2.6270 O.2   1 <1>  -0.5700 
 16 C       -8.3920     4.5470     1.1880 C.3   1 <1>  -0.0190 
 17 O       -6.2040     2.6420    -0.6850 O.2   1 <1>  -0.5700 
 18 C       -7.9900     4.2210    -0.2620 C.3   1 <1>  -0.0190 
 19 C       -9.7910     5.2170     1.1830 C.3   1 <1>   0.1530 
 20 C       -9.2660     3.9210    -1.1010 C.3   1 <1>   0.1530 
 21 C      -10.6580     3.9780     0.9070 C.2   1 <1>  -0.2880 
 22 C       -9.9590     6.1230    -0.0770 C.3   1 <1>  -0.1950 
 23 C      -10.3590     3.3040    -0.2160 C.2   1 <1>  -0.2880 
 24 C       -9.7830     5.3690    -1.3880 C.3   1 <1>  -0.1950 
 25 C      -11.0970     6.0250    -1.0500 C.3   1 <1>  -0.2000 
 26 H        0.4550     1.5550     1.6070 H     1 <1>   0.1500 
 27 H       -2.7340     0.0190    -0.7760 H     1 <1>   0.1500 
 28 H       -0.4660     3.8530     1.3610 H     1 <1>   0.1500 
 29 H       -3.6530     2.3000    -1.0390 H     1 <1>   0.1500 
 30 H       -4.4740     4.5900     2.2940 H     1 <1>   0.0800 
 31 H       -4.3470     3.0690     1.4600 H     1 <1>   0.0800 
 32 H       -8.5540     3.6130     1.7050 H     1 <1>   0.0800 
 33 H       -7.5900     5.1230    -0.7020 H     1 <1>   0.0800 
 34 H      -10.0440     5.6990     2.1110 H     1 <1>   0.0800 
 35 H       -9.0720     3.3680    -2.0040 H     1 <1>   0.0800 
 36 H      -11.4150     3.7360     1.6330 H     1 <1>   0.1500 
 37 H       -9.4490     7.0670     0.0170 H     1 <1>   0.1000 
 38 H      -10.8250     2.4030    -0.5770 H     1 <1>   0.1500 
 39 H       -9.2250     5.8450    -2.1770 H     1 <1>   0.1000 
 40 H      -11.3760     6.9120    -1.5930 H     1 <1>   0.1000 
 41 H      -11.9550     5.4110    -0.8380 H     1 <1>   0.1000 
@<TRIPOS>BOND
  1   1   2  1   
  2   2   3  ar  
  3   2   4  ar  
  4   3   5  ar  
  5   3  26  1   
  6   4   6  ar  
  7   4  27  1   
  8   5   7  ar  
  9   5  28  1   
 10   6   7  ar  
 11   6  29  1   
 12   7   8  1   
 13   8   9  1   
 14   9  10  2   
 15   9  11  1   
 16  11  12  1   
 17  11  30  1   
 18  11  31  1   
 19  12  13  am  
 20  12  14  am  
 21  13  15  2   
 22  13  16  1   
 23  14  17  2   
 24  14  18  1   
 25  16  18  1   
 26  16  19  1   
 27  16  32  1   
 28  18  20  1   
 29  18  33  1   
 30  19  21  1   
 31  19  22  1   
 32  19  34  1   
 33  20  23  1   
 34  20  24  1   
 35  20  35  1   
 36  21  23  2   
 37  21  36  1   
 38  22  24  1   
 39  22  25  1   
 40  22  37  1   
 41  23  38  1   
 42  24  25  1   
 43  24  39  1   
 44  25  40  1   
 45  25  41  1   
@<TRIPOS>SUBSTRUCTURE
  1 ****  12 GROUP 4 **** **** 0

# MOE 2024.06 (io_trps.svl 2023.06)
