@<TRIPOS>MOLECULE
NONAME
55 58 1 0 0 
SMALL
USER_CHARGES


@<TRIPOS>ATOM
  1 O       -0.0170     0.9340    -1.2860 O.2   1 <1>  -0.5700 
  2 C       -0.7150     1.7120    -0.6780 C.2   1 <1>   0.5690 
  3 N       -1.9570     1.3310    -0.2690 N.am  1 <1>  -0.7300 
  4 C       -0.1850     3.1270    -0.3590 C.3   1 <1>   0.0610 
  5 C       -2.5340     0.0130    -0.5500 C.3   1 <1>   0.2200 
  6 C        1.0880     3.0240     0.5150 C.3   1 <1>  -0.1600 
  7 C       -1.2220     3.9980     0.4020 C.3   1 <1>  -0.1600 
  8 C        0.1820     3.8580    -1.6730 C.3   1 <1>  -0.1600 
  9 C       -4.0510     0.1260    -0.6700 C.3   1 <1>  -0.1600 
 10 C       -2.1450    -0.9510     0.5670 C.3   1 <1>  -0.1600 
 11 C        1.6740     4.4170     0.8210 C.3   1 <1>   0.0000 
 12 C       -0.6620     5.4020     0.7050 C.3   1 <1>   0.0000 
 13 C        0.7560     5.2560    -1.3830 C.3   1 <1>  -0.0800 
 14 C       -4.6630    -1.2560    -0.8880 C.3   1 <1>   0.3430 
 15 C       -2.7780    -2.3170     0.3280 C.3   1 <1>   0.3430 
 16 C        0.6120     5.2530     1.5610 C.3   1 <1>  -0.1600 
 17 C        2.0170     5.1140    -0.5120 C.3   1 <1>  -0.1600 
 18 C        2.9350     4.2800     1.6840 C.3   1 <1>  -0.2400 
 19 C       -0.2930     6.0880    -0.6250 C.3   1 <1>  -0.1600 
 20 C       -1.7080     6.2360     1.4560 C.3   1 <1>  -0.2400 
 21 N       -4.2620    -2.1750     0.2210 N.4   1 <1>  -0.9590 
 22 C       -4.9080    -3.5140     0.0580 C.3   1 <1>   0.2630 
 23 H       -2.5190     1.9920     0.2690 H     1 <1>   0.3700 
 24 H       -2.1330    -0.3490    -1.4840 H     1 <1>   0.0800 
 25 H        1.8250     2.4300     0.0020 H     1 <1>   0.0800 
 26 H        0.8510     2.5180     1.4350 H     1 <1>   0.0800 
 27 H       -1.4850     3.5210     1.3300 H     1 <1>   0.0800 
 28 H       -2.1150     4.0980    -0.1910 H     1 <1>   0.0800 
 29 H       -0.6900     3.9460    -2.2970 H     1 <1>   0.0800 
 30 H        0.9110     3.2810    -2.2170 H     1 <1>   0.0800 
 31 H       -4.2950     0.7510    -1.5110 H     1 <1>   0.0800 
 32 H       -4.4710     0.5690     0.2160 H     1 <1>   0.0800 
 33 H       -2.4520    -0.5690     1.5250 H     1 <1>   0.0800 
 34 H       -1.0740    -1.0630     0.5770 H     1 <1>   0.0800 
 35 H        1.0080     5.7450    -2.3080 H     1 <1>   0.0800 
 36 H       -4.3220    -1.6540    -1.8310 H     1 <1>   0.0800 
 37 H       -5.7380    -1.1710    -0.9280 H     1 <1>   0.0800 
 38 H       -2.5260    -2.9770     1.1430 H     1 <1>   0.0800 
 39 H       -2.3830    -2.7390    -0.5830 H     1 <1>   0.0800 
 40 H        0.3680     4.7820     2.4970 H     1 <1>   0.0800 
 41 H        1.0120     6.2270     1.7830 H     1 <1>   0.0800 
 42 H        2.7580     4.5430    -1.0440 H     1 <1>   0.0800 
 43 H        2.4320     6.0880    -0.3190 H     1 <1>   0.0800 
 44 H        2.7040     3.7950     2.6150 H     1 <1>   0.0800 
 45 H        3.3500     5.2490     1.8980 H     1 <1>   0.0800 
 46 H        3.6790     3.6970     1.1710 H     1 <1>   0.0800 
 47 H        0.1010     7.0710    -0.4330 H     1 <1>   0.0800 
 48 H       -1.1700     6.2050    -1.2370 H     1 <1>   0.0800 
 49 H       -1.9700     5.7650     2.3860 H     1 <1>   0.0800 
 50 H       -2.5990     6.3460     0.8640 H     1 <1>   0.0800 
 51 H       -1.3210     7.2170     1.6700 H     1 <1>   0.0800 
 52 H       -4.5960    -1.7610     1.1040 H     1 <1>   0.4500 
 53 H       -4.5800    -3.9810    -0.8560 H     1 <1>   0.0800 
 54 H       -5.9810    -3.4120     0.0280 H     1 <1>   0.0800 
 55 H       -4.6500    -4.1570     0.8850 H     1 <1>   0.0800 
@<TRIPOS>BOND
  1   1   2  2   
  2   2   3  am  
  3   2   4  1   
  4   3   5  1   
  5   3  23  1   
  6   4   6  1   
  7   4   7  1   
  8   4   8  1   
  9   5   9  1   
 10   5  10  1   
 11   5  24  1   
 12   6  11  1   
 13   6  25  1   
 14   6  26  1   
 15   7  12  1   
 16   7  27  1   
 17   7  28  1   
 18   8  13  1   
 19   8  29  1   
 20   8  30  1   
 21   9  14  1   
 22   9  31  1   
 23   9  32  1   
 24  10  15  1   
 25  10  33  1   
 26  10  34  1   
 27  11  16  1   
 28  11  17  1   
 29  11  18  1   
 30  12  16  1   
 31  12  19  1   
 32  12  20  1   
 33  13  17  1   
 34  13  19  1   
 35  13  35  1   
 36  14  21  1   
 37  14  36  1   
 38  14  37  1   
 39  15  21  1   
 40  15  38  1   
 41  15  39  1   
 42  16  40  1   
 43  16  41  1   
 44  17  42  1   
 45  17  43  1   
 46  18  44  1   
 47  18  45  1   
 48  18  46  1   
 49  19  47  1   
 50  19  48  1   
 51  20  49  1   
 52  20  50  1   
 53  20  51  1   
 54  21  22  1   
 55  21  52  1   
 56  22  53  1   
 57  22  54  1   
 58  22  55  1   
@<TRIPOS>SUBSTRUCTURE
  1 ****   2 GROUP 4 **** **** 0

# MOE 2024.06 (io_trps.svl 2023.06)
