@<TRIPOS>MOLECULE
NONAME
44 47 1 0 0 
SMALL
USER_CHARGES


@<TRIPOS>ATOM
  1 O        0.0560     1.3250     1.7330 O.2   1 <1>  -0.5700 
  2 C        0.3280     2.1780     0.9280 C.2   1 <1>   0.5690 
  3 N        1.3920     2.2270     0.0380 N.am  1 <1>  -0.2370 
  4 C       -0.4540     3.4420     0.7420 C.3   1 <1>  -0.0190 
  5 C        2.5320     1.3920     0.0670 C.ar  1 <1>   0.1170 
  6 C        1.1470     3.2350    -0.8850 C.2   1 <1>   0.5690 
  7 C       -1.8310     4.0610     1.0210 C.3   1 <1>   0.1960 
  8 C       -0.3050     3.5970    -0.7730 C.3   1 <1>  -0.0190 
  9 C        3.8090     1.9190    -0.0900 C.ar  1 <1>  -0.1500 
 10 C        2.4070     0.0210     0.2550 C.ar  1 <1>  -0.1500 
 11 O        1.9080     3.7420    -1.6680 O.2   1 <1>  -0.5700 
 12 C       -1.4880     5.3690     0.3150 C.2   1 <1>  -0.2760 
 13 C       -2.9130     3.6280     0.0410 C.2   1 <1>  -0.2880 
 14 C       -1.2450     4.7880    -1.0710 C.3   1 <1>   0.1960 
 15 C        4.9350     1.1110    -0.0650 C.ar  1 <1>  -0.1440 
 16 C        3.5240    -0.7930     0.2840 C.ar  1 <1>  -0.1500 
 17 C       -1.4120     6.6310     0.7650 C.2   1 <1>  -0.2760 
 18 C       -2.6010     4.1020    -1.1690 C.2   1 <1>  -0.2880 
 19 C        4.7930    -0.2590     0.1250 C.ar  1 <1>  -0.1430 
 20 C        6.3050     1.7490    -0.2480 C.3   1 <1>  -0.0970 
 21 C       -1.6870     7.0490     2.2030 C.3   1 <1>  -0.1020 
 22 C       -1.0420     7.8260    -0.1030 C.3   1 <1>  -0.1020 
 23 C        5.9970    -1.1880     0.1620 C.3   1 <1>  -0.0960 
 24 H        0.2110     4.1370     1.2350 H     1 <1>   0.0800 
 25 H       -2.1240     4.1500     2.0510 H     1 <1>   0.0800 
 26 H       -0.7560     2.7500    -1.2680 H     1 <1>   0.0800 
 27 H        3.9210     2.9780    -0.2380 H     1 <1>   0.1500 
 28 H        1.4330    -0.4160     0.3830 H     1 <1>   0.1500 
 29 H       -3.7560     3.0510     0.3810 H     1 <1>   0.1500 
 30 H       -0.9870     5.4460    -1.8800 H     1 <1>   0.0800 
 31 H        3.3950    -1.8510     0.4330 H     1 <1>   0.1500 
 32 H       -3.1140     4.0340    -2.1120 H     1 <1>   0.1500 
 33 H        6.2210     2.8100    -0.4000 H     1 <1>   0.0800 
 34 H        6.7970     1.3260    -1.1060 H     1 <1>   0.0800 
 35 H        6.9110     1.5800     0.6240 H     1 <1>   0.0800 
 36 H       -0.8160     7.5190     2.6240 H     1 <1>   0.0800 
 37 H       -1.9470     6.2130     2.8230 H     1 <1>   0.0800 
 38 H       -2.5030     7.7490     2.2310 H     1 <1>   0.0800 
 39 H       -1.8470     8.5390    -0.1080 H     1 <1>   0.0800 
 40 H       -0.8450     7.5390    -1.1180 H     1 <1>   0.0800 
 41 H       -0.1600     8.3050     0.2850 H     1 <1>   0.0800 
 42 H        5.6940    -2.2060     0.3300 H     1 <1>   0.0800 
 43 H        6.6610    -0.8990     0.9570 H     1 <1>   0.0800 
 44 H        6.5260    -1.1430    -0.7720 H     1 <1>   0.0800 
@<TRIPOS>BOND
  1   1   2  2   
  2   2   3  am  
  3   2   4  1   
  4   3   5  1   
  5   3   6  am  
  6   4   7  1   
  7   4   8  1   
  8   4  24  1   
  9   5   9  ar  
 10   5  10  ar  
 11   6   8  1   
 12   6  11  2   
 13   7  12  1   
 14   7  13  1   
 15   7  25  1   
 16   8  14  1   
 17   8  26  1   
 18   9  15  ar  
 19   9  27  1   
 20  10  16  ar  
 21  10  28  1   
 22  12  14  1   
 23  12  17  2   
 24  13  18  2   
 25  13  29  1   
 26  14  18  1   
 27  14  30  1   
 28  15  19  ar  
 29  15  20  1   
 30  16  19  ar  
 31  16  31  1   
 32  17  21  1   
 33  17  22  1   
 34  18  32  1   
 35  19  23  1   
 36  20  33  1   
 37  20  34  1   
 38  20  35  1   
 39  21  36  1   
 40  21  37  1   
 41  21  38  1   
 42  22  39  1   
 43  22  40  1   
 44  22  41  1   
 45  23  42  1   
 46  23  43  1   
 47  23  44  1   
@<TRIPOS>SUBSTRUCTURE
  1 ****   3 GROUP 4 **** **** 0

# MOE 2024.06 (io_trps.svl 2023.06)
