@<TRIPOS>MOLECULE
NONAME
37 37 1 0 0 
SMALL
USER_CHARGES


@<TRIPOS>ATOM
  1 O       -7.9750     2.4240    -0.9400 O.3   1 <1>  -0.3630 
  2 C       -9.2020     2.0280    -0.5350 C.ar  1 <1>   0.0830 
  3 C       -6.9850     2.4130     0.0550 C.3   1 <1>   0.1200 
  4 C       -9.5520     0.6820    -0.6140 C.ar  1 <1>  -0.1440 
  5 C      -10.1020     2.9700    -0.0430 C.ar  1 <1>  -0.1440 
  6 C       -5.6850     2.8890    -0.5930 C.3   1 <1>   0.3430 
  7 C      -10.7950     0.2830    -0.1530 C.ar  1 <1>  -0.1500 
  8 C       -8.6140    -0.3620    -1.2040 C.3   1 <1>  -0.0970 
  9 C      -11.3390     2.5440     0.4120 C.ar  1 <1>  -0.1500 
 10 C       -9.7720     4.4550     0.0000 C.3   1 <1>  -0.0960 
 11 N       -4.5570     2.9150     0.3870 N.4   1 <1>  -0.9060 
 12 C      -11.6880     1.2050     0.3670 C.ar  1 <1>  -0.1430 
 13 C       -3.2940     3.3750    -0.2300 C.3   1 <1>   0.3430 
 14 C      -13.0470     0.7520     0.8690 C.3   1 <1>  -0.0970 
 15 C       -2.2150     3.3670     0.8410 C.3   1 <1>  -0.2400 
 16 H       -6.8950     1.4070     0.4240 H     1 <1>   0.0800 
 17 H       -7.2980     3.0750     0.8430 H     1 <1>   0.0800 
 18 H       -5.8420     3.8780    -0.9930 H     1 <1>   0.0800 
 19 H       -5.4430     2.2250    -1.4070 H     1 <1>   0.0800 
 20 H      -11.0770    -0.7540    -0.2010 H     1 <1>   0.1500 
 21 H       -7.9020    -0.6780    -0.4640 H     1 <1>   0.0800 
 22 H       -8.0910     0.0420    -2.0520 H     1 <1>   0.0800 
 23 H       -9.1680    -1.2210    -1.5360 H     1 <1>   0.0800 
 24 H      -12.0420     3.2590     0.8020 H     1 <1>   0.1500 
 25 H       -9.1890     4.6790     0.8740 H     1 <1>   0.0800 
 26 H      -10.6730     5.0410     0.0300 H     1 <1>   0.0800 
 27 H       -9.2210     4.7410    -0.8780 H     1 <1>   0.0800 
 28 H       -4.4120     1.9770     0.7820 H     1 <1>   0.4500 
 29 H       -4.7880     3.5370     1.1730 H     1 <1>   0.4500 
 30 H       -3.4110     4.3730    -0.6230 H     1 <1>   0.0800 
 31 H       -3.0120     2.7180    -1.0380 H     1 <1>   0.0800 
 32 H      -12.9940    -0.2520     1.2480 H     1 <1>   0.0800 
 33 H      -13.7600     0.7820     0.0650 H     1 <1>   0.0800 
 34 H      -13.3890     1.3950     1.6610 H     1 <1>   0.0800 
 35 H       -2.4620     4.0370     1.6460 H     1 <1>   0.0800 
 36 H       -1.2860     3.6990     0.4100 H     1 <1>   0.0800 
 37 H       -2.0610     2.3750     1.2290 H     1 <1>   0.0800 
@<TRIPOS>BOND
  1   1   2  1   
  2   1   3  1   
  3   2   4  ar  
  4   2   5  ar  
  5   3   6  1   
  6   3  16  1   
  7   3  17  1   
  8   4   7  ar  
  9   4   8  1   
 10   5   9  ar  
 11   5  10  1   
 12   6  11  1   
 13   6  18  1   
 14   6  19  1   
 15   7  12  ar  
 16   7  20  1   
 17   8  21  1   
 18   8  22  1   
 19   8  23  1   
 20   9  12  ar  
 21   9  24  1   
 22  10  25  1   
 23  10  26  1   
 24  10  27  1   
 25  11  13  1   
 26  11  28  1   
 27  11  29  1   
 28  12  14  1   
 29  13  15  1   
 30  13  30  1   
 31  13  31  1   
 32  14  32  1   
 33  14  33  1   
 34  14  34  1   
 35  15  35  1   
 36  15  36  1   
 37  15  37  1   
@<TRIPOS>SUBSTRUCTURE
  1 ****   1 GROUP 4 **** **** 0

# MOE 2024.06 (io_trps.svl 2023.06)
