@<TRIPOS>MOLECULE
NONAME
44 45 1 0 0 
SMALL
USER_CHARGES


@<TRIPOS>ATOM
  1 CL      -2.1290     2.2220     3.3710 Cl    1 <1>  -0.1770 
  2 C       -2.6610     1.8270     1.7510 C.ar  1 <1>   0.1770 
  3 C       -1.7390     1.7050     0.7180 C.ar  1 <1>   0.0830 
  4 C       -4.0140     1.6460     1.5370 C.ar  1 <1>  -0.1500 
  5 O       -0.4240     1.8990     0.9970 O.3   1 <1>  -0.3630 
  6 C       -2.2120     1.3920    -0.5530 C.ar  1 <1>  -0.1500 
  7 C       -4.4940     1.3340     0.2700 C.ar  1 <1>  -0.0090 
  8 C        0.5750     1.7630     0.0100 C.3   1 <1>   0.0400 
  9 C       -3.5700     1.2120    -0.7630 C.ar  1 <1>  -0.1500 
 10 S       -6.2680     1.1140    -0.0400 S.o2  1 <1>   1.4470 
 11 O       -7.0080     1.2990     1.1880 O.2   1 <1>  -0.6500 
 12 O       -6.4520    -0.0960    -0.8110 O.2   1 <1>  -0.6500 
 13 N       -6.6310     2.4100    -1.0710 N.am  1 <1>  -0.8490 
 14 C       -7.9370     2.2350    -1.7680 C.3   1 <1>   0.2570 
 15 C       -6.5680     3.7190    -0.4040 C.3   1 <1>   0.1160 
 16 C       -9.2100     2.3410    -0.9000 C.2   1 <1>   0.5690 
 17 O       -9.6070     3.4660    -0.6810 O.2   1 <1>  -0.5700 
 18 N       -9.8800     1.2440    -0.4040 N.am  1 <1>  -0.6600 
 19 C       -9.5570    -0.1860    -0.6860 C.3   1 <1>   0.1400 
 20 C      -10.9520     1.4140     0.6200 C.3   1 <1>   0.1400 
 21 C      -10.8190    -0.9330    -1.1340 C.3   1 <1>  -0.1600 
 22 C      -12.2270     0.6910     0.1730 C.3   1 <1>  -0.1600 
 23 C      -11.9580    -0.7900    -0.1170 C.3   1 <1>  -0.1600 
 24 H       -4.6940     1.7490     2.3640 H     1 <1>   0.1500 
 25 H       -1.5440     1.2850    -1.3870 H     1 <1>   0.1500 
 26 H        1.5270     1.9510     0.4730 H     1 <1>   0.0800 
 27 H        0.4000     2.4840    -0.7680 H     1 <1>   0.0800 
 28 H        0.5500     0.7600    -0.3780 H     1 <1>   0.0800 
 29 H       -3.9250     0.9710    -1.7520 H     1 <1>   0.1500 
 30 H       -7.9310     1.3100    -2.3100 H     1 <1>   0.0800 
 31 H       -8.0140     3.0060    -2.5130 H     1 <1>   0.0800 
 32 H       -5.5740     3.8980    -0.0300 H     1 <1>   0.0800 
 33 H       -7.2590     3.7630     0.4220 H     1 <1>   0.0800 
 34 H       -6.8130     4.5030    -1.1010 H     1 <1>   0.0800 
 35 H       -9.1620    -0.6370     0.2090 H     1 <1>   0.0800 
 36 H       -8.8200    -0.2830    -1.4580 H     1 <1>   0.0800 
 37 H      -11.1720     2.4560     0.7800 H     1 <1>   0.0800 
 38 H      -10.6070     1.0030     1.5530 H     1 <1>   0.0800 
 39 H      -10.5840    -1.9740    -1.2680 H     1 <1>   0.0800 
 40 H      -11.1330    -0.5430    -2.0870 H     1 <1>   0.0800 
 41 H      -12.6080     1.1760    -0.7090 H     1 <1>   0.0800 
 42 H      -12.9720     0.7800     0.9440 H     1 <1>   0.0800 
 43 H      -11.6860    -1.2900     0.7970 H     1 <1>   0.0800 
 44 H      -12.8510    -1.2560    -0.5000 H     1 <1>   0.0800 
@<TRIPOS>BOND
  1   1   2  1   
  2   2   3  ar  
  3   2   4  ar  
  4   3   5  1   
  5   3   6  ar  
  6   4   7  ar  
  7   4  24  1   
  8   5   8  1   
  9   6   9  ar  
 10   6  25  1   
 11   7   9  ar  
 12   7  10  1   
 13   8  26  1   
 14   8  27  1   
 15   8  28  1   
 16   9  29  1   
 17  10  11  2   
 18  10  12  2   
 19  10  13  am  
 20  13  14  1   
 21  13  15  1   
 22  14  16  1   
 23  14  30  1   
 24  14  31  1   
 25  15  32  1   
 26  15  33  1   
 27  15  34  1   
 28  16  17  2   
 29  16  18  am  
 30  18  19  1   
 31  18  20  1   
 32  19  21  1   
 33  19  35  1   
 34  19  36  1   
 35  20  22  1   
 36  20  37  1   
 37  20  38  1   
 38  21  23  1   
 39  21  39  1   
 40  21  40  1   
 41  22  23  1   
 42  22  41  1   
 43  22  42  1   
 44  23  43  1   
 45  23  44  1   
@<TRIPOS>SUBSTRUCTURE
  1 ****  10 GROUP 4 **** **** 0

# MOE 2024.06 (io_trps.svl 2023.06)
