@<TRIPOS>MOLECULE
NONAME
32 32 1 0 0 
SMALL
USER_CHARGES


@<TRIPOS>ATOM
  1 O       -0.2260    -0.4120     0.4900 O.2   1 <1>  -0.5700 
  2 C        0.0890    -1.5430     0.2060 C.2   1 <1>   0.5690 
  3 N        1.3770    -1.9400    -0.0210 N.am  1 <1>  -0.5470 
  4 C       -1.0060    -2.6100     0.0870 C.3   1 <1>  -0.0190 
  5 C        2.6180    -1.2760    -0.0060 C.ar  1 <1>   0.1170 
  6 C       -2.0130    -2.2640    -1.0220 C.3   1 <1>  -0.2400 
  7 C       -1.7420    -2.8130     1.4220 C.3   1 <1>  -0.2400 
  8 C        3.7650    -2.0270    -0.2860 C.ar  1 <1>   0.0820 
  9 C        2.7580     0.0800     0.2700 C.ar  1 <1>  -0.1500 
 10 O        3.5900    -3.3580    -0.5530 O.3   1 <1>  -0.3620 
 11 C        5.0140    -1.4160    -0.2840 C.ar  1 <1>  -0.1500 
 12 C        4.0030     0.6880     0.2740 C.ar  1 <1>  -0.1440 
 13 C        4.6890    -4.1950    -0.8440 C.3   1 <1>   0.0400 
 14 C        5.1290    -0.0660    -0.0060 C.ar  1 <1>  -0.1500 
 15 C        4.1270     2.1700     0.5770 C.3   1 <1>  -0.0970 
 16 H        1.4990    -2.9270    -0.2490 H     1 <1>   0.3700 
 17 H       -0.5410    -3.5440    -0.1740 H     1 <1>   0.0800 
 18 H       -2.5160    -1.3410    -0.7930 H     1 <1>   0.0800 
 19 H       -2.7470    -3.0430    -1.1240 H     1 <1>   0.0800 
 20 H       -1.5020    -2.1470    -1.9620 H     1 <1>   0.0800 
 21 H       -2.2380    -1.9030     1.7150 H     1 <1>   0.0800 
 22 H       -1.0410    -3.0800     2.1930 H     1 <1>   0.0800 
 23 H       -2.4750    -3.5950     1.3360 H     1 <1>   0.0800 
 24 H        1.8900     0.6740     0.4840 H     1 <1>   0.1500 
 25 H        5.9100    -1.9670    -0.4950 H     1 <1>   0.1500 
 26 H        4.3170    -5.1890    -1.0170 H     1 <1>   0.0800 
 27 H        5.3580    -4.1990    -0.0010 H     1 <1>   0.0800 
 28 H        5.1820    -3.8310    -1.7270 H     1 <1>   0.0800 
 29 H        6.1000     0.3980    -0.0080 H     1 <1>   0.1500 
 30 H        3.3170     2.4940     1.2060 H     1 <1>   0.0800 
 31 H        4.1000     2.7310    -0.3390 H     1 <1>   0.0800 
 32 H        5.0530     2.3730     1.0850 H     1 <1>   0.0800 
@<TRIPOS>BOND
  1   1   2  2   
  2   2   3  am  
  3   2   4  1   
  4   3   5  1   
  5   3  16  1   
  6   4   6  1   
  7   4   7  1   
  8   4  17  1   
  9   5   8  ar  
 10   5   9  ar  
 11   6  18  1   
 12   6  19  1   
 13   6  20  1   
 14   7  21  1   
 15   7  22  1   
 16   7  23  1   
 17   8  10  1   
 18   8  11  ar  
 19   9  12  ar  
 20   9  24  1   
 21  10  13  1   
 22  11  14  ar  
 23  11  25  1   
 24  12  14  ar  
 25  12  15  1   
 26  13  26  1   
 27  13  27  1   
 28  13  28  1   
 29  14  29  1   
 30  15  30  1   
 31  15  31  1   
 32  15  32  1   
@<TRIPOS>SUBSTRUCTURE
  1 ****   5 GROUP 4 **** **** 0

# MOE 2024.06 (io_trps.svl 2023.06)
