@<TRIPOS>MOLECULE
NONAME
33 34 1 0 0 
SMALL
USER_CHARGES


@<TRIPOS>ATOM
  1 CL      -0.1250    -0.8410     0.2880 Cl    1 <1>  -0.1770 
  2 C        1.5430    -1.1950    -0.1060 C.ar  1 <1>   0.1770 
  3 C        2.1560    -2.3320     0.4010 C.ar  1 <1>  -0.1440 
  4 C        2.2210    -0.3140    -0.9300 C.ar  1 <1>  -0.1500 
  5 C        3.4790    -2.5720     0.0640 C.ar  1 <1>  -0.1500 
  6 C        1.4040    -3.2980     1.3050 C.3   1 <1>  -0.0960 
  7 C        3.5410    -0.5640    -1.2600 C.ar  1 <1>  -0.1500 
  8 C        4.1760    -1.6990    -0.7590 C.ar  1 <1>   0.0830 
  9 O        5.4660    -2.0200    -1.0250 O.3   1 <1>  -0.3630 
 10 C        6.2950    -1.1630    -1.7990 C.3   1 <1>   0.1810 
 11 C        7.7220    -1.6960    -1.9030 C.2   1 <1>   0.5690 
 12 O        8.1820    -1.8560    -3.0110 O.2   1 <1>  -0.5700 
 13 N        8.4710    -1.9420    -0.7810 N.am  1 <1>  -0.6600 
 14 C        8.0070    -1.8280     0.6190 C.3   1 <1>   0.1400 
 15 C        9.8520    -2.4650    -0.8450 C.3   1 <1>   0.1400 
 16 C        9.2610    -2.0420     1.4590 C.3   1 <1>  -0.1600 
 17 C       10.1700    -2.8990     0.5820 C.3   1 <1>  -0.1600 
 18 H        1.7130     0.5550    -1.3060 H     1 <1>   0.1500 
 19 H        3.9880    -3.4440     0.4340 H     1 <1>   0.1500 
 20 H        0.5500    -3.6950     0.7860 H     1 <1>   0.0800 
 21 H        1.0660    -2.7870     2.1890 H     1 <1>   0.0800 
 22 H        2.0330    -4.1170     1.6030 H     1 <1>   0.0800 
 23 H        4.0490     0.1280    -1.9040 H     1 <1>   0.1500 
 24 H        6.3130    -0.1960    -1.3350 H     1 <1>   0.0800 
 25 H        5.8730    -1.0900    -2.7840 H     1 <1>   0.0800 
 26 H        7.2880    -2.6070     0.8160 H     1 <1>   0.0800 
 27 H        7.5630    -0.8660     0.8070 H     1 <1>   0.0800 
 28 H       10.5100    -1.6730    -1.1580 H     1 <1>   0.0800 
 29 H        9.9190    -3.2860    -1.5390 H     1 <1>   0.0800 
 30 H        9.0360    -2.5120     2.4000 H     1 <1>   0.0800 
 31 H        9.7250    -1.0890     1.6440 H     1 <1>   0.0800 
 32 H       11.2110    -2.7690     0.8160 H     1 <1>   0.0800 
 33 H        9.9120    -3.9380     0.6930 H     1 <1>   0.0800 
@<TRIPOS>BOND
  1   1   2  1   
  2   2   3  ar  
  3   2   4  ar  
  4   3   5  ar  
  5   3   6  1   
  6   4   7  ar  
  7   4  18  1   
  8   5   8  ar  
  9   5  19  1   
 10   6  20  1   
 11   6  21  1   
 12   6  22  1   
 13   7   8  ar  
 14   7  23  1   
 15   8   9  1   
 16   9  10  1   
 17  10  11  1   
 18  10  24  1   
 19  10  25  1   
 20  11  12  2   
 21  11  13  am  
 22  13  14  1   
 23  13  15  1   
 24  14  16  1   
 25  14  26  1   
 26  14  27  1   
 27  15  17  1   
 28  15  28  1   
 29  15  29  1   
 30  16  17  1   
 31  16  30  1   
 32  16  31  1   
 33  17  32  1   
 34  17  33  1   
@<TRIPOS>SUBSTRUCTURE
  1 ****   9 GROUP 4 **** **** 0

# MOE 2024.06 (io_trps.svl 2023.06)
