@<TRIPOS>MOLECULE
NONAME
43 44 1 0 0 
SMALL
USER_CHARGES


@<TRIPOS>ATOM
  1 O       -0.1090    -2.5630    -1.8070 O.2   1 <1>  -0.5700 
  2 C       -0.0070    -2.4020    -0.6190 C.2   1 <1>   0.6590 
  3 O       -0.8860    -1.7080     0.0870 O.3   1 <1>  -0.4300 
  4 C        1.1680    -2.9770     0.1680 C.3   1 <1>  -0.0190 
  5 C       -2.0110    -1.1150    -0.5200 C.3   1 <1>   0.1200 
  6 C        2.3770    -2.0260     0.1110 C.3   1 <1>  -0.1600 
  7 C        1.5720    -4.3770    -0.3380 C.3   1 <1>  -0.1600 
  8 C       -2.8070    -0.3930     0.5620 C.3   1 <1>  -0.2400 
  9 C        3.5990    -2.6060     0.8210 C.3   1 <1>   0.3430 
 10 C        2.8040    -4.9150     0.3860 C.3   1 <1>   0.3430 
 11 N        3.9240    -3.9450     0.2470 N.4   1 <1>  -0.9590 
 12 C        5.1910    -4.4920     0.8090 C.3   1 <1>   0.4860 
 13 C        6.3270    -3.5620     0.4370 C.ar  1 <1>  -0.1440 
 14 C        6.7940    -3.5100    -0.8690 C.ar  1 <1>  -0.1500 
 15 C        6.9080    -2.7490     1.3990 C.ar  1 <1>  -0.1500 
 16 C        7.8180    -2.6440    -1.2090 C.ar  1 <1>  -0.1500 
 17 C        7.9330    -1.8850     1.0550 C.ar  1 <1>  -0.1500 
 18 C        8.3890    -1.8250    -0.2500 C.ar  1 <1>  -0.1440 
 19 C        9.5160    -0.8780    -0.6250 C.3   1 <1>  -0.0970 
 20 H        0.8520    -3.0680     1.1930 H     1 <1>   0.0800 
 21 H       -2.6000    -1.8910    -0.9810 H     1 <1>   0.0800 
 22 H       -1.6710    -0.4250    -1.2750 H     1 <1>   0.0800 
 23 H        2.1170    -1.0900     0.5730 H     1 <1>   0.0800 
 24 H        2.6300    -1.8150    -0.9150 H     1 <1>   0.0800 
 25 H        1.7720    -4.3460    -1.3960 H     1 <1>   0.0800 
 26 H        0.7510    -5.0580    -0.1900 H     1 <1>   0.0800 
 27 H       -3.1340    -1.0900     1.3120 H     1 <1>   0.0800 
 28 H       -3.6740     0.0690     0.1250 H     1 <1>   0.0800 
 29 H       -2.2060     0.3740     1.0180 H     1 <1>   0.0800 
 30 H        3.3970    -2.6980     1.8760 H     1 <1>   0.0800 
 31 H        4.4350    -1.9350     0.6940 H     1 <1>   0.0800 
 32 H        3.0800    -5.8670    -0.0390 H     1 <1>   0.0800 
 33 H        2.5740    -5.0620     1.4300 H     1 <1>   0.0800 
 34 H        4.1000    -3.7940    -0.7550 H     1 <1>   0.4500 
 35 H        5.3880    -5.4700     0.4010 H     1 <1>   0.0800 
 36 H        5.1190    -4.5750     1.8810 H     1 <1>   0.0800 
 37 H        6.3770    -4.1400    -1.6370 H     1 <1>   0.1500 
 38 H        6.5780    -2.7750     2.4240 H     1 <1>   0.1500 
 39 H        8.1760    -2.6110    -2.2240 H     1 <1>   0.1500 
 40 H        8.3800    -1.2580     1.8090 H     1 <1>   0.1500 
 41 H       10.4620    -1.3760    -0.5120 H     1 <1>   0.0800 
 42 H        9.5040    -0.0080     0.0060 H     1 <1>   0.0800 
 43 H        9.4140    -0.5560    -1.6460 H     1 <1>   0.0800 
@<TRIPOS>BOND
  1   1   2  2   
  2   2   3  1   
  3   2   4  1   
  4   3   5  1   
  5   4   6  1   
  6   4   7  1   
  7   4  20  1   
  8   5   8  1   
  9   5  21  1   
 10   5  22  1   
 11   6   9  1   
 12   6  23  1   
 13   6  24  1   
 14   7  10  1   
 15   7  25  1   
 16   7  26  1   
 17   8  27  1   
 18   8  28  1   
 19   8  29  1   
 20   9  11  1   
 21   9  30  1   
 22   9  31  1   
 23  10  11  1   
 24  10  32  1   
 25  10  33  1   
 26  11  12  1   
 27  11  34  1   
 28  12  13  1   
 29  12  35  1   
 30  12  36  1   
 31  13  14  ar  
 32  13  15  ar  
 33  14  16  ar  
 34  14  37  1   
 35  15  17  ar  
 36  15  38  1   
 37  16  18  ar  
 38  16  39  1   
 39  17  18  ar  
 40  17  40  1   
 41  18  19  1   
 42  19  41  1   
 43  19  42  1   
 44  19  43  1   
@<TRIPOS>SUBSTRUCTURE
  1 ****   9 GROUP 4 **** **** 0

# MOE 2024.06 (io_trps.svl 2023.06)
