@<TRIPOS>MOLECULE
NONAME
53 55 1 0 0 
SMALL
USER_CHARGES


@<TRIPOS>ATOM
  1 S       -3.2480    -0.8760    -0.9980 S.3   1 <1>  -0.0800 
  2 C       -3.4950    -2.0270     0.3040 C.2   1 <1>   0.1040 
  3 C       -1.5480    -1.2840    -1.0980 C.2   1 <1>  -0.1400 
  4 N       -4.7660    -2.0570     0.8410 N.am  1 <1>  -0.4940 
  5 C       -2.3410    -2.7120     0.5810 C.2   1 <1>  -0.0860 
  6 C       -1.2340    -2.2520    -0.2250 C.2   1 <1>  -0.1810 
  7 C       -0.6440    -0.5740    -2.0810 C.3   1 <1>   0.0200 
  8 C       -5.1670    -2.3390     2.1210 C.2   1 <1>   0.5690 
  9 C       -2.2400    -3.7950     1.5170 C.2   1 <1>   0.8060 
 10 C        0.1880    -2.7900    -0.1330 C.3   1 <1>   0.0210 
 11 C        0.8220    -0.8890    -1.7330 C.3   1 <1>  -0.1600 
 12 O       -4.3970    -2.4530     3.0420 O.2   1 <1>  -0.5700 
 13 C       -6.6550    -2.4780     2.3990 C.3   1 <1>   0.0440 
 14 O       -3.0240    -4.7280     1.5490 O.2   1 <1>  -0.5700 
 15 O       -1.2080    -3.7910     2.3700 O.3   1 <1>  -0.4300 
 16 C        1.0210    -2.3740    -1.3630 C.3   1 <1>  -0.1600 
 17 C       -7.5170    -1.8800     1.2920 C.ar  1 <1>  -0.1430 
 18 C       -1.0910    -4.7700     3.3750 C.3   1 <1>   0.1200 
 19 C       -7.7280    -0.5100     1.2410 C.ar  1 <1>  -0.1500 
 20 C       -8.0730    -2.6920     0.3150 C.ar  1 <1>  -0.1500 
 21 C        0.1820    -4.4840     4.1660 C.3   1 <1>  -0.2400 
 22 C       -8.4800     0.0510     0.2230 C.ar  1 <1>   0.0830 
 23 C       -8.8420    -2.1410    -0.6970 C.ar  1 <1>  -0.1500 
 24 O       -8.6050     1.4010     0.2120 O.3   1 <1>  -0.3620 
 25 C       -9.0640    -0.7760    -0.7430 C.ar  1 <1>   0.0830 
 26 C       -7.9960     2.0770    -0.8660 C.3   1 <1>   0.0400 
 27 O       -9.8520    -0.3040    -1.7410 O.3   1 <1>  -0.3630 
 28 C      -11.0770     0.2780    -1.3510 C.3   1 <1>   0.0400 
 29 H       -5.5210    -1.7460     0.2260 H     1 <1>   0.3700 
 30 H       -0.8120     0.4870    -2.0380 H     1 <1>   0.0800 
 31 H       -0.8730    -0.9190    -3.0740 H     1 <1>   0.0800 
 32 H        0.1740    -3.8630    -0.0660 H     1 <1>   0.0800 
 33 H        0.6440    -2.4030     0.7620 H     1 <1>   0.0800 
 34 H        1.1170    -0.2830    -0.8940 H     1 <1>   0.0800 
 35 H        1.4520    -0.6290    -2.5660 H     1 <1>   0.0800 
 36 H       -6.8740    -1.9880     3.3310 H     1 <1>   0.0800 
 37 H       -6.8770    -3.5210     2.5220 H     1 <1>   0.0800 
 38 H        0.7270    -2.9810    -2.2020 H     1 <1>   0.0800 
 39 H        2.0620    -2.5650    -1.1680 H     1 <1>   0.0800 
 40 H       -1.0470    -5.7400     2.9070 H     1 <1>   0.0800 
 41 H       -1.9620    -4.7110     4.0070 H     1 <1>   0.0800 
 42 H       -7.3030     0.1410     1.9850 H     1 <1>   0.1500 
 43 H       -7.9130    -3.7570     0.3330 H     1 <1>   0.1500 
 44 H        1.0390    -4.5340     3.5190 H     1 <1>   0.0800 
 45 H        0.2950    -5.2150     4.9460 H     1 <1>   0.0800 
 46 H        0.1240    -3.5090     4.6150 H     1 <1>   0.0800 
 47 H       -9.2780    -2.7690    -1.4530 H     1 <1>   0.1500 
 48 H       -6.9580     1.7980    -0.9090 H     1 <1>   0.0800 
 49 H       -8.0870     3.1340    -0.6940 H     1 <1>   0.0800 
 50 H       -8.4920     1.8110    -1.7810 H     1 <1>   0.0800 
 51 H      -11.6410     0.4990    -2.2390 H     1 <1>   0.0800 
 52 H      -10.8850     1.1820    -0.8040 H     1 <1>   0.0800 
 53 H      -11.6140    -0.4230    -0.7370 H     1 <1>   0.0800 
@<TRIPOS>BOND
  1   1   2  1   
  2   1   3  1   
  3   2   4  1   
  4   2   5  2   
  5   3   6  2   
  6   3   7  1   
  7   4   8  am  
  8   4  29  1   
  9   5   6  1   
 10   5   9  1   
 11   6  10  1   
 12   7  11  1   
 13   7  30  1   
 14   7  31  1   
 15   8  12  2   
 16   8  13  1   
 17   9  14  2   
 18   9  15  1   
 19  10  16  1   
 20  10  32  1   
 21  10  33  1   
 22  11  16  1   
 23  11  34  1   
 24  11  35  1   
 25  13  17  1   
 26  13  36  1   
 27  13  37  1   
 28  15  18  1   
 29  16  38  1   
 30  16  39  1   
 31  17  19  ar  
 32  17  20  ar  
 33  18  21  1   
 34  18  40  1   
 35  18  41  1   
 36  19  22  ar  
 37  19  42  1   
 38  20  23  ar  
 39  20  43  1   
 40  21  44  1   
 41  21  45  1   
 42  21  46  1   
 43  22  24  1   
 44  22  25  ar  
 45  23  25  ar  
 46  23  47  1   
 47  24  26  1   
 48  25  27  1   
 49  26  48  1   
 50  26  49  1   
 51  26  50  1   
 52  27  28  1   
 53  28  51  1   
 54  28  52  1   
 55  28  53  1   
@<TRIPOS>SUBSTRUCTURE
  1 ****   4 GROUP 4 **** **** 0

# MOE 2024.06 (io_trps.svl 2023.06)
