@<TRIPOS>MOLECULE
NONAME
46 47 1 0 0 
SMALL
USER_CHARGES


@<TRIPOS>ATOM
  1 S        0.2490    -0.2020    -0.5040 S.o2  1 <1>   1.3330 
  2 O       -0.1080     1.1950    -0.5730 O.2   1 <1>  -0.6500 
  3 O        1.4950    -0.6680    -1.0680 O.2   1 <1>  -0.6500 
  4 N       -1.0110    -1.1240    -1.2670 N.am  1 <1>  -0.6930 
  5 C        0.1480    -0.7750     1.1970 C.3   1 <1>  -0.0550 
  6 C       -2.3430    -1.0560    -0.8840 C.ar  1 <1>   0.1990 
  7 C       -0.6170    -1.9650    -2.4240 C.3   1 <1>   0.1160 
  8 C        1.1910    -0.1530     2.1420 C.3   1 <1>  -0.2400 
  9 C       -3.0260     0.1520    -0.7980 C.ar  1 <1>  -0.1500 
 10 C       -3.0380    -2.2180    -0.5630 C.ar  1 <1>  -0.1500 
 11 C       -4.3490     0.1950    -0.4030 C.ar  1 <1>  -0.1500 
 12 C       -4.3620    -2.1730    -0.1700 C.ar  1 <1>  -0.1500 
 13 C       -5.0580    -0.9650    -0.0830 C.ar  1 <1>   0.0860 
 14 C       -6.4500    -0.9030     0.3190 C.2   1 <1>   0.5440 
 15 O       -6.8950     0.0880     0.8650 O.2   1 <1>  -0.5700 
 16 N       -7.2920    -1.9540     0.0760 N.am  1 <1>  -0.7300 
 17 C       -8.7170    -2.0120     0.4410 C.3   1 <1>   0.2200 
 18 C       -8.9710    -3.2990     1.2330 C.3   1 <1>  -0.1600 
 19 C       -9.5570    -1.9720    -0.8390 C.3   1 <1>  -0.1600 
 20 C      -10.4640    -3.4710     1.5490 C.3   1 <1>  -0.1600 
 21 C      -11.0520    -2.1420    -0.5280 C.3   1 <1>  -0.1600 
 22 C      -11.3100    -3.4280     0.2690 C.3   1 <1>  -0.1600 
 23 H        0.2680    -1.8410     1.2090 H     1 <1>   0.0800 
 24 H       -0.8310    -0.5550     1.5780 H     1 <1>   0.0800 
 25 H       -0.0980    -1.3590    -3.1480 H     1 <1>   0.0800 
 26 H       -1.4850    -2.3960    -2.8920 H     1 <1>   0.0800 
 27 H        0.0400    -2.7520    -2.0960 H     1 <1>   0.0800 
 28 H        2.1850    -0.3820     1.7990 H     1 <1>   0.0800 
 29 H        1.0690    -0.5400     3.1380 H     1 <1>   0.0800 
 30 H        1.0750     0.9170     2.1680 H     1 <1>   0.0800 
 31 H       -2.5210     1.0670    -1.0500 H     1 <1>   0.1500 
 32 H       -2.5270    -3.1620    -0.6170 H     1 <1>   0.1500 
 33 H       -4.8550     1.1440    -0.3400 H     1 <1>   0.1500 
 34 H       -4.8630    -3.0900     0.0840 H     1 <1>   0.1500 
 35 H       -6.9680    -2.7300    -0.4970 H     1 <1>   0.3700 
 36 H       -8.9730    -1.1650     1.0570 H     1 <1>   0.0800 
 37 H       -8.4160    -3.2620     2.1540 H     1 <1>   0.0800 
 38 H       -8.6350    -4.1470     0.6630 H     1 <1>   0.0800 
 39 H       -9.2460    -2.7600    -1.5020 H     1 <1>   0.0800 
 40 H       -9.4020    -1.0280    -1.3320 H     1 <1>   0.0800 
 41 H      -10.7800    -2.6820     2.2100 H     1 <1>   0.0800 
 42 H      -10.6210    -4.4080     2.0550 H     1 <1>   0.0800 
 43 H      -11.6110    -2.1660    -1.4470 H     1 <1>   0.0800 
 44 H      -11.3930    -1.2950     0.0430 H     1 <1>   0.0800 
 45 H      -12.3540    -3.4880     0.5250 H     1 <1>   0.0800 
 46 H      -11.0730    -4.2810    -0.3440 H     1 <1>   0.0800 
@<TRIPOS>BOND
  1   1   2  2   
  2   1   3  2   
  3   1   4  am  
  4   1   5  1   
  5   4   6  1   
  6   4   7  1   
  7   5   8  1   
  8   5  23  1   
  9   5  24  1   
 10   6   9  ar  
 11   6  10  ar  
 12   7  25  1   
 13   7  26  1   
 14   7  27  1   
 15   8  28  1   
 16   8  29  1   
 17   8  30  1   
 18   9  11  ar  
 19   9  31  1   
 20  10  12  ar  
 21  10  32  1   
 22  11  13  ar  
 23  11  33  1   
 24  12  13  ar  
 25  12  34  1   
 26  13  14  1   
 27  14  15  2   
 28  14  16  am  
 29  16  17  1   
 30  16  35  1   
 31  17  18  1   
 32  17  19  1   
 33  17  36  1   
 34  18  20  1   
 35  18  37  1   
 36  18  38  1   
 37  19  21  1   
 38  19  39  1   
 39  19  40  1   
 40  20  22  1   
 41  20  41  1   
 42  20  42  1   
 43  21  22  1   
 44  21  43  1   
 45  21  44  1   
 46  22  45  1   
 47  22  46  1   
@<TRIPOS>SUBSTRUCTURE
  1 ****  13 GROUP 4 **** **** 0

# MOE 2024.06 (io_trps.svl 2023.06)
