@<TRIPOS>MOLECULE
NONAME
47 49 1 0 0 
SMALL
USER_CHARGES


@<TRIPOS>ATOM
  1 CL       0.7000     1.0740    -1.3440 Cl    1 <1>  -0.1770 
  2 C        0.2440     2.6540    -0.7560 C.ar  1 <1>   0.1770 
  3 C        0.5320     3.7700    -1.5210 C.ar  1 <1>  -0.1500 
  4 C       -0.3950     2.7620     0.4660 C.ar  1 <1>  -0.1500 
  5 C        0.1670     5.0220    -1.0550 C.ar  1 <1>  -0.1500 
  6 C       -0.7590     4.0150     0.9310 C.ar  1 <1>  -0.1500 
  7 C       -0.4850     5.1450     0.1640 C.ar  1 <1>   0.0830 
  8 O       -0.8290     6.3880     0.5840 O.3   1 <1>  -0.1650 
  9 C       -2.0210     6.6280     1.1860 C.ar  1 <1>   0.0830 
 10 C       -3.1830     5.9650     0.8070 C.ar  1 <1>  -0.1500 
 11 C       -2.0660     7.5790     2.1930 C.ar  1 <1>  -0.1500 
 12 C       -4.3850     6.2430     1.4390 C.ar  1 <1>  -0.1430 
 13 C       -3.2630     7.8580     2.8270 C.ar  1 <1>  -0.1500 
 14 C       -4.4170     7.1910     2.4520 C.ar  1 <1>  -0.1500 
 15 C       -5.6610     5.5270     1.0220 C.3   1 <1>   0.2530 
 16 N       -6.5850     6.4640     0.3540 N.3   1 <1>  -0.8100 
 17 C       -5.9870     7.0730    -0.8630 C.3   1 <1>   0.1100 
 18 C       -7.8810     5.8240     0.0350 C.3   1 <1>   0.1100 
 19 C       -6.9740     7.9990    -1.6140 C.3   1 <1>   0.3430 
 20 C       -8.8840     6.8210    -0.6000 C.3   1 <1>   0.3430 
 21 N       -8.2490     8.1620    -0.8440 N.4   1 <1>  -0.9590 
 22 C       -9.1500     9.1850    -1.4250 C.3   1 <1>   0.3430 
 23 C      -10.2220     9.5650    -0.4100 C.3   1 <1>  -0.2400 
 24 H        1.0340     3.6560    -2.4650 H     1 <1>   0.1500 
 25 H       -0.6000     1.8780     1.0420 H     1 <1>   0.1500 
 26 H        0.3830     5.9040    -1.6320 H     1 <1>   0.1500 
 27 H       -1.2470     4.1160     1.8840 H     1 <1>   0.1500 
 28 H       -3.1440     5.2390     0.0150 H     1 <1>   0.1500 
 29 H       -1.1660     8.0930     2.4770 H     1 <1>   0.1500 
 30 H       -3.2970     8.5930     3.6130 H     1 <1>   0.1500 
 31 H       -5.3460     7.4150     2.9470 H     1 <1>   0.1500 
 32 H       -6.1320     5.1240     1.9030 H     1 <1>   0.0800 
 33 H       -5.4270     4.7060     0.3640 H     1 <1>   0.0800 
 34 H       -5.6450     6.3020    -1.5330 H     1 <1>   0.0800 
 35 H       -5.1270     7.6590    -0.5840 H     1 <1>   0.0800 
 36 H       -8.3160     5.4240     0.9350 H     1 <1>   0.0800 
 37 H       -7.7250     5.0010    -0.6430 H     1 <1>   0.0800 
 38 H       -7.1820     7.5810    -2.5850 H     1 <1>   0.0800 
 39 H       -6.5050     8.9580    -1.7620 H     1 <1>   0.0800 
 40 H       -9.7240     6.9310     0.0650 H     1 <1>   0.0800 
 41 H       -9.2520     6.4110    -1.5260 H     1 <1>   0.0800 
 42 H       -7.9300     8.4600     0.0920 H     1 <1>   0.4500 
 43 H       -9.6090     8.8110    -2.3260 H     1 <1>   0.0800 
 44 H       -8.5810    10.0660    -1.6760 H     1 <1>   0.0800 
 45 H      -10.8810     8.7420    -0.2060 H     1 <1>   0.0800 
 46 H      -10.8160    10.3670    -0.8100 H     1 <1>   0.0800 
 47 H       -9.7750     9.9100     0.5060 H     1 <1>   0.0800 
@<TRIPOS>BOND
  1   1   2  1   
  2   2   3  ar  
  3   2   4  ar  
  4   3   5  ar  
  5   3  24  1   
  6   4   6  ar  
  7   4  25  1   
  8   5   7  ar  
  9   5  26  1   
 10   6   7  ar  
 11   6  27  1   
 12   7   8  1   
 13   8   9  1   
 14   9  10  ar  
 15   9  11  ar  
 16  10  12  ar  
 17  10  28  1   
 18  11  13  ar  
 19  11  29  1   
 20  12  14  ar  
 21  12  15  1   
 22  13  14  ar  
 23  13  30  1   
 24  14  31  1   
 25  15  16  1   
 26  15  32  1   
 27  15  33  1   
 28  16  17  1   
 29  16  18  1   
 30  17  19  1   
 31  17  34  1   
 32  17  35  1   
 33  18  20  1   
 34  18  36  1   
 35  18  37  1   
 36  19  21  1   
 37  19  38  1   
 38  19  39  1   
 39  20  21  1   
 40  20  40  1   
 41  20  41  1   
 42  21  22  1   
 43  21  42  1   
 44  22  23  1   
 45  22  43  1   
 46  22  44  1   
 47  23  45  1   
 48  23  46  1   
 49  23  47  1   
@<TRIPOS>SUBSTRUCTURE
  1 ****  10 GROUP 4 **** **** 0

# MOE 2024.06 (io_trps.svl 2023.06)
