@<TRIPOS>MOLECULE
NONAME
36 37 1 0 0 
SMALL
USER_CHARGES


@<TRIPOS>ATOM
  1 O        0.4190    -3.2270    -1.8320 O.2   1 <1>  -0.5700 
  2 C        0.2380    -2.7080    -0.7420 C.2   1 <1>   0.5440 
  3 N        1.2680    -1.9910    -0.1750 N.am  1 <1>  -0.6600 
  4 C       -1.0270    -2.8910    -0.0580 C.ar  1 <1>   0.0860 
  5 C        1.3850    -1.7200     1.2770 C.3   1 <1>   0.1400 
  6 C        2.5710    -1.7910    -0.8510 C.3   1 <1>   0.1400 
  7 C       -1.5680    -4.1740     0.1210 C.ar  1 <1>   0.1170 
  8 C       -1.7330    -1.7950     0.4450 C.ar  1 <1>  -0.1500 
  9 C        2.7950    -1.1720     1.4680 C.3   1 <1>  -0.1600 
 10 C        3.5870    -1.7090     0.2800 C.3   1 <1>  -0.1600 
 11 N       -0.9020    -5.2770    -0.4310 N.am  1 <1>  -0.5470 
 12 C       -2.7630    -4.3200     0.8200 C.ar  1 <1>  -0.1500 
 13 C       -2.9190    -1.9540     1.1320 C.ar  1 <1>  -0.1500 
 14 C       -0.8690    -6.5980    -0.0910 C.2   1 <1>   0.5690 
 15 C       -3.4340    -3.2240     1.3250 C.ar  1 <1>  -0.1500 
 16 O       -1.4800    -7.0670     0.8360 O.2   1 <1>  -0.5700 
 17 C        0.0000    -7.5130    -0.9360 C.3   1 <1>  -0.0990 
 18 C        1.4840    -7.1070    -0.9360 C.3   1 <1>  -0.2400 
 19 H        1.2630    -2.6430     1.8200 H     1 <1>   0.0800 
 20 H        0.6480    -1.0070     1.6020 H     1 <1>   0.0800 
 21 H        2.5400    -0.8660    -1.4010 H     1 <1>   0.0800 
 22 H        2.7980    -2.6020    -1.5240 H     1 <1>   0.0800 
 23 H       -1.3390    -0.8060     0.2870 H     1 <1>   0.1500 
 24 H        3.2170    -1.4720     2.4110 H     1 <1>   0.0800 
 25 H        2.7610    -0.0970     1.4270 H     1 <1>   0.0800 
 26 H        4.4220    -1.0810     0.0230 H     1 <1>   0.0800 
 27 H        3.9470    -2.7000     0.4970 H     1 <1>   0.0800 
 28 H       -0.2620    -5.0120    -1.1910 H     1 <1>   0.3700 
 29 H       -3.1790    -5.3010     0.9660 H     1 <1>   0.1500 
 30 H       -3.4460    -1.0970     1.5160 H     1 <1>   0.1500 
 31 H       -4.3570    -3.3580     1.8630 H     1 <1>   0.1500 
 32 H       -0.3770    -7.5100    -1.9420 H     1 <1>   0.0800 
 33 H       -0.0910    -8.5150    -0.5550 H     1 <1>   0.0800 
 34 H        1.6160    -6.1300    -1.3680 H     1 <1>   0.0800 
 35 H        2.0590    -7.8130    -1.5080 H     1 <1>   0.0800 
 36 H        1.8630    -7.0930     0.0720 H     1 <1>   0.0800 
@<TRIPOS>BOND
  1   1   2  2   
  2   2   3  am  
  3   2   4  1   
  4   3   5  1   
  5   3   6  1   
  6   4   7  ar  
  7   4   8  ar  
  8   5   9  1   
  9   5  19  1   
 10   5  20  1   
 11   6  10  1   
 12   6  21  1   
 13   6  22  1   
 14   7  11  1   
 15   7  12  ar  
 16   8  13  ar  
 17   8  23  1   
 18   9  10  1   
 19   9  24  1   
 20   9  25  1   
 21  10  26  1   
 22  10  27  1   
 23  11  14  am  
 24  11  28  1   
 25  12  15  ar  
 26  12  29  1   
 27  13  15  ar  
 28  13  30  1   
 29  14  16  2   
 30  14  17  1   
 31  15  31  1   
 32  17  18  1   
 33  17  32  1   
 34  17  33  1   
 35  18  34  1   
 36  18  35  1   
 37  18  36  1   
@<TRIPOS>SUBSTRUCTURE
  1 ****   4 GROUP 4 **** **** 0

# MOE 2024.06 (io_trps.svl 2023.06)
