@<TRIPOS>MOLECULE
NONAME
29 30 1 0 0 
SMALL
USER_CHARGES


@<TRIPOS>ATOM
  1 BR      -0.0060    -0.6190     0.6880 Br    1 <1>  -0.1110 
  2 C       -1.8720    -0.2900     0.3400 C.ar  1 <1>   0.1110 
  3 C       -2.5730    -1.1910    -0.4370 C.ar  1 <1>  -0.1500 
  4 C       -2.4630     0.8380     0.8780 C.ar  1 <1>  -0.1500 
  5 C       -3.9090    -0.9310    -0.6710 C.ar  1 <1>   0.1770 
  6 C       -3.8050     1.0750     0.6280 C.ar  1 <1>  -0.1500 
  7 CL      -4.8190    -2.0690    -1.6440 Cl    1 <1>  -0.1770 
  8 C       -4.5540     0.1980    -0.1590 C.ar  1 <1>   0.1170 
  9 N       -5.9200     0.3960    -0.4380 N.am  1 <1>  -0.5470 
 10 C       -6.7150     1.5040    -0.3960 C.2   1 <1>   0.6900 
 11 O       -6.2480     2.6030    -0.1640 O.2   1 <1>  -0.5700 
 12 N       -8.0540     1.3600    -0.6490 N.am  1 <1>  -0.6600 
 13 C       -8.8270     0.1010    -0.4200 C.3   1 <1>   0.1400 
 14 C       -8.9300     2.5430    -0.9100 C.3   1 <1>   0.1400 
 15 C       -9.9560     0.3360     0.5990 C.3   1 <1>   0.1200 
 16 C      -10.0450     2.6340     0.1430 C.3   1 <1>   0.1200 
 17 O      -10.7480     1.4250     0.2210 O.3   1 <1>  -0.5600 
 18 H       -2.0950    -2.0630    -0.8440 H     1 <1>   0.1500 
 19 H       -1.8860     1.5170     1.4810 H     1 <1>   0.1500 
 20 H       -4.2680     1.9490     1.0500 H     1 <1>   0.1500 
 21 H       -6.3660    -0.3780    -0.9230 H     1 <1>   0.3700 
 22 H       -8.1890    -0.6820    -0.0510 H     1 <1>   0.0800 
 23 H       -9.2560    -0.2250    -1.3520 H     1 <1>   0.0800 
 24 H       -9.3730     2.4450    -1.8860 H     1 <1>   0.0800 
 25 H       -8.3570     3.4540    -0.9020 H     1 <1>   0.0800 
 26 H       -9.5490     0.5300     1.5770 H     1 <1>   0.0800 
 27 H      -10.5930    -0.5280     0.6550 H     1 <1>   0.0800 
 28 H      -10.7450     3.4060    -0.1240 H     1 <1>   0.0800 
 29 H       -9.6320     2.8610     1.1110 H     1 <1>   0.0800 
@<TRIPOS>BOND
  1   1   2  1   
  2   2   3  ar  
  3   2   4  ar  
  4   3   5  ar  
  5   3  18  1   
  6   4   6  ar  
  7   4  19  1   
  8   5   7  1   
  9   5   8  ar  
 10   6   8  ar  
 11   6  20  1   
 12   8   9  1   
 13   9  10  am  
 14   9  21  1   
 15  10  11  2   
 16  10  12  am  
 17  12  13  1   
 18  12  14  1   
 19  13  15  1   
 20  13  22  1   
 21  13  23  1   
 22  14  16  1   
 23  14  24  1   
 24  14  25  1   
 25  15  17  1   
 26  15  26  1   
 27  15  27  1   
 28  16  17  1   
 29  16  28  1   
 30  16  29  1   
@<TRIPOS>SUBSTRUCTURE
  1 ****   9 GROUP 4 **** **** 0

# MOE 2024.06 (io_trps.svl 2023.06)
