@<TRIPOS>MOLECULE
NONAME
42 43 1 0 0 
SMALL
USER_CHARGES


@<TRIPOS>ATOM
  1 CL       0.5230     0.3380    -1.1310 Cl    1 <1>  -0.1770 
  2 C        2.0180    -0.4870    -0.7470 C.ar  1 <1>   0.1770 
  3 C        2.2390    -1.7790    -1.2000 C.ar  1 <1>  -0.1440 
  4 C        2.9550     0.1850     0.0130 C.ar  1 <1>  -0.1500 
  5 C        3.4360    -2.3970    -0.8750 C.ar  1 <1>  -0.1500 
  6 C        1.2000    -2.5110    -2.0360 C.3   1 <1>  -0.0960 
  7 C        4.1520    -0.4430     0.3340 C.ar  1 <1>   0.0830 
  8 C        4.4020    -1.7470    -0.1120 C.ar  1 <1>   0.1170 
  9 O        5.1250     0.1590     1.0820 O.3   1 <1>  -0.3630 
 10 N        5.6310    -2.3340     0.2420 N.am  1 <1>  -0.5470 
 11 C        4.9850     1.4870     1.5400 C.3   1 <1>   0.0400 
 12 C        6.2420    -3.5090    -0.0860 C.2   1 <1>   0.5690 
 13 O        5.7660    -4.3450    -0.8120 O.2   1 <1>  -0.5700 
 14 C        7.6130    -3.7670     0.5090 C.3   1 <1>  -0.0990 
 15 C        8.6850    -2.8350    -0.0800 C.3   1 <1>  -0.1600 
 16 C       10.0550    -3.0900     0.5540 C.3   1 <1>   0.1400 
 17 N       11.0380    -2.1170     0.0340 N.am  1 <1>  -0.4200 
 18 C       11.1490    -0.8380     0.4790 C.2   1 <1>   0.5690 
 19 C       11.9470    -2.3870    -0.9390 C.2   1 <1>   0.5690 
 20 O       10.4730    -0.3270     1.3330 O.2   1 <1>  -0.5700 
 21 C       12.2530    -0.1100    -0.2540 C.3   1 <1>  -0.0990 
 22 O       12.0830    -3.4390    -1.5070 O.2   1 <1>  -0.5700 
 23 C       12.7970    -1.1720    -1.2300 C.3   1 <1>  -0.0990 
 24 H        2.7240     1.1820     0.3340 H     1 <1>   0.1500 
 25 H        3.6160    -3.3980    -1.2190 H     1 <1>   0.1500 
 26 H        1.0060    -1.9650    -2.9430 H     1 <1>   0.0800 
 27 H        0.2820    -2.6040    -1.4840 H     1 <1>   0.0800 
 28 H        1.5410    -3.4970    -2.2990 H     1 <1>   0.0800 
 29 H        6.1760    -1.7090     0.8380 H     1 <1>   0.3700 
 30 H        5.8750     1.7500     2.0820 H     1 <1>   0.0800 
 31 H        4.1310     1.5440     2.1920 H     1 <1>   0.0800 
 32 H        4.8680     2.1390     0.6920 H     1 <1>   0.0800 
 33 H        7.8810    -4.7910     0.3160 H     1 <1>   0.0800 
 34 H        7.5530    -3.6370     1.5740 H     1 <1>   0.0800 
 35 H        8.4000    -1.8110     0.0930 H     1 <1>   0.0800 
 36 H        8.7480    -2.9990    -1.1430 H     1 <1>   0.0800 
 37 H       10.3870    -4.0910     0.3310 H     1 <1>   0.0800 
 38 H        9.9940    -2.9830     1.6240 H     1 <1>   0.0800 
 39 H       13.0060     0.2090     0.4440 H     1 <1>   0.0800 
 40 H       11.8490     0.7380    -0.7750 H     1 <1>   0.0800 
 41 H       12.6670    -0.8720    -2.2540 H     1 <1>   0.0800 
 42 H       13.8310    -1.3940    -1.0380 H     1 <1>   0.0800 
@<TRIPOS>BOND
  1   1   2  1   
  2   2   3  ar  
  3   2   4  ar  
  4   3   5  ar  
  5   3   6  1   
  6   4   7  ar  
  7   4  24  1   
  8   5   8  ar  
  9   5  25  1   
 10   6  26  1   
 11   6  27  1   
 12   6  28  1   
 13   7   8  ar  
 14   7   9  1   
 15   8  10  1   
 16   9  11  1   
 17  10  12  am  
 18  10  29  1   
 19  11  30  1   
 20  11  31  1   
 21  11  32  1   
 22  12  13  2   
 23  12  14  1   
 24  14  15  1   
 25  14  33  1   
 26  14  34  1   
 27  15  16  1   
 28  15  35  1   
 29  15  36  1   
 30  16  17  1   
 31  16  37  1   
 32  16  38  1   
 33  17  18  am  
 34  17  19  am  
 35  18  20  2   
 36  18  21  1   
 37  19  22  2   
 38  19  23  1   
 39  21  23  1   
 40  21  39  1   
 41  21  40  1   
 42  23  41  1   
 43  23  42  1   
@<TRIPOS>SUBSTRUCTURE
  1 ****  10 GROUP 4 **** **** 0

# MOE 2024.06 (io_trps.svl 2023.06)
