@<TRIPOS>MOLECULE
NONAME
47 49 1 0 0 
SMALL
USER_CHARGES


@<TRIPOS>ATOM
  1 F       -1.9440     3.3720    -1.8670 F     1 <1>  -0.1900 
  2 C       -2.3690     2.5980    -0.9070 C.ar  1 <1>   0.1900 
  3 C       -3.5470     1.9010    -1.0930 C.ar  1 <1>  -0.1500 
  4 C       -1.6310     2.5080     0.2560 C.ar  1 <1>  -0.1500 
  5 C       -4.0120     1.0840    -0.0710 C.ar  1 <1>  -0.1440 
  6 C       -2.0930     1.6840     1.2690 C.ar  1 <1>  -0.1500 
  7 C       -3.2750     0.9770     1.1040 C.ar  1 <1>  -0.1500 
  8 C       -5.3150     0.3230    -0.2320 C.3   1 <1>   0.4870 
  9 N       -6.4390     1.2890    -0.1360 N.4   1 <1>  -0.9590 
 10 C       -6.5020     1.9530     1.2190 C.3   1 <1>   0.3430 
 11 C       -7.7640     0.6570    -0.4760 C.3   1 <1>   0.3430 
 12 C       -7.6510     2.9750     1.3160 C.3   1 <1>   0.2090 
 13 C       -8.9280     1.6650    -0.4010 C.3   1 <1>   0.2090 
 14 N       -8.9560     2.3640     0.9190 N.pl3 1 <1>  -0.8380 
 15 C      -10.0600     3.2100     1.0940 C.ar  1 <1>   0.1000 
 16 C      -10.2700     4.3890     0.3540 C.ar  1 <1>   0.0830 
 17 C      -10.9920     2.8500     2.0560 C.ar  1 <1>  -0.1500 
 18 O       -9.3420     4.7350    -0.5930 O.3   1 <1>  -0.3630 
 19 C      -11.4010     5.1620     0.6000 C.ar  1 <1>  -0.1500 
 20 C      -12.1120     3.6250     2.2950 C.ar  1 <1>  -0.1500 
 21 C       -9.4460     5.9410    -1.3150 C.3   1 <1>   0.1200 
 22 C      -12.3170     4.7810     1.5660 C.ar  1 <1>  -0.1500 
 23 C       -8.2360     6.0430    -2.2390 C.3   1 <1>  -0.2400 
 24 H       -4.0690     2.0100    -2.0270 H     1 <1>   0.1500 
 25 H       -0.7170     3.0660     0.3620 H     1 <1>   0.1500 
 26 H       -1.5280     1.5940     2.1820 H     1 <1>   0.1500 
 27 H       -3.6070     0.3400     1.9080 H     1 <1>   0.1500 
 28 H       -5.4010    -0.4290     0.5360 H     1 <1>   0.0800 
 29 H       -5.3240    -0.1650    -1.1930 H     1 <1>   0.0800 
 30 H       -6.2630     2.0390    -0.8160 H     1 <1>   0.4500 
 31 H       -5.5730     2.4580     1.4260 H     1 <1>   0.0800 
 32 H       -6.6520     1.2080     1.9820 H     1 <1>   0.0800 
 33 H       -7.9720    -0.1430     0.2150 H     1 <1>   0.0800 
 34 H       -7.7310     0.2390    -1.4690 H     1 <1>   0.0800 
 35 H       -7.4320     3.8210     0.6890 H     1 <1>   0.0800 
 36 H       -7.7270     3.3320     2.3300 H     1 <1>   0.0800 
 37 H       -9.8610     1.1450    -0.5390 H     1 <1>   0.0800 
 38 H       -8.8340     2.3830    -1.1960 H     1 <1>   0.0800 
 39 H      -10.8340     1.9510     2.6230 H     1 <1>   0.1500 
 40 H      -11.5980     6.0660     0.0550 H     1 <1>   0.1500 
 41 H      -12.8230     3.3280     3.0470 H     1 <1>   0.1500 
 42 H       -9.4590     6.7590    -0.6150 H     1 <1>   0.0800 
 43 H      -10.3590     5.9210    -1.8850 H     1 <1>   0.0800 
 44 H      -13.1890     5.3850     1.7510 H     1 <1>   0.1500 
 45 H       -7.3280     6.0510    -1.6630 H     1 <1>   0.0800 
 46 H       -8.2890     6.9570    -2.8020 H     1 <1>   0.0800 
 47 H       -8.2240     5.2180    -2.9280 H     1 <1>   0.0800 
@<TRIPOS>BOND
  1   1   2  1   
  2   2   3  ar  
  3   2   4  ar  
  4   3   5  ar  
  5   3  24  1   
  6   4   6  ar  
  7   4  25  1   
  8   5   7  ar  
  9   5   8  1   
 10   6   7  ar  
 11   6  26  1   
 12   7  27  1   
 13   8   9  1   
 14   8  28  1   
 15   8  29  1   
 16   9  10  1   
 17   9  11  1   
 18   9  30  1   
 19  10  12  1   
 20  10  31  1   
 21  10  32  1   
 22  11  13  1   
 23  11  33  1   
 24  11  34  1   
 25  12  14  1   
 26  12  35  1   
 27  12  36  1   
 28  13  14  1   
 29  13  37  1   
 30  13  38  1   
 31  14  15  1   
 32  15  16  ar  
 33  15  17  ar  
 34  16  18  1   
 35  16  19  ar  
 36  17  20  ar  
 37  17  39  1   
 38  18  21  1   
 39  19  22  ar  
 40  19  40  1   
 41  20  22  ar  
 42  20  41  1   
 43  21  23  1   
 44  21  42  1   
 45  21  43  1   
 46  22  44  1   
 47  23  45  1   
 48  23  46  1   
 49  23  47  1   
@<TRIPOS>SUBSTRUCTURE
  1 ****  12 GROUP 4 **** **** 0

# MOE 2024.06 (io_trps.svl 2023.06)
