@<TRIPOS>MOLECULE
NONAME
42 42 1 0 0 
SMALL
USER_CHARGES


@<TRIPOS>ATOM
  1 CL       0.7550    -0.4390     2.0650 Cl    1 <1>  -0.1770 
  2 C        0.2930    -1.8430     1.1260 C.ar  1 <1>   0.1770 
  3 C        1.2190    -2.4260     0.2670 C.ar  1 <1>   0.1170 
  4 C       -0.9840    -2.3360     1.2620 C.ar  1 <1>  -0.1500 
  5 N        2.5160    -1.9050     0.1510 N.am  1 <1>  -0.5470 
  6 C        0.7950    -3.5170    -0.4770 C.ar  1 <1>  -0.1500 
  7 C       -1.4240    -3.4480     0.5350 C.ar  1 <1>   0.0860 
  8 C        3.7380    -2.4970     0.0820 C.2   1 <1>   0.5690 
  9 C       -0.4940    -4.0350    -0.3500 C.ar  1 <1>   0.0830 
 10 C       -2.7880    -3.9130     0.7380 C.2   1 <1>   0.5440 
 11 O        4.7220    -1.8200    -0.0530 O.2   1 <1>  -0.5700 
 12 C        3.9010    -3.9940     0.2010 C.3   1 <1>  -0.1790 
 13 O       -0.8770    -5.1170    -1.0790 O.3   1 <1>  -0.3620 
 14 O       -3.4000    -3.5740     1.7340 O.2   1 <1>  -0.5700 
 15 N       -3.4200    -4.7140    -0.1750 N.am  1 <1>  -0.7300 
 16 C       -0.0050    -5.8390    -1.9250 C.3   1 <1>   0.0400 
 17 C       -4.7820    -5.2850    -0.1480 C.3   1 <1>   0.2200 
 18 C       -5.8300    -4.1620    -0.1150 C.3   1 <1>  -0.1600 
 19 C       -4.8960    -6.2680     1.0180 C.3   1 <1>  -0.2400 
 20 C       -7.2580    -4.6640    -0.3850 C.3   1 <1>  -0.1600 
 21 C       -8.2490    -3.4980    -0.4300 C.3   1 <1>  -0.2400 
 22 H       -1.6570    -1.8480     1.9460 H     1 <1>   0.1500 
 23 H        2.5990    -0.8900     0.2530 H     1 <1>   0.3700 
 24 H        1.4920    -3.9450    -1.1680 H     1 <1>   0.1500 
 25 H        3.1820    -4.3990     0.8880 H     1 <1>   0.0800 
 26 H        4.8860    -4.2160     0.5680 H     1 <1>   0.0800 
 27 H        3.7850    -4.4490    -0.7640 H     1 <1>   0.0800 
 28 H       -2.8220    -5.0790    -0.9220 H     1 <1>   0.3700 
 29 H       -0.5500    -6.6680    -2.3390 H     1 <1>   0.0800 
 30 H        0.8250    -6.2030    -1.3450 H     1 <1>   0.0800 
 31 H        0.3300    -5.1930    -2.7180 H     1 <1>   0.0800 
 32 H       -4.9140    -5.8360    -1.0650 H     1 <1>   0.0800 
 33 H       -5.5740    -3.4360    -0.8660 H     1 <1>   0.0800 
 34 H       -5.8040    -3.6740     0.8430 H     1 <1>   0.0800 
 35 H       -4.8520    -5.7450     1.9560 H     1 <1>   0.0800 
 36 H       -4.0960    -6.9850     0.9760 H     1 <1>   0.0800 
 37 H       -5.8270    -6.8010     0.9690 H     1 <1>   0.0800 
 38 H       -7.5600    -5.3450     0.3910 H     1 <1>   0.0800 
 39 H       -7.2880    -5.1890    -1.3240 H     1 <1>   0.0800 
 40 H       -8.2470    -2.9680     0.5070 H     1 <1>   0.0800 
 41 H       -9.2430    -3.8650    -0.6130 H     1 <1>   0.0800 
 42 H       -7.9870    -2.8110    -1.2150 H     1 <1>   0.0800 
@<TRIPOS>BOND
  1   1   2  1   
  2   2   3  ar  
  3   2   4  ar  
  4   3   5  1   
  5   3   6  ar  
  6   4   7  ar  
  7   4  22  1   
  8   5   8  am  
  9   5  23  1   
 10   6   9  ar  
 11   6  24  1   
 12   7   9  ar  
 13   7  10  1   
 14   8  11  2   
 15   8  12  1   
 16   9  13  1   
 17  10  14  2   
 18  10  15  am  
 19  12  25  1   
 20  12  26  1   
 21  12  27  1   
 22  13  16  1   
 23  15  17  1   
 24  15  28  1   
 25  16  29  1   
 26  16  30  1   
 27  16  31  1   
 28  17  18  1   
 29  17  19  1   
 30  17  32  1   
 31  18  20  1   
 32  18  33  1   
 33  18  34  1   
 34  19  35  1   
 35  19  36  1   
 36  19  37  1   
 37  20  21  1   
 38  20  38  1   
 39  20  39  1   
 40  21  40  1   
 41  21  41  1   
 42  21  42  1   
@<TRIPOS>SUBSTRUCTURE
  1 ****   7 GROUP 4 **** **** 0

# MOE 2024.06 (io_trps.svl 2023.06)
