@<TRIPOS>MOLECULE
NONAME
48 48 1 0 0 
SMALL
USER_CHARGES


@<TRIPOS>ATOM
  1 N       -0.0290     0.1890    -0.5850 N.4   1 <1>  -0.9590 
  2 C        1.1090    -0.1350    -1.5010 C.3   1 <1>   0.4860 
  3 C       -1.2430    -0.6440    -0.9130 C.3   1 <1>   0.3430 
  4 C       -0.2640     1.6650    -0.5810 C.3   1 <1>   0.3430 
  5 C        2.3780     0.3630    -0.8440 C.ar  1 <1>  -0.1440 
  6 C       -2.4140    -0.5270     0.1070 C.3   1 <1>   0.3430 
  7 C       -0.3890     2.1350     0.8620 C.3   1 <1>  -0.2400 
  8 C        2.9010    -0.3020     0.2570 C.ar  1 <1>  -0.1500 
  9 C        3.0210     1.4930    -1.3290 C.ar  1 <1>  -0.1500 
 10 N       -3.6300    -1.3610    -0.2270 N.4   1 <1>  -0.9590 
 11 C        4.0450     0.1650     0.8820 C.ar  1 <1>  -0.1430 
 12 C        4.1630     1.9610    -0.7060 C.ar  1 <1>  -0.1500 
 13 C       -4.7900    -0.9870     0.6420 C.3   1 <1>   0.3430 
 14 C       -3.3750    -2.8290    -0.1130 C.3   1 <1>   0.3430 
 15 C        4.6700     1.3020     0.3980 C.ar  1 <1>  -0.1500 
 16 C        4.6200    -0.5580     2.0870 C.3   1 <1>  -0.0970 
 17 C       -5.3570     0.3560     0.1950 C.3   1 <1>  -0.2400 
 18 C       -4.3790    -3.5830    -0.9780 C.3   1 <1>  -0.2400 
 19 H        0.3520    -0.0370     0.3470 H     1 <1>   0.4500 
 20 H        0.9750     0.3330    -2.4620 H     1 <1>   0.0800 
 21 H        1.1900    -1.2010    -1.6440 H     1 <1>   0.0800 
 22 H       -0.9440    -1.6780    -0.9640 H     1 <1>   0.0800 
 23 H       -1.6060    -0.3560    -1.8860 H     1 <1>   0.0800 
 24 H       -1.1500     1.9160    -1.1420 H     1 <1>   0.0800 
 25 H        0.5710     2.1790    -1.0310 H     1 <1>   0.0800 
 26 H       -2.7070     0.5080     0.1510 H     1 <1>   0.0800 
 27 H       -2.0560    -0.8100     1.0840 H     1 <1>   0.0800 
 28 H       -1.2210     1.6850     1.3700 H     1 <1>   0.0800 
 29 H       -0.5380     3.2010     0.8690 H     1 <1>   0.0800 
 30 H        0.5200     1.9360     1.4030 H     1 <1>   0.0800 
 31 H        2.4360    -1.1930     0.6400 H     1 <1>   0.1500 
 32 H        2.6530     2.0220    -2.1920 H     1 <1>   0.1500 
 33 H       -3.9410    -1.1790    -1.1940 H     1 <1>   0.4500 
 34 H        4.6650     2.8390    -1.0790 H     1 <1>   0.1500 
 35 H       -4.4900    -0.9400     1.6770 H     1 <1>   0.0800 
 36 H       -5.5690    -1.7290     0.5580 H     1 <1>   0.0800 
 37 H       -3.4590    -3.1480     0.9150 H     1 <1>   0.0800 
 38 H       -2.3830    -3.0670    -0.4590 H     1 <1>   0.0800 
 39 H        5.5600     1.6750     0.8760 H     1 <1>   0.1500 
 40 H        4.3780    -1.6050     2.0570 H     1 <1>   0.0800 
 41 H        4.2250    -0.1350     2.9930 H     1 <1>   0.0800 
 42 H        5.6920    -0.4640     2.1040 H     1 <1>   0.0800 
 43 H       -4.6650     1.1620     0.3580 H     1 <1>   0.0800 
 44 H       -6.2380     0.5700     0.7760 H     1 <1>   0.0800 
 45 H       -5.6510     0.3260    -0.8390 H     1 <1>   0.0800 
 46 H       -5.3870    -3.4430    -0.6330 H     1 <1>   0.0800 
 47 H       -4.1650    -4.6360    -0.9250 H     1 <1>   0.0800 
 48 H       -4.3050    -3.2860    -2.0090 H     1 <1>   0.0800 
@<TRIPOS>BOND
  1   1   2  1   
  2   1   3  1   
  3   1   4  1   
  4   1  19  1   
  5   2   5  1   
  6   2  20  1   
  7   2  21  1   
  8   3   6  1   
  9   3  22  1   
 10   3  23  1   
 11   4   7  1   
 12   4  24  1   
 13   4  25  1   
 14   5   8  ar  
 15   5   9  ar  
 16   6  10  1   
 17   6  26  1   
 18   6  27  1   
 19   7  28  1   
 20   7  29  1   
 21   7  30  1   
 22   8  11  ar  
 23   8  31  1   
 24   9  12  ar  
 25   9  32  1   
 26  10  13  1   
 27  10  14  1   
 28  10  33  1   
 29  11  15  ar  
 30  11  16  1   
 31  12  15  ar  
 32  12  34  1   
 33  13  17  1   
 34  13  35  1   
 35  13  36  1   
 36  14  18  1   
 37  14  37  1   
 38  14  38  1   
 39  15  39  1   
 40  16  40  1   
 41  16  41  1   
 42  16  42  1   
 43  17  43  1   
 44  17  44  1   
 45  17  45  1   
 46  18  46  1   
 47  18  47  1   
 48  18  48  1   
@<TRIPOS>SUBSTRUCTURE
  1 ****   1 GROUP 4 **** **** 0

# MOE 2024.06 (io_trps.svl 2023.06)
