@<TRIPOS>MOLECULE
NONAME
37 38 1 0 0 
SMALL
USER_CHARGES


@<TRIPOS>ATOM
  1 O       -0.2690     1.2430     0.7600 O.2   1 <1>  -0.5700 
  2 C       -1.2920     1.7660     0.4120 C.2   1 <1>   0.6590 
  3 O       -2.4300     1.7060     1.0820 O.3   1 <1>  -0.4300 
  4 C       -1.5020     2.5490    -0.8660 C.3   1 <1>  -0.0190 
  5 C       -3.4660     2.3450     0.3730 C.3   1 <1>   0.2800 
  6 C       -1.3290     4.0640    -0.6030 C.3   1 <1>  -0.0190 
  7 C       -2.9850     2.2600    -1.0750 C.3   1 <1>  -0.1600 
  8 C       -3.4990     3.8300     0.7910 C.3   1 <1>  -0.1600 
  9 C       -4.7800     1.6150     0.6310 C.3   1 <1>  -0.2400 
 10 C        0.1520     4.4200    -0.5520 C.2   1 <1>   0.6590 
 11 C       -2.1180     4.5230     0.6630 C.3   1 <1>  -0.0800 
 12 O        0.7020     4.8640    -1.5260 O.2   1 <1>  -0.5700 
 13 O        0.7760     4.1810     0.5960 O.3   1 <1>  -0.4300 
 14 C       -2.2730     6.0490     0.7080 C.3   1 <1>  -0.2400 
 15 C        2.1540     4.3080     0.8700 C.3   1 <1>   0.2000 
 16 C        2.5940     5.7680     0.7440 C.3   1 <1>  -0.2400 
 17 C        2.9570     3.3510    -0.0120 C.3   1 <1>  -0.2400 
 18 H       -0.8890     2.1900    -1.6730 H     1 <1>   0.0800 
 19 H       -1.7330     4.5830    -1.4550 H     1 <1>   0.0800 
 20 H       -3.4770     2.9620    -1.7260 H     1 <1>   0.0800 
 21 H       -3.1280     1.2640    -1.4590 H     1 <1>   0.0800 
 22 H       -3.8480     3.9090     1.8060 H     1 <1>   0.0800 
 23 H       -4.2150     4.3390     0.1690 H     1 <1>   0.0800 
 24 H       -4.6960     0.5810     0.3480 H     1 <1>   0.0800 
 25 H       -5.5720     2.0640     0.0590 H     1 <1>   0.0800 
 26 H       -5.0360     1.6730     1.6730 H     1 <1>   0.0800 
 27 H       -1.5530     4.2370     1.5360 H     1 <1>   0.0800 
 28 H       -2.8320     6.4040    -0.1400 H     1 <1>   0.0800 
 29 H       -1.3090     6.5270     0.7070 H     1 <1>   0.0800 
 30 H       -2.7900     6.3440     1.6060 H     1 <1>   0.0800 
 31 H        2.2770     4.0030     1.8960 H     1 <1>   0.0800 
 32 H        2.5510     6.1000    -0.2770 H     1 <1>   0.0800 
 33 H        3.6080     5.8690     1.0840 H     1 <1>   0.0800 
 34 H        1.9680     6.3960     1.3530 H     1 <1>   0.0800 
 35 H        2.9170     3.6470    -1.0440 H     1 <1>   0.0800 
 36 H        2.5740     2.3510     0.0900 H     1 <1>   0.0800 
 37 H        3.9870     3.3530     0.2960 H     1 <1>   0.0800 
@<TRIPOS>BOND
  1   1   2  2   
  2   2   3  1   
  3   2   4  1   
  4   3   5  1   
  5   4   6  1   
  6   4   7  1   
  7   4  18  1   
  8   5   7  1   
  9   5   8  1   
 10   5   9  1   
 11   6  10  1   
 12   6  11  1   
 13   6  19  1   
 14   7  20  1   
 15   7  21  1   
 16   8  11  1   
 17   8  22  1   
 18   8  23  1   
 19   9  24  1   
 20   9  25  1   
 21   9  26  1   
 22  10  12  2   
 23  10  13  1   
 24  11  14  1   
 25  11  27  1   
 26  13  15  1   
 27  14  28  1   
 28  14  29  1   
 29  14  30  1   
 30  15  16  1   
 31  15  17  1   
 32  15  31  1   
 33  16  32  1   
 34  16  33  1   
 35  16  34  1   
 36  17  35  1   
 37  17  36  1   
 38  17  37  1   
@<TRIPOS>SUBSTRUCTURE
  1 ****   6 GROUP 4 **** **** 0

# MOE 2024.06 (io_trps.svl 2023.06)
