@<TRIPOS>MOLECULE
NONAME
59 60 1 0 0 
SMALL
USER_CHARGES


@<TRIPOS>ATOM
  1 O        7.0300    -5.0720     0.0510 O.3   1 <1>  -0.3630 
  2 C        8.3830    -4.9970    -0.0690 C.ar  1 <1>   0.0830 
  3 C        6.3020    -6.2610    -0.1700 C.3   1 <1>   0.1200 
  4 C        9.0250    -3.7700     0.1640 C.ar  1 <1>  -0.1440 
  5 C        9.1240    -6.1250    -0.4190 C.ar  1 <1>  -0.1500 
  6 C        4.8250    -5.9590     0.0540 C.3   1 <1>   0.1200 
  7 C       10.4150    -3.7440     0.0280 C.ar  1 <1>  -0.1500 
  8 C        8.2430    -2.4810     0.5570 C.3   1 <1>   0.1440 
  9 C       10.4960    -6.0600    -0.5440 C.ar  1 <1>  -0.1500 
 10 O        4.0950    -7.1260    -0.1700 O.3   1 <1>  -0.5600 
 11 C       11.1480    -4.8650    -0.3190 C.ar  1 <1>  -0.1430 
 12 C        9.1540    -1.2530     0.7610 C.3   1 <1>  -0.2400 
 13 C        7.2490    -2.0890    -0.5500 C.3   1 <1>  -0.2400 
 14 C        7.5000    -2.6810     1.8900 C.3   1 <1>  -0.2400 
 15 C        2.7240    -6.9770     0.0120 C.3   1 <1>   0.1200 
 16 C       12.6580    -4.7700    -0.4520 C.3   1 <1>  -0.0970 
 17 C        2.0680    -8.3430    -0.2070 C.3   1 <1>   0.1100 
 18 N        0.6010    -8.2900    -0.0160 N.3   1 <1>  -0.8100 
 19 C       -0.0920    -7.6440    -1.1610 C.3   1 <1>   0.1100 
 20 C        0.0580    -9.6520     0.2050 C.3   1 <1>   0.1100 
 21 C       -1.6340    -7.6520    -1.0060 C.3   1 <1>   0.3430 
 22 C       -1.4770    -9.6540     0.4210 C.3   1 <1>   0.3430 
 23 N       -2.0440    -8.2700     0.2970 N.4   1 <1>  -0.9590 
 24 C       -3.5100    -8.2030     0.5550 C.3   1 <1>   0.2630 
 25 H        6.6420    -7.0030     0.5310 H     1 <1>   0.0800 
 26 H        6.4690    -6.5780    -1.1830 H     1 <1>   0.0800 
 27 H        8.6550    -7.0720    -0.6020 H     1 <1>   0.1500 
 28 H        4.4930    -5.2050    -0.6380 H     1 <1>   0.0800 
 29 H        4.6640    -5.6390     1.0690 H     1 <1>   0.0800 
 30 H       10.9750    -2.8450     0.1880 H     1 <1>   0.1500 
 31 H       11.0500    -6.9410    -0.8160 H     1 <1>   0.1500 
 32 H        9.8610    -1.4330     1.5520 H     1 <1>   0.0800 
 33 H        8.5750    -0.3880     1.0310 H     1 <1>   0.0800 
 34 H        9.6860    -1.0220    -0.1440 H     1 <1>   0.0800 
 35 H        7.7650    -1.9970    -1.4880 H     1 <1>   0.0800 
 36 H        6.7770    -1.1500    -0.3240 H     1 <1>   0.0800 
 37 H        6.4740    -2.8200    -0.6650 H     1 <1>   0.0800 
 38 H        8.1920    -3.0000     2.6490 H     1 <1>   0.0800 
 39 H        6.7290    -3.4220     1.8070 H     1 <1>   0.0800 
 40 H        7.0360    -1.7660     2.2100 H     1 <1>   0.0800 
 41 H        2.3670    -6.2560    -0.7010 H     1 <1>   0.0800 
 42 H        2.5430    -6.6370     1.0170 H     1 <1>   0.0800 
 43 H       12.9110    -4.1610    -1.3000 H     1 <1>   0.0800 
 44 H       13.0950    -5.7440    -0.5840 H     1 <1>   0.0800 
 45 H       13.0770    -4.3260     0.4340 H     1 <1>   0.0800 
 46 H        2.4970    -9.0210     0.5110 H     1 <1>   0.0800 
 47 H        2.3030    -8.7020    -1.1950 H     1 <1>   0.0800 
 48 H        0.1690    -8.1470    -2.0780 H     1 <1>   0.0800 
 49 H        0.2350    -6.6230    -1.2520 H     1 <1>   0.0800 
 50 H        0.5260   -10.0870     1.0730 H     1 <1>   0.0800 
 51 H        0.2960   -10.2820    -0.6360 H     1 <1>   0.0800 
 52 H       -2.0690    -8.1990    -1.8260 H     1 <1>   0.0800 
 53 H       -1.9950    -6.6380    -1.0620 H     1 <1>   0.0800 
 54 H       -1.6890   -10.0500     1.4000 H     1 <1>   0.0800 
 55 H       -1.9340   -10.3070    -0.3030 H     1 <1>   0.0800 
 56 H       -1.5180    -7.7270     1.0030 H     1 <1>   0.4500 
 57 H       -4.0480    -8.7730    -0.1850 H     1 <1>   0.0800 
 58 H       -3.8500    -7.1810     0.5180 H     1 <1>   0.0800 
 59 H       -3.7360    -8.6040     1.5310 H     1 <1>   0.0800 
@<TRIPOS>BOND
  1   1   2  1   
  2   1   3  1   
  3   2   4  ar  
  4   2   5  ar  
  5   3   6  1   
  6   3  25  1   
  7   3  26  1   
  8   4   7  ar  
  9   4   8  1   
 10   5   9  ar  
 11   5  27  1   
 12   6  10  1   
 13   6  28  1   
 14   6  29  1   
 15   7  11  ar  
 16   7  30  1   
 17   8  12  1   
 18   8  13  1   
 19   8  14  1   
 20   9  11  ar  
 21   9  31  1   
 22  10  15  1   
 23  11  16  1   
 24  12  32  1   
 25  12  33  1   
 26  12  34  1   
 27  13  35  1   
 28  13  36  1   
 29  13  37  1   
 30  14  38  1   
 31  14  39  1   
 32  14  40  1   
 33  15  17  1   
 34  15  41  1   
 35  15  42  1   
 36  16  43  1   
 37  16  44  1   
 38  16  45  1   
 39  17  18  1   
 40  17  46  1   
 41  17  47  1   
 42  18  19  1   
 43  18  20  1   
 44  19  21  1   
 45  19  48  1   
 46  19  49  1   
 47  20  22  1   
 48  20  50  1   
 49  20  51  1   
 50  21  23  1   
 51  21  52  1   
 52  21  53  1   
 53  22  23  1   
 54  22  54  1   
 55  22  55  1   
 56  23  24  1   
 57  23  56  1   
 58  24  57  1   
 59  24  58  1   
 60  24  59  1   
@<TRIPOS>SUBSTRUCTURE
  1 ****   6 GROUP 4 **** **** 0

# MOE 2024.06 (io_trps.svl 2023.06)
