@<TRIPOS>MOLECULE
NONAME
42 43 1 0 0 
SMALL
USER_CHARGES


@<TRIPOS>ATOM
  1 S      -13.8900     0.6800     0.7730 S.3   1 <1>  -0.0800 
  2 C      -12.9000     1.9960     0.1660 C.2   1 <1>  -0.1400 
  3 C      -15.3280     1.3480     0.0250 C.2   1 <1>  -0.1400 
  4 C      -13.6540     2.8580    -0.5490 C.2   1 <1>  -0.1500 
  5 C      -11.4400     1.9190     0.5460 C.3   1 <1>   0.5230 
  6 C      -15.0330     2.4860    -0.6270 C.2   1 <1>  -0.1500 
  7 C      -16.6250     0.5870     0.2110 C.3   1 <1>  -0.0600 
  8 N      -10.7410     3.0840    -0.0340 N.4   1 <1>  -0.9060 
  9 C       -9.2890     3.0980     0.2830 C.3   1 <1>   0.3430 
 10 C       -8.6070     4.3130    -0.3430 C.3   1 <1>  -0.0170 
 11 C       -7.1300     4.2550    -0.0060 C.ar  1 <1>  -0.1430 
 12 C       -6.2740     3.4850    -0.7790 C.ar  1 <1>  -0.1500 
 13 C       -6.6260     4.9530     1.0810 C.ar  1 <1>  -0.1500 
 14 C       -4.9270     3.3960    -0.4720 C.ar  1 <1>   0.0830 
 15 C       -5.2770     4.8860     1.3860 C.ar  1 <1>  -0.1500 
 16 O       -4.1780     2.5820    -1.2620 O.3   1 <1>  -0.3620 
 17 C       -4.4200     4.1260     0.6090 C.ar  1 <1>   0.0830 
 18 C       -3.3430     1.6280    -0.6390 C.3   1 <1>   0.0400 
 19 O       -3.1060     4.1420     0.9340 O.3   1 <1>  -0.3630 
 20 C       -2.2810     4.9020     0.0790 C.3   1 <1>   0.0400 
 21 H      -13.3300     3.7570    -1.0430 H     1 <1>   0.1500 
 22 H      -11.0200     1.0010     0.1670 H     1 <1>   0.0800 
 23 H      -11.3500     1.9220     1.6210 H     1 <1>   0.0800 
 24 H      -15.7420     3.0900    -1.1690 H     1 <1>   0.1500 
 25 H      -16.5320    -0.4030    -0.1960 H     1 <1>   0.0800 
 26 H      -17.4290     1.0940    -0.2920 H     1 <1>   0.0800 
 27 H      -16.8610     0.5140     1.2570 H     1 <1>   0.0800 
 28 H      -11.2020     3.9300     0.3210 H     1 <1>   0.4500 
 29 H      -10.8930     3.0600    -1.0490 H     1 <1>   0.4500 
 30 H       -8.8200     2.2020    -0.0930 H     1 <1>   0.0800 
 31 H       -9.1420     3.1270     1.3520 H     1 <1>   0.0800 
 32 H       -9.0290     5.2240     0.0440 H     1 <1>   0.0800 
 33 H       -8.7250     4.3020    -1.4120 H     1 <1>   0.0800 
 34 H       -6.6310     2.9360    -1.6320 H     1 <1>   0.1500 
 35 H       -7.2670     5.5590     1.6990 H     1 <1>   0.1500 
 36 H       -4.8790     5.4310     2.2240 H     1 <1>   0.1500 
 37 H       -3.1150     0.8620    -1.3580 H     1 <1>   0.0800 
 38 H       -3.8580     1.2030     0.2040 H     1 <1>   0.0800 
 39 H       -2.4340     2.1050    -0.3220 H     1 <1>   0.0800 
 40 H       -1.2710     4.8360     0.4390 H     1 <1>   0.0800 
 41 H       -2.6140     5.9240     0.0940 H     1 <1>   0.0800 
 42 H       -2.3450     4.5040    -0.9190 H     1 <1>   0.0800 
@<TRIPOS>BOND
  1   1   2  1   
  2   1   3  1   
  3   2   4  2   
  4   2   5  1   
  5   3   6  2   
  6   3   7  1   
  7   4   6  1   
  8   4  21  1   
  9   5   8  1   
 10   5  22  1   
 11   5  23  1   
 12   6  24  1   
 13   7  25  1   
 14   7  26  1   
 15   7  27  1   
 16   8   9  1   
 17   8  28  1   
 18   8  29  1   
 19   9  10  1   
 20   9  30  1   
 21   9  31  1   
 22  10  11  1   
 23  10  32  1   
 24  10  33  1   
 25  11  12  ar  
 26  11  13  ar  
 27  12  14  ar  
 28  12  34  1   
 29  13  15  ar  
 30  13  35  1   
 31  14  16  1   
 32  14  17  ar  
 33  15  17  ar  
 34  15  36  1   
 35  16  18  1   
 36  17  19  1   
 37  18  37  1   
 38  18  38  1   
 39  18  39  1   
 40  19  20  1   
 41  20  40  1   
 42  20  41  1   
 43  20  42  1   
@<TRIPOS>SUBSTRUCTURE
  1 ****   9 GROUP 4 **** **** 0

# MOE 2024.06 (io_trps.svl 2023.06)
