@<TRIPOS>MOLECULE
NONAME
36 38 1 0 0 
SMALL
USER_CHARGES


@<TRIPOS>ATOM
  1 BR      -0.1280     0.5060    -2.4980 Br    1 <1>  -0.1110 
  2 C       -1.4500     1.1750    -1.2570 C.ar  1 <1>   0.1110 
  3 C       -2.4090     0.3180    -0.7200 C.ar  1 <1>   0.1170 
  4 C       -1.4110     2.5250    -0.9620 C.ar  1 <1>  -0.1500 
  5 N       -2.4770    -1.0540    -0.9830 N.am  1 <1>  -0.5470 
  6 C       -3.3630     0.8770     0.1180 C.ar  1 <1>  -0.1500 
  7 C       -2.3660     3.0610    -0.1110 C.ar  1 <1>  -0.1440 
  8 C       -1.6040    -2.0240    -0.5850 C.2   1 <1>   0.5690 
  9 C       -3.3420     2.2300     0.4200 C.ar  1 <1>  -0.1500 
 10 C       -2.3540     4.5390     0.2320 C.3   1 <1>  -0.0960 
 11 O       -0.5230    -1.7340    -0.1250 O.2   1 <1>  -0.5700 
 12 C       -1.9370    -3.5060    -0.8300 C.3   1 <1>  -0.0190 
 13 C       -3.3600    -4.0570    -0.5200 C.3   1 <1>  -0.1860 
 14 C       -1.1030    -4.4190     0.0870 C.3   1 <1>   0.2000 
 15 C       -4.4630    -3.0780    -0.1900 C.2   1 <1>   0.9060 
 16 C       -3.0660    -5.0540     0.6090 C.3   1 <1>   0.2000 
 17 O       -1.9270    -4.5290     1.1830 O.3   1 <1>  -0.5600 
 18 C       -1.0970    -5.8720    -0.4080 C.3   1 <1>  -0.1600 
 19 O       -4.8450    -2.3480    -1.1130 O.co2 1 <1>  -0.9000 
 20 O       -4.9800    -3.0270     0.9260 O.co2 1 <1>  -0.9000 
 21 C       -2.4910    -6.3450     0.0190 C.3   1 <1>  -0.1600 
 22 H       -0.6470     3.1410    -1.3990 H     1 <1>   0.1500 
 23 H       -3.4340    -1.4010    -1.1920 H     1 <1>   0.3700 
 24 H       -4.1240     0.2350     0.5350 H     1 <1>   0.1500 
 25 H       -4.0950     2.6280     1.0770 H     1 <1>   0.1500 
 26 H       -1.3800     4.9610     0.0580 H     1 <1>   0.0800 
 27 H       -2.6060     4.6810     1.2680 H     1 <1>   0.0800 
 28 H       -3.0720     5.0590    -0.3750 H     1 <1>   0.0800 
 29 H       -1.6870    -3.7030    -1.8550 H     1 <1>   0.0800 
 30 H       -3.7250    -4.5940    -1.3730 H     1 <1>   0.0800 
 31 H       -0.1330    -4.0470     0.3680 H     1 <1>   0.0800 
 32 H       -3.8520    -5.1870     1.3350 H     1 <1>   0.0800 
 33 H       -0.3300    -6.4290     0.1000 H     1 <1>   0.0800 
 34 H       -0.9430    -5.9310    -1.4710 H     1 <1>   0.0800 
 35 H       -3.0820    -6.7190    -0.7980 H     1 <1>   0.0800 
 36 H       -2.4270    -7.0920     0.7890 H     1 <1>   0.0800 
@<TRIPOS>BOND
  1   1   2  1   
  2   2   3  ar  
  3   2   4  ar  
  4   3   5  1   
  5   3   6  ar  
  6   4   7  ar  
  7   4  22  1   
  8   5   8  am  
  9   5  23  1   
 10   6   9  ar  
 11   6  24  1   
 12   7   9  ar  
 13   7  10  1   
 14   8  11  2   
 15   8  12  1   
 16   9  25  1   
 17  10  26  1   
 18  10  27  1   
 19  10  28  1   
 20  12  13  1   
 21  12  14  1   
 22  12  29  1   
 23  13  15  1   
 24  13  16  1   
 25  13  30  1   
 26  14  17  1   
 27  14  18  1   
 28  14  31  1   
 29  15  19  ar  
 30  15  20  ar  
 31  16  17  1   
 32  16  21  1   
 33  16  32  1   
 34  18  21  1   
 35  18  33  1   
 36  18  34  1   
 37  21  35  1   
 38  21  36  1   
@<TRIPOS>SUBSTRUCTURE
  1 ****   5 GROUP 4 **** **** 0

# MOE 2024.06 (io_trps.svl 2023.06)
