@<TRIPOS>MOLECULE
NONAME
38 39 1 0 0 
SMALL
USER_CHARGES


@<TRIPOS>ATOM
  1 S        0.1300     0.2040    -1.0270 S.3   1 <1>  -0.2860 
  2 C       -1.4670     1.0230    -0.8810 C.2   1 <1>   0.2420 
  3 C        0.0080    -1.3160     0.0130 C.3   1 <1>   0.2140 
  4 N       -1.7500     2.1310    -1.4670 N.2   1 <1>  -0.3380 
  5 N       -2.4740     0.5470    -0.1590 N.pl3 1 <1>   0.0330 
  6 C        1.3370    -2.0490    -0.0390 C.ar  1 <1>  -0.1440 
  7 N       -3.0130     2.4160    -1.1220 N.2   1 <1>  -0.3380 
  8 C       -3.4240     1.4670    -0.3490 C.2   1 <1>   0.0070 
  9 C        2.4500    -1.5230     0.6000 C.ar  1 <1>  -0.1500 
 10 C        1.4500    -3.2520    -0.7200 C.ar  1 <1>  -0.1500 
 11 C       -4.8080     1.3960     0.2720 C.3   1 <1>   0.0200 
 12 C        3.6620    -2.1910     0.5670 C.ar  1 <1>  -0.1500 
 13 C        2.6610    -3.9220    -0.7540 C.ar  1 <1>  -0.1500 
 14 C       -5.6240     0.2350    -0.3120 C.3   1 <1>  -0.1600 
 15 C        3.7720    -3.4010    -0.1120 C.ar  1 <1>   0.0830 
 16 C       -7.0280     0.1720     0.2990 C.3   1 <1>  -0.2400 
 17 O        4.9170    -4.1220    -0.1940 O.3   1 <1>  -0.3630 
 18 C        6.1110    -3.6720     0.4020 C.3   1 <1>   0.1200 
 19 C        7.1990    -4.7020     0.1170 C.3   1 <1>  -0.2400 
 20 H       -0.7890    -1.9150    -0.3870 H     1 <1>   0.0800 
 21 H       -0.2190    -1.0040     1.0160 H     1 <1>   0.0800 
 22 H       -2.5170    -0.3030     0.3980 H     1 <1>   0.2700 
 23 H        2.3780    -0.5840     1.1230 H     1 <1>   0.1500 
 24 H        0.6030    -3.6750    -1.2300 H     1 <1>   0.1500 
 25 H       -5.3190     2.3240     0.0800 H     1 <1>   0.0800 
 26 H       -4.7150     1.2870     1.3380 H     1 <1>   0.0800 
 27 H        4.5030    -1.7550     1.0710 H     1 <1>   0.1500 
 28 H        2.7530    -4.8550    -1.2800 H     1 <1>   0.1500 
 29 H       -5.1180    -0.6970    -0.1300 H     1 <1>   0.0800 
 30 H       -5.7060     0.3670    -1.3780 H     1 <1>   0.0800 
 31 H       -6.9750     0.0230     1.3630 H     1 <1>   0.0800 
 32 H       -7.5810    -0.6450    -0.1330 H     1 <1>   0.0800 
 33 H       -7.5650     1.0840     0.1030 H     1 <1>   0.0800 
 34 H        5.9470    -3.5750     1.4620 H     1 <1>   0.0800 
 35 H        6.3670    -2.7180    -0.0260 H     1 <1>   0.0800 
 36 H        6.9250    -5.6540     0.5340 H     1 <1>   0.0800 
 37 H        8.1260    -4.3860     0.5600 H     1 <1>   0.0800 
 38 H        7.3420    -4.8030    -0.9440 H     1 <1>   0.0800 
@<TRIPOS>BOND
  1   1   2  1   
  2   1   3  1   
  3   2   4  2   
  4   2   5  1   
  5   3   6  1   
  6   3  20  1   
  7   3  21  1   
  8   4   7  1   
  9   5   8  1   
 10   5  22  1   
 11   6   9  ar  
 12   6  10  ar  
 13   7   8  2   
 14   8  11  1   
 15   9  12  ar  
 16   9  23  1   
 17  10  13  ar  
 18  10  24  1   
 19  11  14  1   
 20  11  25  1   
 21  11  26  1   
 22  12  15  ar  
 23  12  27  1   
 24  13  15  ar  
 25  13  28  1   
 26  14  16  1   
 27  14  29  1   
 28  14  30  1   
 29  15  17  1   
 30  16  31  1   
 31  16  32  1   
 32  16  33  1   
 33  17  18  1   
 34  18  19  1   
 35  18  34  1   
 36  18  35  1   
 37  19  36  1   
 38  19  37  1   
 39  19  38  1   
@<TRIPOS>SUBSTRUCTURE
  1 ****   3 GROUP 4 **** **** 0

# MOE 2024.06 (io_trps.svl 2023.06)
