@<TRIPOS>MOLECULE
NONAME
16 16 1 0 0 
SMALL
USER_CHARGES


@<TRIPOS>ATOM
  1 F       -0.2880     0.4970    -1.3190 F     1 <1>  -0.3400 
  2 C       -1.2580     0.4080    -0.4140 C.3   1 <1>   1.1150 
  3 F       -2.2830     1.0630    -0.9650 F     1 <1>  -0.3400 
  4 F       -0.8910     1.1820     0.6050 F     1 <1>  -0.3400 
  5 C       -1.6540    -1.0110    -0.0350 C.3   1 <1>  -0.2420 
  6 C       -0.5060    -1.4950     0.8070 C.2   1 <1>   0.9470 
  7 C       -2.5710    -1.8430    -0.9310 C.3   1 <1>  -0.2470 
  8 C       -3.0570    -1.3580     0.4110 C.3   1 <1>  -0.2000 
  9 O        0.5760    -1.7620     0.2770 O.co2 1 <1>  -0.9000 
 10 O       -0.6370    -1.4980     2.0380 O.co2 1 <1>  -0.9000 
 11 C       -2.4970    -3.3350    -1.2460 C.2   1 <1>   0.9470 
 12 O       -2.0570    -3.6720    -2.3520 O.co2 1 <1>  -0.9000 
 13 O       -3.0210    -4.1550    -0.4790 O.co2 1 <1>  -0.9000 
 14 H       -2.9650    -1.3450    -1.7950 H     1 <1>   0.1000 
 15 H       -3.8190    -0.6020     0.4420 H     1 <1>   0.1000 
 16 H       -3.1670    -2.0860     1.1990 H     1 <1>   0.1000 
@<TRIPOS>BOND
  1   1   2  1   
  2   2   3  1   
  3   2   4  1   
  4   2   5  1   
  5   5   6  1   
  6   5   7  1   
  7   5   8  1   
  8   6   9  ar  
  9   6  10  ar  
 10   7   8  1   
 11   7  11  1   
 12   7  14  1   
 13   8  15  1   
 14   8  16  1   
 15  11  12  ar  
 16  11  13  ar  
@<TRIPOS>SUBSTRUCTURE
  1 ****   5 GROUP 4 **** **** 0

# MOE 2024.06 (io_trps.svl 2023.06)
