@<TRIPOS>MOLECULE
NONAME
39 40 1 0 0 
SMALL
USER_CHARGES


@<TRIPOS>ATOM
  1 O        2.1090    -1.5650     2.3710 O.2   1 <1>  -0.5700 
  2 C        2.4810    -1.6530     1.2300 C.2   1 <1>   0.5690 
  3 N        3.4300    -0.8110     0.7700 N.am  1 <1>  -0.7300 
  4 C        1.8460    -2.7350     0.3520 C.3   1 <1>  -0.0190 
  5 C        4.1000    -0.7370    -0.5390 C.3   1 <1>   0.2840 
  6 C        0.3190    -2.5310     0.2670 C.3   1 <1>  -0.1600 
  7 C        2.1730    -4.1360     0.9100 C.3   1 <1>  -0.1600 
  8 C        5.2640     0.2260    -0.4160 C.ar  1 <1>  -0.1440 
  9 C       -0.3870    -3.6800    -0.4490 C.3   1 <1>   0.3430 
 10 C        1.4220    -5.2480     0.1810 C.3   1 <1>   0.3430 
 11 C        5.1310     1.5440    -0.8280 C.ar  1 <1>  -0.1500 
 12 C        6.4720    -0.2010     0.1170 C.ar  1 <1>  -0.1500 
 13 N       -0.0360    -4.9610     0.2170 N.4   1 <1>  -0.9060 
 14 C        6.1950     2.4200    -0.7130 C.ar  1 <1>  -0.1500 
 15 C        7.5380     0.6750     0.2320 C.ar  1 <1>  -0.1500 
 16 C        7.4030     1.9960    -0.1860 C.ar  1 <1>   0.0820 
 17 O        8.3950     2.9180    -0.1090 O.3   1 <1>  -0.3630 
 18 C        9.6620     2.5910     0.4170 C.3   1 <1>   0.0400 
 19 H        3.7830    -0.1230     1.4430 H     1 <1>   0.3700 
 20 H        2.2470    -2.6660    -0.6430 H     1 <1>   0.0800 
 21 H        3.4060    -0.3860    -1.2830 H     1 <1>   0.0800 
 22 H        4.4610    -1.7100    -0.8250 H     1 <1>   0.0800 
 23 H        0.1120    -1.6110    -0.2510 H     1 <1>   0.0800 
 24 H       -0.0940    -2.4320     1.2570 H     1 <1>   0.0800 
 25 H        1.9270    -4.1780     1.9580 H     1 <1>   0.0800 
 26 H        3.2320    -4.3120     0.8300 H     1 <1>   0.0800 
 27 H       -0.0800    -3.7080    -1.4830 H     1 <1>   0.0800 
 28 H       -1.4550    -3.5240    -0.4160 H     1 <1>   0.0800 
 29 H        1.6270    -6.1940     0.6580 H     1 <1>   0.0800 
 30 H        1.7590    -5.3040    -0.8420 H     1 <1>   0.0800 
 31 H        4.2010     1.8990    -1.2370 H     1 <1>   0.1500 
 32 H        6.5890    -1.2180     0.4480 H     1 <1>   0.1500 
 33 H       -0.5580    -5.7360    -0.2120 H     1 <1>   0.4500 
 34 H       -0.3330    -4.9090     1.2010 H     1 <1>   0.4500 
 35 H        6.0960     3.4420    -1.0320 H     1 <1>   0.1500 
 36 H        8.4590     0.3140     0.6480 H     1 <1>   0.1500 
 37 H       10.2760     3.4730     0.3800 H     1 <1>   0.0800 
 38 H       10.1000     1.8150    -0.1850 H     1 <1>   0.0800 
 39 H        9.5430     2.2710     1.4370 H     1 <1>   0.0800 
@<TRIPOS>BOND
  1   1   2  2   
  2   2   3  am  
  3   2   4  1   
  4   3   5  1   
  5   3  19  1   
  6   4   6  1   
  7   4   7  1   
  8   4  20  1   
  9   5   8  1   
 10   5  21  1   
 11   5  22  1   
 12   6   9  1   
 13   6  23  1   
 14   6  24  1   
 15   7  10  1   
 16   7  25  1   
 17   7  26  1   
 18   8  11  ar  
 19   8  12  ar  
 20   9  13  1   
 21   9  27  1   
 22   9  28  1   
 23  10  13  1   
 24  10  29  1   
 25  10  30  1   
 26  11  14  ar  
 27  11  31  1   
 28  12  15  ar  
 29  12  32  1   
 30  13  33  1   
 31  13  34  1   
 32  14  16  ar  
 33  14  35  1   
 34  15  16  ar  
 35  15  36  1   
 36  16  17  1   
 37  17  18  1   
 38  18  37  1   
 39  18  38  1   
 40  18  39  1   
@<TRIPOS>SUBSTRUCTURE
  1 ****   5 GROUP 4 **** **** 0

# MOE 2024.06 (io_trps.svl 2023.06)
