@<TRIPOS>MOLECULE
NONAME
43 44 1 0 0 
SMALL
USER_CHARGES


@<TRIPOS>ATOM
  1 CL       1.3430    -0.6090     0.8040 Cl    1 <1>  -0.1770 
  2 C        2.8940    -0.2430     0.0950 C.ar  1 <1>   0.1770 
  3 C        3.1880     1.0580    -0.2620 C.ar  1 <1>  -0.1500 
  4 C        3.8090    -1.2590    -0.1000 C.ar  1 <1>  -0.1500 
  5 C        4.4230     1.3420    -0.8230 C.ar  1 <1>  -0.1500 
  6 C        5.0390    -0.9610    -0.6620 C.ar  1 <1>  -0.1500 
  7 C        5.3690     0.3410    -1.0310 C.ar  1 <1>  -0.0090 
  8 S        6.9920     0.7130    -1.7550 S.o2  1 <1>   1.4470 
  9 O        7.1800     2.1420    -1.8600 O.2   1 <1>  -0.6500 
 10 O        7.2190    -0.1290    -2.9050 O.2   1 <1>  -0.6500 
 11 N        8.0560     0.1610    -0.5830 N.am  1 <1>  -0.9140 
 12 C        8.2380     1.0520     0.5660 C.3   1 <1>   0.1960 
 13 C        9.4880     0.6620     1.3900 C.3   1 <1>   0.2800 
 14 O       10.5430     0.6050     0.4680 O.3   1 <1>  -0.5600 
 15 C        9.7710     1.7430     2.4430 C.3   1 <1>  -0.2400 
 16 C        9.2890    -0.7130     2.0480 C.3   1 <1>  -0.2400 
 17 C       11.8350     0.2770     0.8950 C.3   1 <1>   0.2630 
 18 C       12.7610     0.2670    -0.3120 C.ar  1 <1>  -0.1430 
 19 C       13.6180    -0.8020    -0.5290 C.ar  1 <1>  -0.1500 
 20 C       12.7650     1.3290    -1.2040 C.ar  1 <1>  -0.1500 
 21 C       14.4690    -0.8070    -1.6210 C.ar  1 <1>  -0.1500 
 22 C       13.6150     1.3260    -2.2960 C.ar  1 <1>  -0.1500 
 23 C       14.4690     0.2570    -2.5050 C.ar  1 <1>  -0.1500 
 24 H        2.4600     1.8330    -0.1040 H     1 <1>   0.1500 
 25 H        3.5590    -2.2670     0.1830 H     1 <1>   0.1500 
 26 H        4.6550     2.3570    -1.1050 H     1 <1>   0.1500 
 27 H        5.7600    -1.7470    -0.8180 H     1 <1>   0.1500 
 28 H        8.9700     0.1380    -1.0450 H     1 <1>   0.4200 
 29 H        7.3600     1.0260     1.1880 H     1 <1>   0.0800 
 30 H        8.3760     2.0660     0.2290 H     1 <1>   0.0800 
 31 H       10.5730     1.4540     3.0950 H     1 <1>   0.0800 
 32 H        8.8980     1.8950     3.0530 H     1 <1>   0.0800 
 33 H       10.0170     2.6740     1.9640 H     1 <1>   0.0800 
 34 H       10.0900    -0.9480     2.7220 H     1 <1>   0.0800 
 35 H        9.2170    -1.4790     1.2950 H     1 <1>   0.0800 
 36 H        8.3760    -0.7170     2.6150 H     1 <1>   0.0800 
 37 H       11.8210    -0.6940     1.3550 H     1 <1>   0.0800 
 38 H       12.1760     1.0140     1.5990 H     1 <1>   0.0800 
 39 H       13.6280    -1.6370     0.1490 H     1 <1>   0.1500 
 40 H       12.0990     2.1600    -1.0490 H     1 <1>   0.1500 
 41 H       15.1320    -1.6400    -1.7840 H     1 <1>   0.1500 
 42 H       13.6090     2.1530    -2.9830 H     1 <1>   0.1500 
 43 H       15.1290     0.2540    -3.3540 H     1 <1>   0.1500 
@<TRIPOS>BOND
  1   1   2  1   
  2   2   3  ar  
  3   2   4  ar  
  4   3   5  ar  
  5   3  24  1   
  6   4   6  ar  
  7   4  25  1   
  8   5   7  ar  
  9   5  26  1   
 10   6   7  ar  
 11   6  27  1   
 12   7   8  1   
 13   8   9  2   
 14   8  10  2   
 15   8  11  am  
 16  11  12  1   
 17  11  28  1   
 18  12  13  1   
 19  12  29  1   
 20  12  30  1   
 21  13  14  1   
 22  13  15  1   
 23  13  16  1   
 24  14  17  1   
 25  15  31  1   
 26  15  32  1   
 27  15  33  1   
 28  16  34  1   
 29  16  35  1   
 30  16  36  1   
 31  17  18  1   
 32  17  37  1   
 33  17  38  1   
 34  18  19  ar  
 35  18  20  ar  
 36  19  21  ar  
 37  19  39  1   
 38  20  22  ar  
 39  20  40  1   
 40  21  23  ar  
 41  21  41  1   
 42  22  23  ar  
 43  22  42  1   
 44  23  43  1   
@<TRIPOS>SUBSTRUCTURE
  1 ****  11 GROUP 4 **** **** 0

# MOE 2024.06 (io_trps.svl 2023.06)
