@<TRIPOS>MOLECULE
NONAME
49 50 1 0 0 
SMALL
USER_CHARGES


@<TRIPOS>ATOM
  1 S        0.8700     0.2710    -0.1040 S.o2  1 <1>   1.3330 
  2 O        0.9060    -0.7020     0.9590 O.2   1 <1>  -0.6500 
  3 O        2.0920     0.8550    -0.6020 O.2   1 <1>  -0.6500 
  4 N       -0.0520     1.6070     0.4830 N.am  1 <1>  -0.6930 
  5 C       -0.0750    -0.3610    -1.4760 C.3   1 <1>  -0.1350 
  6 C       -1.3930     1.7790     0.1400 C.ar  1 <1>   0.1990 
  7 C        0.4480     2.2500     1.7410 C.3   1 <1>   0.2570 
  8 C       -1.7310     2.7100    -0.8470 C.ar  1 <1>  -0.1440 
  9 C       -2.4070     1.0260     0.7480 C.ar  1 <1>  -0.1440 
 10 C        1.4250     3.4160     1.5550 C.2   1 <1>   0.5690 
 11 C       -3.0540     2.8810    -1.2140 C.ar  1 <1>  -0.1500 
 12 C       -0.6690     3.5610    -1.5370 C.3   1 <1>  -0.0970 
 13 C       -3.7230     1.2120     0.3630 C.ar  1 <1>  -0.1500 
 14 C       -2.1230    -0.0150     1.8270 C.3   1 <1>  -0.0960 
 15 O        1.4800     4.2380     2.4390 O.2   1 <1>  -0.5700 
 16 N        2.2070     3.4720     0.4330 N.am  1 <1>  -0.5470 
 17 C       -4.0490     2.1340    -0.6130 C.ar  1 <1>  -0.1500 
 18 C        3.2530     4.3360     0.0790 C.ar  1 <1>   0.1170 
 19 C        3.1700     5.7330     0.0840 C.ar  1 <1>  -0.1440 
 20 C        4.4390     3.7380    -0.3320 C.ar  1 <1>  -0.1500 
 21 C        4.2730     6.4820    -0.2940 C.ar  1 <1>  -0.1500 
 22 C        1.9080     6.4880     0.4810 C.3   1 <1>  -0.0970 
 23 C        5.5350     4.4890    -0.7160 C.ar  1 <1>  -0.1440 
 24 C        5.4480     5.8680    -0.6910 C.ar  1 <1>  -0.1500 
 25 C        6.8230     3.8160    -1.1540 C.3   1 <1>  -0.0970 
 26 H        0.4460    -1.1790    -1.9340 H     1 <1>   0.0800 
 27 H       -0.2230     0.4050    -2.2110 H     1 <1>   0.0800 
 28 H       -1.0320    -0.7100    -1.1430 H     1 <1>   0.0800 
 29 H        0.9300     1.5090     2.3530 H     1 <1>   0.0800 
 30 H       -0.3930     2.6240     2.2970 H     1 <1>   0.0800 
 31 H       -3.3240     3.5980    -1.9700 H     1 <1>   0.1500 
 32 H       -0.2780     4.2810    -0.8430 H     1 <1>   0.0800 
 33 H       -1.0800     4.0910    -2.3770 H     1 <1>   0.0800 
 34 H        0.1400     2.9490    -1.8910 H     1 <1>   0.0800 
 35 H       -4.5120     0.6390     0.8200 H     1 <1>   0.1500 
 36 H       -1.4060     0.3480     2.5390 H     1 <1>   0.0800 
 37 H       -1.7400    -0.9150     1.3810 H     1 <1>   0.0800 
 38 H       -3.0200    -0.2630     2.3660 H     1 <1>   0.0800 
 39 H        2.1730     2.6160    -0.1370 H     1 <1>   0.3700 
 40 H       -5.0770     2.2720    -0.9040 H     1 <1>   0.1500 
 41 H        4.4970     2.6640    -0.3450 H     1 <1>   0.1500 
 42 H        4.2240     7.5560    -0.2830 H     1 <1>   0.1500 
 43 H        1.0290     5.9310     0.2200 H     1 <1>   0.0800 
 44 H        1.8600     7.4380    -0.0190 H     1 <1>   0.0800 
 45 H        1.9090     6.6580     1.5420 H     1 <1>   0.0800 
 46 H        6.2920     6.4700    -0.9790 H     1 <1>   0.1500 
 47 H        6.6640     2.7690    -1.3390 H     1 <1>   0.0800 
 48 H        7.5680     3.9220    -0.3860 H     1 <1>   0.0800 
 49 H        7.1870     4.2700    -2.0580 H     1 <1>   0.0800 
@<TRIPOS>BOND
  1   1   2  2   
  2   1   3  2   
  3   1   4  am  
  4   1   5  1   
  5   4   6  1   
  6   4   7  1   
  7   5  26  1   
  8   5  27  1   
  9   5  28  1   
 10   6   8  ar  
 11   6   9  ar  
 12   7  10  1   
 13   7  29  1   
 14   7  30  1   
 15   8  11  ar  
 16   8  12  1   
 17   9  13  ar  
 18   9  14  1   
 19  10  15  2   
 20  10  16  am  
 21  11  17  ar  
 22  11  31  1   
 23  12  32  1   
 24  12  33  1   
 25  12  34  1   
 26  13  17  ar  
 27  13  35  1   
 28  14  36  1   
 29  14  37  1   
 30  14  38  1   
 31  16  18  1   
 32  16  39  1   
 33  17  40  1   
 34  18  19  ar  
 35  18  20  ar  
 36  19  21  ar  
 37  19  22  1   
 38  20  23  ar  
 39  20  41  1   
 40  21  24  ar  
 41  21  42  1   
 42  22  43  1   
 43  22  44  1   
 44  22  45  1   
 45  23  24  ar  
 46  23  25  1   
 47  24  46  1   
 48  25  47  1   
 49  25  48  1   
 50  25  49  1   
@<TRIPOS>SUBSTRUCTURE
  1 ****  16 GROUP 4 **** **** 0

# MOE 2024.06 (io_trps.svl 2023.06)
