@<TRIPOS>MOLECULE
NONAME
47 48 1 0 0 
SMALL
USER_CHARGES


@<TRIPOS>ATOM
  1 F       -0.5130    -0.2570     0.7980 F     1 <1>  -0.1900 
  2 C       -1.6280    -0.6500     0.2460 C.ar  1 <1>   0.1900 
  3 C       -2.3930     0.2720    -0.4410 C.ar  1 <1>  -0.1500 
  4 C       -2.0020    -1.9730     0.3670 C.ar  1 <1>  -0.1500 
  5 C       -3.5770    -0.1480    -1.0230 C.ar  1 <1>  -0.1500 
  6 C       -3.1880    -2.3850    -0.2180 C.ar  1 <1>  -0.1500 
  7 C       -3.9820    -1.4750    -0.9090 C.ar  1 <1>  -0.1430 
  8 C       -5.2880    -1.9250    -1.5390 C.3   1 <1>   0.4870 
  9 N       -6.3070    -2.1030    -0.4680 N.4   1 <1>  -0.9590 
 10 C       -7.5410    -2.7490    -1.0210 C.3   1 <1>   0.3430 
 11 C       -6.6130    -0.8110     0.2160 C.3   1 <1>   0.3430 
 12 C       -8.5900    -3.0080     0.0690 C.3   1 <1>  -0.0190 
 13 C       -7.6140    -1.0490     1.3490 C.3   1 <1>  -0.1600 
 14 C       -9.8410    -3.5680    -0.5990 C.2   1 <1>   0.5690 
 15 C       -8.9020    -1.7100     0.8400 C.3   1 <1>  -0.1600 
 16 O      -10.0420    -3.2150    -1.7390 O.2   1 <1>  -0.5700 
 17 N      -10.6900    -4.4270     0.0540 N.am  1 <1>  -0.6600 
 18 C      -10.5340    -4.8940     1.4590 C.3   1 <1>   0.1400 
 19 C      -11.9090    -4.9370    -0.6340 C.3   1 <1>   0.1400 
 20 C       -9.7860    -6.2250     1.4750 C.3   1 <1>  -0.2400 
 21 C      -13.0870    -4.0130    -0.3400 C.3   1 <1>  -0.2400 
 22 H       -2.0600     1.2930    -0.5160 H     1 <1>   0.1500 
 23 H       -1.3710    -2.6590     0.9060 H     1 <1>   0.1500 
 24 H       -4.1710     0.5700    -1.5650 H     1 <1>   0.1500 
 25 H       -3.4740    -3.4200    -0.1300 H     1 <1>   0.1500 
 26 H       -5.1280    -2.8570    -2.0570 H     1 <1>   0.0800 
 27 H       -5.6250    -1.1930    -2.2550 H     1 <1>   0.0800 
 28 H       -5.8910    -2.7240     0.2360 H     1 <1>   0.4500 
 29 H       -7.2940    -3.6850    -1.4970 H     1 <1>   0.0800 
 30 H       -7.9780    -2.1060    -1.7700 H     1 <1>   0.0800 
 31 H       -7.0330    -0.1140    -0.4910 H     1 <1>   0.0800 
 32 H       -5.7100    -0.3820     0.6220 H     1 <1>   0.0800 
 33 H       -8.1900    -3.7450     0.7390 H     1 <1>   0.0800 
 34 H       -7.8570    -0.1030     1.8020 H     1 <1>   0.0800 
 35 H       -7.1570    -1.6590     2.1090 H     1 <1>   0.0800 
 36 H       -9.5580    -1.9190     1.6690 H     1 <1>   0.0800 
 37 H       -9.4200    -1.0260     0.1870 H     1 <1>   0.0800 
 38 H      -11.5060    -5.0210     1.9080 H     1 <1>   0.0800 
 39 H      -10.0040    -4.1660     2.0460 H     1 <1>   0.0800 
 40 H      -12.1300    -5.9370    -0.3000 H     1 <1>   0.0800 
 41 H      -11.7420    -4.9780    -1.6980 H     1 <1>   0.0800 
 42 H      -10.3410    -6.9750     0.9400 H     1 <1>   0.0800 
 43 H       -9.6650    -6.5590     2.4900 H     1 <1>   0.0800 
 44 H       -8.8130    -6.1240     1.0310 H     1 <1>   0.0800 
 45 H      -13.2960    -3.9800     0.7140 H     1 <1>   0.0800 
 46 H      -13.9630    -4.3730    -0.8490 H     1 <1>   0.0800 
 47 H      -12.8750    -3.0200    -0.6950 H     1 <1>   0.0800 
@<TRIPOS>BOND
  1   1   2  1   
  2   2   3  ar  
  3   2   4  ar  
  4   3   5  ar  
  5   3  22  1   
  6   4   6  ar  
  7   4  23  1   
  8   5   7  ar  
  9   5  24  1   
 10   6   7  ar  
 11   6  25  1   
 12   7   8  1   
 13   8   9  1   
 14   8  26  1   
 15   8  27  1   
 16   9  10  1   
 17   9  11  1   
 18   9  28  1   
 19  10  12  1   
 20  10  29  1   
 21  10  30  1   
 22  11  13  1   
 23  11  31  1   
 24  11  32  1   
 25  12  14  1   
 26  12  15  1   
 27  12  33  1   
 28  13  15  1   
 29  13  34  1   
 30  13  35  1   
 31  14  16  2   
 32  14  17  am  
 33  15  36  1   
 34  15  37  1   
 35  17  18  1   
 36  17  19  1   
 37  18  20  1   
 38  18  38  1   
 39  18  39  1   
 40  19  21  1   
 41  19  40  1   
 42  19  41  1   
 43  20  42  1   
 44  20  43  1   
 45  20  44  1   
 46  21  45  1   
 47  21  46  1   
 48  21  47  1   
@<TRIPOS>SUBSTRUCTURE
  1 ****   9 GROUP 4 **** **** 0

# MOE 2024.06 (io_trps.svl 2023.06)
