@<TRIPOS>MOLECULE
NONAME
25 25 1 0 0 
SMALL
USER_CHARGES


@<TRIPOS>ATOM
  1 CL       0.8300    -0.8620     2.3070 Cl    1 <1>  -0.1770 
  2 C        2.0170    -1.3100     1.1040 C.ar  1 <1>   0.1770 
  3 C        1.8660    -2.4630     0.3530 C.ar  1 <1>   0.1770 
  4 C        3.1130    -0.4880     0.9130 C.ar  1 <1>  -0.1500 
  5 CL       0.4840    -3.5090     0.5820 Cl    1 <1>  -0.1770 
  6 C        2.8130    -2.8040    -0.5950 C.ar  1 <1>  -0.1500 
  7 C        4.0730    -0.8190    -0.0390 C.ar  1 <1>  -0.1440 
  8 C        3.9120    -1.9810    -0.7870 C.ar  1 <1>  -0.1500 
  9 C        5.2940     0.0660    -0.2710 C.3   1 <1>   0.3640 
 10 N        6.0650     0.1380     0.9730 N.am  1 <1>  -0.7300 
 11 C        4.8960     1.4800    -0.6850 C.3   1 <1>  -0.2400 
 12 C        7.4010     0.1150     1.1510 C.2   1 <1>   0.5690 
 13 O        7.8580     0.1130     2.2630 O.2   1 <1>  -0.5700 
 14 C        8.3440     0.0910    -0.0270 C.3   1 <1>  -0.1790 
 15 H        3.2050     0.4010     1.5110 H     1 <1>   0.1500 
 16 H        2.6880    -3.7030    -1.1730 H     1 <1>   0.1500 
 17 H        4.6460    -2.2570    -1.5260 H     1 <1>   0.1500 
 18 H        5.9030    -0.3650    -1.0470 H     1 <1>   0.0800 
 19 H        5.5080     0.1200     1.8280 H     1 <1>   0.3700 
 20 H        4.3300     1.9650     0.0890 H     1 <1>   0.0800 
 21 H        4.2950     1.4410    -1.5750 H     1 <1>   0.0800 
 22 H        5.7740     2.0640    -0.8940 H     1 <1>   0.0800 
 23 H        8.1280     0.9060    -0.6900 H     1 <1>   0.0800 
 24 H        8.2480    -0.8420    -0.5500 H     1 <1>   0.0800 
 25 H        9.3560     0.1890     0.3210 H     1 <1>   0.0800 
@<TRIPOS>BOND
  1   1   2  1   
  2   2   3  ar  
  3   2   4  ar  
  4   3   5  1   
  5   3   6  ar  
  6   4   7  ar  
  7   4  15  1   
  8   6   8  ar  
  9   6  16  1   
 10   7   8  ar  
 11   7   9  1   
 12   8  17  1   
 13   9  10  1   
 14   9  11  1   
 15   9  18  1   
 16  10  12  am  
 17  10  19  1   
 18  11  20  1   
 19  11  21  1   
 20  11  22  1   
 21  12  13  2   
 22  12  14  1   
 23  14  23  1   
 24  14  24  1   
 25  14  25  1   
@<TRIPOS>SUBSTRUCTURE
  1 ****   7 GROUP 4 **** **** 0

# MOE 2024.06 (io_trps.svl 2023.06)
