@<TRIPOS>MOLECULE
NONAME
50 51 1 0 0 
SMALL
USER_CHARGES


@<TRIPOS>ATOM
  1 CL       0.1870    -0.4260     0.4820 Cl    1 <1>  -0.1770 
  2 C        1.9140    -0.1760     0.2950 C.ar  1 <1>   0.1770 
  3 C        2.3970     1.1160     0.1300 C.ar  1 <1>  -0.1440 
  4 C        2.7620    -1.2750     0.3180 C.ar  1 <1>  -0.1440 
  5 C        3.7630     1.3050    -0.0170 C.ar  1 <1>  -0.1500 
  6 C        1.4520     2.3090     0.1090 C.3   1 <1>  -0.0960 
  7 C        4.1230    -1.0640     0.1690 C.ar  1 <1>  -0.1500 
  8 C        2.2230    -2.6860     0.5000 C.3   1 <1>  -0.0960 
  9 C        4.6300     0.2150     0.0010 C.ar  1 <1>   0.0830 
 10 O        5.9750     0.3200    -0.1380 O.3   1 <1>  -0.3630 
 11 C        6.5970     1.5670    -0.3840 C.3   1 <1>   0.1200 
 12 C        8.1100     1.3560    -0.5110 C.3   1 <1>   0.2000 
 13 O        8.5540     0.6700     0.6150 O.3   1 <1>  -0.6800 
 14 C        8.8690     2.6960    -0.6780 C.3   1 <1>   0.1100 
 15 N       10.3350     2.6010    -0.4890 N.3   1 <1>  -0.8100 
 16 C       11.0170     1.6720    -1.4220 C.3   1 <1>   0.1100 
 17 C       11.0090     3.9160    -0.4480 C.3   1 <1>   0.1100 
 18 C       12.5320     1.5590    -1.1180 C.3   1 <1>   0.3430 
 19 C       12.5020     3.7770    -0.0540 C.3   1 <1>   0.3430 
 20 N       12.8830     2.3330     0.1160 N.4   1 <1>  -0.9590 
 21 C       14.2650     2.0890     0.5920 C.3   1 <1>   0.3430 
 22 C       14.4110     2.5850     2.0250 C.3   1 <1>  -0.2400 
 23 H        4.1350     2.3030    -0.1430 H     1 <1>   0.1500 
 24 H        0.9100     2.3640     1.0370 H     1 <1>   0.0800 
 25 H        0.7480     2.2060    -0.6970 H     1 <1>   0.0800 
 26 H        1.9900     3.2300    -0.0250 H     1 <1>   0.0800 
 27 H        4.8090    -1.8920     0.1810 H     1 <1>   0.1500 
 28 H        1.7030    -2.7620     1.4390 H     1 <1>   0.0800 
 29 H        3.0190    -3.4090     0.4930 H     1 <1>   0.0800 
 30 H        1.5390    -2.9240    -0.2950 H     1 <1>   0.0800 
 31 H        6.3800     2.2250     0.4400 H     1 <1>   0.0800 
 32 H        6.1960     1.9730    -1.2950 H     1 <1>   0.0800 
 33 H        8.2950     0.7320    -1.3670 H     1 <1>   0.0800 
 34 H        7.8880    -0.0150     0.8370 H     1 <1>   0.4000 
 35 H        8.4780     3.3860     0.0500 H     1 <1>   0.0800 
 36 H        8.6560     3.1000    -1.6530 H     1 <1>   0.0800 
 37 H       10.8760     1.9970    -2.4380 H     1 <1>   0.0800 
 38 H       10.5860     0.6900    -1.3280 H     1 <1>   0.0800 
 39 H       10.5200     4.5470     0.2740 H     1 <1>   0.0800 
 40 H       10.9330     4.3980    -1.4080 H     1 <1>   0.0800 
 41 H       13.0940     1.9300    -1.9590 H     1 <1>   0.0800 
 42 H       12.7820     0.5190    -0.9860 H     1 <1>   0.0800 
 43 H       12.6630     4.3090     0.8690 H     1 <1>   0.0800 
 44 H       13.1160     4.2370    -0.8100 H     1 <1>   0.0800 
 45 H       12.1980     1.9850     0.8090 H     1 <1>   0.4500 
 46 H       14.9740     2.5880    -0.0490 H     1 <1>   0.0800 
 47 H       14.4720     1.0310     0.5670 H     1 <1>   0.0800 
 48 H       14.3160     3.6540     2.0830 H     1 <1>   0.0800 
 49 H       15.3880     2.3240     2.3900 H     1 <1>   0.0800 
 50 H       13.6820     2.1200     2.6650 H     1 <1>   0.0800 
@<TRIPOS>BOND
  1   1   2  1   
  2   2   3  ar  
  3   2   4  ar  
  4   3   5  ar  
  5   3   6  1   
  6   4   7  ar  
  7   4   8  1   
  8   5   9  ar  
  9   5  23  1   
 10   6  24  1   
 11   6  25  1   
 12   6  26  1   
 13   7   9  ar  
 14   7  27  1   
 15   8  28  1   
 16   8  29  1   
 17   8  30  1   
 18   9  10  1   
 19  10  11  1   
 20  11  12  1   
 21  11  31  1   
 22  11  32  1   
 23  12  13  1   
 24  12  14  1   
 25  12  33  1   
 26  13  34  1   
 27  14  15  1   
 28  14  35  1   
 29  14  36  1   
 30  15  16  1   
 31  15  17  1   
 32  16  18  1   
 33  16  37  1   
 34  16  38  1   
 35  17  19  1   
 36  17  39  1   
 37  17  40  1   
 38  18  20  1   
 39  18  41  1   
 40  18  42  1   
 41  19  20  1   
 42  19  43  1   
 43  19  44  1   
 44  20  21  1   
 45  20  45  1   
 46  21  22  1   
 47  21  46  1   
 48  21  47  1   
 49  22  48  1   
 50  22  49  1   
 51  22  50  1   
@<TRIPOS>SUBSTRUCTURE
  1 ****  11 GROUP 4 **** **** 0

# MOE 2024.06 (io_trps.svl 2023.06)
