@<TRIPOS>MOLECULE
NONAME
31 32 1 0 0 
SMALL
USER_CHARGES


@<TRIPOS>ATOM
  1 O       -0.4410    -0.2090    -0.2480 O.3   1 <1>  -0.5600 
  2 C       -1.1630     0.1000     0.9000 C.3   1 <1>   0.1200 
  3 C       -0.3170    -1.5670    -0.5210 C.3   1 <1>   0.1200 
  4 C       -2.6040    -0.3870     0.7140 C.3   1 <1>  -0.1600 
  5 C       -1.7100    -2.1630    -0.7630 C.3   1 <1>  -0.1600 
  6 C       -2.6800    -1.9040     0.4160 C.3   1 <1>   0.3440 
  7 C       -2.1740    -2.6250     1.6370 C.1   1 <1>   0.3570 
  8 C       -4.0760    -2.5020     0.0630 C.ar  1 <1>  -0.1440 
  9 N       -1.7460    -3.1660     2.5440 N.1   1 <1>  -0.5570 
 10 C       -5.2890    -1.7990    -0.0330 C.ar  1 <1>   0.0820 
 11 C       -4.1160    -3.8780    -0.1710 C.ar  1 <1>  -0.1500 
 12 O       -5.3200    -0.4650     0.2170 O.3   1 <1>  -0.3630 
 13 C       -6.4640    -2.4720    -0.3750 C.ar  1 <1>  -0.1500 
 14 C       -5.2830    -4.5360    -0.5050 C.ar  1 <1>  -0.1500 
 15 C       -6.4990     0.3090     0.1570 C.3   1 <1>   0.0400 
 16 C       -6.4620    -3.8310    -0.6110 C.ar  1 <1>  -0.1500 
 17 H       -1.1420     1.1700     1.0200 H     1 <1>   0.0800 
 18 H       -0.6810    -0.3540     1.7500 H     1 <1>   0.0800 
 19 H        0.1870    -2.0410     0.3050 H     1 <1>   0.0800 
 20 H        0.2930    -1.6680    -1.4020 H     1 <1>   0.0800 
 21 H       -3.0120     0.1670    -0.1120 H     1 <1>   0.0800 
 22 H       -3.1740    -0.1540     1.5950 H     1 <1>   0.0800 
 23 H       -1.5950    -3.2150    -0.9420 H     1 <1>   0.0800 
 24 H       -2.1180    -1.7270    -1.6580 H     1 <1>   0.0800 
 25 H       -3.2260    -4.4780    -0.0900 H     1 <1>   0.1500 
 26 H       -7.4010    -1.9590    -0.4620 H     1 <1>   0.1500 
 27 H       -5.2740    -5.5990    -0.6790 H     1 <1>   0.1500 
 28 H       -6.2440     1.3240     0.4020 H     1 <1>   0.0800 
 29 H       -7.2050    -0.0720     0.8740 H     1 <1>   0.0800 
 30 H       -6.8970     0.2650    -0.8410 H     1 <1>   0.0800 
 31 H       -7.3740    -4.3390    -0.8730 H     1 <1>   0.1500 
@<TRIPOS>BOND
  1   1   2  1   
  2   1   3  1   
  3   2   4  1   
  4   2  17  1   
  5   2  18  1   
  6   3   5  1   
  7   3  19  1   
  8   3  20  1   
  9   4   6  1   
 10   4  21  1   
 11   4  22  1   
 12   5   6  1   
 13   5  23  1   
 14   5  24  1   
 15   6   7  1   
 16   6   8  1   
 17   7   9  3   
 18   8  10  ar  
 19   8  11  ar  
 20  10  12  1   
 21  10  13  ar  
 22  11  14  ar  
 23  11  25  1   
 24  12  15  1   
 25  13  16  ar  
 26  13  26  1   
 27  14  16  ar  
 28  14  27  1   
 29  15  28  1   
 30  15  29  1   
 31  15  30  1   
 32  16  31  1   
@<TRIPOS>SUBSTRUCTURE
  1 ****   8 GROUP 4 **** **** 0

# MOE 2024.06 (io_trps.svl 2023.06)
