@<TRIPOS>MOLECULE
NONAME
42 43 1 0 0 
SMALL
USER_CHARGES


@<TRIPOS>ATOM
  1 CL       2.9430     0.0380    -2.9820 Cl    1 <1>  -0.1770 
  2 C        3.0720    -0.4570    -1.3060 C.ar  1 <1>   0.1770 
  3 C        2.5490     0.3700    -0.3140 C.ar  1 <1>   0.1170 
  4 C        3.6940    -1.6560    -1.0160 C.ar  1 <1>  -0.1500 
  5 N        1.9230     1.5780    -0.6830 N.am  1 <1>  -0.5470 
  6 C        2.6640    -0.0610     1.0060 C.ar  1 <1>  -0.1500 
  7 C        3.8020    -2.0600     0.3040 C.ar  1 <1>  -0.1500 
  8 C        1.6950     2.7210     0.0260 C.2   1 <1>   0.5690 
  9 C        3.2860    -1.2600     1.3100 C.ar  1 <1>  -0.1500 
 10 O        2.0080     2.8700     1.1810 O.2   1 <1>  -0.5700 
 11 C        1.0570     3.8870    -0.6940 C.3   1 <1>  -0.0990 
 12 C        1.3240     5.2260     0.0050 C.3   1 <1>   0.3430 
 13 N        2.6850     5.7830    -0.2830 N.4   1 <1>  -0.9590 
 14 C        3.8160     5.0480     0.3850 C.3   1 <1>   0.3430 
 15 C        2.7740     7.2390     0.0950 C.3   1 <1>   0.3430 
 16 C        5.1900     5.6000    -0.0760 C.3   1 <1>   0.2000 
 17 C        4.2240     7.7930     0.0460 C.3   1 <1>   0.2000 
 18 O        5.0750     6.8940    -0.6120 O.3   1 <1>  -0.5600 
 19 C        5.7970     4.7380    -1.1820 C.3   1 <1>  -0.2400 
 20 C        4.7970     8.1270     1.4290 C.3   1 <1>  -0.2400 
 21 H        4.0870    -2.2650    -1.8110 H     1 <1>   0.1500 
 22 H        1.6520     1.5930    -1.6690 H     1 <1>   0.3700 
 23 H        2.2640     0.5320     1.8080 H     1 <1>   0.1500 
 24 H        4.2840    -2.9920     0.5470 H     1 <1>   0.1500 
 25 H        3.3660    -1.5760     2.3370 H     1 <1>   0.1500 
 26 H       -0.0040     3.7140    -0.6880 H     1 <1>   0.0800 
 27 H        1.3790     3.9290    -1.7170 H     1 <1>   0.0800 
 28 H        1.1920     5.1090     1.0690 H     1 <1>   0.0800 
 29 H        0.5850     5.9310    -0.3390 H     1 <1>   0.0800 
 30 H        2.8930     5.7480    -1.2910 H     1 <1>   0.4500 
 31 H        3.7810     3.9960     0.1590 H     1 <1>   0.0800 
 32 H        3.7350     5.1470     1.4550 H     1 <1>   0.0800 
 33 H        2.3900     7.3830     1.0910 H     1 <1>   0.0800 
 34 H        2.1600     7.8230    -0.5700 H     1 <1>   0.0800 
 35 H        5.8710     5.6330     0.7570 H     1 <1>   0.0800 
 36 H        4.2240     8.6980    -0.5390 H     1 <1>   0.0800 
 37 H        5.1560     4.7110    -2.0440 H     1 <1>   0.0800 
 38 H        5.9480     3.7320    -0.8310 H     1 <1>   0.0800 
 39 H        6.7540     5.1380    -1.4690 H     1 <1>   0.0800 
 40 H        4.7550     7.2870     2.0980 H     1 <1>   0.0800 
 41 H        4.2370     8.9310     1.8710 H     1 <1>   0.0800 
 42 H        5.8180     8.4530     1.3300 H     1 <1>   0.0800 
@<TRIPOS>BOND
  1   1   2  1   
  2   2   3  ar  
  3   2   4  ar  
  4   3   5  1   
  5   3   6  ar  
  6   4   7  ar  
  7   4  21  1   
  8   5   8  am  
  9   5  22  1   
 10   6   9  ar  
 11   6  23  1   
 12   7   9  ar  
 13   7  24  1   
 14   8  10  2   
 15   8  11  1   
 16   9  25  1   
 17  11  12  1   
 18  11  26  1   
 19  11  27  1   
 20  12  13  1   
 21  12  28  1   
 22  12  29  1   
 23  13  14  1   
 24  13  15  1   
 25  13  30  1   
 26  14  16  1   
 27  14  31  1   
 28  14  32  1   
 29  15  17  1   
 30  15  33  1   
 31  15  34  1   
 32  16  18  1   
 33  16  19  1   
 34  16  35  1   
 35  17  18  1   
 36  17  20  1   
 37  17  36  1   
 38  19  37  1   
 39  19  38  1   
 40  19  39  1   
 41  20  40  1   
 42  20  41  1   
 43  20  42  1   
@<TRIPOS>SUBSTRUCTURE
  1 ****   8 GROUP 4 **** **** 0

# MOE 2024.06 (io_trps.svl 2023.06)
