@<TRIPOS>MOLECULE
NONAME
41 43 1 0 0 
SMALL
USER_CHARGES


@<TRIPOS>ATOM
  1 S        0.0310     1.1870    -1.5770 S.3   1 <1>  -0.0800 
  2 C       -1.2790     1.6070    -0.4630 C.2   1 <1>   0.4420 
  3 C        0.8890     0.4150    -0.2650 C.ar  1 <1>   0.0400 
  4 N       -1.0880     1.2150     0.7390 N.2   1 <1>  -0.5650 
  5 N       -2.3850     2.2960    -0.8950 N.am  1 <1>  -0.4940 
  6 C        0.1190     0.5450     0.8760 C.ar  1 <1>   0.2270 
  7 C        2.1140    -0.2240    -0.2950 C.ar  1 <1>  -0.1500 
  8 C       -2.7910     2.7240    -2.1270 C.2   1 <1>   0.5690 
  9 C        0.6080     0.0010     2.0560 C.ar  1 <1>  -0.1500 
 10 C        2.5850    -0.7610     0.8920 C.ar  1 <1>  -0.1500 
 11 O       -2.1590     2.5590    -3.1410 O.2   1 <1>  -0.5700 
 12 C       -4.1330     3.4540    -2.2220 C.3   1 <1>   0.2010 
 13 C        1.8340    -0.6480     2.0600 C.ar  1 <1>  -0.1500 
 14 N       -5.2840     2.6620    -1.6780 N.am  1 <1>  -0.7300 
 15 C       -5.5230     2.4890    -0.3540 C.2   1 <1>   0.5690 
 16 O       -4.7840     2.9760     0.4690 O.2   1 <1>  -0.5700 
 17 C       -6.7110     1.6340     0.0830 C.3   1 <1>  -0.0190 
 18 C       -7.5980     2.3690     1.1070 C.3   1 <1>  -0.1600 
 19 C       -6.2320     0.2840     0.6510 C.3   1 <1>  -0.1600 
 20 C       -8.7790     1.4970     1.5580 C.3   1 <1>  -0.1600 
 21 C       -7.4120    -0.5880     1.1050 C.3   1 <1>  -0.1600 
 22 C       -8.2920     0.1540     2.1190 C.3   1 <1>  -0.1600 
 23 H       -3.0570     2.4860    -0.1400 H     1 <1>   0.3700 
 24 H        2.6730    -0.2970    -1.2110 H     1 <1>   0.1500 
 25 H        0.0210     0.0930     2.9520 H     1 <1>   0.1500 
 26 H        3.5340    -1.2670     0.9140 H     1 <1>   0.1500 
 27 H       -4.3250     3.6950    -3.2520 H     1 <1>   0.0800 
 28 H       -4.0520     4.3770    -1.6760 H     1 <1>   0.0800 
 29 H        2.2110    -1.0690     2.9760 H     1 <1>   0.1500 
 30 H       -5.8550     2.1700    -2.3690 H     1 <1>   0.3700 
 31 H       -7.3130     1.4330    -0.7850 H     1 <1>   0.0800 
 32 H       -7.9690     3.2820     0.6740 H     1 <1>   0.0800 
 33 H       -7.0060     2.6320     1.9670 H     1 <1>   0.0800 
 34 H       -5.5830     0.4640     1.4920 H     1 <1>   0.0800 
 35 H       -5.6630    -0.2430    -0.0940 H     1 <1>   0.0800 
 36 H       -9.4340     1.3180     0.7220 H     1 <1>   0.0800 
 37 H       -9.3420     2.0180     2.3130 H     1 <1>   0.0800 
 38 H       -7.0390    -1.4950     1.5500 H     1 <1>   0.0800 
 39 H       -8.0070    -0.8620     0.2500 H     1 <1>   0.0800 
 40 H       -9.1390    -0.4570     2.3780 H     1 <1>   0.0800 
 41 H       -7.7260     0.3300     3.0180 H     1 <1>   0.0800 
@<TRIPOS>BOND
  1   1   2  1   
  2   1   3  1   
  3   2   4  2   
  4   2   5  1   
  5   3   6  ar  
  6   3   7  ar  
  7   4   6  1   
  8   5   8  am  
  9   5  23  1   
 10   6   9  ar  
 11   7  10  ar  
 12   7  24  1   
 13   8  11  2   
 14   8  12  1   
 15   9  13  ar  
 16   9  25  1   
 17  10  13  ar  
 18  10  26  1   
 19  12  14  1   
 20  12  27  1   
 21  12  28  1   
 22  13  29  1   
 23  14  15  am  
 24  14  30  1   
 25  15  16  2   
 26  15  17  1   
 27  17  18  1   
 28  17  19  1   
 29  17  31  1   
 30  18  20  1   
 31  18  32  1   
 32  18  33  1   
 33  19  21  1   
 34  19  34  1   
 35  19  35  1   
 36  20  22  1   
 37  20  36  1   
 38  20  37  1   
 39  21  22  1   
 40  21  38  1   
 41  21  39  1   
 42  22  40  1   
 43  22  41  1   
@<TRIPOS>SUBSTRUCTURE
  1 ****   5 GROUP 4 **** **** 0

# MOE 2024.06 (io_trps.svl 2023.06)
