@<TRIPOS>MOLECULE
NONAME
37 38 1 0 0 
SMALL
USER_CHARGES


@<TRIPOS>ATOM
  1 S       -0.7640    -0.1170    -0.2410 S.3   1 <1>  -0.0800 
  2 C        0.8040     0.2690    -0.8770 C.2   1 <1>   0.4420 
  3 C       -0.8490    -1.3850    -1.4160 C.2   1 <1>   0.1980 
  4 N        1.1390    -0.5060    -1.8410 N.2   1 <1>  -0.3380 
  5 N        1.5660     1.3040    -0.3790 N.am  1 <1>  -0.4940 
  6 N        0.1950    -1.4490    -2.1400 N.2   1 <1>  -0.3380 
  7 C       -2.0790    -2.2660    -1.4500 C.3   1 <1>   0.0810 
  8 C        1.3760     2.1450     0.6780 C.2   1 <1>   0.5690 
  9 C       -3.3460    -1.4490    -1.6160 C.2   1 <1>   0.5690 
 10 O        0.4390     2.0770     1.4300 O.2   1 <1>  -0.5700 
 11 C        2.4230     3.2170     0.9150 C.3   1 <1>  -0.0990 
 12 O       -3.6500    -1.1120    -2.7360 O.2   1 <1>  -0.5700 
 13 N       -4.1320    -1.1180    -0.5420 N.am  1 <1>  -0.6600 
 14 C        2.3470     4.3460    -0.1250 C.3   1 <1>  -0.1600 
 15 C       -5.3190    -0.2470    -0.6910 C.3   1 <1>   0.1400 
 16 C       -3.9110    -1.4650     0.8830 C.3   1 <1>   0.1400 
 17 C        3.4080     5.4190     0.1410 C.3   1 <1>  -0.2400 
 18 C       -5.6730     0.1770     0.7290 C.3   1 <1>  -0.1600 
 19 C       -5.1520    -0.9560     1.6070 C.3   1 <1>  -0.1600 
 20 H        2.4200     1.4490    -0.9100 H     1 <1>   0.3700 
 21 H       -2.1190    -2.8600    -0.5600 H     1 <1>   0.0800 
 22 H       -1.9990    -2.9360    -2.2860 H     1 <1>   0.0800 
 23 H        3.3980     2.7640     0.9000 H     1 <1>   0.0800 
 24 H        2.2700     3.6280     1.8980 H     1 <1>   0.0800 
 25 H        1.3690     4.7970    -0.0870 H     1 <1>   0.0800 
 26 H        2.4890     3.9480    -1.1150 H     1 <1>   0.0800 
 27 H       -6.1190    -0.8180    -1.1290 H     1 <1>   0.0800 
 28 H       -5.0970     0.6020    -1.3170 H     1 <1>   0.0800 
 29 H       -3.0390    -0.9500     1.2470 H     1 <1>   0.0800 
 30 H       -3.7960    -2.5270     1.0150 H     1 <1>   0.0800 
 31 H        3.2670     5.8550     1.1150 H     1 <1>   0.0800 
 32 H        3.3310     6.2020    -0.5940 H     1 <1>   0.0800 
 33 H        4.3960     4.9980     0.0890 H     1 <1>   0.0800 
 34 H       -6.7300     0.3380     0.8460 H     1 <1>   0.0800 
 35 H       -5.1510     1.0900     0.9600 H     1 <1>   0.0800 
 36 H       -4.9260    -0.6290     2.6070 H     1 <1>   0.0800 
 37 H       -5.8810    -1.7470     1.6530 H     1 <1>   0.0800 
@<TRIPOS>BOND
  1   1   2  1   
  2   1   3  1   
  3   2   4  2   
  4   2   5  1   
  5   3   6  2   
  6   3   7  1   
  7   4   6  1   
  8   5   8  am  
  9   5  20  1   
 10   7   9  1   
 11   7  21  1   
 12   7  22  1   
 13   8  10  2   
 14   8  11  1   
 15   9  12  2   
 16   9  13  am  
 17  11  14  1   
 18  11  23  1   
 19  11  24  1   
 20  13  15  1   
 21  13  16  1   
 22  14  17  1   
 23  14  25  1   
 24  14  26  1   
 25  15  18  1   
 26  15  27  1   
 27  15  28  1   
 28  16  19  1   
 29  16  29  1   
 30  16  30  1   
 31  17  31  1   
 32  17  32  1   
 33  17  33  1   
 34  18  19  1   
 35  18  34  1   
 36  18  35  1   
 37  19  36  1   
 38  19  37  1   
@<TRIPOS>SUBSTRUCTURE
  1 ****   1 GROUP 4 **** **** 0

# MOE 2024.06 (io_trps.svl 2023.06)
