@<TRIPOS>MOLECULE
NONAME
28 28 1 0 0 
SMALL
USER_CHARGES


@<TRIPOS>ATOM
  1 BR      -0.3160     0.6550     0.4600 Br    1 <1>  -0.1110 
  2 C        1.5270     1.1460     0.1880 C.ar  1 <1>   0.1110 
  3 C        1.8200     2.4320    -0.2210 C.ar  1 <1>  -0.1500 
  4 C        2.5070     0.1970     0.4080 C.ar  1 <1>  -0.1500 
  5 C        3.1470     2.7770    -0.4140 C.ar  1 <1>  -0.1500 
  6 C        3.8320     0.5510     0.2130 C.ar  1 <1>  -0.1500 
  7 C        4.1550     1.8460    -0.1980 C.ar  1 <1>   0.0830 
  8 O        5.4270     2.2730    -0.4070 O.3   1 <1>  -0.3630 
  9 C        6.5260     1.4110    -0.2250 C.3   1 <1>   0.1200 
 10 C        7.7980     2.2080    -0.5220 C.3   1 <1>  -0.1600 
 11 C        7.8030     3.5200     0.2660 C.3   1 <1>   0.3430 
 12 N        8.9670     4.3630    -0.1230 N.4   1 <1>  -0.9060 
 13 C       10.2820     3.8380     0.3550 C.3   1 <1>   0.2630 
 14 H        1.0290     3.1430    -0.3850 H     1 <1>   0.1500 
 15 H        2.2360    -0.7940     0.7250 H     1 <1>   0.1500 
 16 H        3.4020     3.7700    -0.7350 H     1 <1>   0.1500 
 17 H        4.5870    -0.1930     0.3840 H     1 <1>   0.1500 
 18 H        6.4260     0.5780    -0.9010 H     1 <1>   0.0800 
 19 H        6.5180     1.0620     0.7940 H     1 <1>   0.0800 
 20 H        7.8260     2.4080    -1.5780 H     1 <1>   0.0800 
 21 H        8.6460     1.6010    -0.2620 H     1 <1>   0.0800 
 22 H        7.8260     3.3150     1.3250 H     1 <1>   0.0800 
 23 H        6.8900     4.0550     0.0530 H     1 <1>   0.0800 
 24 H        8.8240     5.3110     0.2540 H     1 <1>   0.4500 
 25 H        8.9760     4.4630    -1.1470 H     1 <1>   0.4500 
 26 H       10.2810     3.7450     1.4300 H     1 <1>   0.0800 
 27 H       11.0780     4.5080     0.0700 H     1 <1>   0.0800 
 28 H       10.4810     2.8700    -0.0750 H     1 <1>   0.0800 
@<TRIPOS>BOND
  1   1   2  1   
  2   2   3  ar  
  3   2   4  ar  
  4   3   5  ar  
  5   3  14  1   
  6   4   6  ar  
  7   4  15  1   
  8   5   7  ar  
  9   5  16  1   
 10   6   7  ar  
 11   6  17  1   
 12   7   8  1   
 13   8   9  1   
 14   9  10  1   
 15   9  18  1   
 16   9  19  1   
 17  10  11  1   
 18  10  20  1   
 19  10  21  1   
 20  11  12  1   
 21  11  22  1   
 22  11  23  1   
 23  12  13  1   
 24  12  24  1   
 25  12  25  1   
 26  13  26  1   
 27  13  27  1   
 28  13  28  1   
@<TRIPOS>SUBSTRUCTURE
  1 ****   8 GROUP 4 **** **** 0

# MOE 2024.06 (io_trps.svl 2023.06)
