@<TRIPOS>MOLECULE
NONAME
33 33 1 0 0 
SMALL
USER_CHARGES


@<TRIPOS>ATOM
  1 F       -0.5610     0.4970    -1.0220 F     1 <1>  -0.3400 
  2 C        0.5400     0.7070    -0.3140 C.3   1 <1>   1.0200 
  3 F        1.3910    -0.2380    -0.6950 F     1 <1>  -0.3400 
  4 F        0.2370     0.4160     0.9450 F     1 <1>  -0.3400 
  5 C        1.1450     2.1090    -0.4790 C.3   1 <1>   0.2200 
  6 N        2.4890     2.2930     0.2440 N.am  1 <1>  -0.7300 
  7 C        0.0850     3.1520    -0.0960 C.3   1 <1>   1.0200 
  8 C        3.6300     2.6100    -0.3970 C.2   1 <1>   0.6900 
  9 F        0.5400     4.3890    -0.2460 F     1 <1>  -0.3400 
 10 F       -1.0250     3.0940    -0.8180 F     1 <1>  -0.3400 
 11 F       -0.2910     3.0710     1.1750 F     1 <1>  -0.3400 
 12 O        3.6280     2.7540    -1.6010 O.2   1 <1>  -0.5700 
 13 N        4.7500     2.7560     0.3380 N.am  1 <1>  -0.7300 
 14 C        6.0740     3.1010    -0.2020 C.3   1 <1>   0.2200 
 15 C        7.0490     1.9610     0.1100 C.3   1 <1>  -0.1600 
 16 C        6.5370     4.4180     0.4290 C.3   1 <1>  -0.1600 
 17 C        8.4760     2.3130    -0.3340 C.3   1 <1>  -0.1600 
 18 C        7.9640     4.7750    -0.0140 C.3   1 <1>  -0.1600 
 19 C        8.9420     3.6340     0.2940 C.3   1 <1>  -0.1600 
 20 H        1.3090     2.2330    -1.5330 H     1 <1>   0.0800 
 21 H        2.5030     2.1900     1.2590 H     1 <1>   0.3700 
 22 H        4.7170     2.6180     1.3430 H     1 <1>   0.3700 
 23 H        6.0130     3.2280    -1.2710 H     1 <1>   0.0800 
 24 H        6.7280     1.0710    -0.4030 H     1 <1>   0.0800 
 25 H        7.0510     1.7650     1.1670 H     1 <1>   0.0800 
 26 H        6.5170     4.3330     1.5010 H     1 <1>   0.0800 
 27 H        5.8670     5.2070     0.1350 H     1 <1>   0.0800 
 28 H        8.5040     2.4010    -1.4080 H     1 <1>   0.0800 
 29 H        9.1480     1.5220    -0.0520 H     1 <1>   0.0800 
 30 H        8.2850     5.6720     0.4880 H     1 <1>   0.0800 
 31 H        7.9690     4.9710    -1.0730 H     1 <1>   0.0800 
 32 H        9.9190     3.8860    -0.0820 H     1 <1>   0.0800 
 33 H        9.0230     3.5120     1.3610 H     1 <1>   0.0800 
@<TRIPOS>BOND
  1   1   2  1   
  2   2   3  1   
  3   2   4  1   
  4   2   5  1   
  5   5   6  1   
  6   5   7  1   
  7   5  20  1   
  8   6   8  am  
  9   6  21  1   
 10   7   9  1   
 11   7  10  1   
 12   7  11  1   
 13   8  12  2   
 14   8  13  am  
 15  13  14  1   
 16  13  22  1   
 17  14  15  1   
 18  14  16  1   
 19  14  23  1   
 20  15  17  1   
 21  15  24  1   
 22  15  25  1   
 23  16  18  1   
 24  16  26  1   
 25  16  27  1   
 26  17  19  1   
 27  17  28  1   
 28  17  29  1   
 29  18  19  1   
 30  18  30  1   
 31  18  31  1   
 32  19  32  1   
 33  19  33  1   
@<TRIPOS>SUBSTRUCTURE
  1 ****   8 GROUP 4 **** **** 0

# MOE 2024.06 (io_trps.svl 2023.06)
