@<TRIPOS>MOLECULE
NONAME
35 37 1 0 0 
SMALL
USER_CHARGES


@<TRIPOS>ATOM
  1 CL       0.5170    -0.3090    -1.1840 Cl    1 <1>  -0.1770 
  2 C        1.4050     0.8970    -0.2730 C.ar  1 <1>   0.1770 
  3 C        0.9360     2.2080    -0.1760 C.ar  1 <1>   0.1170 
  4 C        2.5940     0.5110     0.3180 C.ar  1 <1>  -0.1500 
  5 N       -0.2630     2.6530    -0.7420 N.am  1 <1>  -0.5470 
  6 C        1.7090     3.1280     0.5200 C.ar  1 <1>  -0.1500 
  7 C        3.3470     1.4420     1.0160 C.ar  1 <1>  -0.1500 
  8 C       -1.5240     2.3330    -0.3360 C.2   1 <1>   0.5690 
  9 C        2.9030     2.7510     1.1120 C.ar  1 <1>  -0.1500 
 10 O       -1.7300     1.4300     0.4440 O.2   1 <1>  -0.5700 
 11 C       -2.7220     3.1020    -0.9270 C.3   1 <1>  -0.0190 
 12 C       -2.6740     4.7920    -0.8640 C.3   1 <1>  -0.1860 
 13 C       -4.1340     2.6400    -0.2230 C.3   1 <1>  -0.0800 
 14 C       -1.3050     5.3720    -0.5380 C.2   1 <1>   0.9060 
 15 C       -3.9340     5.2930     0.0640 C.3   1 <1>  -0.0800 
 16 C       -4.0420     3.9670    -0.0980 C.3   1 <1>  -0.1600 
 17 C       -5.4050     3.1480     0.6700 C.3   1 <1>  -0.1600 
 18 O       -1.0370     5.8170     0.5790 O.co2 1 <1>  -0.9000 
 19 O       -0.4460     5.2920    -1.4250 O.co2 1 <1>  -0.9000 
 20 C       -5.3420     4.8170     0.7410 C.3   1 <1>  -0.1600 
 21 H        2.9230    -0.5070     0.2290 H     1 <1>   0.1500 
 22 H       -0.1920     3.5910    -1.1850 H     1 <1>   0.3700 
 23 H        1.3570     4.1470     0.5960 H     1 <1>   0.1500 
 24 H        4.2730     1.1510     1.4800 H     1 <1>   0.1500 
 25 H        3.4800     3.4830     1.6490 H     1 <1>   0.1500 
 26 H       -2.7440     2.8200    -1.9660 H     1 <1>   0.0800 
 27 H       -2.8580     5.1530    -1.8640 H     1 <1>   0.0800 
 28 H       -4.6400     2.1810    -1.0610 H     1 <1>   0.0800 
 29 H       -3.4340     5.7200     0.9240 H     1 <1>   0.0800 
 30 H       -4.6370     4.1040    -1.1010 H     1 <1>   0.0800 
 31 H       -3.4360     3.8210     0.9020 H     1 <1>   0.0800 
 32 H       -5.3370     2.7340     1.6650 H     1 <1>   0.0800 
 33 H       -6.3390     2.8200     0.2430 H     1 <1>   0.0800 
 34 H       -6.1740     5.2460     0.2040 H     1 <1>   0.0800 
 35 H       -5.4060     5.1530     1.7640 H     1 <1>   0.0800 
@<TRIPOS>BOND
  1   1   2  1   
  2   2   3  ar  
  3   2   4  ar  
  4   3   5  1   
  5   3   6  ar  
  6   4   7  ar  
  7   4  21  1   
  8   5   8  am  
  9   5  22  1   
 10   6   9  ar  
 11   6  23  1   
 12   7   9  ar  
 13   7  24  1   
 14   8  10  2   
 15   8  11  1   
 16   9  25  1   
 17  11  12  1   
 18  11  13  1   
 19  11  26  1   
 20  12  14  1   
 21  12  15  1   
 22  12  27  1   
 23  13  16  1   
 24  13  17  1   
 25  13  28  1   
 26  14  18  ar  
 27  14  19  ar  
 28  15  16  1   
 29  15  20  1   
 30  15  29  1   
 31  16  30  1   
 32  16  31  1   
 33  17  20  1   
 34  17  32  1   
 35  17  33  1   
 36  20  34  1   
 37  20  35  1   
@<TRIPOS>SUBSTRUCTURE
  1 ****   8 GROUP 4 **** **** 0

# MOE 2024.06 (io_trps.svl 2023.06)
