@<TRIPOS>MOLECULE
NONAME
44 46 1 0 0 
SMALL
USER_CHARGES


@<TRIPOS>ATOM
  1 O        0.8170     2.4560    -0.0110 O.3   1 <1>  -0.5600 
  2 C        0.7370     3.8200     0.2960 C.3   1 <1>   0.1200 
  3 C        0.1040     2.0750    -1.1610 C.3   1 <1>   0.1200 
  4 C       -0.7180     4.2240     0.6270 C.3   1 <1>   0.3430 
  5 C       -1.3480     2.6070    -1.1480 C.3   1 <1>   0.3430 
  6 N       -1.7020     3.1760     0.1940 N.4   1 <1>  -0.9590 
  7 C       -3.1450     3.5610     0.3110 C.3   1 <1>   0.3430 
  8 C       -4.0060     2.4090     0.8830 C.3   1 <1>   0.2000 
  9 O       -3.4880     1.1760     0.4900 O.3   1 <1>  -0.6800 
 10 C       -5.4720     2.4970     0.4410 C.3   1 <1>   0.1200 
 11 O       -6.1420     1.3330     0.8770 O.3   1 <1>  -0.3630 
 12 C       -7.4600     1.1430     0.6190 C.ar  1 <1>   0.0820 
 13 C       -8.2440     2.0430    -0.1020 C.ar  1 <1>  -0.1500 
 14 C       -8.0290    -0.0240     1.1150 C.ar  1 <1>  -0.1500 
 15 C       -9.5790     1.7510    -0.3090 C.ar  1 <1>  -0.1430 
 16 C       -9.3680    -0.3050     0.9010 C.ar  1 <1>  -0.1500 
 17 C      -10.1330     0.5960     0.1850 C.ar  1 <1>  -0.1430 
 18 C      -10.6030     2.5720    -1.0530 C.3   1 <1>  -0.0170 
 19 C      -11.5970     0.4950    -0.1650 C.3   1 <1>  -0.0170 
 20 C      -11.9380     1.9030    -0.6820 C.3   1 <1>  -0.1600 
 21 H        1.1100     4.3820    -0.5440 H     1 <1>   0.0800 
 22 H        1.3780     4.0090     1.1390 H     1 <1>   0.0800 
 23 H        0.0990     0.9990    -1.1940 H     1 <1>   0.0800 
 24 H        0.6320     2.4340    -2.0280 H     1 <1>   0.0800 
 25 H       -0.9340     5.1620     0.1440 H     1 <1>   0.0800 
 26 H       -0.8010     4.3790     1.6900 H     1 <1>   0.0800 
 27 H       -2.0190     1.8000    -1.3970 H     1 <1>   0.0800 
 28 H       -1.4510     3.3650    -1.9060 H     1 <1>   0.0800 
 29 H       -1.5700     2.3630     0.8220 H     1 <1>   0.4500 
 30 H       -3.5230     3.8400    -0.6590 H     1 <1>   0.0800 
 31 H       -3.2500     4.4160     0.9580 H     1 <1>   0.0800 
 32 H       -3.9690     2.4430     1.9580 H     1 <1>   0.0800 
 33 H       -4.1610     0.4820     0.6860 H     1 <1>   0.4000 
 34 H       -5.5450     2.5460    -0.6320 H     1 <1>   0.0800 
 35 H       -5.9550     3.3510     0.8830 H     1 <1>   0.0800 
 36 H       -7.8500     2.9550    -0.5040 H     1 <1>   0.1500 
 37 H       -7.4190    -0.7130     1.6710 H     1 <1>   0.1500 
 38 H       -9.8070    -1.2090     1.2850 H     1 <1>   0.1500 
 39 H      -10.4230     2.4960    -2.1110 H     1 <1>   0.0800 
 40 H      -10.5810     3.6040    -0.7500 H     1 <1>   0.0800 
 41 H      -12.1910     0.2330     0.6930 H     1 <1>   0.0800 
 42 H      -11.7290    -0.2380    -0.9410 H     1 <1>   0.0800 
 43 H      -12.6150     1.8700    -1.5170 H     1 <1>   0.0800 
 44 H      -12.3940     2.4630     0.1170 H     1 <1>   0.0800 
@<TRIPOS>BOND
  1   1   2  1   
  2   1   3  1   
  3   2   4  1   
  4   2  21  1   
  5   2  22  1   
  6   3   5  1   
  7   3  23  1   
  8   3  24  1   
  9   4   6  1   
 10   4  25  1   
 11   4  26  1   
 12   5   6  1   
 13   5  27  1   
 14   5  28  1   
 15   6   7  1   
 16   6  29  1   
 17   7   8  1   
 18   7  30  1   
 19   7  31  1   
 20   8   9  1   
 21   8  10  1   
 22   8  32  1   
 23   9  33  1   
 24  10  11  1   
 25  10  34  1   
 26  10  35  1   
 27  11  12  1   
 28  12  13  ar  
 29  12  14  ar  
 30  13  15  ar  
 31  13  36  1   
 32  14  16  ar  
 33  14  37  1   
 34  15  17  ar  
 35  15  18  1   
 36  16  17  ar  
 37  16  38  1   
 38  17  19  1   
 39  18  20  1   
 40  18  39  1   
 41  18  40  1   
 42  19  20  1   
 43  19  41  1   
 44  19  42  1   
 45  20  43  1   
 46  20  44  1   
@<TRIPOS>SUBSTRUCTURE
  1 ****  10 GROUP 4 **** **** 0

# MOE 2024.06 (io_trps.svl 2023.06)
