@<TRIPOS>MOLECULE
NONAME
52 54 1 0 0 
SMALL
USER_CHARGES


@<TRIPOS>ATOM
  1 O       -0.3590     0.2730     1.1390 O.2   1 <1>  -0.5700 
  2 C       -0.1490     1.2690     0.4860 C.2   1 <1>   0.5690 
  3 N        1.1260     1.7140     0.2470 N.am  1 <1>  -0.5470 
  4 C       -1.3490     2.0960    -0.0600 C.3   1 <1>   0.2050 
  5 C        2.3850     1.1710     0.5340 C.ar  1 <1>   0.1170 
  6 C       -2.5460     1.1540    -0.3440 C.ar  1 <1>  -0.1440 
  7 C       -1.6860     3.2020     0.9700 C.3   1 <1>  -0.1600 
  8 C       -1.0180     2.8120    -1.4030 C.3   1 <1>  -0.1600 
  9 C        3.4820     2.0220     0.5580 C.ar  1 <1>  -0.1500 
 10 C        2.5920    -0.1830     0.7810 C.ar  1 <1>  -0.1500 
 11 C       -3.7950     1.2850     0.2610 C.ar  1 <1>  -0.1500 
 12 C       -2.3720     0.1190    -1.2590 C.ar  1 <1>  -0.1500 
 13 C       -0.5600     4.2440     1.1160 C.3   1 <1>   0.1200 
 14 C       -0.4620     4.2360    -1.2410 C.3   1 <1>   0.1200 
 15 C        4.7540     1.5470     0.8230 C.ar  1 <1>   0.0830 
 16 C        3.8590    -0.6690     1.0490 C.ar  1 <1>  -0.1500 
 17 C       -4.8380     0.4280    -0.0460 C.ar  1 <1>   0.0830 
 18 C       -3.4020    -0.7560    -1.5600 C.ar  1 <1>  -0.1500 
 19 O        0.2320     4.3150    -0.0390 O.3   1 <1>  -0.5600 
 20 O        5.7590     2.4610     0.8240 O.3   1 <1>  -0.3620 
 21 C        4.9430     0.1900     1.0710 C.ar  1 <1>  -0.1500 
 22 O       -6.0300     0.6600     0.5590 O.3   1 <1>  -0.3630 
 23 C       -4.6340    -0.6200    -0.9480 C.ar  1 <1>   0.0830 
 24 C        7.0890     2.0850     1.1010 C.3   1 <1>   0.0400 
 25 C       -7.1130     0.9920    -0.2830 C.3   1 <1>   0.0400 
 26 O       -5.5900    -1.5320    -1.2510 O.3   1 <1>  -0.3630 
 27 C       -5.9520    -2.4110    -0.2090 C.3   1 <1>   0.0400 
 28 H        1.1440     2.6910    -0.0730 H     1 <1>   0.3700 
 29 H       -1.8920     2.7650     1.9310 H     1 <1>   0.0800 
 30 H       -2.5700     3.7270     0.6550 H     1 <1>   0.0800 
 31 H       -1.9110     2.8940    -1.9970 H     1 <1>   0.0800 
 32 H       -0.3280     2.2190    -1.9770 H     1 <1>   0.0800 
 33 H        3.3520     3.0710     0.3710 H     1 <1>   0.1500 
 34 H        1.7600    -0.8640     0.7630 H     1 <1>   0.1500 
 35 H       -4.0010     2.0500     0.9830 H     1 <1>   0.1500 
 36 H       -1.4210    -0.0240    -1.7420 H     1 <1>   0.1500 
 37 H        0.0930     3.9760     1.9300 H     1 <1>   0.0800 
 38 H       -0.9670     5.2220     1.3110 H     1 <1>   0.0800 
 39 H       -1.2530     4.9670    -1.2250 H     1 <1>   0.0800 
 40 H        0.2180     4.4760    -2.0410 H     1 <1>   0.0800 
 41 H        3.9980    -1.7190     1.2400 H     1 <1>   0.1500 
 42 H       -3.2500    -1.5540    -2.2630 H     1 <1>   0.1500 
 43 H        5.9150    -0.2110     1.2820 H     1 <1>   0.1500 
 44 H        7.7020     2.9670     1.0530 H     1 <1>   0.0800 
 45 H        7.4120     1.3740     0.3610 H     1 <1>   0.0800 
 46 H        7.1340     1.6620     2.0890 H     1 <1>   0.0800 
 47 H       -7.9360     1.3010     0.3350 H     1 <1>   0.0800 
 48 H       -7.3930     0.1300    -0.8600 H     1 <1>   0.0800 
 49 H       -6.8150     1.7960    -0.9320 H     1 <1>   0.0800 
 50 H       -6.6530    -3.1250    -0.6000 H     1 <1>   0.0800 
 51 H       -6.4030    -1.8510     0.5900 H     1 <1>   0.0800 
 52 H       -5.0680    -2.9140     0.1420 H     1 <1>   0.0800 
@<TRIPOS>BOND
  1   1   2  2   
  2   2   3  am  
  3   2   4  1   
  4   3   5  1   
  5   3  28  1   
  6   4   6  1   
  7   4   7  1   
  8   4   8  1   
  9   5   9  ar  
 10   5  10  ar  
 11   6  11  ar  
 12   6  12  ar  
 13   7  13  1   
 14   7  29  1   
 15   7  30  1   
 16   8  14  1   
 17   8  31  1   
 18   8  32  1   
 19   9  15  ar  
 20   9  33  1   
 21  10  16  ar  
 22  10  34  1   
 23  11  17  ar  
 24  11  35  1   
 25  12  18  ar  
 26  12  36  1   
 27  13  19  1   
 28  13  37  1   
 29  13  38  1   
 30  14  19  1   
 31  14  39  1   
 32  14  40  1   
 33  15  20  1   
 34  15  21  ar  
 35  16  21  ar  
 36  16  41  1   
 37  17  22  1   
 38  17  23  ar  
 39  18  23  ar  
 40  18  42  1   
 41  20  24  1   
 42  21  43  1   
 43  22  25  1   
 44  23  26  1   
 45  24  44  1   
 46  24  45  1   
 47  24  46  1   
 48  25  47  1   
 49  25  48  1   
 50  25  49  1   
 51  26  27  1   
 52  27  50  1   
 53  27  51  1   
 54  27  52  1   
@<TRIPOS>SUBSTRUCTURE
  1 ****   2 GROUP 4 **** **** 0

# MOE 2024.06 (io_trps.svl 2023.06)
