@<TRIPOS>MOLECULE
NONAME
32 33 1 0 0 
SMALL
USER_CHARGES


@<TRIPOS>ATOM
  1 F        1.3650    -1.0650    -2.8820 F     1 <1>  -0.3400 
  2 C        2.3600    -0.1850    -2.9160 C.3   1 <1>   1.1640 
  3 F        3.2360    -0.6530    -3.7970 F     1 <1>  -0.3400 
  4 F        1.8580     0.9240    -3.4420 F     1 <1>  -0.3400 
  5 C        2.9840     0.0660    -1.5330 C.ar  1 <1>  -0.1440 
  6 C        4.3250     0.4160    -1.4070 C.ar  1 <1>  -0.1500 
  7 C        2.2160    -0.0420    -0.3790 C.ar  1 <1>  -0.1500 
  8 C        4.9080     0.6560    -0.1670 C.ar  1 <1>   0.1170 
  9 C        2.7800     0.1890     0.8630 C.ar  1 <1>  -0.1500 
 10 N        6.2670     1.0020    -0.1320 N.am  1 <1>  -0.5470 
 11 C        4.1140     0.5320     0.9670 C.ar  1 <1>  -0.1500 
 12 C        7.0780     1.4810     0.8650 C.2   1 <1>   0.5690 
 13 O        6.6970     1.6910     1.9900 O.2   1 <1>  -0.5700 
 14 C        8.5340     1.8030     0.5320 C.3   1 <1>   0.2010 
 15 N        9.2960     0.6400    -0.0130 N.am  1 <1>  -0.4200 
 16 C       10.3100     0.0210     0.6450 C.2   1 <1>   0.5690 
 17 C        9.0980     0.0970    -1.2410 C.2   1 <1>   0.5690 
 18 O       10.7360     0.3220     1.7280 O.2   1 <1>  -0.5700 
 19 C       10.8730    -1.1130    -0.1820 C.3   1 <1>  -0.0990 
 20 O        8.2670     0.4600    -2.0340 O.2   1 <1>  -0.5700 
 21 C       10.0570    -1.0440    -1.4880 C.3   1 <1>  -0.0990 
 22 H        4.9380     0.5100    -2.2870 H     1 <1>   0.1500 
 23 H        1.1720    -0.3060    -0.4360 H     1 <1>   0.1500 
 24 H        2.1800     0.1010     1.7530 H     1 <1>   0.1500 
 25 H        6.7540     0.8690    -1.0290 H     1 <1>   0.3700 
 26 H        4.5280     0.7020     1.9440 H     1 <1>   0.1500 
 27 H        9.0170     2.1570     1.4260 H     1 <1>   0.0800 
 28 H        8.5520     2.6000    -0.1880 H     1 <1>   0.0800 
 29 H       10.7230    -2.0460     0.3300 H     1 <1>   0.0800 
 30 H       11.9210    -0.9540    -0.3590 H     1 <1>   0.0800 
 31 H       10.6830    -0.8210    -2.3330 H     1 <1>   0.0800 
 32 H        9.5110    -1.9540    -1.6620 H     1 <1>   0.0800 
@<TRIPOS>BOND
  1   1   2  1   
  2   2   3  1   
  3   2   4  1   
  4   2   5  1   
  5   5   6  ar  
  6   5   7  ar  
  7   6   8  ar  
  8   6  22  1   
  9   7   9  ar  
 10   7  23  1   
 11   8  10  1   
 12   8  11  ar  
 13   9  11  ar  
 14   9  24  1   
 15  10  12  am  
 16  10  25  1   
 17  11  26  1   
 18  12  13  2   
 19  12  14  1   
 20  14  15  1   
 21  14  27  1   
 22  14  28  1   
 23  15  16  am  
 24  15  17  am  
 25  16  18  2   
 26  16  19  1   
 27  17  20  2   
 28  17  21  1   
 29  19  21  1   
 30  19  29  1   
 31  19  30  1   
 32  21  31  1   
 33  21  32  1   
@<TRIPOS>SUBSTRUCTURE
  1 ****  10 GROUP 4 **** **** 0

# MOE 2024.06 (io_trps.svl 2023.06)
