@<TRIPOS>MOLECULE
NONAME
37 37 1 0 0 
SMALL
USER_CHARGES


@<TRIPOS>ATOM
  1 O        1.5200    -0.5570    -1.1700 O.2   1 <1>  -0.5700 
  2 C        2.6930    -0.8070    -1.1560 C.2   1 <1>   0.6590 
  3 O        3.3740    -0.7610    -0.0160 O.3   1 <1>  -0.4300 
  4 C        3.4090    -1.1760    -2.4380 C.3   1 <1>  -0.1790 
  5 C        4.7520    -1.0370     0.1140 C.3   1 <1>   0.1200 
  6 C        5.1470    -0.8810     1.5800 C.3   1 <1>   0.0400 
  7 C        6.6010    -1.1640     1.7320 C.1   1 <1>  -0.2000 
  8 C        7.7650    -1.3970     1.7920 C.1   1 <1>  -0.2000 
  9 C        9.2280    -1.6880     1.8210 C.3   1 <1>   0.4090 
 10 N        9.8430    -1.3140     0.5200 N.pl3 1 <1>  -0.8380 
 11 C       10.9090    -2.1050     0.1080 C.ar  1 <1>   0.1000 
 12 C        9.9540     0.1430     0.2610 C.3   1 <1>   0.2090 
 13 C       12.1440    -2.0540     0.7450 C.ar  1 <1>  -0.1500 
 14 C       10.7430    -2.9760    -0.9590 C.ar  1 <1>  -0.1500 
 15 C        9.0630     0.4880    -0.9250 C.3   1 <1>  -0.2400 
 16 C       13.1890    -2.8560     0.3230 C.ar  1 <1>  -0.1500 
 17 C       11.7840    -3.7800    -1.3850 C.ar  1 <1>  -0.1500 
 18 C       13.0100    -3.7210    -0.7440 C.ar  1 <1>  -0.1500 
 19 H        4.1880    -0.4670    -2.6430 H     1 <1>   0.0800 
 20 H        2.7080    -1.1610    -3.2520 H     1 <1>   0.0800 
 21 H        3.8220    -2.1630    -2.3580 H     1 <1>   0.0800 
 22 H        5.3040    -0.3440    -0.4970 H     1 <1>   0.0800 
 23 H        4.9360    -2.0460    -0.2150 H     1 <1>   0.0800 
 24 H        4.5860    -1.5700     2.1850 H     1 <1>   0.0800 
 25 H        4.9450     0.1240     1.9070 H     1 <1>   0.0800 
 26 H        9.3740    -2.7400     1.9980 H     1 <1>   0.0800 
 27 H        9.6960    -1.1400     2.6190 H     1 <1>   0.0800 
 28 H       10.9750     0.3980     0.0300 H     1 <1>   0.0800 
 29 H        9.6490     0.7060     1.1270 H     1 <1>   0.0800 
 30 H       12.2810    -1.3810     1.5700 H     1 <1>   0.1500 
 31 H        9.7870    -3.0110    -1.4480 H     1 <1>   0.1500 
 32 H        9.3800    -0.0640    -1.7910 H     1 <1>   0.0800 
 33 H        9.1310     1.5380    -1.1390 H     1 <1>   0.0800 
 34 H        8.0410     0.2450    -0.7000 H     1 <1>   0.0800 
 35 H       14.1410    -2.8090     0.8220 H     1 <1>   0.1500 
 36 H       11.6410    -4.4500    -2.2150 H     1 <1>   0.1500 
 37 H       13.8210    -4.3460    -1.0740 H     1 <1>   0.1500 
@<TRIPOS>BOND
  1   1   2  2   
  2   2   3  1   
  3   2   4  1   
  4   3   5  1   
  5   4  19  1   
  6   4  20  1   
  7   4  21  1   
  8   5   6  1   
  9   5  22  1   
 10   5  23  1   
 11   6   7  1   
 12   6  24  1   
 13   6  25  1   
 14   7   8  3   
 15   8   9  1   
 16   9  10  1   
 17   9  26  1   
 18   9  27  1   
 19  10  11  1   
 20  10  12  1   
 21  11  13  ar  
 22  11  14  ar  
 23  12  15  1   
 24  12  28  1   
 25  12  29  1   
 26  13  16  ar  
 27  13  30  1   
 28  14  17  ar  
 29  14  31  1   
 30  15  32  1   
 31  15  33  1   
 32  15  34  1   
 33  16  18  ar  
 34  16  35  1   
 35  17  18  ar  
 36  17  36  1   
 37  18  37  1   
@<TRIPOS>SUBSTRUCTURE
  1 ****   8 GROUP 4 **** **** 0

# MOE 2024.06 (io_trps.svl 2023.06)
