@<TRIPOS>MOLECULE
NONAME
52 54 1 0 0 
SMALL
USER_CHARGES


@<TRIPOS>ATOM
  1 N       -0.4190     0.1100    -0.3320 N.4   1 <1>  -0.9590 
  2 C        0.6430     1.1170    -0.5900 C.3   1 <1>   0.4230 
  3 C       -1.2750     0.3230     0.8810 C.3   1 <1>   0.3430 
  4 C        0.0730    -1.3060    -0.3730 C.3   1 <1>   0.3430 
  5 C        1.6010     1.2620     0.6040 C.3   1 <1>  -0.1600 
  6 C        0.0100     2.4640    -0.9580 C.3   1 <1>  -0.1600 
  7 C       -2.5050    -0.6170     0.8470 C.3   1 <1>   0.1100 
  8 C       -1.0910    -2.3110    -0.1910 C.3   1 <1>   0.1100 
  9 C        2.6870     2.3050     0.3030 C.3   1 <1>  -0.1600 
 10 C        1.0930     3.5090    -1.2640 C.3   1 <1>  -0.1600 
 11 N       -2.4160    -1.6460    -0.2210 N.3   1 <1>  -0.8100 
 12 C        2.0700     3.6540    -0.0890 C.3   1 <1>  -0.1600 
 13 C       -3.5040    -2.6410    -0.1820 C.3   1 <1>   0.1100 
 14 C       -4.8640    -2.0230    -0.5350 C.3   1 <1>  -0.1600 
 15 C       -5.7250    -1.6940     0.6940 C.3   1 <1>  -0.0170 
 16 C       -7.0320    -1.0530     0.2610 C.ar  1 <1>  -0.1430 
 17 C       -7.1220     0.3230     0.1130 C.ar  1 <1>  -0.1500 
 18 C       -8.1460    -1.8380     0.0070 C.ar  1 <1>  -0.1500 
 19 C       -8.3120     0.9080    -0.2850 C.ar  1 <1>  -0.1500 
 20 C       -9.3370    -1.2540    -0.3910 C.ar  1 <1>  -0.1500 
 21 C       -9.4200     0.1190    -0.5360 C.ar  1 <1>  -0.1500 
 22 H       -1.1000     0.1410    -1.1070 H     1 <1>   0.4500 
 23 H        1.2220     0.7930    -1.4400 H     1 <1>   0.0800 
 24 H       -1.6170     1.3430     0.9290 H     1 <1>   0.0800 
 25 H       -0.7020     0.1260     1.7710 H     1 <1>   0.0800 
 26 H        0.8050    -1.4700     0.4000 H     1 <1>   0.0800 
 27 H        0.5490    -1.4960    -1.3200 H     1 <1>   0.0800 
 28 H        2.0790     0.3230     0.8160 H     1 <1>   0.0800 
 29 H        1.0640     1.5820     1.4790 H     1 <1>   0.0800 
 30 H       -0.5920     2.8330    -0.1460 H     1 <1>   0.0800 
 31 H       -0.6150     2.3490    -1.8260 H     1 <1>   0.0800 
 32 H       -3.3760    -0.0090     0.6740 H     1 <1>   0.0800 
 33 H       -2.6190    -1.0870     1.8100 H     1 <1>   0.0800 
 34 H       -0.9680    -2.8330     0.7430 H     1 <1>   0.0800 
 35 H       -1.0360    -3.0440    -0.9790 H     1 <1>   0.0800 
 36 H        3.3150     1.9550    -0.4990 H     1 <1>   0.0800 
 37 H        3.3130     2.4380     1.1700 H     1 <1>   0.0800 
 38 H        0.6320     4.4620    -1.4650 H     1 <1>   0.0800 
 39 H        1.6390     3.2200    -2.1470 H     1 <1>   0.0800 
 40 H        2.8550     4.3420    -0.3590 H     1 <1>   0.0800 
 41 H        1.5530     4.0720     0.7580 H     1 <1>   0.0800 
 42 H       -3.5420    -3.1270     0.7790 H     1 <1>   0.0800 
 43 H       -3.2960    -3.3980    -0.9210 H     1 <1>   0.0800 
 44 H       -5.4100    -2.7370    -1.1250 H     1 <1>   0.0800 
 45 H       -4.7270    -1.1490    -1.1480 H     1 <1>   0.0800 
 46 H       -5.2120    -1.0280     1.3610 H     1 <1>   0.0800 
 47 H       -5.9350    -2.5970     1.2400 H     1 <1>   0.0800 
 48 H       -6.2670     0.9460     0.3040 H     1 <1>   0.1500 
 49 H       -8.0920    -2.9060     0.1150 H     1 <1>   0.1500 
 50 H       -8.3760     1.9750    -0.3980 H     1 <1>   0.1500 
 51 H      -10.1970    -1.8690    -0.5870 H     1 <1>   0.1500 
 52 H      -10.3460     0.5730    -0.8450 H     1 <1>   0.1500 
@<TRIPOS>BOND
  1   1   2  1   
  2   1   3  1   
  3   1   4  1   
  4   1  22  1   
  5   2   5  1   
  6   2   6  1   
  7   2  23  1   
  8   3   7  1   
  9   3  24  1   
 10   3  25  1   
 11   4   8  1   
 12   4  26  1   
 13   4  27  1   
 14   5   9  1   
 15   5  28  1   
 16   5  29  1   
 17   6  10  1   
 18   6  30  1   
 19   6  31  1   
 20   7  11  1   
 21   7  32  1   
 22   7  33  1   
 23   8  11  1   
 24   8  34  1   
 25   8  35  1   
 26   9  12  1   
 27   9  36  1   
 28   9  37  1   
 29  10  12  1   
 30  10  38  1   
 31  10  39  1   
 32  11  13  1   
 33  12  40  1   
 34  12  41  1   
 35  13  14  1   
 36  13  42  1   
 37  13  43  1   
 38  14  15  1   
 39  14  44  1   
 40  14  45  1   
 41  15  16  1   
 42  15  46  1   
 43  15  47  1   
 44  16  17  ar  
 45  16  18  ar  
 46  17  19  ar  
 47  17  48  1   
 48  18  20  ar  
 49  18  49  1   
 50  19  21  ar  
 51  19  50  1   
 52  20  21  ar  
 53  20  51  1   
 54  21  52  1   
@<TRIPOS>SUBSTRUCTURE
  1 ****   7 GROUP 4 **** **** 0

# MOE 2024.06 (io_trps.svl 2023.06)
