@<TRIPOS>MOLECULE
NONAME
48 50 1 0 0 
SMALL
USER_CHARGES


@<TRIPOS>ATOM
  1 S       -0.1870    -0.0110    -0.3760 S.3   1 <1>  -0.3320 
  2 C       -1.7670    -0.7290     0.1010 C.ar  1 <1>   0.1020 
  3 C        0.5670    -1.1460    -1.6240 C.3   1 <1>  -0.0100 
  4 C       -2.2660    -1.8800    -0.4850 C.ar  1 <1>  -0.1500 
  5 C       -2.4770    -0.0750     1.0900 C.ar  1 <1>  -0.1500 
  6 C       -3.4920    -2.3750    -0.0750 C.ar  1 <1>  -0.1500 
  7 C       -3.7010    -0.5730     1.4990 C.ar  1 <1>  -0.1500 
  8 C       -4.2190    -1.7200     0.9120 C.ar  1 <1>  -0.1430 
  9 C       -5.5730    -2.2490     1.3460 C.3   1 <1>   0.4860 
 10 N       -6.5710    -1.9170     0.2940 N.4   1 <1>  -0.9590 
 11 C       -6.7100    -0.4230     0.1030 C.3   1 <1>   0.3430 
 12 C       -7.9100    -2.5530     0.5730 C.3   1 <1>   0.3430 
 13 C       -7.7440    -0.0520    -0.9810 C.3   1 <1>   0.2090 
 14 C       -8.9580    -2.2330    -0.5130 C.3   1 <1>   0.2090 
 15 N       -9.0390    -0.7630    -0.7620 N.pl3 1 <1>  -0.8380 
 16 C      -10.1750    -0.0800    -0.3230 C.ar  1 <1>   0.1000 
 17 C      -11.4190    -0.4180    -0.8390 C.ar  1 <1>  -0.1500 
 18 C      -10.1080     0.9290     0.6350 C.ar  1 <1>  -0.1500 
 19 C      -12.5720     0.2160    -0.4140 C.ar  1 <1>   0.0830 
 20 C      -11.2540     1.5740     1.0640 C.ar  1 <1>  -0.1500 
 21 O      -13.7370    -0.1960    -0.9760 O.3   1 <1>  -0.3630 
 22 C      -12.4880     1.2210     0.5450 C.ar  1 <1>  -0.1500 
 23 C      -14.9630     0.4190    -0.6500 C.3   1 <1>   0.0400 
 24 H        1.5260    -0.7400    -1.8920 H     1 <1>   0.0800 
 25 H       -0.0820    -1.1800    -2.4800 H     1 <1>   0.0800 
 26 H        0.6780    -2.1140    -1.1710 H     1 <1>   0.0800 
 27 H       -1.7140    -2.3940    -1.2490 H     1 <1>   0.1500 
 28 H       -2.0630     0.8130     1.5360 H     1 <1>   0.1500 
 29 H       -3.8640    -3.2760    -0.5340 H     1 <1>   0.1500 
 30 H       -4.2350    -0.0530     2.2780 H     1 <1>   0.1500 
 31 H       -5.8580    -1.8040     2.2850 H     1 <1>   0.0800 
 32 H       -5.5120    -3.3170     1.4780 H     1 <1>   0.0800 
 33 H       -6.2130    -2.2910    -0.5930 H     1 <1>   0.4500 
 34 H       -5.7580     0.0040    -0.1670 H     1 <1>   0.0800 
 35 H       -7.0220     0.0290     1.0290 H     1 <1>   0.0800 
 36 H       -8.2910    -2.1920     1.5140 H     1 <1>   0.0800 
 37 H       -7.8030    -3.6220     0.6480 H     1 <1>   0.0800 
 38 H       -7.3610    -0.3150    -1.9520 H     1 <1>   0.0800 
 39 H       -7.9060     1.0130    -0.9810 H     1 <1>   0.0800 
 40 H       -9.9180    -2.6020    -0.1940 H     1 <1>   0.0800 
 41 H       -8.7040    -2.7340    -1.4310 H     1 <1>   0.0800 
 42 H      -11.4940    -1.1800    -1.5900 H     1 <1>   0.1500 
 43 H       -9.1650     1.2140     1.0540 H     1 <1>   0.1500 
 44 H      -11.1900     2.3530     1.8040 H     1 <1>   0.1500 
 45 H      -13.3630     1.7350     0.8950 H     1 <1>   0.1500 
 46 H      -15.7380    -0.0550    -1.2250 H     1 <1>   0.0800 
 47 H      -14.9080     1.4630    -0.9020 H     1 <1>   0.0800 
 48 H      -15.1530     0.2830     0.4000 H     1 <1>   0.0800 
@<TRIPOS>BOND
  1   1   2  1   
  2   1   3  1   
  3   2   4  ar  
  4   2   5  ar  
  5   3  24  1   
  6   3  25  1   
  7   3  26  1   
  8   4   6  ar  
  9   4  27  1   
 10   5   7  ar  
 11   5  28  1   
 12   6   8  ar  
 13   6  29  1   
 14   7   8  ar  
 15   7  30  1   
 16   8   9  1   
 17   9  10  1   
 18   9  31  1   
 19   9  32  1   
 20  10  11  1   
 21  10  12  1   
 22  10  33  1   
 23  11  13  1   
 24  11  34  1   
 25  11  35  1   
 26  12  14  1   
 27  12  36  1   
 28  12  37  1   
 29  13  15  1   
 30  13  38  1   
 31  13  39  1   
 32  14  15  1   
 33  14  40  1   
 34  14  41  1   
 35  15  16  1   
 36  16  17  ar  
 37  16  18  ar  
 38  17  19  ar  
 39  17  42  1   
 40  18  20  ar  
 41  18  43  1   
 42  19  21  1   
 43  19  22  ar  
 44  20  22  ar  
 45  20  44  1   
 46  21  23  1   
 47  22  45  1   
 48  23  46  1   
 49  23  47  1   
 50  23  48  1   
@<TRIPOS>SUBSTRUCTURE
  1 ****  11 GROUP 4 **** **** 0

# MOE 2024.06 (io_trps.svl 2023.06)
