@<TRIPOS>MOLECULE
NONAME
41 41 1 0 0 
SMALL
USER_CHARGES


@<TRIPOS>ATOM
  1 O        1.3200    -1.9060     1.4680 O.2   1 <1>  -0.5700 
  2 C        0.3390    -1.5940     0.8350 C.2   1 <1>   0.5690 
  3 N        0.4260    -0.6950    -0.1830 N.am  1 <1>  -0.7300 
  4 C       -1.0070    -2.2310     1.1660 C.3   1 <1>   0.1810 
  5 C        1.5590     0.2250    -0.4960 C.3   1 <1>   0.1400 
  6 O       -1.9680    -1.9170     0.1680 O.3   1 <1>  -0.3620 
  7 C        2.7280    -0.4870    -1.2090 C.3   1 <1>   0.3430 
  8 C       -3.2470    -2.3720     0.2460 C.ar  1 <1>   0.0830 
  9 N        3.3820    -1.5040    -0.3290 N.4   1 <1>  -0.9590 
 10 C       -4.1180    -2.0310    -0.7840 C.ar  1 <1>  -0.1430 
 11 C       -3.7080    -3.1540     1.3040 C.ar  1 <1>  -0.1500 
 12 C        4.3600    -0.9020     0.6250 C.3   1 <1>   0.2630 
 13 C        3.9860    -2.6240    -1.1060 C.3   1 <1>   0.2630 
 14 C       -5.4310    -2.4720    -0.7450 C.ar  1 <1>  -0.1500 
 15 C       -3.6490    -1.1780    -1.9540 C.3   1 <1>  -0.0970 
 16 C       -5.0210    -3.5880     1.3290 C.ar  1 <1>  -0.1500 
 17 C       -5.8890    -3.2510     0.3050 C.ar  1 <1>  -0.1430 
 18 C       -7.3310    -3.7240     0.3310 C.3   1 <1>  -0.0970 
 19 H       -0.4620    -0.5010    -0.6670 H     1 <1>   0.3700 
 20 H       -1.3590    -1.8530     2.1090 H     1 <1>   0.0800 
 21 H       -0.9000    -3.2990     1.2120 H     1 <1>   0.0800 
 22 H        1.9090     0.6820     0.4140 H     1 <1>   0.0800 
 23 H        1.1920     1.0110    -1.1330 H     1 <1>   0.0800 
 24 H        3.4580     0.2410    -1.5230 H     1 <1>   0.0800 
 25 H        2.3370    -0.9650    -2.0910 H     1 <1>   0.0800 
 26 H        2.6100    -1.8920     0.2630 H     1 <1>   0.4500 
 27 H       -3.0700    -3.4390     2.1180 H     1 <1>   0.1500 
 28 H        5.1760    -0.4440     0.0910 H     1 <1>   0.0800 
 29 H        4.7560    -1.6630     1.2780 H     1 <1>   0.0800 
 30 H        3.8750    -0.1560     1.2330 H     1 <1>   0.0800 
 31 H        4.7850    -2.2610    -1.7300 H     1 <1>   0.0800 
 32 H        3.2400    -3.0890    -1.7310 H     1 <1>   0.0800 
 33 H        4.3810    -3.3710    -0.4350 H     1 <1>   0.0800 
 34 H       -6.1090    -2.2090    -1.5380 H     1 <1>   0.1500 
 35 H       -2.8250    -1.6590    -2.4480 H     1 <1>   0.0800 
 36 H       -3.3330    -0.2150    -1.5980 H     1 <1>   0.0800 
 37 H       -4.4390    -1.0350    -2.6700 H     1 <1>   0.0800 
 38 H       -5.3660    -4.1890     2.1510 H     1 <1>   0.1500 
 39 H       -7.6750    -3.9290    -0.6660 H     1 <1>   0.0800 
 40 H       -7.9550    -2.9640     0.7650 H     1 <1>   0.0800 
 41 H       -7.4240    -4.6240     0.9130 H     1 <1>   0.0800 
@<TRIPOS>BOND
  1   1   2  2   
  2   2   3  am  
  3   2   4  1   
  4   3   5  1   
  5   3  19  1   
  6   4   6  1   
  7   4  20  1   
  8   4  21  1   
  9   5   7  1   
 10   5  22  1   
 11   5  23  1   
 12   6   8  1   
 13   7   9  1   
 14   7  24  1   
 15   7  25  1   
 16   8  10  ar  
 17   8  11  ar  
 18   9  12  1   
 19   9  13  1   
 20   9  26  1   
 21  10  14  ar  
 22  10  15  1   
 23  11  16  ar  
 24  11  27  1   
 25  12  28  1   
 26  12  29  1   
 27  12  30  1   
 28  13  31  1   
 29  13  32  1   
 30  13  33  1   
 31  14  17  ar  
 32  14  34  1   
 33  15  35  1   
 34  15  36  1   
 35  15  37  1   
 36  16  17  ar  
 37  16  38  1   
 38  17  18  1   
 39  18  39  1   
 40  18  40  1   
 41  18  41  1   
@<TRIPOS>SUBSTRUCTURE
  1 ****   6 GROUP 4 **** **** 0

# MOE 2024.06 (io_trps.svl 2023.06)
