@<TRIPOS>MOLECULE
NONAME
40 40 1 0 0 
SMALL
USER_CHARGES


@<TRIPOS>ATOM
  1 CL      -0.1560     0.3090    -0.0360 Cl    1 <1>  -0.1770 
  2 C        1.4810     0.9270    -0.0150 C.ar  1 <1>   0.1770 
  3 C        1.7120     2.2940     0.0460 C.ar  1 <1>  -0.1440 
  4 C        2.5230     0.0190    -0.0620 C.ar  1 <1>  -0.1500 
  5 C        3.0250     2.7400     0.0600 C.ar  1 <1>  -0.1500 
  6 C        0.5610     3.2870     0.0970 C.3   1 <1>  -0.0960 
  7 C        3.8300     0.4750    -0.0470 C.ar  1 <1>  -0.1500 
  8 C        4.0840     1.8440     0.0140 C.ar  1 <1>   0.0830 
  9 O        5.3310     2.3790     0.0330 O.3   1 <1>  -0.3630 
 10 C        6.4780     1.5710    -0.0100 C.3   1 <1>   0.1200 
 11 C        7.6860     2.5070     0.0270 C.3   1 <1>  -0.1600 
 12 C        8.9900     1.7200    -0.0160 C.3   1 <1>   0.3430 
 13 N       10.1240     2.6740     0.0220 N.4   1 <1>  -0.9060 
 14 C       11.4430     1.9990    -0.0150 C.3   1 <1>   0.3430 
 15 C       12.5410     3.0570     0.0270 C.3   1 <1>  -0.1600 
 16 C       13.9290     2.4050    -0.0100 C.3   1 <1>  -0.1600 
 17 C       15.0330     3.4650     0.0320 C.3   1 <1>  -0.2400 
 18 H        2.3060    -1.0330    -0.1090 H     1 <1>   0.1500 
 19 H        3.2420     3.7920     0.1070 H     1 <1>   0.1500 
 20 H       -0.0440     3.1040     0.9670 H     1 <1>   0.0800 
 21 H       -0.0520     3.1830    -0.7800 H     1 <1>   0.0800 
 22 H        0.9240     4.2980     0.1410 H     1 <1>   0.0800 
 23 H        4.6230    -0.2470    -0.0840 H     1 <1>   0.1500 
 24 H        6.4520     0.9990    -0.9220 H     1 <1>   0.0800 
 25 H        6.4610     0.9180     0.8460 H     1 <1>   0.0800 
 26 H        7.6380     3.0850     0.9330 H     1 <1>   0.0800 
 27 H        7.6290     3.1660    -0.8230 H     1 <1>   0.0800 
 28 H        9.0310     1.1330    -0.9200 H     1 <1>   0.0800 
 29 H        9.0400     1.0530     0.8310 H     1 <1>   0.0800 
 30 H       10.0630     3.2480     0.8730 H     1 <1>   0.4500 
 31 H       10.0550     3.3230    -0.7720 H     1 <1>   0.4500 
 32 H       11.5370     1.4170    -0.9190 H     1 <1>   0.0800 
 33 H       11.5470     1.3370     0.8300 H     1 <1>   0.0800 
 34 H       12.4560     3.6360     0.9310 H     1 <1>   0.0800 
 35 H       12.4460     3.7160    -0.8200 H     1 <1>   0.0800 
 36 H       14.0410     1.8230    -0.9110 H     1 <1>   0.0800 
 37 H       14.0500     1.7430     0.8320 H     1 <1>   0.0800 
 38 H       14.9600     4.1270    -0.8140 H     1 <1>   0.0800 
 39 H       15.9990     2.9900     0.0050 H     1 <1>   0.0800 
 40 H       14.9700     4.0470     0.9350 H     1 <1>   0.0800 
@<TRIPOS>BOND
  1   1   2  1   
  2   2   3  ar  
  3   2   4  ar  
  4   3   5  ar  
  5   3   6  1   
  6   4   7  ar  
  7   4  18  1   
  8   5   8  ar  
  9   5  19  1   
 10   6  20  1   
 11   6  21  1   
 12   6  22  1   
 13   7   8  ar  
 14   7  23  1   
 15   8   9  1   
 16   9  10  1   
 17  10  11  1   
 18  10  24  1   
 19  10  25  1   
 20  11  12  1   
 21  11  26  1   
 22  11  27  1   
 23  12  13  1   
 24  12  28  1   
 25  12  29  1   
 26  13  14  1   
 27  13  30  1   
 28  13  31  1   
 29  14  15  1   
 30  14  32  1   
 31  14  33  1   
 32  15  16  1   
 33  15  34  1   
 34  15  35  1   
 35  16  17  1   
 36  16  36  1   
 37  16  37  1   
 38  17  38  1   
 39  17  39  1   
 40  17  40  1   
@<TRIPOS>SUBSTRUCTURE
  1 ****  10 GROUP 4 **** **** 0

# MOE 2024.06 (io_trps.svl 2023.06)
