@<TRIPOS>MOLECULE
NONAME
39 40 1 0 0 
SMALL
USER_CHARGES


@<TRIPOS>ATOM
  1 O        0.4610     1.7830     1.1440 O.3   1 <1>  -0.3630 
  2 C       -0.7880     1.5770     0.6540 C.ar  1 <1>   0.0830 
  3 C        1.5330     1.8410     0.2360 C.3   1 <1>   0.1200 
  4 C       -1.1350     0.4590    -0.1190 C.ar  1 <1>   0.0830 
  5 C       -1.7420     2.5290     0.9680 C.ar  1 <1>  -0.1500 
  6 C        2.6010     0.8680     0.7330 C.3   1 <1>  -0.1600 
  7 O       -0.1880    -0.4930    -0.3820 O.3   1 <1>  -0.3630 
  8 C       -2.4430     0.3480    -0.5850 C.ar  1 <1>  -0.1500 
  9 C       -3.0390     2.4020     0.5050 C.ar  1 <1>  -0.1500 
 10 C        3.7040     0.7110    -0.3070 C.3   1 <1>   0.3430 
 11 C       -0.5660    -1.7690    -0.8530 C.3   1 <1>   0.0400 
 12 C       -3.3870     1.3130    -0.2750 C.ar  1 <1>  -0.1500 
 13 N        4.7530    -0.2160     0.1980 N.4   1 <1>  -0.9590 
 14 C        5.9570    -0.2530    -0.6650 C.3   1 <1>   0.3430 
 15 C        4.3010    -1.6260     0.3240 C.3   1 <1>   0.3430 
 16 C        6.6660    -1.5410    -0.2680 C.3   1 <1>  -0.1600 
 17 C        5.5900    -2.4370     0.3530 C.3   1 <1>  -0.1600 
 18 H        1.8960     2.8540     0.2240 H     1 <1>   0.0800 
 19 H        1.1840     1.5810    -0.7490 H     1 <1>   0.0800 
 20 H       -1.4660     3.3710     1.5770 H     1 <1>   0.1500 
 21 H        2.1280    -0.0800     0.9120 H     1 <1>   0.0800 
 22 H        3.0080     1.2470     1.6540 H     1 <1>   0.0800 
 23 H       -2.7540    -0.4810    -1.1920 H     1 <1>   0.1500 
 24 H       -3.7750     3.1480     0.7500 H     1 <1>   0.1500 
 25 H        4.1400     1.6770    -0.5070 H     1 <1>   0.0800 
 26 H        3.2860     0.3310    -1.2260 H     1 <1>   0.0800 
 27 H        0.3040    -2.4000    -0.8560 H     1 <1>   0.0800 
 28 H       -0.9500    -1.6750    -1.8530 H     1 <1>   0.0800 
 29 H       -1.3110    -2.1790    -0.1920 H     1 <1>   0.0800 
 30 H       -4.3950     1.2160    -0.6390 H     1 <1>   0.1500 
 31 H        5.0500     0.0950     1.1320 H     1 <1>   0.4500 
 32 H        6.5860     0.6110    -0.5170 H     1 <1>   0.0800 
 33 H        5.6630    -0.3110    -1.7010 H     1 <1>   0.0800 
 34 H        3.7200    -1.9010    -0.5410 H     1 <1>   0.0800 
 35 H        3.7120    -1.7790     1.2150 H     1 <1>   0.0800 
 36 H        7.4360    -1.3260     0.4520 H     1 <1>   0.0800 
 37 H        7.1230    -2.0010    -1.1280 H     1 <1>   0.0800 
 38 H        5.4660    -3.3540    -0.1980 H     1 <1>   0.0800 
 39 H        5.8450    -2.6830     1.3700 H     1 <1>   0.0800 
@<TRIPOS>BOND
  1   1   2  1   
  2   1   3  1   
  3   2   4  ar  
  4   2   5  ar  
  5   3   6  1   
  6   3  18  1   
  7   3  19  1   
  8   4   7  1   
  9   4   8  ar  
 10   5   9  ar  
 11   5  20  1   
 12   6  10  1   
 13   6  21  1   
 14   6  22  1   
 15   7  11  1   
 16   8  12  ar  
 17   8  23  1   
 18   9  12  ar  
 19   9  24  1   
 20  10  13  1   
 21  10  25  1   
 22  10  26  1   
 23  11  27  1   
 24  11  28  1   
 25  11  29  1   
 26  12  30  1   
 27  13  14  1   
 28  13  15  1   
 29  13  31  1   
 30  14  16  1   
 31  14  32  1   
 32  14  33  1   
 33  15  17  1   
 34  15  34  1   
 35  15  35  1   
 36  16  17  1   
 37  16  36  1   
 38  16  37  1   
 39  17  38  1   
 40  17  39  1   
@<TRIPOS>SUBSTRUCTURE
  1 ****   6 GROUP 4 **** **** 0

# MOE 2024.06 (io_trps.svl 2023.06)
