@<TRIPOS>MOLECULE
NONAME
36 37 1 0 0 
SMALL
USER_CHARGES


@<TRIPOS>ATOM
  1 O       -0.6910    -0.0240     0.3700 O.2   1 <1>  -0.5700 
  2 C       -1.6480     0.7150     0.2530 C.2   1 <1>   0.7060 
  3 O       -2.8710     0.1960     0.3560 O.3   1 <1>  -0.2330 
  4 C       -1.5300     2.1140     0.0120 C.2   1 <1>  -0.1360 
  5 C       -4.0060     0.9300     0.2430 C.ar  1 <1>   0.0820 
  6 C       -2.6150     2.9080    -0.1140 C.2   1 <1>  -0.1670 
  7 C       -3.9190     2.3120     0.0010 C.ar  1 <1>   0.0280 
  8 C       -5.2380     0.2890     0.3670 C.ar  1 <1>  -0.1440 
  9 C       -2.4690     4.4020    -0.3720 C.3   1 <1>  -0.1020 
 10 C       -5.1130     3.0270    -0.1130 C.ar  1 <1>  -0.1500 
 11 C       -6.4080     1.0280     0.2420 C.ar  1 <1>   0.0830 
 12 C       -5.3330    -1.2150     0.6310 C.3   1 <1>  -0.0960 
 13 C       -6.3350     2.4010     0.0040 C.ar  1 <1>  -0.1500 
 14 O       -7.5880     0.3720     0.3570 O.3   1 <1>  -0.3630 
 15 C       -8.8330     1.0070     0.1690 C.3   1 <1>   0.1200 
 16 C       -9.9500    -0.0320     0.3040 C.3   1 <1>  -0.1600 
 17 C       -9.8430    -1.1510    -0.7430 C.3   1 <1>  -0.1600 
 18 C      -10.9990    -2.1470    -0.6070 C.3   1 <1>  -0.2400 
 19 H       -0.5250     2.4810    -0.0620 H     1 <1>   0.1500 
 20 H       -2.9400     4.6650    -1.3020 H     1 <1>   0.0800 
 21 H       -1.4320     4.6820    -0.4300 H     1 <1>   0.0800 
 22 H       -2.9250     4.9620     0.4250 H     1 <1>   0.0800 
 23 H       -5.0920     4.0840    -0.2960 H     1 <1>   0.1500 
 24 H       -4.3820    -1.6530     0.8720 H     1 <1>   0.0800 
 25 H       -5.7250    -1.7080    -0.2400 H     1 <1>   0.0800 
 26 H       -5.9980    -1.3990     1.4560 H     1 <1>   0.0800 
 27 H       -7.2250     2.9930    -0.0910 H     1 <1>   0.1500 
 28 H       -8.8450     1.4480    -0.8130 H     1 <1>   0.0800 
 29 H       -8.9390     1.7710     0.9190 H     1 <1>   0.0800 
 30 H      -10.8960     0.4680     0.1900 H     1 <1>   0.0800 
 31 H       -9.9190    -0.4510     1.2950 H     1 <1>   0.0800 
 32 H       -8.9100    -1.6750    -0.6190 H     1 <1>   0.0800 
 33 H       -9.8550    -0.7250    -1.7320 H     1 <1>   0.0800 
 34 H      -10.9900    -2.6000     0.3680 H     1 <1>   0.0800 
 35 H      -10.9030    -2.9230    -1.3460 H     1 <1>   0.0800 
 36 H      -11.9430    -1.6510    -0.7520 H     1 <1>   0.0800 
@<TRIPOS>BOND
  1   1   2  2   
  2   2   3  1   
  3   2   4  1   
  4   3   5  1   
  5   4   6  2   
  6   4  19  1   
  7   5   7  ar  
  8   5   8  ar  
  9   6   7  1   
 10   6   9  1   
 11   7  10  ar  
 12   8  11  ar  
 13   8  12  1   
 14   9  20  1   
 15   9  21  1   
 16   9  22  1   
 17  10  13  ar  
 18  10  23  1   
 19  11  13  ar  
 20  11  14  1   
 21  12  24  1   
 22  12  25  1   
 23  12  26  1   
 24  13  27  1   
 25  14  15  1   
 26  15  16  1   
 27  15  28  1   
 28  15  29  1   
 29  16  17  1   
 30  16  30  1   
 31  16  31  1   
 32  17  18  1   
 33  17  32  1   
 34  17  33  1   
 35  18  34  1   
 36  18  35  1   
 37  18  36  1   
@<TRIPOS>SUBSTRUCTURE
  1 ****   8 GROUP 4 **** **** 0

# MOE 2024.06 (io_trps.svl 2023.06)
