@<TRIPOS>MOLECULE
NONAME
48 50 1 0 0 
SMALL
USER_CHARGES


@<TRIPOS>ATOM
  1 O       -0.2140    -1.0360     0.4350 O.co2 1 <1>  -0.9000 
  2 C        0.7130    -0.2550     0.7460 C.2   1 <1>   0.9790 
  3 O        0.4150     0.9360     0.9370 O.co2 1 <1>  -0.9000 
  4 C        2.0960    -0.7080     0.8820 C.ar  1 <1>  -0.1790 
  5 C        2.5110    -2.0260     0.6080 C.ar  1 <1>   0.1170 
  6 C        3.0770     0.1980     1.2990 C.ar  1 <1>  -0.1500 
  7 N        1.5610    -2.9610     0.1940 N.am  1 <1>  -0.5470 
  8 C        3.8490    -2.3810     0.7620 C.ar  1 <1>  -0.1500 
  9 C        4.4020    -0.1640     1.4450 C.ar  1 <1>  -0.1500 
 10 C        1.6010    -4.1600    -0.4570 C.2   1 <1>   0.5690 
 11 C        4.7910    -1.4620     1.1750 C.ar  1 <1>  -0.1500 
 12 O        2.6240    -4.7310    -0.7620 O.2   1 <1>  -0.5700 
 13 C        0.2680    -4.7700    -0.8630 C.3   1 <1>   0.1810 
 14 O       -0.2310    -5.6250     0.1530 O.3   1 <1>  -0.3630 
 15 C       -1.4240    -6.2550     0.0150 C.ar  1 <1>   0.0830 
 16 C       -1.8260    -7.0630     1.0640 C.ar  1 <1>  -0.1500 
 17 C       -2.2450    -6.1320    -1.1020 C.ar  1 <1>  -0.1500 
 18 C       -3.0290    -7.7430     1.0070 C.ar  1 <1>  -0.1500 
 19 C       -3.4480    -6.8150    -1.1550 C.ar  1 <1>  -0.1500 
 20 C       -3.8530    -7.6250    -0.1040 C.ar  1 <1>  -0.1430 
 21 C       -5.1880    -8.3650    -0.1840 C.3   1 <1>   0.0630 
 22 C       -6.1470    -7.9010     0.9250 C.3   1 <1>  -0.1600 
 23 C       -4.9860    -9.8890    -0.1350 C.3   1 <1>  -0.1600 
 24 C       -7.4880    -8.6450     0.8530 C.3   1 <1>  -0.1600 
 25 C       -6.3270   -10.6340    -0.2070 C.3   1 <1>  -0.1600 
 26 C       -7.2820   -10.1660     0.9000 C.3   1 <1>  -0.1600 
 27 H        2.7820     1.2130     1.5120 H     1 <1>   0.1500 
 28 H        0.6110    -2.5490     0.2870 H     1 <1>   0.3700 
 29 H        4.1560    -3.3890     0.5600 H     1 <1>   0.1500 
 30 H        5.1240     0.5640     1.7670 H     1 <1>   0.1500 
 31 H        5.8200    -1.7540     1.2870 H     1 <1>   0.1500 
 32 H        0.4010    -5.3500    -1.7570 H     1 <1>   0.0800 
 33 H       -0.4500    -3.9880    -1.0310 H     1 <1>   0.0800 
 34 H       -1.1890    -7.1530     1.9260 H     1 <1>   0.1500 
 35 H       -1.9700    -5.5130    -1.9330 H     1 <1>   0.1500 
 36 H       -3.3190    -8.3630     1.8360 H     1 <1>   0.1500 
 37 H       -4.0720    -6.7090    -2.0250 H     1 <1>   0.1500 
 38 H       -5.6500    -8.1320    -1.1280 H     1 <1>   0.0800 
 39 H       -6.3150    -6.8430     0.8290 H     1 <1>   0.0800 
 40 H       -5.7010    -8.0770     1.8880 H     1 <1>   0.0800 
 41 H       -4.4850   -10.1600     0.7780 H     1 <1>   0.0800 
 42 H       -4.3600   -10.1920    -0.9560 H     1 <1>   0.0800 
 43 H       -7.9940    -8.3830    -0.0600 H     1 <1>   0.0800 
 44 H       -8.1130    -8.3410     1.6750 H     1 <1>   0.0800 
 45 H       -6.1560   -11.6930    -0.1110 H     1 <1>   0.0800 
 46 H       -6.7820   -10.4590    -1.1670 H     1 <1>   0.0800 
 47 H       -8.2310   -10.6620     0.7910 H     1 <1>   0.0800 
 48 H       -6.8750   -10.4390     1.8590 H     1 <1>   0.0800 
@<TRIPOS>BOND
  1   1   2  ar  
  2   2   3  ar  
  3   2   4  1   
  4   4   5  ar  
  5   4   6  ar  
  6   5   7  1   
  7   5   8  ar  
  8   6   9  ar  
  9   6  27  1   
 10   7  10  am  
 11   7  28  1   
 12   8  11  ar  
 13   8  29  1   
 14   9  11  ar  
 15   9  30  1   
 16  10  12  2   
 17  10  13  1   
 18  11  31  1   
 19  13  14  1   
 20  13  32  1   
 21  13  33  1   
 22  14  15  1   
 23  15  16  ar  
 24  15  17  ar  
 25  16  18  ar  
 26  16  34  1   
 27  17  19  ar  
 28  17  35  1   
 29  18  20  ar  
 30  18  36  1   
 31  19  20  ar  
 32  19  37  1   
 33  20  21  1   
 34  21  22  1   
 35  21  23  1   
 36  21  38  1   
 37  22  24  1   
 38  22  39  1   
 39  22  40  1   
 40  23  25  1   
 41  23  41  1   
 42  23  42  1   
 43  24  26  1   
 44  24  43  1   
 45  24  44  1   
 46  25  26  1   
 47  25  45  1   
 48  25  46  1   
 49  26  47  1   
 50  26  48  1   
@<TRIPOS>SUBSTRUCTURE
  1 ****  14 GROUP 4 **** **** 0

# MOE 2024.06 (io_trps.svl 2023.06)
