@<TRIPOS>MOLECULE
NONAME
35 35 1 0 0 
SMALL
USER_CHARGES


@<TRIPOS>ATOM
  1 O       -0.1600     0.2390     0.3470 O.2   1 <1>  -0.5700 
  2 C       -0.0270    -0.9140    -0.0070 C.2   1 <1>   0.7800 
  3 O       -1.0780    -1.6840    -0.2860 O.3   1 <1>  -0.4300 
  4 N        1.1710    -1.5420    -0.1450 N.am  1 <1>  -0.5470 
  5 C       -2.4420    -1.3210    -0.2290 C.3   1 <1>   0.2800 
  6 C        2.4990    -1.1270     0.0440 C.ar  1 <1>   0.1170 
  7 C       -3.2070    -2.5770    -0.6490 C.3   1 <1>  -0.2400 
  8 C       -2.7340    -0.1950    -1.2270 C.3   1 <1>  -0.2400 
  9 C       -2.8330    -0.9480     1.2060 C.3   1 <1>  -0.2400 
 10 C        3.5020    -2.0880     0.1940 C.ar  1 <1>  -0.1440 
 11 C        2.8560     0.2190     0.0720 C.ar  1 <1>  -0.1500 
 12 C        4.8180    -1.6900     0.3690 C.ar  1 <1>  -0.1500 
 13 C        3.1830    -3.5780     0.1740 C.3   1 <1>  -0.0970 
 14 C        4.1700     0.6140     0.2500 C.ar  1 <1>  -0.1440 
 15 C        5.1520    -0.3480     0.3980 C.ar  1 <1>  -0.1500 
 16 C        4.5340     2.0870     0.2800 C.3   1 <1>  -0.0970 
 17 H        1.0580    -2.5190    -0.3880 H     1 <1>   0.3700 
 18 H       -2.9280    -2.8690    -1.6450 H     1 <1>   0.0800 
 19 H       -4.2660    -2.3920    -0.6350 H     1 <1>   0.0800 
 20 H       -2.9960    -3.3870     0.0270 H     1 <1>   0.0800 
 21 H       -2.3840    -0.4620    -2.2070 H     1 <1>   0.0800 
 22 H       -2.2680     0.7240    -0.9230 H     1 <1>   0.0800 
 23 H       -3.7930    -0.0180    -1.2810 H     1 <1>   0.0800 
 24 H       -2.5500    -1.7300     1.8870 H     1 <1>   0.0800 
 25 H       -3.8960    -0.8080     1.2720 H     1 <1>   0.0800 
 26 H       -2.3660    -0.0290     1.5090 H     1 <1>   0.0800 
 27 H        2.1000     0.9710    -0.0530 H     1 <1>   0.1500 
 28 H        5.5970    -2.4220     0.4860 H     1 <1>   0.1500 
 29 H        2.4590    -3.8110     0.9350 H     1 <1>   0.0800 
 30 H        4.0650    -4.1640     0.3630 H     1 <1>   0.0800 
 31 H        2.7920    -3.8590    -0.7870 H     1 <1>   0.0800 
 32 H        6.1780    -0.0570     0.5350 H     1 <1>   0.1500 
 33 H        3.6720     2.6860     0.5140 H     1 <1>   0.0800 
 34 H        4.9140     2.3870    -0.6800 H     1 <1>   0.0800 
 35 H        5.2860     2.2690     1.0260 H     1 <1>   0.0800 
@<TRIPOS>BOND
  1   1   2  2   
  2   2   3  1   
  3   2   4  am  
  4   3   5  1   
  5   4   6  1   
  6   4  17  1   
  7   5   7  1   
  8   5   8  1   
  9   5   9  1   
 10   6  10  ar  
 11   6  11  ar  
 12   7  18  1   
 13   7  19  1   
 14   7  20  1   
 15   8  21  1   
 16   8  22  1   
 17   8  23  1   
 18   9  24  1   
 19   9  25  1   
 20   9  26  1   
 21  10  12  ar  
 22  10  13  1   
 23  11  14  ar  
 24  11  27  1   
 25  12  15  ar  
 26  12  28  1   
 27  13  29  1   
 28  13  30  1   
 29  13  31  1   
 30  14  15  ar  
 31  14  16  1   
 32  15  32  1   
 33  16  33  1   
 34  16  34  1   
 35  16  35  1   
@<TRIPOS>SUBSTRUCTURE
  1 ****   4 GROUP 4 **** **** 0

# MOE 2024.06 (io_trps.svl 2023.06)
