@<TRIPOS>MOLECULE
NONAME
26 25 1 0 0 
SMALL
USER_CHARGES


@<TRIPOS>ATOM
  1 S        0.0270     0.1640     0.0790 S.o2  1 <1>   1.3450 
  2 O       -0.2730     0.9790     1.2790 O.co2 1 <1>  -0.8170 
  3 O       -0.2170     0.8500    -1.2070 O.co2 1 <1>  -0.8170 
  4 O        1.1850    -0.7440     0.1560 O.co2 1 <1>  -0.8170 
  5 C       -1.3560    -0.9490     0.1090 C.3   1 <1>  -0.0550 
  6 C       -2.5650    -0.0460     0.0360 C.3   1 <1>   0.3430 
  7 N       -3.8270    -0.8360     0.0520 N.4   1 <1>  -0.9060 
  8 C       -5.0070     0.0510    -0.0190 C.3   1 <1>   0.3430 
  9 C       -6.2720    -0.8030     0.0000 C.3   1 <1>  -0.1600 
 10 C       -7.5260     0.0780    -0.0730 C.3   1 <1>  -0.1600 
 11 C       -8.7970    -0.7760    -0.0530 C.3   1 <1>  -0.2400 
 12 H       -1.3410    -1.5090     1.0220 H     1 <1>   0.0800 
 13 H       -1.3040    -1.6020    -0.7380 H     1 <1>   0.0800 
 14 H       -2.5040     0.5430    -0.8670 H     1 <1>   0.0800 
 15 H       -2.5400     0.6360     0.8730 H     1 <1>   0.0800 
 16 H       -3.8620    -1.3950     0.9130 H     1 <1>   0.4500 
 17 H       -3.8280    -1.4830    -0.7450 H     1 <1>   0.4500 
 18 H       -4.9750     0.6350    -0.9260 H     1 <1>   0.0800 
 19 H       -5.0110     0.7280     0.8210 H     1 <1>   0.0800 
 20 H       -6.3060    -1.3810     0.9080 H     1 <1>   0.0800 
 21 H       -6.2700    -1.4740    -0.8420 H     1 <1>   0.0800 
 22 H       -7.5150     0.6640    -0.9770 H     1 <1>   0.0800 
 23 H       -7.5500     0.7570     0.7640 H     1 <1>   0.0800 
 24 H       -8.8200    -1.4470    -0.8940 H     1 <1>   0.0800 
 25 H       -9.6660    -0.1430    -0.1050 H     1 <1>   0.0800 
 26 H       -8.8560    -1.3540     0.8530 H     1 <1>   0.0800 
@<TRIPOS>BOND
  1   1   2  ar  
  2   1   3  ar  
  3   1   4  ar  
  4   1   5  1   
  5   5   6  1   
  6   5  12  1   
  7   5  13  1   
  8   6   7  1   
  9   6  14  1   
 10   6  15  1   
 11   7   8  1   
 12   7  16  1   
 13   7  17  1   
 14   8   9  1   
 15   8  18  1   
 16   8  19  1   
 17   9  10  1   
 18   9  20  1   
 19   9  21  1   
 20  10  11  1   
 21  10  22  1   
 22  10  23  1   
 23  11  24  1   
 24  11  25  1   
 25  11  26  1   
@<TRIPOS>SUBSTRUCTURE
  1 ****   6 GROUP 4 **** **** 0

# MOE 2024.06 (io_trps.svl 2023.06)
