@<TRIPOS>MOLECULE
NONAME
45 47 1 0 0 
SMALL
USER_CHARGES


@<TRIPOS>ATOM
  1 S       -0.1550     0.0620    -0.1430 S.o2  1 <1>   1.2040 
  2 O       -0.0440     0.2520    -1.5740 O.2   1 <1>  -0.6500 
  3 O       -0.9040    -1.0590     0.3850 O.2   1 <1>  -0.6500 
  4 C        1.5090     0.0320     0.5660 C.ar  1 <1>  -0.0090 
  5 C       -0.7980     1.5710     0.5920 C.3   1 <1>   0.0890 
  6 C        1.7610    -0.5930     1.7820 C.ar  1 <1>  -0.1500 
  7 C        2.5710     0.6640    -0.0720 C.ar  1 <1>  -0.1500 
  8 C       -2.2220     1.9190     0.1740 C.ar  1 <1>  -0.1440 
  9 C        3.0250    -0.5820     2.3480 C.ar  1 <1>  -0.1500 
 10 C        3.8380     0.6800     0.4870 C.ar  1 <1>  -0.1500 
 11 C       -3.2880     1.1370     0.5900 C.ar  1 <1>  -0.1500 
 12 C       -2.4710     3.0180    -0.6310 C.ar  1 <1>  -0.1500 
 13 C        4.0650     0.0570     1.7000 C.ar  1 <1>  -0.1500 
 14 C       -4.5800     1.4560     0.2130 C.ar  1 <1>  -0.1500 
 15 C       -3.7660     3.3330    -1.0010 C.ar  1 <1>  -0.1500 
 16 C       -4.8560     2.5680    -0.5850 C.ar  1 <1>   0.0860 
 17 C       -6.2110     2.9270    -0.9750 C.2   1 <1>   0.5440 
 18 O       -6.4150     3.6110    -1.9590 O.2   1 <1>  -0.5700 
 19 N       -7.2820     2.5170    -0.2320 N.am  1 <1>  -0.7300 
 20 C       -8.6960     2.8100    -0.5170 C.3   1 <1>   0.2200 
 21 C       -9.2850     3.5720     0.6630 C.3   1 <1>  -0.1600 
 22 C       -9.4770     1.5020    -0.5150 C.3   1 <1>  -0.1600 
 23 C       -9.6240     2.5110     1.7170 C.3   1 <1>  -0.1600 
 24 C       -9.7580     1.1830     0.9580 C.3   1 <1>  -0.1600 
 25 H       -0.1520     2.3880     0.3330 H     1 <1>   0.0800 
 26 H       -0.7770     1.4770     1.6610 H     1 <1>   0.0800 
 27 H        0.9610    -1.1020     2.2950 H     1 <1>   0.1500 
 28 H        2.4100     1.1470    -1.0220 H     1 <1>   0.1500 
 29 H        3.1990    -1.0740     3.2900 H     1 <1>   0.1500 
 30 H        4.6470     1.1740    -0.0240 H     1 <1>   0.1500 
 31 H       -3.1180     0.2670     1.2030 H     1 <1>   0.1500 
 32 H       -1.6630     3.6370    -0.9810 H     1 <1>   0.1500 
 33 H        5.0490     0.0660     2.1360 H     1 <1>   0.1500 
 34 H       -5.3830     0.8210     0.5380 H     1 <1>   0.1500 
 35 H       -3.9450     4.1900    -1.6300 H     1 <1>   0.1500 
 36 H       -7.1310     2.0260     0.6470 H     1 <1>   0.3700 
 37 H       -8.7990     3.3480    -1.4460 H     1 <1>   0.0800 
 38 H      -10.1950     4.0460     0.3390 H     1 <1>   0.0800 
 39 H       -8.6160     4.3300     1.0310 H     1 <1>   0.0800 
 40 H       -8.9480     0.7130    -1.0210 H     1 <1>   0.0800 
 41 H      -10.4120     1.6660    -1.0210 H     1 <1>   0.0800 
 42 H      -10.5340     2.7620     2.2350 H     1 <1>   0.0800 
 43 H       -8.8250     2.4400     2.4340 H     1 <1>   0.0800 
 44 H       -9.0320     0.4790     1.3270 H     1 <1>   0.0800 
 45 H      -10.7410     0.7610     1.0760 H     1 <1>   0.0800 
@<TRIPOS>BOND
  1   1   2  2   
  2   1   3  2   
  3   1   4  1   
  4   1   5  1   
  5   4   6  ar  
  6   4   7  ar  
  7   5   8  1   
  8   5  25  1   
  9   5  26  1   
 10   6   9  ar  
 11   6  27  1   
 12   7  10  ar  
 13   7  28  1   
 14   8  11  ar  
 15   8  12  ar  
 16   9  13  ar  
 17   9  29  1   
 18  10  13  ar  
 19  10  30  1   
 20  11  14  ar  
 21  11  31  1   
 22  12  15  ar  
 23  12  32  1   
 24  13  33  1   
 25  14  16  ar  
 26  14  34  1   
 27  15  16  ar  
 28  15  35  1   
 29  16  17  1   
 30  17  18  2   
 31  17  19  am  
 32  19  20  1   
 33  19  36  1   
 34  20  21  1   
 35  20  22  1   
 36  20  37  1   
 37  21  23  1   
 38  21  38  1   
 39  21  39  1   
 40  22  24  1   
 41  22  40  1   
 42  22  41  1   
 43  23  24  1   
 44  23  42  1   
 45  23  43  1   
 46  24  44  1   
 47  24  45  1   
@<TRIPOS>SUBSTRUCTURE
  1 ****  11 GROUP 4 **** **** 0

# MOE 2024.06 (io_trps.svl 2023.06)
