@<TRIPOS>MOLECULE
NONAME
52 55 1 0 0 
SMALL
USER_CHARGES


@<TRIPOS>ATOM
  1 O        0.1780    -0.1090    -0.3520 O.3   1 <1>  -0.3630 
  2 C        0.2800    -1.4590    -0.2000 C.ar  1 <1>   0.0830 
  3 C        0.9350     0.7700     0.4520 C.3   1 <1>   0.0400 
  4 C        1.5140    -2.1560    -0.0170 C.ar  1 <1>   0.3100 
  5 C       -0.9150    -2.1310    -0.2470 C.ar  1 <1>  -0.1500 
  6 N        2.7000    -1.4870    -0.0280 N.ar  1 <1>  -0.6200 
  7 C        1.4560    -3.5650     0.1530 C.ar  1 <1>   0.0000 
  8 C       -0.9610    -3.5210    -0.0910 C.ar  1 <1>   0.0830 
  9 C        3.8010    -2.1600     0.1350 C.ar  1 <1>   0.4100 
 10 C        2.6670    -4.2680     0.3540 C.ar  1 <1>  -0.1440 
 11 C        0.2030    -4.2090     0.1100 C.ar  1 <1>  -0.1500 
 12 O       -2.1140    -4.2370    -0.1250 O.3   1 <1>  -0.3630 
 13 N        5.0010    -1.4790     0.0940 N.pl3 1 <1>  -0.8380 
 14 C        3.8190    -3.5480     0.3420 C.ar  1 <1>  -0.1500 
 15 C        2.6980    -5.7730     0.5810 C.3   1 <1>  -0.0970 
 16 C       -3.3540    -3.6160    -0.3820 C.3   1 <1>   0.0400 
 17 C        5.0180    -0.0270     0.4620 C.3   1 <1>   0.2090 
 18 C        5.9120    -1.7600    -1.0580 C.3   1 <1>   0.2090 
 19 C        6.4480     0.4770     0.7370 C.3   1 <1>   0.2090 
 20 C        7.3470    -1.2650    -0.7850 C.3   1 <1>   0.2090 
 21 N        7.3750     0.1810    -0.4010 N.pl3 1 <1>  -0.8380 
 22 C        8.6320     0.7710    -0.3370 C.ar  1 <1>   0.1000 
 23 C        8.9780     1.7430    -1.2650 C.ar  1 <1>  -0.1500 
 24 C        9.5590     0.4150     0.6360 C.ar  1 <1>  -0.1500 
 25 C       10.2210     2.3480    -1.2280 C.ar  1 <1>  -0.1500 
 26 C       10.8050     1.0160     0.6780 C.ar  1 <1>  -0.1500 
 27 C       11.1370     1.9850    -0.2550 C.ar  1 <1>  -0.1500 
 28 H        0.4060     1.7020     0.5220 H     1 <1>   0.0800 
 29 H        1.8900     0.9280    -0.0160 H     1 <1>   0.0800 
 30 H        1.0590     0.3380     1.4300 H     1 <1>   0.0800 
 31 H       -1.8120    -1.5640    -0.4020 H     1 <1>   0.1500 
 32 H        0.1440    -5.2730     0.2320 H     1 <1>   0.1500 
 33 H        4.7750    -4.0080     0.4970 H     1 <1>   0.1500 
 34 H        2.2910    -6.2830    -0.2730 H     1 <1>   0.0800 
 35 H        2.1200    -6.0260     1.4520 H     1 <1>   0.0800 
 36 H        3.7050    -6.1180     0.7320 H     1 <1>   0.0800 
 37 H       -4.1140    -4.3770    -0.3850 H     1 <1>   0.0800 
 38 H       -3.3130    -3.1380    -1.3450 H     1 <1>   0.0800 
 39 H       -3.5560    -2.9020     0.3960 H     1 <1>   0.0800 
 40 H        4.4120     0.1260     1.3370 H     1 <1>   0.0800 
 41 H        4.5920     0.5470    -0.3430 H     1 <1>   0.0800 
 42 H        5.5330    -1.2630    -1.9340 H     1 <1>   0.0800 
 43 H        5.9340    -2.8160    -1.2590 H     1 <1>   0.0800 
 44 H        6.8160     0.0050     1.6310 H     1 <1>   0.0800 
 45 H        6.4250     1.5390     0.9050 H     1 <1>   0.0800 
 46 H        7.9450    -1.4050    -1.6680 H     1 <1>   0.0800 
 47 H        7.7750    -1.8540     0.0060 H     1 <1>   0.0800 
 48 H        8.2590     2.0160    -2.0150 H     1 <1>   0.1500 
 49 H        9.3000    -0.3360     1.3580 H     1 <1>   0.1500 
 50 H       10.4760     3.0990    -1.9540 H     1 <1>   0.1500 
 51 H       11.5150     0.7330     1.4350 H     1 <1>   0.1500 
 52 H       12.1050     2.4540    -0.2240 H     1 <1>   0.1500 
@<TRIPOS>BOND
  1   1   2  1   
  2   1   3  1   
  3   2   4  ar  
  4   2   5  ar  
  5   3  28  1   
  6   3  29  1   
  7   3  30  1   
  8   4   6  ar  
  9   4   7  ar  
 10   5   8  ar  
 11   5  31  1   
 12   6   9  ar  
 13   7  10  ar  
 14   7  11  ar  
 15   8  11  ar  
 16   8  12  1   
 17   9  13  1   
 18   9  14  ar  
 19  10  14  ar  
 20  10  15  1   
 21  11  32  1   
 22  12  16  1   
 23  13  17  1   
 24  13  18  1   
 25  14  33  1   
 26  15  34  1   
 27  15  35  1   
 28  15  36  1   
 29  16  37  1   
 30  16  38  1   
 31  16  39  1   
 32  17  19  1   
 33  17  40  1   
 34  17  41  1   
 35  18  20  1   
 36  18  42  1   
 37  18  43  1   
 38  19  21  1   
 39  19  44  1   
 40  19  45  1   
 41  20  21  1   
 42  20  46  1   
 43  20  47  1   
 44  21  22  1   
 45  22  23  ar  
 46  22  24  ar  
 47  23  25  ar  
 48  23  48  1   
 49  24  26  ar  
 50  24  49  1   
 51  25  27  ar  
 52  25  50  1   
 53  26  27  ar  
 54  26  51  1   
 55  27  52  1   
@<TRIPOS>SUBSTRUCTURE
  1 ****   9 GROUP 4 **** **** 0

# MOE 2024.06 (io_trps.svl 2023.06)
