@<TRIPOS>MOLECULE
NONAME
43 45 1 0 0 
SMALL
USER_CHARGES


@<TRIPOS>ATOM
  1 O       -0.6060    -0.8620    -0.7260 O.2   1 <1>  -0.5700 
  2 C       -0.5440    -2.0700    -0.6000 C.2   1 <1>   0.6900 
  3 N       -1.6830    -2.8300    -0.6550 N.am  1 <1>  -0.6600 
  4 N        0.6840    -2.6090    -0.3730 N.am  1 <1>  -0.5470 
  5 C       -1.9080    -4.0150     0.2310 C.3   1 <1>   0.1400 
  6 C       -2.9580    -2.2680    -1.1910 C.3   1 <1>   0.1400 
  7 C        1.2450    -3.8690    -0.6460 C.ar  1 <1>   0.1170 
  8 C       -2.9020    -3.6910     1.3630 C.3   1 <1>   0.2090 
  9 C       -3.9210    -1.9010    -0.0500 C.3   1 <1>   0.2090 
 10 C        2.3900    -4.2780     0.0460 C.ar  1 <1>   0.0820 
 11 C        0.6990    -4.7170    -1.6040 C.ar  1 <1>  -0.1500 
 12 N       -4.1650    -3.0670     0.8530 N.pl3 1 <1>  -0.8380 
 13 O        2.9170    -3.4060     0.9580 O.3   1 <1>  -0.3630 
 14 C        2.9460    -5.5280    -0.2100 C.ar  1 <1>  -0.1500 
 15 C        1.2560    -5.9580    -1.8550 C.ar  1 <1>  -0.1500 
 16 C       -5.2490    -3.8760     0.5700 C.ar  1 <1>   0.4100 
 17 C        4.0740    -3.7270     1.6980 C.3   1 <1>   0.0400 
 18 C        2.3770    -6.3650    -1.1550 C.ar  1 <1>  -0.1500 
 19 N       -5.0010    -5.0880     0.0840 N.ar  1 <1>  -0.6200 
 20 C       -6.5360    -3.3940     0.7910 C.ar  1 <1>  -0.1500 
 21 C       -6.0620    -5.8300    -0.1860 C.ar  1 <1>   0.1600 
 22 C       -7.6310    -4.1750     0.5040 C.ar  1 <1>  -0.1500 
 23 C       -7.3740    -5.4330    -0.0010 C.ar  1 <1>  -0.1500 
 24 H        1.3510    -1.9200    -0.0290 H     1 <1>   0.3700 
 25 H       -0.9850    -4.3420     0.6720 H     1 <1>   0.0800 
 26 H       -2.3000    -4.8260    -0.3570 H     1 <1>   0.0800 
 27 H       -3.4270    -3.0020    -1.8230 H     1 <1>   0.0800 
 28 H       -2.7580    -1.3960    -1.7880 H     1 <1>   0.0800 
 29 H       -2.4350    -3.0140     2.0560 H     1 <1>   0.0800 
 30 H       -3.1370    -4.5940     1.8990 H     1 <1>   0.0800 
 31 H       -4.8520    -1.5630    -0.4700 H     1 <1>   0.0800 
 32 H       -3.5000    -1.0910     0.5200 H     1 <1>   0.0800 
 33 H       -0.1650    -4.4040    -2.1610 H     1 <1>   0.1500 
 34 H        3.8180    -5.8720     0.3120 H     1 <1>   0.1500 
 35 H        0.8170    -6.6030    -2.5960 H     1 <1>   0.1500 
 36 H        4.2990    -2.8960     2.3420 H     1 <1>   0.0800 
 37 H        4.8900    -3.8920     1.0170 H     1 <1>   0.0800 
 38 H        3.8800    -4.6040     2.2890 H     1 <1>   0.0800 
 39 H        2.8090    -7.3320    -1.3500 H     1 <1>   0.1500 
 40 H       -6.6530    -2.4070     1.1950 H     1 <1>   0.1500 
 41 H       -5.8740    -6.8140    -0.5800 H     1 <1>   0.1500 
 42 H       -8.6350    -3.8260     0.6670 H     1 <1>   0.1500 
 43 H       -8.1820    -6.0980    -0.2470 H     1 <1>   0.1500 
@<TRIPOS>BOND
  1   1   2  2   
  2   2   3  am  
  3   2   4  am  
  4   3   5  1   
  5   3   6  1   
  6   4   7  1   
  7   4  24  1   
  8   5   8  1   
  9   5  25  1   
 10   5  26  1   
 11   6   9  1   
 12   6  27  1   
 13   6  28  1   
 14   7  10  ar  
 15   7  11  ar  
 16   8  12  1   
 17   8  29  1   
 18   8  30  1   
 19   9  12  1   
 20   9  31  1   
 21   9  32  1   
 22  10  13  1   
 23  10  14  ar  
 24  11  15  ar  
 25  11  33  1   
 26  12  16  1   
 27  13  17  1   
 28  14  18  ar  
 29  14  34  1   
 30  15  18  ar  
 31  15  35  1   
 32  16  19  ar  
 33  16  20  ar  
 34  17  36  1   
 35  17  37  1   
 36  17  38  1   
 37  18  39  1   
 38  19  21  ar  
 39  20  22  ar  
 40  20  40  1   
 41  21  23  ar  
 42  21  41  1   
 43  22  23  ar  
 44  22  42  1   
 45  23  43  1   
@<TRIPOS>SUBSTRUCTURE
  1 ****   5 GROUP 4 **** **** 0

# MOE 2024.06 (io_trps.svl 2023.06)
