@<TRIPOS>MOLECULE
NONAME
46 48 1 0 0 
SMALL
USER_CHARGES


@<TRIPOS>ATOM
  1 S        0.8800    -0.3810    -0.7560 S.o2  1 <1>   1.5010 
  2 O        1.9340    -1.1630    -1.3690 O.2   1 <1>  -0.6500 
  3 O        0.8790     1.0510    -0.9460 O.2   1 <1>  -0.6500 
  4 N        1.0840    -0.6330     0.9140 N.am  1 <1>  -0.8490 
  5 C       -0.7350    -1.0980    -1.0900 C.2   1 <1>  -0.0630 
  6 C        1.2480    -2.0610     1.2840 C.3   1 <1>   0.1960 
  7 C        2.1260     0.2350     1.4970 C.3   1 <1>   0.1960 
  8 C       -1.9470    -0.6500    -0.5730 C.2   1 <1>   0.1080 
  9 C       -1.0870    -2.1700    -1.8460 C.2   1 <1>  -0.3020 
 10 C        2.6070    -2.4190     1.9470 C.3   1 <1>   0.3430 
 11 C        3.5460    -0.2280     1.0970 C.3   1 <1>   0.3430 
 12 N       -2.9490    -1.3760    -0.9570 N.2   1 <1>  -0.7070 
 13 C       -2.1380     0.5450     0.3380 C.3   1 <1>  -0.0590 
 14 N       -2.4210    -2.3110    -1.7540 N.pl3 1 <1>   0.3140 
 15 N        3.8000    -1.7010     1.3640 N.4   1 <1>  -0.9590 
 16 C       -3.2610    -3.3190    -2.4110 C.3   1 <1>   0.0160 
 17 C        4.3140    -2.3840     0.1370 C.3   1 <1>   0.4860 
 18 C        5.5940    -1.7020    -0.3010 C.ar  1 <1>  -0.1430 
 19 C        5.5870    -0.8830    -1.4220 C.ar  1 <1>  -0.1500 
 20 C        6.7740    -1.8830     0.4070 C.ar  1 <1>  -0.1500 
 21 C        6.7450    -0.2390    -1.8200 C.ar  1 <1>  -0.1500 
 22 C        7.9300    -1.2370     0.0070 C.ar  1 <1>  -0.1500 
 23 C        7.9160    -0.4130    -1.1040 C.ar  1 <1>  -0.1500 
 24 H        1.1100    -2.6920     0.4220 H     1 <1>   0.0800 
 25 H        0.4610    -2.3210     1.9720 H     1 <1>   0.0800 
 26 H        2.0380     0.2250     2.5700 H     1 <1>   0.0800 
 27 H        1.9810     1.2580     1.1880 H     1 <1>   0.0800 
 28 H       -0.4670    -2.8190    -2.4360 H     1 <1>   0.1500 
 29 H        2.7550    -3.4860     1.9030 H     1 <1>   0.0800 
 30 H        2.5280    -2.1570     2.9890 H     1 <1>   0.0800 
 31 H        4.2730     0.3660     1.6260 H     1 <1>   0.0800 
 32 H        3.6750    -0.0210     0.0480 H     1 <1>   0.0800 
 33 H       -1.7610     1.4330    -0.1350 H     1 <1>   0.0800 
 34 H       -1.6230     0.3890     1.2680 H     1 <1>   0.0800 
 35 H       -3.1840     0.6840     0.5430 H     1 <1>   0.0800 
 36 H        4.5770    -1.7480     2.0340 H     1 <1>   0.4500 
 37 H       -2.6570    -3.9420    -3.0430 H     1 <1>   0.0800 
 38 H       -4.0070    -2.8180    -2.9990 H     1 <1>   0.0800 
 39 H       -3.7420    -3.9150    -1.6580 H     1 <1>   0.0800 
 40 H        3.5910    -2.3470    -0.6570 H     1 <1>   0.0800 
 41 H        4.5230    -3.4200     0.3490 H     1 <1>   0.0800 
 42 H        4.6860    -0.7390    -1.9970 H     1 <1>   0.1500 
 43 H        6.8150    -2.5260     1.2690 H     1 <1>   0.1500 
 44 H        6.7380     0.3980    -2.6890 H     1 <1>   0.1500 
 45 H        8.8480    -1.3750     0.5550 H     1 <1>   0.1500 
 46 H        8.8160     0.0880    -1.4160 H     1 <1>   0.1500 
@<TRIPOS>BOND
  1   1   2  2   
  2   1   3  2   
  3   1   4  am  
  4   1   5  1   
  5   4   6  1   
  6   4   7  1   
  7   5   8  1   
  8   5   9  2   
  9   6  10  1   
 10   6  24  1   
 11   6  25  1   
 12   7  11  1   
 13   7  26  1   
 14   7  27  1   
 15   8  12  2   
 16   8  13  1   
 17   9  14  1   
 18   9  28  1   
 19  10  15  1   
 20  10  29  1   
 21  10  30  1   
 22  11  15  1   
 23  11  31  1   
 24  11  32  1   
 25  12  14  1   
 26  13  33  1   
 27  13  34  1   
 28  13  35  1   
 29  14  16  1   
 30  15  17  1   
 31  15  36  1   
 32  16  37  1   
 33  16  38  1   
 34  16  39  1   
 35  17  18  1   
 36  17  40  1   
 37  17  41  1   
 38  18  19  ar  
 39  18  20  ar  
 40  19  21  ar  
 41  19  42  1   
 42  20  22  ar  
 43  20  43  1   
 44  21  23  ar  
 45  21  44  1   
 46  22  23  ar  
 47  22  45  1   
 48  23  46  1   
@<TRIPOS>SUBSTRUCTURE
  1 ****   2 GROUP 4 **** **** 0

# MOE 2024.06 (io_trps.svl 2023.06)
