@<TRIPOS>MOLECULE
NONAME
51 54 1 0 0 
SMALL
USER_CHARGES


@<TRIPOS>ATOM
  1 S       -0.1480    -0.2010     0.2000 S.3   1 <1>  -0.0800 
  2 C        1.3970     0.6220    -0.0540 C.ar  1 <1>   0.2970 
  3 C       -1.0550     1.2420    -0.2780 C.2   1 <1>  -0.0450 
  4 N        2.5540     0.0200     0.1540 N.ar  1 <1>  -0.5670 
  5 C        1.1780     1.9250    -0.4820 C.ar  1 <1>   0.0000 
  6 C       -2.4550     1.3890    -0.3370 C.2   1 <1>   0.7150 
  7 C       -0.2160     2.2510    -0.6000 C.2   1 <1>   0.1250 
  8 C        3.6000     0.7930    -0.0870 C.ar  1 <1>   0.1660 
  9 C        2.2950     2.7060    -0.7250 C.ar  1 <1>  -0.1500 
 10 O       -3.2340     0.4870    -0.0510 O.2   1 <1>  -0.5700 
 11 N       -2.9120     2.6310    -0.7410 N.am  1 <1>  -0.4200 
 12 N       -0.7080     3.4670    -0.9990 N.2   1 <1>  -0.5750 
 13 C        3.5290     2.1190    -0.5200 C.ar  1 <1>  -0.1430 
 14 C        4.9590     0.1550     0.1180 C.3   1 <1>  -0.0170 
 15 C       -1.9860     3.6190    -1.0570 C.2   1 <1>   0.4490 
 16 C       -4.3880     2.8530    -0.8030 C.3   1 <1>   0.1400 
 17 C        4.7940     2.9360    -0.7520 C.3   1 <1>   0.2640 
 18 C        6.0750     1.1970     0.2830 C.3   1 <1>   0.2800 
 19 C       -2.4820     4.9820    -1.5060 C.3   1 <1>  -0.1790 
 20 C       -4.9130     3.3000     0.5680 C.3   1 <1>  -0.1600 
 21 O        5.9510     2.1470    -0.7300 O.3   1 <1>  -0.5600 
 22 C        7.4450     0.5510     0.0740 C.3   1 <1>  -0.2400 
 23 C        6.0470     1.8850     1.6580 C.3   1 <1>  -0.2400 
 24 C       -6.3950     3.7130     0.5370 C.3   1 <1>  -0.0800 
 25 C       -6.8080     4.2600     1.9090 C.3   1 <1>  -0.2400 
 26 C       -7.3110     2.5400     0.1600 C.3   1 <1>  -0.2400 
 27 H        2.1800     3.7230    -1.0570 H     1 <1>   0.1500 
 28 H        5.1650    -0.4660    -0.7340 H     1 <1>   0.0800 
 29 H        4.9310    -0.4820     0.9830 H     1 <1>   0.0800 
 30 H       -4.8740     1.9380    -1.0990 H     1 <1>   0.0800 
 31 H       -4.6280     3.5880    -1.5480 H     1 <1>   0.0800 
 32 H        4.8910     3.6980     0.0010 H     1 <1>   0.0800 
 33 H        4.7530     3.4120    -1.7150 H     1 <1>   0.0800 
 34 H       -3.1290     5.4110    -0.7650 H     1 <1>   0.0800 
 35 H       -3.0030     4.8960    -2.4410 H     1 <1>   0.0800 
 36 H       -1.6500     5.6490    -1.6480 H     1 <1>   0.0800 
 37 H       -4.3310     4.1380     0.9090 H     1 <1>   0.0800 
 38 H       -4.7830     2.4970     1.2730 H     1 <1>   0.0800 
 39 H        7.5060     0.1130    -0.9060 H     1 <1>   0.0800 
 40 H        7.6120    -0.2200     0.8040 H     1 <1>   0.0800 
 41 H        8.2220     1.2880     0.1730 H     1 <1>   0.0800 
 42 H        5.0730     2.2770     1.8850 H     1 <1>   0.0800 
 43 H        6.7700     2.6800     1.6910 H     1 <1>   0.0800 
 44 H        6.2930     1.1740     2.4260 H     1 <1>   0.0800 
 45 H       -6.5260     4.5000    -0.1880 H     1 <1>   0.0800 
 46 H       -6.6980     3.5050     2.6670 H     1 <1>   0.0800 
 47 H       -7.8350     4.5800     1.8910 H     1 <1>   0.0800 
 48 H       -6.1980     5.1050     2.1760 H     1 <1>   0.0800 
 49 H       -7.1640     1.7130     0.8330 H     1 <1>   0.0800 
 50 H       -7.1200     2.2060    -0.8430 H     1 <1>   0.0800 
 51 H       -8.3420     2.8420     0.2140 H     1 <1>   0.0800 
@<TRIPOS>BOND
  1   1   2  1   
  2   1   3  1   
  3   2   4  ar  
  4   2   5  ar  
  5   3   6  1   
  6   3   7  2   
  7   4   8  ar  
  8   5   7  1   
  9   5   9  ar  
 10   6  10  2   
 11   6  11  am  
 12   7  12  1   
 13   8  13  ar  
 14   8  14  1   
 15   9  13  ar  
 16   9  27  1   
 17  11  15  1   
 18  11  16  1   
 19  12  15  2   
 20  13  17  1   
 21  14  18  1   
 22  14  28  1   
 23  14  29  1   
 24  15  19  1   
 25  16  20  1   
 26  16  30  1   
 27  16  31  1   
 28  17  21  1   
 29  17  32  1   
 30  17  33  1   
 31  18  21  1   
 32  18  22  1   
 33  18  23  1   
 34  19  34  1   
 35  19  35  1   
 36  19  36  1   
 37  20  24  1   
 38  20  37  1   
 39  20  38  1   
 40  22  39  1   
 41  22  40  1   
 42  22  41  1   
 43  23  42  1   
 44  23  43  1   
 45  23  44  1   
 46  24  25  1   
 47  24  26  1   
 48  24  45  1   
 49  25  46  1   
 50  25  47  1   
 51  25  48  1   
 52  26  49  1   
 53  26  50  1   
 54  26  51  1   
@<TRIPOS>SUBSTRUCTURE
  1 ****   7 GROUP 4 **** **** 0

# MOE 2024.06 (io_trps.svl 2023.06)
