@<TRIPOS>MOLECULE
NONAME
52 53 1 0 0 
SMALL
USER_CHARGES


@<TRIPOS>ATOM
  1 S        0.0540    -0.0810     0.0280 S.o2  1 <1>   1.3330 
  2 O       -0.9190    -0.0530     1.0990 O.2   1 <1>  -0.6500 
  3 O        1.2790     0.6690     0.1790 O.2   1 <1>  -0.6500 
  4 N        0.4570    -1.7010    -0.2340 N.am  1 <1>  -0.8490 
  5 C       -0.6920     0.4140    -1.5120 C.3   1 <1>  -0.1350 
  6 C        1.7430    -2.0260     0.3960 C.3   1 <1>   0.3390 
  7 C       -0.6140    -2.6600     0.1730 C.3   1 <1>   0.2570 
  8 C        2.1430    -3.4790     0.1690 C.ar  1 <1>  -0.1440 
  9 C       -2.0130    -2.4250    -0.4200 C.2   1 <1>   0.5690 
 10 C        2.3840    -4.3200     1.2460 C.ar  1 <1>  -0.1500 
 11 C        2.2660    -3.9760    -1.1210 C.ar  1 <1>  -0.1500 
 12 O       -2.2160    -2.7280    -1.5710 O.2   1 <1>  -0.5700 
 13 N       -2.9790    -1.8780     0.3820 N.am  1 <1>  -0.5470 
 14 C        2.7420    -5.6410     1.0350 C.ar  1 <1>  -0.1500 
 15 C        2.6230    -5.2960    -1.3320 C.ar  1 <1>  -0.1500 
 16 C       -4.3500    -1.6950     0.1230 C.ar  1 <1>   0.1170 
 17 C        2.8610    -6.1290    -0.2540 C.ar  1 <1>  -0.1500 
 18 C       -5.2130    -2.7610    -0.1810 C.ar  1 <1>  -0.1430 
 19 C       -4.8680    -0.3970     0.2000 C.ar  1 <1>  -0.1430 
 20 C       -6.5480    -2.4920    -0.4500 C.ar  1 <1>  -0.1500 
 21 C       -4.7610    -4.2290    -0.2110 C.3   1 <1>   0.0630 
 22 C       -6.2050    -0.1620    -0.0650 C.ar  1 <1>  -0.1500 
 23 C       -3.9930     0.7950     0.5720 C.3   1 <1>  -0.0970 
 24 C       -7.0450    -1.2050    -0.3960 C.ar  1 <1>  -0.1500 
 25 C       -4.9000    -4.8210    -1.6190 C.3   1 <1>  -0.2400 
 26 C       -5.5410    -5.0720     0.8060 C.3   1 <1>  -0.2400 
 27 H       -0.9490     1.4540    -1.4780 H     1 <1>   0.0800 
 28 H       -1.5810    -0.1500    -1.7130 H     1 <1>   0.0800 
 29 H       -0.0030     0.2590    -2.3190 H     1 <1>   0.0800 
 30 H        1.6920    -1.8180     1.4520 H     1 <1>   0.0800 
 31 H        2.5170    -1.4060    -0.0250 H     1 <1>   0.0800 
 32 H       -0.6970    -2.6650     1.2460 H     1 <1>   0.0800 
 33 H       -0.3340    -3.6530    -0.1300 H     1 <1>   0.0800 
 34 H        2.2980    -3.9550     2.2540 H     1 <1>   0.1500 
 35 H        2.0770    -3.3330    -1.9630 H     1 <1>   0.1500 
 36 H       -2.6110    -1.3000     1.1460 H     1 <1>   0.3700 
 37 H        2.9300    -6.2890     1.8730 H     1 <1>   0.1500 
 38 H        2.7150    -5.6740    -2.3360 H     1 <1>   0.1500 
 39 H        3.1400    -7.1560    -0.4180 H     1 <1>   0.1500 
 40 H       -7.2230    -3.2890    -0.7010 H     1 <1>   0.1500 
 41 H       -3.7290    -4.3070     0.0670 H     1 <1>   0.0800 
 42 H       -6.6060     0.8350    -0.0170 H     1 <1>   0.1500 
 43 H       -4.5720     1.6990     0.6260 H     1 <1>   0.0800 
 44 H       -3.5330     0.6370     1.5300 H     1 <1>   0.0800 
 45 H       -3.2290     0.9320    -0.1690 H     1 <1>   0.0800 
 46 H       -8.0830    -1.0170    -0.6080 H     1 <1>   0.1500 
 47 H       -5.9280    -4.8540    -1.9260 H     1 <1>   0.0800 
 48 H       -4.4980    -5.8180    -1.6450 H     1 <1>   0.0800 
 49 H       -4.3530    -4.2160    -2.3200 H     1 <1>   0.0800 
 50 H       -6.5830    -5.1280     0.5480 H     1 <1>   0.0800 
 51 H       -5.4530    -4.6340     1.7840 H     1 <1>   0.0800 
 52 H       -5.1450    -6.0710     0.8410 H     1 <1>   0.0800 
@<TRIPOS>BOND
  1   1   2  2   
  2   1   3  2   
  3   1   4  am  
  4   1   5  1   
  5   4   6  1   
  6   4   7  1   
  7   5  27  1   
  8   5  28  1   
  9   5  29  1   
 10   6   8  1   
 11   6  30  1   
 12   6  31  1   
 13   7   9  1   
 14   7  32  1   
 15   7  33  1   
 16   8  10  ar  
 17   8  11  ar  
 18   9  12  2   
 19   9  13  am  
 20  10  14  ar  
 21  10  34  1   
 22  11  15  ar  
 23  11  35  1   
 24  13  16  1   
 25  13  36  1   
 26  14  17  ar  
 27  14  37  1   
 28  15  17  ar  
 29  15  38  1   
 30  16  18  ar  
 31  16  19  ar  
 32  17  39  1   
 33  18  20  ar  
 34  18  21  1   
 35  19  22  ar  
 36  19  23  1   
 37  20  24  ar  
 38  20  40  1   
 39  21  25  1   
 40  21  26  1   
 41  21  41  1   
 42  22  24  ar  
 43  22  42  1   
 44  23  43  1   
 45  23  44  1   
 46  23  45  1   
 47  24  46  1   
 48  25  47  1   
 49  25  48  1   
 50  25  49  1   
 51  26  50  1   
 52  26  51  1   
 53  26  52  1   
@<TRIPOS>SUBSTRUCTURE
  1 ****   9 GROUP 4 **** **** 0

# MOE 2024.06 (io_trps.svl 2023.06)
