@<TRIPOS>MOLECULE
NONAME
40 40 1 0 0 
SMALL
USER_CHARGES


@<TRIPOS>ATOM
  1 S        0.1780     0.2000     0.5850 S.o2  1 <1>   1.4470 
  2 O       -0.0160     1.0970     1.7020 O.2   1 <1>  -0.6500 
  3 O        1.2800    -0.7350     0.6460 O.2   1 <1>  -0.6500 
  4 N        0.5200     1.0430    -0.8310 N.am  1 <1>  -0.9140 
  5 C       -1.3340    -0.7290     0.2100 C.ar  1 <1>  -0.0090 
  6 C        0.9820     2.4200    -0.7830 C.3   1 <1>   0.2760 
  7 C       -2.5610    -0.0880     0.0510 C.ar  1 <1>   0.0830 
  8 C       -1.2880    -2.1120     0.0700 C.ar  1 <1>  -0.1500 
  9 C        2.2540     2.6130     0.0590 C.3   1 <1>  -0.1600 
 10 C       -0.1480     3.3690    -0.3890 C.3   1 <1>  -0.2400 
 11 O       -2.5920     1.2620     0.1920 O.3   1 <1>  -0.3630 
 12 C       -3.7080    -0.8240    -0.2430 C.ar  1 <1>  -0.1500 
 13 C       -2.4300    -2.8500    -0.2210 C.ar  1 <1>   0.0830 
 14 C        3.4490     1.7810    -0.4370 C.3   1 <1>  -0.1600 
 15 C       -3.8020     1.9820     0.2680 C.3   1 <1>   0.0400 
 16 C       -3.6380    -2.1960    -0.3760 C.ar  1 <1>  -0.1500 
 17 O       -2.4430    -4.2000    -0.3660 O.3   1 <1>  -0.3620 
 18 C        4.7070     2.0940     0.3770 C.3   1 <1>  -0.2400 
 19 C       -1.2690    -4.9650    -0.1970 C.3   1 <1>   0.0400 
 20 H        1.2850     0.4980    -1.2190 H     1 <1>   0.4200 
 21 H        1.2430     2.6830    -1.7950 H     1 <1>   0.0800 
 22 H       -0.3420    -2.6040     0.1930 H     1 <1>   0.1500 
 23 H        2.0590     2.3980     1.0940 H     1 <1>   0.0800 
 24 H        2.5250     3.6530     0.0080 H     1 <1>   0.0800 
 25 H       -0.4130     3.2690     0.6470 H     1 <1>   0.0800 
 26 H       -1.0130     3.1810    -0.9970 H     1 <1>   0.0800 
 27 H        0.1630     4.3850    -0.5500 H     1 <1>   0.0800 
 28 H       -4.6610    -0.3480    -0.3740 H     1 <1>   0.1500 
 29 H        3.6380     1.9950    -1.4750 H     1 <1>   0.0800 
 30 H        3.2360     0.7300    -0.3440 H     1 <1>   0.0800 
 31 H       -3.5630     3.0100     0.4730 H     1 <1>   0.0800 
 32 H       -4.3990     1.5800     1.0670 H     1 <1>   0.0800 
 33 H       -4.3130     1.9080    -0.6750 H     1 <1>   0.0800 
 34 H       -4.5180    -2.7710    -0.6030 H     1 <1>   0.1500 
 35 H        4.9680     3.1330     0.2880 H     1 <1>   0.0800 
 36 H        5.5320     1.5010     0.0220 H     1 <1>   0.0800 
 37 H        4.5460     1.8640     1.4160 H     1 <1>   0.0800 
 38 H       -1.5210    -6.0000    -0.3460 H     1 <1>   0.0800 
 39 H       -0.8970    -4.8200     0.8020 H     1 <1>   0.0800 
 40 H       -0.5430    -4.6580    -0.9280 H     1 <1>   0.0800 
@<TRIPOS>BOND
  1   1   2  2   
  2   1   3  2   
  3   1   4  am  
  4   1   5  1   
  5   4   6  1   
  6   4  20  1   
  7   5   7  ar  
  8   5   8  ar  
  9   6   9  1   
 10   6  10  1   
 11   6  21  1   
 12   7  11  1   
 13   7  12  ar  
 14   8  13  ar  
 15   8  22  1   
 16   9  14  1   
 17   9  23  1   
 18   9  24  1   
 19  10  25  1   
 20  10  26  1   
 21  10  27  1   
 22  11  15  1   
 23  12  16  ar  
 24  12  28  1   
 25  13  16  ar  
 26  13  17  1   
 27  14  18  1   
 28  14  29  1   
 29  14  30  1   
 30  15  31  1   
 31  15  32  1   
 32  15  33  1   
 33  16  34  1   
 34  17  19  1   
 35  18  35  1   
 36  18  36  1   
 37  18  37  1   
 38  19  38  1   
 39  19  39  1   
 40  19  40  1   
@<TRIPOS>SUBSTRUCTURE
  1 ****   5 GROUP 4 **** **** 0

# MOE 2024.06 (io_trps.svl 2023.06)
