@<TRIPOS>MOLECULE
NONAME
43 45 1 0 0 
SMALL
USER_CHARGES


@<TRIPOS>ATOM
  1 O       -4.6550     1.2360     0.2210 O.3   1 <1>  -0.5600 
  2 C       -4.2890     2.4120    -0.4370 C.3   1 <1>   0.2000 
  3 C       -3.5440     0.6750     0.8550 C.3   1 <1>   0.1200 
  4 C       -3.2250     3.0310     0.4580 C.3   1 <1>  -0.1600 
  5 C       -5.5430     3.2830    -0.6410 C.3   1 <1>   0.3430 
  6 C       -2.5450     1.8120     1.0610 C.3   1 <1>  -0.1600 
  7 N       -6.7280     2.3940    -0.8120 N.4   1 <1>  -0.9060 
  8 C       -8.0220     3.0330    -0.4410 C.3   1 <1>   0.3430 
  9 C       -9.1800     2.0370    -0.5100 C.3   1 <1>   0.1200 
 10 O      -10.3490     2.7410    -0.1760 O.3   1 <1>  -0.3630 
 11 C      -11.5580     2.1260    -0.1500 C.ar  1 <1>   0.0820 
 12 C      -12.6490     2.9200     0.1730 C.ar  1 <1>  -0.1500 
 13 C      -11.7450     0.7700    -0.4280 C.ar  1 <1>  -0.1500 
 14 C      -13.9090     2.3560     0.2160 C.ar  1 <1>  -0.1430 
 15 C      -13.0160     0.2170    -0.3810 C.ar  1 <1>  -0.1500 
 16 C      -14.0900     1.0240    -0.0570 C.ar  1 <1>  -0.1430 
 17 C      -15.2170     3.0320     0.5420 C.3   1 <1>  -0.0170 
 18 C      -15.5430     0.6350     0.0500 C.3   1 <1>  -0.0170 
 19 C      -16.1910     1.8550     0.7270 C.3   1 <1>  -0.1600 
 20 H       -3.8590     2.1330    -1.3860 H     1 <1>   0.0800 
 21 H       -3.1360    -0.0920     0.2160 H     1 <1>   0.0800 
 22 H       -3.8610     0.2420     1.7890 H     1 <1>   0.0800 
 23 H       -3.6820     3.6150     1.2380 H     1 <1>   0.0800 
 24 H       -2.5380     3.6500    -0.0940 H     1 <1>   0.0800 
 25 H       -5.4170     3.9380    -1.4870 H     1 <1>   0.0800 
 26 H       -5.6750     3.8920     0.2380 H     1 <1>   0.0800 
 27 H       -1.6290     1.5840     0.5430 H     1 <1>   0.0800 
 28 H       -2.3230     1.9530     2.1050 H     1 <1>   0.0800 
 29 H       -6.5110     1.5900    -0.1900 H     1 <1>   0.4500 
 30 H       -6.7470     2.0080    -1.7630 H     1 <1>   0.4500 
 31 H       -8.2280     3.8520    -1.1110 H     1 <1>   0.0800 
 32 H       -7.9600     3.4170     0.5640 H     1 <1>   0.0800 
 33 H       -9.0520     1.2430     0.2050 H     1 <1>   0.0800 
 34 H       -9.3000     1.6480    -1.5060 H     1 <1>   0.0800 
 35 H      -12.5110     3.9630     0.3880 H     1 <1>   0.1500 
 36 H      -10.9260     0.1260    -0.6800 H     1 <1>   0.1500 
 37 H      -13.1680    -0.8270    -0.5940 H     1 <1>   0.1500 
 38 H      -15.5180     3.6470    -0.2880 H     1 <1>   0.0800 
 39 H      -15.1430     3.6290     1.4330 H     1 <1>   0.0800 
 40 H      -15.6730    -0.2580     0.6360 H     1 <1>   0.0800 
 41 H      -15.9480     0.4880    -0.9360 H     1 <1>   0.0800 
 42 H      -17.1620     2.0710     0.3180 H     1 <1>   0.0800 
 43 H      -16.2910     1.6530     1.7790 H     1 <1>   0.0800 
@<TRIPOS>BOND
  1   1   2  1   
  2   1   3  1   
  3   2   4  1   
  4   2   5  1   
  5   2  20  1   
  6   3   6  1   
  7   3  21  1   
  8   3  22  1   
  9   4   6  1   
 10   4  23  1   
 11   4  24  1   
 12   5   7  1   
 13   5  25  1   
 14   5  26  1   
 15   6  27  1   
 16   6  28  1   
 17   7   8  1   
 18   7  29  1   
 19   7  30  1   
 20   8   9  1   
 21   8  31  1   
 22   8  32  1   
 23   9  10  1   
 24   9  33  1   
 25   9  34  1   
 26  10  11  1   
 27  11  12  ar  
 28  11  13  ar  
 29  12  14  ar  
 30  12  35  1   
 31  13  15  ar  
 32  13  36  1   
 33  14  16  ar  
 34  14  17  1   
 35  15  16  ar  
 36  15  37  1   
 37  16  18  1   
 38  17  19  1   
 39  17  38  1   
 40  17  39  1   
 41  18  19  1   
 42  18  40  1   
 43  18  41  1   
 44  19  42  1   
 45  19  43  1   
@<TRIPOS>SUBSTRUCTURE
  1 ****   9 GROUP 4 **** **** 0

# MOE 2024.06 (io_trps.svl 2023.06)
