@<TRIPOS>MOLECULE
NONAME
36 37 1 0 0 
SMALL
USER_CHARGES


@<TRIPOS>ATOM
  1 S        0.0960     0.5030     0.2880 S.o2  1 <1>   1.5010 
  2 O        0.2980     1.1080    -1.0080 O.2   1 <1>  -0.6500 
  3 O        0.1100     1.3140     1.4840 O.2   1 <1>  -0.6500 
  4 N        1.3680    -0.5700     0.4190 N.am  1 <1>  -0.9140 
  5 C       -1.3430    -0.5700     0.2740 C.2   1 <1>  -0.0630 
  6 C        2.5850     0.0990     0.8180 C.3   1 <1>   0.3390 
  7 C       -2.1390    -0.8150     1.3850 C.2   1 <1>   0.1390 
  8 C       -1.9060    -1.3310    -0.6990 C.2   1 <1>  -0.3020 
  9 C        3.7510    -0.8020     0.4570 C.ar  1 <1>  -0.1430 
 10 N       -3.1100    -1.6410     1.1360 N.2   1 <1>  -0.7070 
 11 N       -2.9650    -1.9630    -0.1600 N.pl3 1 <1>   0.3140 
 12 C        3.9890    -1.9610     1.1800 C.ar  1 <1>  -0.1500 
 13 C        4.5880    -0.4820    -0.6020 C.ar  1 <1>  -0.1500 
 14 C       -3.8850    -2.8950    -0.8430 C.3   1 <1>   0.0960 
 15 C        5.0500    -2.7860     0.8530 C.ar  1 <1>  -0.1500 
 16 C        5.6490    -1.3090    -0.9280 C.ar  1 <1>  -0.1500 
 17 C       -3.2540    -4.2860    -0.9920 C.3   1 <1>  -0.2400 
 18 C        5.8860    -2.4650    -0.2040 C.ar  1 <1>  -0.1430 
 19 C        7.0520    -3.3700    -0.5600 C.3   1 <1>  -0.0970 
 20 H        1.5360    -0.8830    -0.5330 H     1 <1>   0.4200 
 21 H        2.5700     0.2860     1.8790 H     1 <1>   0.0800 
 22 H        2.6860     1.0420     0.3050 H     1 <1>   0.0800 
 23 H       -1.9740    -0.3700     2.3530 H     1 <1>   0.1500 
 24 H       -1.6090    -1.4500    -1.7250 H     1 <1>   0.1500 
 25 H        3.3420    -2.2240     2.0000 H     1 <1>   0.1500 
 26 H        4.4210     0.4110    -1.1790 H     1 <1>   0.1500 
 27 H       -4.1290    -2.4900    -1.8070 H     1 <1>   0.0800 
 28 H       -4.7870    -2.9620    -0.2610 H     1 <1>   0.0800 
 29 H        5.2220    -3.6800     1.4260 H     1 <1>   0.1500 
 30 H        6.2920    -1.0460    -1.7500 H     1 <1>   0.1500 
 31 H       -2.3590    -4.2330    -1.5860 H     1 <1>   0.0800 
 32 H       -3.9480    -4.9510    -1.4740 H     1 <1>   0.0800 
 33 H       -3.0150    -4.6870    -0.0220 H     1 <1>   0.0800 
 34 H        6.8170    -4.3930    -0.3300 H     1 <1>   0.0800 
 35 H        7.9220    -3.0780    -0.0010 H     1 <1>   0.0800 
 36 H        7.2750    -3.3010    -1.6100 H     1 <1>   0.0800 
@<TRIPOS>BOND
  1   1   2  2   
  2   1   3  2   
  3   1   4  am  
  4   1   5  1   
  5   4   6  1   
  6   4  20  1   
  7   5   7  1   
  8   5   8  2   
  9   6   9  1   
 10   6  21  1   
 11   6  22  1   
 12   7  10  2   
 13   7  23  1   
 14   8  11  1   
 15   8  24  1   
 16   9  12  ar  
 17   9  13  ar  
 18  10  11  1   
 19  11  14  1   
 20  12  15  ar  
 21  12  25  1   
 22  13  16  ar  
 23  13  26  1   
 24  14  17  1   
 25  14  27  1   
 26  14  28  1   
 27  15  18  ar  
 28  15  29  1   
 29  16  18  ar  
 30  16  30  1   
 31  17  31  1   
 32  17  32  1   
 33  17  33  1   
 34  18  19  1   
 35  19  34  1   
 36  19  35  1   
 37  19  36  1   
@<TRIPOS>SUBSTRUCTURE
  1 ****   4 GROUP 4 **** **** 0

# MOE 2024.06 (io_trps.svl 2023.06)
