@<TRIPOS>MOLECULE
NONAME
44 46 1 0 0 
SMALL
USER_CHARGES


@<TRIPOS>ATOM
  1 S        0.0500     0.1050     0.7680 S.o2  1 <1>   1.4470 
  2 O       -0.4280     0.3500     2.1120 O.2   1 <1>  -0.6500 
  3 O        0.0060    -1.2390     0.2330 O.2   1 <1>  -0.6500 
  4 N       -0.8670     1.0880    -0.2650 N.am  1 <1>  -0.8490 
  5 C        1.7310     0.7580     0.5670 C.ar  1 <1>  -0.0090 
  6 C       -2.1840     0.4980    -0.5250 C.3   1 <1>   0.1960 
  7 C       -0.9980     2.4550     0.2520 C.3   1 <1>   0.1960 
  8 C        2.3310     0.8060    -0.6850 C.ar  1 <1>  -0.1500 
  9 C        2.4620     1.2310     1.6500 C.ar  1 <1>  -0.1500 
 10 C       -2.9380     1.3210    -1.5760 C.3   1 <1>  -0.1600 
 11 C       -1.6970     3.3470    -0.7790 C.3   1 <1>  -0.1600 
 12 C        3.6090     1.3100    -0.8520 C.ar  1 <1>  -0.1500 
 13 C        3.7400     1.7350     1.4890 C.ar  1 <1>  -0.1500 
 14 C       -3.0750     2.7880    -1.1530 C.3   1 <1>  -0.1600 
 15 C        4.3340     1.7870     0.2320 C.ar  1 <1>   0.1170 
 16 N        5.6280     2.2770     0.0220 N.am  1 <1>  -0.5470 
 17 C        6.3700     3.1930     0.7250 C.2   1 <1>   0.7160 
 18 O        5.8680     3.8230     1.6330 O.2   1 <1>  -0.5700 
 19 C        7.7470     3.4270     0.3450 C.2   1 <1>  -0.0860 
 20 C        8.4710     4.5220     0.6830 C.2   1 <1>  -0.1100 
 21 C        8.5290     2.5060    -0.4490 C.2   1 <1>  -0.1500 
 22 S       10.0920     4.4690     0.0340 S.3   1 <1>  -0.0800 
 23 C        9.7850     2.9110    -0.7040 C.2   1 <1>  -0.1400 
 24 C       10.9260     2.2790    -1.4740 C.3   1 <1>  -0.0600 
 25 H       -2.7510     0.4540     0.3900 H     1 <1>   0.0800 
 26 H       -2.0670    -0.5070    -0.8970 H     1 <1>   0.0800 
 27 H       -0.0220     2.8620     0.4590 H     1 <1>   0.0800 
 28 H       -1.5620     2.4490     1.1710 H     1 <1>   0.0800 
 29 H        1.7820     0.4440    -1.5390 H     1 <1>   0.1500 
 30 H        2.0260     1.2040     2.6360 H     1 <1>   0.1500 
 31 H       -3.9140     0.8950    -1.7280 H     1 <1>   0.0800 
 32 H       -2.4050     1.2590    -2.5080 H     1 <1>   0.0800 
 33 H       -1.0790     3.4120    -1.6570 H     1 <1>   0.0800 
 34 H       -1.8060     4.3390    -0.3780 H     1 <1>   0.0800 
 35 H        4.0400     1.3340    -1.8360 H     1 <1>   0.1500 
 36 H        4.2770     2.0880     2.3510 H     1 <1>   0.1500 
 37 H       -3.7310     2.8550    -0.3020 H     1 <1>   0.0800 
 38 H       -3.5030     3.3650    -1.9540 H     1 <1>   0.0800 
 39 H        6.0740     1.9730    -0.8390 H     1 <1>   0.3700 
 40 H        8.1960     5.3820     1.2690 H     1 <1>   0.1500 
 41 H        8.1210     1.5710    -0.7870 H     1 <1>   0.1500 
 42 H       10.6250     1.3280    -1.8750 H     1 <1>   0.0800 
 43 H       11.7680     2.1300    -0.8220 H     1 <1>   0.0800 
 44 H       11.2220     2.9210    -2.2840 H     1 <1>   0.0800 
@<TRIPOS>BOND
  1   1   2  2   
  2   1   3  2   
  3   1   4  am  
  4   1   5  1   
  5   4   6  1   
  6   4   7  1   
  7   5   8  ar  
  8   5   9  ar  
  9   6  10  1   
 10   6  25  1   
 11   6  26  1   
 12   7  11  1   
 13   7  27  1   
 14   7  28  1   
 15   8  12  ar  
 16   8  29  1   
 17   9  13  ar  
 18   9  30  1   
 19  10  14  1   
 20  10  31  1   
 21  10  32  1   
 22  11  14  1   
 23  11  33  1   
 24  11  34  1   
 25  12  15  ar  
 26  12  35  1   
 27  13  15  ar  
 28  13  36  1   
 29  14  37  1   
 30  14  38  1   
 31  15  16  1   
 32  16  17  am  
 33  16  39  1   
 34  17  18  2   
 35  17  19  1   
 36  19  20  2   
 37  19  21  1   
 38  20  22  1   
 39  20  40  1   
 40  21  23  2   
 41  21  41  1   
 42  22  23  1   
 43  23  24  1   
 44  24  42  1   
 45  24  43  1   
 46  24  44  1   
@<TRIPOS>SUBSTRUCTURE
  1 ****  15 GROUP 4 **** **** 0

# MOE 2024.06 (io_trps.svl 2023.06)
