@<TRIPOS>MOLECULE
NONAME
38 38 1 0 0 
SMALL
USER_CHARGES


@<TRIPOS>ATOM
  1 O        1.4790    -0.8270    -1.6980 O.2   1 <1>  -0.5700 
  2 C        1.4330    -1.6020    -0.7750 C.2   1 <1>   0.6590 
  3 O        1.9750    -1.3330     0.4080 O.3   1 <1>  -0.4300 
  4 C        0.7460    -2.9540    -0.9170 C.3   1 <1>   0.1810 
  5 C        2.5560    -0.0850     0.7170 C.3   1 <1>   0.1200 
  6 O       -0.2910    -3.1380     0.0380 O.3   1 <1>  -0.3630 
  7 C        1.4500     0.8690     1.1650 C.3   1 <1>  -0.2400 
  8 C       -1.3960    -2.3520     0.0600 C.ar  1 <1>   0.0830 
  9 C       -2.2090    -2.4570     1.1770 C.ar  1 <1>  -0.1500 
 10 C       -1.7460    -1.4670    -0.9560 C.ar  1 <1>  -0.1500 
 11 C       -3.3540    -1.6900     1.2880 C.ar  1 <1>  -0.1500 
 12 C       -2.8910    -0.6990    -0.8410 C.ar  1 <1>  -0.1500 
 13 C       -3.7020    -0.8060     0.2780 C.ar  1 <1>  -0.1430 
 14 C       -4.9650     0.0290     0.3930 C.3   1 <1>  -0.0170 
 15 C       -6.1350    -0.7120    -0.2530 C.3   1 <1>   0.1400 
 16 N       -7.3760     0.0840    -0.1050 N.am  1 <1>  -0.7300 
 17 C       -8.4470    -0.1480     0.6860 C.2   1 <1>   0.5690 
 18 O       -9.3750     0.6160     0.6770 O.2   1 <1>  -0.5700 
 19 C       -8.4960    -1.3540     1.5920 C.3   1 <1>  -0.1790 
 20 H        1.4690    -3.7310    -0.7570 H     1 <1>   0.0800 
 21 H        0.3300    -3.0650    -1.9000 H     1 <1>   0.0800 
 22 H        3.0760     0.2900    -0.1490 H     1 <1>   0.0800 
 23 H        3.2630    -0.2420     1.5130 H     1 <1>   0.0800 
 24 H        0.7540     1.0360     0.3620 H     1 <1>   0.0800 
 25 H        1.8790     1.8140     1.4440 H     1 <1>   0.0800 
 26 H        0.9290     0.4620     2.0130 H     1 <1>   0.0800 
 27 H       -1.9360    -3.1430     1.9590 H     1 <1>   0.1500 
 28 H       -1.1460    -1.3570    -1.8400 H     1 <1>   0.1500 
 29 H       -3.9700    -1.7860     2.1650 H     1 <1>   0.1500 
 30 H       -3.1470    -0.0160    -1.6320 H     1 <1>   0.1500 
 31 H       -4.8180     0.9760    -0.0950 H     1 <1>   0.0800 
 32 H       -5.1820     0.2140     1.4300 H     1 <1>   0.0800 
 33 H       -6.2500    -1.6770     0.2100 H     1 <1>   0.0800 
 34 H       -5.9360    -0.8670    -1.2990 H     1 <1>   0.0800 
 35 H       -7.4430     0.9280    -0.6780 H     1 <1>   0.3700 
 36 H       -8.4880    -2.2510     1.0030 H     1 <1>   0.0800 
 37 H       -9.3990    -1.3300     2.1750 H     1 <1>   0.0800 
 38 H       -7.6540    -1.3460     2.2570 H     1 <1>   0.0800 
@<TRIPOS>BOND
  1   1   2  2   
  2   2   3  1   
  3   2   4  1   
  4   3   5  1   
  5   4   6  1   
  6   4  20  1   
  7   4  21  1   
  8   5   7  1   
  9   5  22  1   
 10   5  23  1   
 11   6   8  1   
 12   7  24  1   
 13   7  25  1   
 14   7  26  1   
 15   8   9  ar  
 16   8  10  ar  
 17   9  11  ar  
 18   9  27  1   
 19  10  12  ar  
 20  10  28  1   
 21  11  13  ar  
 22  11  29  1   
 23  12  13  ar  
 24  12  30  1   
 25  13  14  1   
 26  14  15  1   
 27  14  31  1   
 28  14  32  1   
 29  15  16  1   
 30  15  33  1   
 31  15  34  1   
 32  16  17  am  
 33  16  35  1   
 34  17  18  2   
 35  17  19  1   
 36  19  36  1   
 37  19  37  1   
 38  19  38  1   
@<TRIPOS>SUBSTRUCTURE
  1 ****  13 GROUP 4 **** **** 0

# MOE 2024.06 (io_trps.svl 2023.06)
