@<TRIPOS>MOLECULE
NONAME
36 36 1 0 0 
SMALL
USER_CHARGES


@<TRIPOS>ATOM
  1 O        0.2100     1.2120    -1.4290 O.2   1 <1>  -0.5700 
  2 C        0.1540     1.6930    -0.3240 C.2   1 <1>   0.5690 
  3 N        1.2170     1.7010     0.5420 N.am  1 <1>  -0.5470 
  4 C       -1.1410     2.3340     0.1560 C.3   1 <1>   0.0420 
  5 C        2.5060     1.1550     0.4310 C.ar  1 <1>   0.1170 
  6 C       -2.3490     1.5880    -0.4220 C.2   1 <1>   0.4480 
  7 C       -1.0940     3.8790    -0.0350 C.3   1 <1>  -0.0800 
  8 C        3.5080     1.6450     1.2610 C.ar  1 <1>  -0.1500 
  9 C        2.8310     0.1330    -0.4560 C.ar  1 <1>  -0.1500 
 10 O       -3.2490     2.1240    -0.9950 O.2   1 <1>  -0.5700 
 11 C       -2.4280     0.0930    -0.1690 C.3   1 <1>  -0.1790 
 12 C       -2.2490     4.5940     0.6830 C.3   1 <1>  -0.2400 
 13 C       -1.0390     4.3190    -1.5080 C.3   1 <1>  -0.2400 
 14 C        4.7920     1.1340     1.2080 C.ar  1 <1>  -0.1500 
 15 C        4.1140    -0.3790    -0.5120 C.ar  1 <1>  -0.1500 
 16 C        5.1040     0.1160     0.3210 C.ar  1 <1>  -0.1430 
 17 C        6.5120    -0.4450     0.2570 C.3   1 <1>  -0.0970 
 18 H        1.0780     2.2390     1.3940 H     1 <1>   0.3700 
 19 H       -1.1890     2.1620     1.2140 H     1 <1>   0.0800 
 20 H       -0.1850     4.2290     0.4240 H     1 <1>   0.0800 
 21 H        3.2900     2.4350     1.9540 H     1 <1>   0.1500 
 22 H        2.0830    -0.2750    -1.1100 H     1 <1>   0.1500 
 23 H       -1.7230    -0.4260    -0.7920 H     1 <1>   0.0800 
 24 H       -3.4140    -0.2600    -0.4110 H     1 <1>   0.0800 
 25 H       -2.2260    -0.1260     0.8620 H     1 <1>   0.0800 
 26 H       -3.1950     4.3540     0.2300 H     1 <1>   0.0800 
 27 H       -2.1170     5.6610     0.6260 H     1 <1>   0.0800 
 28 H       -2.2860     4.3160     1.7210 H     1 <1>   0.0800 
 29 H       -1.9390     4.0440    -2.0300 H     1 <1>   0.0800 
 30 H       -0.2040     3.8680    -2.0140 H     1 <1>   0.0800 
 31 H       -0.9300     5.3870    -1.5730 H     1 <1>   0.0800 
 32 H        5.5520     1.5310     1.8580 H     1 <1>   0.1500 
 33 H        4.3390    -1.1660    -1.2090 H     1 <1>   0.1500 
 34 H        7.0860     0.0960    -0.4730 H     1 <1>   0.0800 
 35 H        6.4900    -1.4840    -0.0190 H     1 <1>   0.0800 
 36 H        6.9970    -0.3600     1.2130 H     1 <1>   0.0800 
@<TRIPOS>BOND
  1   1   2  2   
  2   2   3  am  
  3   2   4  1   
  4   3   5  1   
  5   3  18  1   
  6   4   6  1   
  7   4   7  1   
  8   4  19  1   
  9   5   8  ar  
 10   5   9  ar  
 11   6  10  2   
 12   6  11  1   
 13   7  12  1   
 14   7  13  1   
 15   7  20  1   
 16   8  14  ar  
 17   8  21  1   
 18   9  15  ar  
 19   9  22  1   
 20  11  23  1   
 21  11  24  1   
 22  11  25  1   
 23  12  26  1   
 24  12  27  1   
 25  12  28  1   
 26  13  29  1   
 27  13  30  1   
 28  13  31  1   
 29  14  16  ar  
 30  14  32  1   
 31  15  16  ar  
 32  15  33  1   
 33  16  17  1   
 34  17  34  1   
 35  17  35  1   
 36  17  36  1   
@<TRIPOS>SUBSTRUCTURE
  1 ****   3 GROUP 4 **** **** 0

# MOE 2024.06 (io_trps.svl 2023.06)
