@<TRIPOS>MOLECULE
NONAME
59 61 1 0 0 
SMALL
USER_CHARGES


@<TRIPOS>ATOM
  1 O        1.5840     2.1280    -2.5570 O.2   1 <1>  -0.5700 
  2 C        1.6840     2.2070    -1.3480 C.2   1 <1>   0.7800 
  3 O        0.8330     2.9710    -0.6580 O.3   1 <1>  -0.4300 
  4 N        2.6500     1.5380    -0.6460 N.am  1 <1>  -0.6600 
  5 C       -0.2130     3.6870    -1.2790 C.3   1 <1>   0.1200 
  6 C        3.6720     0.6870    -1.3280 C.3   1 <1>   0.1400 
  7 C        2.8130     1.6360     0.8380 C.3   1 <1>   0.1400 
  8 C       -1.4230     2.7660    -1.4280 C.3   1 <1>  -0.2400 
  9 C        5.0960     1.1120    -0.9380 C.3   1 <1>   0.1400 
 10 C        4.2430     2.0540     1.2140 C.3   1 <1>   0.1400 
 11 N        5.2430     1.1700     0.5470 N.am  1 <1>  -0.6600 
 12 C        6.3240     0.6400     1.2190 C.2   1 <1>   0.6160 
 13 O        6.5370     0.9930     2.3660 O.2   1 <1>  -0.5700 
 14 C        7.1800    -0.3680     0.6100 C.2   1 <1>   0.1230 
 15 N        8.5130    -0.0320     0.3100 N.am  1 <1>  -0.5390 
 16 C        6.7330    -1.6290     0.3710 C.2   1 <1>  -0.1780 
 17 C        8.9880     1.1020    -0.2970 C.2   1 <1>   0.5440 
 18 C        7.4050    -2.7310    -0.2620 C.ar  1 <1>   0.0280 
 19 O        8.1980     1.8770    -0.8000 O.2   1 <1>  -0.5700 
 20 C       10.4170     1.3450    -0.3690 C.ar  1 <1>   0.0860 
 21 C        7.2990    -4.0350     0.2450 C.ar  1 <1>   0.0820 
 22 C        8.1710    -2.5390    -1.4130 C.ar  1 <1>  -0.1500 
 23 C       11.3460     0.3020    -0.4340 C.ar  1 <1>  -0.1500 
 24 C       10.9180     2.6470    -0.3780 C.ar  1 <1>  -0.1500 
 25 O        6.5340    -4.2120     1.3540 O.3   1 <1>  -0.3630 
 26 C        7.9650    -5.0880    -0.3760 C.ar  1 <1>  -0.1500 
 27 C        8.8310    -3.5870    -2.0260 C.ar  1 <1>  -0.1500 
 28 C       12.7060     0.5500    -0.4920 C.ar  1 <1>  -0.1500 
 29 C       12.2750     2.9020    -0.4370 C.ar  1 <1>  -0.1500 
 30 C        6.3660    -5.4730     1.9620 C.3   1 <1>   0.0400 
 31 C        8.7310    -4.8640    -1.5060 C.ar  1 <1>  -0.1500 
 32 C       13.1730     1.8520    -0.4920 C.ar  1 <1>  -0.1500 
 33 H       -0.4550     4.5220    -0.6450 H     1 <1>   0.0800 
 34 H        0.1240     4.0590    -2.2320 H     1 <1>   0.0800 
 35 H        3.5190    -0.3400    -1.0450 H     1 <1>   0.0800 
 36 H        3.5670     0.7530    -2.3970 H     1 <1>   0.0800 
 37 H        2.1210     2.3450     1.2550 H     1 <1>   0.0800 
 38 H        2.6030     0.6760     1.2770 H     1 <1>   0.0800 
 39 H       -1.7310     2.3970    -0.4670 H     1 <1>   0.0800 
 40 H       -1.1840     1.9400    -2.0740 H     1 <1>   0.0800 
 41 H       -2.2400     3.3110    -1.8650 H     1 <1>   0.0800 
 42 H        5.2990     2.0870    -1.3460 H     1 <1>   0.0800 
 43 H        5.8040     0.4290    -1.3710 H     1 <1>   0.0800 
 44 H        4.3540     2.0080     2.2840 H     1 <1>   0.0800 
 45 H        4.4130     3.0710     0.9070 H     1 <1>   0.0800 
 46 H        9.2040    -0.7240     0.5930 H     1 <1>   0.3700 
 47 H        5.7380    -1.8710     0.7040 H     1 <1>   0.1500 
 48 H        8.2410    -1.5550    -1.8420 H     1 <1>   0.1500 
 49 H       11.0090    -0.7190    -0.4490 H     1 <1>   0.1500 
 50 H       10.2230     3.4700    -0.3360 H     1 <1>   0.1500 
 51 H        7.9010    -6.0900     0.0020 H     1 <1>   0.1500 
 52 H        9.4170    -3.4120    -2.9120 H     1 <1>   0.1500 
 53 H       13.4030    -0.2680    -0.5400 H     1 <1>   0.1500 
 54 H       12.6330     3.9170    -0.4400 H     1 <1>   0.1500 
 55 H        5.7260    -5.3480     2.8170 H     1 <1>   0.0800 
 56 H        7.3260    -5.8400     2.2770 H     1 <1>   0.0800 
 57 H        5.9060    -6.1430     1.2570 H     1 <1>   0.0800 
 58 H        9.2450    -5.6810    -1.9820 H     1 <1>   0.1500 
 59 H       14.2310     2.0470    -0.5370 H     1 <1>   0.1500 
@<TRIPOS>BOND
  1   1   2  2   
  2   2   3  1   
  3   2   4  am  
  4   3   5  1   
  5   4   6  1   
  6   4   7  1   
  7   5   8  1   
  8   5  33  1   
  9   5  34  1   
 10   6   9  1   
 11   6  35  1   
 12   6  36  1   
 13   7  10  1   
 14   7  37  1   
 15   7  38  1   
 16   8  39  1   
 17   8  40  1   
 18   8  41  1   
 19   9  11  1   
 20   9  42  1   
 21   9  43  1   
 22  10  11  1   
 23  10  44  1   
 24  10  45  1   
 25  11  12  am  
 26  12  13  2   
 27  12  14  1   
 28  14  15  1   
 29  14  16  2   
 30  15  17  am  
 31  15  46  1   
 32  16  18  1   
 33  16  47  1   
 34  17  19  2   
 35  17  20  1   
 36  18  21  ar  
 37  18  22  ar  
 38  20  23  ar  
 39  20  24  ar  
 40  21  25  1   
 41  21  26  ar  
 42  22  27  ar  
 43  22  48  1   
 44  23  28  ar  
 45  23  49  1   
 46  24  29  ar  
 47  24  50  1   
 48  25  30  1   
 49  26  31  ar  
 50  26  51  1   
 51  27  31  ar  
 52  27  52  1   
 53  28  32  ar  
 54  28  53  1   
 55  29  32  ar  
 56  29  54  1   
 57  30  55  1   
 58  30  56  1   
 59  30  57  1   
 60  31  58  1   
 61  32  59  1   
@<TRIPOS>SUBSTRUCTURE
  1 ****  14 GROUP 4 **** **** 0

# MOE 2024.06 (io_trps.svl 2023.06)
