@<TRIPOS>MOLECULE
NONAME
60 62 1 0 0 
SMALL
USER_CHARGES


@<TRIPOS>ATOM
  1 S        0.1930    -0.2520    -0.2000 S.o2  1 <1>   1.4470 
  2 O        0.5470    -0.0590     1.1870 O.2   1 <1>  -0.6500 
  3 O        1.1440    -0.8760    -1.0970 O.2   1 <1>  -0.6500 
  4 N       -0.1140     1.3160    -0.8670 N.am  1 <1>  -0.6930 
  5 C       -1.4230    -1.0560    -0.3550 C.ar  1 <1>  -0.0090 
  6 C       -1.0150     2.1650    -0.2420 C.ar  1 <1>   0.1990 
  7 C        0.9800     1.9350    -1.6780 C.3   1 <1>   0.2570 
  8 C       -2.3900    -0.9090     0.6340 C.ar  1 <1>  -0.1500 
  9 C       -1.7520    -1.8070    -1.4780 C.ar  1 <1>  -0.1500 
 10 C       -2.3300     2.2290    -0.6840 C.ar  1 <1>  -0.1500 
 11 C       -0.6320     2.9550     0.8340 C.ar  1 <1>  -0.1500 
 12 C        2.2820     2.1810    -0.9080 C.2   1 <1>   0.5690 
 13 C       -3.6410    -1.4880     0.5150 C.ar  1 <1>  -0.1500 
 14 C       -3.0000    -2.3910    -1.6070 C.ar  1 <1>  -0.1500 
 15 C       -3.2430     3.0610    -0.0640 C.ar  1 <1>  -0.1500 
 16 C       -1.5440     3.7890     1.4540 C.ar  1 <1>  -0.1500 
 17 O        2.5450     3.3050    -0.5510 O.2   1 <1>  -0.5700 
 18 N        3.1100     1.1340    -0.6520 N.am  1 <1>  -0.7300 
 19 C       -3.9530    -2.2370    -0.6150 C.ar  1 <1>   0.0830 
 20 C       -2.8550     3.8460     1.0110 C.ar  1 <1>  -0.1430 
 21 C        4.2940     1.1750     0.2140 C.3   1 <1>   0.2200 
 22 O       -5.1500    -2.8380    -0.8190 O.3   1 <1>  -0.3620 
 23 C       -3.8530     4.7640     1.6930 C.3   1 <1>  -0.0970 
 24 C        5.4640     0.5070    -0.5140 C.3   1 <1>  -0.1600 
 25 C        3.9630     0.4490     1.5220 C.3   1 <1>  -0.1600 
 26 C       -6.1810    -2.7680     0.1390 C.3   1 <1>   0.1200 
 27 C        6.7000     0.4120     0.3930 C.3   1 <1>  -0.1600 
 28 C        5.1950     0.3530     2.4320 C.3   1 <1>  -0.1600 
 29 C       -7.3730    -3.5580    -0.3930 C.3   1 <1>  -0.2400 
 30 C        6.3710    -0.3140     1.7050 C.3   1 <1>  -0.1600 
 31 H        0.6370     2.8800    -2.0600 H     1 <1>   0.0800 
 32 H        1.1940     1.3040    -2.5210 H     1 <1>   0.0800 
 33 H       -2.1590    -0.3240     1.5100 H     1 <1>   0.1500 
 34 H       -1.0250    -1.9380    -2.2620 H     1 <1>   0.1500 
 35 H       -2.6350     1.6210    -1.5160 H     1 <1>   0.1500 
 36 H        0.3840     2.9130     1.1870 H     1 <1>   0.1500 
 37 H       -4.3530    -1.3440     1.3050 H     1 <1>   0.1500 
 38 H       -3.2440    -2.9710    -2.4790 H     1 <1>   0.1500 
 39 H       -4.2580     3.0970    -0.4220 H     1 <1>   0.1500 
 40 H       -1.2250     4.3950     2.2850 H     1 <1>   0.1500 
 41 H        2.7960     0.1860    -0.8970 H     1 <1>   0.3700 
 42 H        4.5500     2.2000     0.4330 H     1 <1>   0.0800 
 43 H       -4.8540     4.3900     1.5750 H     1 <1>   0.0800 
 44 H       -3.7950     5.7470     1.2620 H     1 <1>   0.0800 
 45 H       -3.6380     4.8330     2.7450 H     1 <1>   0.0800 
 46 H        5.7080     1.0780    -1.3920 H     1 <1>   0.0800 
 47 H        5.1770    -0.4840    -0.8190 H     1 <1>   0.0800 
 48 H        3.6090    -0.5440     1.3030 H     1 <1>   0.0800 
 49 H        3.1800     0.9800     2.0350 H     1 <1>   0.0800 
 50 H       -6.4430    -1.7350     0.2830 H     1 <1>   0.0800 
 51 H       -5.8210    -3.1960     1.0590 H     1 <1>   0.0800 
 52 H        7.0550     1.4050     0.6150 H     1 <1>   0.0800 
 53 H        7.4860    -0.1120    -0.1230 H     1 <1>   0.0800 
 54 H        4.9470    -0.2130     3.3140 H     1 <1>   0.0800 
 55 H        5.4830     1.3420     2.7450 H     1 <1>   0.0800 
 56 H       -7.7150    -3.1330    -1.3200 H     1 <1>   0.0800 
 57 H       -8.1790    -3.5240     0.3170 H     1 <1>   0.0800 
 58 H       -7.0960    -4.5850    -0.5490 H     1 <1>   0.0800 
 59 H        7.2370    -0.3130     2.3440 H     1 <1>   0.0800 
 60 H        6.1210    -1.3390     1.4910 H     1 <1>   0.0800 
@<TRIPOS>BOND
  1   1   2  2   
  2   1   3  2   
  3   1   4  am  
  4   1   5  1   
  5   4   6  1   
  6   4   7  1   
  7   5   8  ar  
  8   5   9  ar  
  9   6  10  ar  
 10   6  11  ar  
 11   7  12  1   
 12   7  31  1   
 13   7  32  1   
 14   8  13  ar  
 15   8  33  1   
 16   9  14  ar  
 17   9  34  1   
 18  10  15  ar  
 19  10  35  1   
 20  11  16  ar  
 21  11  36  1   
 22  12  17  2   
 23  12  18  am  
 24  13  19  ar  
 25  13  37  1   
 26  14  19  ar  
 27  14  38  1   
 28  15  20  ar  
 29  15  39  1   
 30  16  20  ar  
 31  16  40  1   
 32  18  21  1   
 33  18  41  1   
 34  19  22  1   
 35  20  23  1   
 36  21  24  1   
 37  21  25  1   
 38  21  42  1   
 39  22  26  1   
 40  23  43  1   
 41  23  44  1   
 42  23  45  1   
 43  24  27  1   
 44  24  46  1   
 45  24  47  1   
 46  25  28  1   
 47  25  48  1   
 48  25  49  1   
 49  26  29  1   
 50  26  50  1   
 51  26  51  1   
 52  27  30  1   
 53  27  52  1   
 54  27  53  1   
 55  28  30  1   
 56  28  54  1   
 57  28  55  1   
 58  29  56  1   
 59  29  57  1   
 60  29  58  1   
 61  30  59  1   
 62  30  60  1   
@<TRIPOS>SUBSTRUCTURE
  1 ****   1 GROUP 4 **** **** 0

# MOE 2024.06 (io_trps.svl 2023.06)
