@<TRIPOS>MOLECULE
NONAME
49 52 1 0 0 
SMALL
USER_CHARGES


@<TRIPOS>ATOM
  1 O        6.5070    -1.3960     0.9910 O.3   1 <1>  -0.6800 
  2 C        7.1750    -0.9460    -0.1320 C.3   1 <1>   0.4240 
  3 C        8.0900    -2.1370    -0.5260 C.ar  1 <1>  -0.1440 
  4 C        7.8040     0.4000     0.3590 C.3   1 <1>  -0.0800 
  5 C        6.0980    -0.7010    -1.2280 C.3   1 <1>  -0.0160 
  6 C        9.4760    -2.0930    -0.6420 C.ar  1 <1>  -0.1500 
  7 C        7.4860    -3.3720    -0.7660 C.ar  1 <1>  -0.1500 
  8 C        8.2990     1.5320    -0.6690 C.3   1 <1>  -0.0800 
  9 C        8.8110     0.1970     1.5630 C.3   1 <1>   0.3430 
 10 C        4.8860     0.1050    -0.7530 C.ar  1 <1>  -0.1440 
 11 C       10.2150    -3.2020    -1.0170 C.ar  1 <1>  -0.1500 
 12 C        8.2150    -4.4860    -1.1410 C.ar  1 <1>  -0.1500 
 13 C        9.8380     1.3240    -0.9910 C.3   1 <1>  -0.1600 
 14 C        8.3230     2.8420     0.2320 C.3   1 <1>  -0.1600 
 15 N        9.7680     1.3270     1.4040 N.4   1 <1>  -0.9590 
 16 C        4.7730     1.4640    -1.0150 C.ar  1 <1>  -0.1500 
 17 C        3.8670    -0.5310    -0.0570 C.ar  1 <1>  -0.1500 
 18 C        9.5850    -4.4030    -1.2730 C.ar  1 <1>  -0.1500 
 19 C       10.7430     1.1930     0.3030 C.3   1 <1>   0.3430 
 20 C        9.1890     2.6800     1.5490 C.3   1 <1>   0.3430 
 21 C        3.6830     2.1800    -0.5540 C.ar  1 <1>  -0.1500 
 22 C        2.7770     0.1850     0.4060 C.ar  1 <1>  -0.1500 
 23 C        2.6870     1.5430     0.1620 C.ar  1 <1>  -0.1500 
 24 H        5.6040    -1.0110     0.9890 H     1 <1>   0.4000 
 25 H        6.9560     0.8750     0.8280 H     1 <1>   0.0800 
 26 H        5.7310    -1.6360    -1.6060 H     1 <1>   0.0800 
 27 H        6.5520    -0.2200    -2.0740 H     1 <1>   0.0800 
 28 H       10.0300    -1.2170    -0.4330 H     1 <1>   0.1500 
 29 H        6.4230    -3.4910    -0.6520 H     1 <1>   0.1500 
 30 H        7.7000     1.6540    -1.5550 H     1 <1>   0.0800 
 31 H        9.3220    -0.7500     1.4950 H     1 <1>   0.0800 
 32 H        8.2970     0.2460     2.5100 H     1 <1>   0.0800 
 33 H       11.2870    -3.1400    -1.1060 H     1 <1>   0.1500 
 34 H        7.7130    -5.4210    -1.3240 H     1 <1>   0.1500 
 35 H       10.1940     2.1700    -1.5550 H     1 <1>   0.0800 
 36 H        9.9760     0.4830    -1.6460 H     1 <1>   0.0800 
 37 H        7.3190     3.1230     0.5090 H     1 <1>   0.0800 
 38 H        8.7120     3.6710    -0.3370 H     1 <1>   0.0800 
 39 H        9.2230     1.3990     0.6340 H     1 <1>   0.4500 
 40 H        5.5180     1.9820    -1.5890 H     1 <1>   0.1500 
 41 H        3.9040    -1.5920     0.1280 H     1 <1>   0.1500 
 42 H       10.1560    -5.2670    -1.5670 H     1 <1>   0.1500 
 43 H       11.4780     1.9820     0.3480 H     1 <1>   0.0800 
 44 H       11.2440     0.2390     0.3500 H     1 <1>   0.0800 
 45 H        8.5720     2.7340     2.4330 H     1 <1>   0.0800 
 46 H        9.9650     3.4270     1.6070 H     1 <1>   0.0800 
 47 H        3.6010     3.2340    -0.7590 H     1 <1>   0.1500 
 48 H        1.9940    -0.3150     0.9500 H     1 <1>   0.1500 
 49 H        1.8380     2.1000     0.5210 H     1 <1>   0.1500 
@<TRIPOS>BOND
  1   1   2  1   
  2   1  24  1   
  3   2   3  1   
  4   2   4  1   
  5   2   5  1   
  6   3   6  ar  
  7   3   7  ar  
  8   4   8  1   
  9   4   9  1   
 10   4  25  1   
 11   5  10  1   
 12   5  26  1   
 13   5  27  1   
 14   6  11  ar  
 15   6  28  1   
 16   7  12  ar  
 17   7  29  1   
 18   8  13  1   
 19   8  14  1   
 20   8  30  1   
 21   9  15  1   
 22   9  31  1   
 23   9  32  1   
 24  10  16  ar  
 25  10  17  ar  
 26  11  18  ar  
 27  11  33  1   
 28  12  18  ar  
 29  12  34  1   
 30  13  19  1   
 31  13  35  1   
 32  13  36  1   
 33  14  20  1   
 34  14  37  1   
 35  14  38  1   
 36  15  19  1   
 37  15  20  1   
 38  15  39  1   
 39  16  21  ar  
 40  16  40  1   
 41  17  22  ar  
 42  17  41  1   
 43  18  42  1   
 44  19  43  1   
 45  19  44  1   
 46  20  45  1   
 47  20  46  1   
 48  21  23  ar  
 49  21  47  1   
 50  22  23  ar  
 51  22  48  1   
 52  23  49  1   
@<TRIPOS>SUBSTRUCTURE
  1 ****   2 GROUP 4 **** **** 0

# MOE 2024.06 (io_trps.svl 2023.06)
