@<TRIPOS>MOLECULE
NONAME
32 32 1 0 0 
SMALL
USER_CHARGES


@<TRIPOS>ATOM
  1 CL       0.2740     0.6530    -0.0740 Cl    1 <1>  -0.1770 
  2 C        1.6150    -0.4000     0.3220 C.ar  1 <1>   0.1770 
  3 C        2.9320     0.0040     0.1280 C.ar  1 <1>  -0.1440 
  4 C        1.3000    -1.6420     0.8400 C.ar  1 <1>  -0.1500 
  5 C        3.9600    -0.8770     0.4830 C.ar  1 <1>   0.1170 
  6 C        3.2610     1.3780    -0.4600 C.3   1 <1>  -0.0970 
  7 C        2.3160    -2.5110     1.1830 C.ar  1 <1>  -0.1500 
  8 N        5.2990    -0.4830     0.3300 N.am  1 <1>  -0.5470 
  9 C        3.6320    -2.1260     1.0080 C.ar  1 <1>  -0.1500 
 10 C        6.4470    -1.1910     0.1580 C.2   1 <1>   0.7800 
 11 O        6.4970    -2.4020     0.1060 O.2   1 <1>  -0.5700 
 12 O        7.5390    -0.4380     0.0380 O.3   1 <1>  -0.4300 
 13 C        8.8650    -0.8820    -0.1570 C.3   1 <1>   0.2800 
 14 C        9.7070     0.3930    -0.2230 C.3   1 <1>  -0.2400 
 15 C        8.9830    -1.6350    -1.4870 C.3   1 <1>  -0.2400 
 16 C        9.3230    -1.7280     1.0370 C.3   1 <1>  -0.2400 
 17 H        0.2690    -1.9200     0.9720 H     1 <1>   0.1500 
 18 H        2.4110     1.8290    -0.9360 H     1 <1>   0.0800 
 19 H        4.0290     1.2920    -1.2080 H     1 <1>   0.0800 
 20 H        3.6000     2.0370     0.3190 H     1 <1>   0.0800 
 21 H        2.0880    -3.4830     1.5880 H     1 <1>   0.1500 
 22 H        5.4590     0.5170     0.2730 H     1 <1>   0.3700 
 23 H        4.4110    -2.8110     1.2890 H     1 <1>   0.1500 
 24 H        9.3850     1.0120    -1.0420 H     1 <1>   0.0800 
 25 H       10.7440     0.1490    -0.3720 H     1 <1>   0.0800 
 26 H        9.6190     0.9480     0.6930 H     1 <1>   0.0800 
 27 H        8.5900    -1.0400    -2.2920 H     1 <1>   0.0800 
 28 H        8.4590    -2.5720    -1.4520 H     1 <1>   0.0800 
 29 H       10.0150    -1.8500    -1.6960 H     1 <1>   0.0800 
 30 H        9.1610    -1.1970     1.9570 H     1 <1>   0.0800 
 31 H       10.3710    -1.9460     0.9500 H     1 <1>   0.0800 
 32 H        8.8000    -2.6650     1.0730 H     1 <1>   0.0800 
@<TRIPOS>BOND
  1   1   2  1   
  2   2   3  ar  
  3   2   4  ar  
  4   3   5  ar  
  5   3   6  1   
  6   4   7  ar  
  7   4  17  1   
  8   5   8  1   
  9   5   9  ar  
 10   6  18  1   
 11   6  19  1   
 12   6  20  1   
 13   7   9  ar  
 14   7  21  1   
 15   8  10  am  
 16   8  22  1   
 17   9  23  1   
 18  10  11  2   
 19  10  12  1   
 20  12  13  1   
 21  13  14  1   
 22  13  15  1   
 23  13  16  1   
 24  14  24  1   
 25  14  25  1   
 26  14  26  1   
 27  15  27  1   
 28  15  28  1   
 29  15  29  1   
 30  16  30  1   
 31  16  31  1   
 32  16  32  1   
@<TRIPOS>SUBSTRUCTURE
  1 ****   8 GROUP 4 **** **** 0

# MOE 2024.06 (io_trps.svl 2023.06)
