@<TRIPOS>MOLECULE
NONAME
49 51 1 0 0 
SMALL
USER_CHARGES


@<TRIPOS>ATOM
  1 F        0.5000    -0.3650     0.8120 F     1 <1>  -0.1900 
  2 C        1.6610    -0.9050     0.5690 C.ar  1 <1>   0.1900 
  3 C        2.4100    -1.3870     1.6250 C.ar  1 <1>  -0.1500 
  4 C        2.1040    -0.9790    -0.7380 C.ar  1 <1>  -0.1500 
  5 C        3.6430    -1.9560     1.3560 C.ar  1 <1>  -0.1500 
  6 C        3.3390    -1.5520    -0.9880 C.ar  1 <1>  -0.1500 
  7 C        4.1360    -2.0430     0.0520 C.ar  1 <1>   0.0860 
  8 C        5.4340    -2.6350    -0.2080 C.2   1 <1>   0.5440 
  9 O        5.6400    -3.7770     0.1570 O.2   1 <1>  -0.5700 
 10 N        6.4430    -1.9410    -0.8500 N.am  1 <1>  -0.6600 
 11 C        6.4480    -0.4620    -1.0190 C.3   1 <1>   0.1400 
 12 C        7.7130    -2.6090    -1.2470 C.3   1 <1>   0.1400 
 13 C        7.6030     0.1400    -0.2150 C.3   1 <1>  -0.1600 
 14 C        8.8730    -2.0280    -0.4340 C.3   1 <1>  -0.1600 
 15 C        8.9600    -0.4970    -0.5830 C.3   1 <1>  -0.0190 
 16 C       10.1250     0.0690     0.2310 C.2   1 <1>   0.5690 
 17 O        9.9100     0.6460     1.2690 O.2   1 <1>  -0.5700 
 18 N       11.3830    -0.1170    -0.2660 N.am  1 <1>  -0.5470 
 19 C       12.6090     0.2500     0.3070 C.ar  1 <1>   0.1170 
 20 C       12.9830     1.5920     0.4280 C.ar  1 <1>  -0.1430 
 21 C       13.4870    -0.7480     0.7380 C.ar  1 <1>  -0.1430 
 22 C       14.2140     1.9170     0.9720 C.ar  1 <1>  -0.1500 
 23 C       12.0690     2.7240    -0.0270 C.3   1 <1>  -0.0970 
 24 C       14.7150    -0.4030     1.2760 C.ar  1 <1>  -0.1500 
 25 C       13.1140    -2.2220     0.6420 C.3   1 <1>  -0.0970 
 26 C       15.0800     0.9250     1.3940 C.ar  1 <1>  -0.1500 
 27 H        2.0330    -1.3190     2.6290 H     1 <1>   0.1500 
 28 H        1.4900    -0.6000    -1.5360 H     1 <1>   0.1500 
 29 H        4.2430    -2.3460     2.1620 H     1 <1>   0.1500 
 30 H        3.7000    -1.6270    -1.9990 H     1 <1>   0.1500 
 31 H        5.5240    -0.0280    -0.6790 H     1 <1>   0.0800 
 32 H        6.5640    -0.2280    -2.0640 H     1 <1>   0.0800 
 33 H        7.8790    -2.4470    -2.2980 H     1 <1>   0.0800 
 34 H        7.6540    -3.6720    -1.0850 H     1 <1>   0.0800 
 35 H        7.4040    -0.0090     0.8330 H     1 <1>   0.0800 
 36 H        7.6440     1.2010    -0.3880 H     1 <1>   0.0800 
 37 H        9.7900    -2.4870    -0.7590 H     1 <1>   0.0800 
 38 H        8.7300    -2.2840     0.6020 H     1 <1>   0.0800 
 39 H        9.1530    -0.2690    -1.6160 H     1 <1>   0.0800 
 40 H       11.4630    -0.7080    -1.0880 H     1 <1>   0.3700 
 41 H       14.5080     2.9460     1.0740 H     1 <1>   0.1500 
 42 H       11.6490     2.5040    -0.9910 H     1 <1>   0.0800 
 43 H       12.6090     3.6500    -0.1000 H     1 <1>   0.0800 
 44 H       11.2700     2.8500     0.6820 H     1 <1>   0.0800 
 45 H       15.3980    -1.1630     1.6120 H     1 <1>   0.1500 
 46 H       12.1780    -2.3950     1.1450 H     1 <1>   0.0800 
 47 H       13.8610    -2.8400     1.1060 H     1 <1>   0.0800 
 48 H       13.0220    -2.5150    -0.3870 H     1 <1>   0.0800 
 49 H       16.0340     1.1870     1.8150 H     1 <1>   0.1500 
@<TRIPOS>BOND
  1   1   2  1   
  2   2   3  ar  
  3   2   4  ar  
  4   3   5  ar  
  5   3  27  1   
  6   4   6  ar  
  7   4  28  1   
  8   5   7  ar  
  9   5  29  1   
 10   6   7  ar  
 11   6  30  1   
 12   7   8  1   
 13   8   9  2   
 14   8  10  am  
 15  10  11  1   
 16  10  12  1   
 17  11  13  1   
 18  11  31  1   
 19  11  32  1   
 20  12  14  1   
 21  12  33  1   
 22  12  34  1   
 23  13  15  1   
 24  13  35  1   
 25  13  36  1   
 26  14  15  1   
 27  14  37  1   
 28  14  38  1   
 29  15  16  1   
 30  15  39  1   
 31  16  17  2   
 32  16  18  am  
 33  18  19  1   
 34  18  40  1   
 35  19  20  ar  
 36  19  21  ar  
 37  20  22  ar  
 38  20  23  1   
 39  21  24  ar  
 40  21  25  1   
 41  22  26  ar  
 42  22  41  1   
 43  23  42  1   
 44  23  43  1   
 45  23  44  1   
 46  24  26  ar  
 47  24  45  1   
 48  25  46  1   
 49  25  47  1   
 50  25  48  1   
 51  26  49  1   
@<TRIPOS>SUBSTRUCTURE
  1 ****  15 GROUP 4 **** **** 0

# MOE 2024.06 (io_trps.svl 2023.06)
