@<TRIPOS>MOLECULE
NONAME
43 44 1 0 0 
SMALL
USER_CHARGES


@<TRIPOS>ATOM
  1 O        0.4730     1.4510     1.7070 O.2   1 <1>  -0.5700 
  2 C       -0.0480     1.8990     0.7030 C.2   1 <1>   0.7800 
  3 O        0.6930     2.5850    -0.1700 O.3   1 <1>  -0.4300 
  4 N       -1.3790     1.7260     0.4190 N.am  1 <1>  -0.6600 
  5 C        2.0680     2.7940     0.0550 C.3   1 <1>   0.1200 
  6 C       -2.2670     0.9350     1.3150 C.3   1 <1>   0.1400 
  7 C       -2.0170     2.2340    -0.8280 C.3   1 <1>   0.1400 
  8 C        2.6220     3.6010    -1.1140 C.3   1 <1>  -0.2400 
  9 C       -3.5170     1.7460     1.6590 C.3   1 <1>  -0.1600 
 10 C       -3.2690     3.0420    -0.4810 C.3   1 <1>  -0.1600 
 11 C       -4.2180     2.2180     0.3870 C.3   1 <1>   0.2890 
 12 N       -5.3730     3.0500     0.7570 N.pl3 1 <1>  -0.8690 
 13 C       -6.6430     2.9320     0.3180 C.ar  1 <1>   0.7200 
 14 N       -7.4750     3.8060     0.8080 N.ar  1 <1>  -0.6200 
 15 N       -6.9280     1.9860    -0.5360 N.ar  1 <1>  -0.6200 
 16 C       -8.6940     3.6720     0.3700 C.ar  1 <1>   0.7030 
 17 C       -8.1790     1.9640    -0.8930 C.ar  1 <1>   0.7030 
 18 O       -9.5730     4.5590     0.8600 O.3   1 <1>  -0.3630 
 19 N       -9.1260     2.7740    -0.4840 N.ar  1 <1>  -0.6200 
 20 O       -8.4980     1.0010    -1.7710 O.3   1 <1>  -0.3630 
 21 C      -10.9380     4.5600     0.4920 C.3   1 <1>   0.0400 
 22 C       -9.8120     0.8290    -2.2660 C.3   1 <1>   0.0400 
 23 H        2.5510     1.8340     0.1260 H     1 <1>   0.0800 
 24 H        2.1850     3.3270     0.9840 H     1 <1>   0.0800 
 25 H       -1.7510     0.6700     2.2230 H     1 <1>   0.0800 
 26 H       -2.5460     0.0240     0.8140 H     1 <1>   0.0800 
 27 H       -2.2840     1.3950    -1.4480 H     1 <1>   0.0800 
 28 H       -1.3370     2.8550    -1.3850 H     1 <1>   0.0800 
 29 H        2.4870     3.0610    -2.0340 H     1 <1>   0.0800 
 30 H        3.6730     3.7740    -0.9690 H     1 <1>   0.0800 
 31 H        2.1240     4.5520    -1.1760 H     1 <1>   0.0800 
 32 H       -3.2290     2.5900     2.2600 H     1 <1>   0.0800 
 33 H       -4.1900     1.1320     2.2310 H     1 <1>   0.0800 
 34 H       -3.7710     3.3220    -1.3890 H     1 <1>   0.0800 
 35 H       -2.9740     3.9360     0.0370 H     1 <1>   0.0800 
 36 H       -4.5450     1.3550    -0.1700 H     1 <1>   0.0800 
 37 H       -5.2050     3.8270     1.3930 H     1 <1>   0.4000 
 38 H      -11.4280     5.3610     1.0170 H     1 <1>   0.0800 
 39 H      -11.3750     3.6170     0.7690 H     1 <1>   0.0800 
 40 H      -11.0140     4.7140    -0.5700 H     1 <1>   0.0800 
 41 H       -9.8090    -0.0030    -2.9470 H     1 <1>   0.0800 
 42 H      -10.1120     1.7260    -2.7780 H     1 <1>   0.0800 
 43 H      -10.4720     0.6260    -1.4400 H     1 <1>   0.0800 
@<TRIPOS>BOND
  1   1   2  2   
  2   2   3  1   
  3   2   4  am  
  4   3   5  1   
  5   4   6  1   
  6   4   7  1   
  7   5   8  1   
  8   5  23  1   
  9   5  24  1   
 10   6   9  1   
 11   6  25  1   
 12   6  26  1   
 13   7  10  1   
 14   7  27  1   
 15   7  28  1   
 16   8  29  1   
 17   8  30  1   
 18   8  31  1   
 19   9  11  1   
 20   9  32  1   
 21   9  33  1   
 22  10  11  1   
 23  10  34  1   
 24  10  35  1   
 25  11  12  1   
 26  11  36  1   
 27  12  13  1   
 28  12  37  1   
 29  13  14  ar  
 30  13  15  ar  
 31  14  16  ar  
 32  15  17  ar  
 33  16  18  1   
 34  16  19  ar  
 35  17  19  ar  
 36  17  20  1   
 37  18  21  1   
 38  20  22  1   
 39  21  38  1   
 40  21  39  1   
 41  21  40  1   
 42  22  41  1   
 43  22  42  1   
 44  22  43  1   
@<TRIPOS>SUBSTRUCTURE
  1 ****  11 GROUP 4 **** **** 0

# MOE 2024.06 (io_trps.svl 2023.06)
