@<TRIPOS>MOLECULE
NONAME
43 44 1 0 0 
SMALL
USER_CHARGES


@<TRIPOS>ATOM
  1 O        0.0010     0.3750    -0.8930 O.2   1 <1>  -0.5700 
  2 C       -0.0390     1.5320    -0.4760 C.2   1 <1>   0.6340 
  3 O       -1.2450     2.0030    -0.1180 O.3   1 <1>  -0.4300 
  4 C        1.1440     2.3270    -0.2960 C.ar  1 <1>   0.0860 
  5 C       -2.4270     1.2830    -0.3610 C.3   1 <1>   0.1200 
  6 C        1.1860     3.7440    -0.4180 C.ar  1 <1>  -0.1710 
  7 C        2.3550     1.6880     0.0140 C.ar  1 <1>  -0.1500 
  8 C       -3.6050     2.1360     0.1110 C.3   1 <1>  -0.1600 
  9 O        0.1900     4.4220    -0.7520 O.3   1 <1>  -0.8290 
 10 C        2.3890     4.4300    -0.1880 C.ar  1 <1>  -0.1500 
 11 C        3.5300     2.3750     0.2260 C.ar  1 <1>  -0.1500 
 12 C       -4.9660     1.4740    -0.1870 C.3   1 <1>  -0.0800 
 13 C        3.5430     3.7650     0.1290 C.ar  1 <1>  -0.1500 
 14 C       -6.2430     2.3070     0.1350 C.3   1 <1>   0.0000 
 15 C       -5.1520     0.1360     0.5310 C.3   1 <1>  -0.1600 
 16 C       -7.2470     1.2810     0.7420 C.3   1 <1>  -0.0800 
 17 C       -6.7420     2.9710    -1.1640 C.3   1 <1>  -0.2400 
 18 C       -6.0060     3.4310     1.1640 C.3   1 <1>  -0.2400 
 19 C       -6.6540    -0.1000     0.4710 C.3   1 <1>  -0.1600 
 20 C       -8.7140     1.3700     0.2930 C.3   1 <1>  -0.2400 
 21 H       -2.3700     0.3530     0.1780 H     1 <1>   0.0800 
 22 H       -2.4870     1.0920    -1.4190 H     1 <1>   0.0800 
 23 H        2.3530     0.6160     0.0890 H     1 <1>   0.1500 
 24 H       -3.5510     3.0810    -0.4010 H     1 <1>   0.0800 
 25 H       -3.4940     2.3110     1.1660 H     1 <1>   0.0800 
 26 H        2.3570     5.4990    -0.2800 H     1 <1>   0.1500 
 27 H        4.4360     1.8510     0.4660 H     1 <1>   0.1500 
 28 H       -4.9780     1.2480    -1.2400 H     1 <1>   0.0800 
 29 H        4.4540     4.3060     0.2990 H     1 <1>   0.1500 
 30 H       -4.8400     0.2220     1.5580 H     1 <1>   0.0800 
 31 H       -4.6040    -0.6600     0.0570 H     1 <1>   0.0800 
 32 H       -7.2400     1.4000     1.8130 H     1 <1>   0.0800 
 33 H       -6.9930     2.2290    -1.9000 H     1 <1>   0.0800 
 34 H       -5.9740     3.6040    -1.5730 H     1 <1>   0.0800 
 35 H       -7.6090     3.5790    -0.9780 H     1 <1>   0.0800 
 36 H       -5.5810     3.0360     2.0700 H     1 <1>   0.0800 
 37 H       -6.9350     3.9130     1.4100 H     1 <1>   0.0800 
 38 H       -5.3370     4.1780     0.7730 H     1 <1>   0.0800 
 39 H       -6.9770    -0.8280     1.1940 H     1 <1>   0.0800 
 40 H       -6.9240    -0.4320    -0.5170 H     1 <1>   0.0800 
 41 H       -8.8110     1.1770    -0.7600 H     1 <1>   0.0800 
 42 H       -9.1090     2.3470     0.5080 H     1 <1>   0.0800 
 43 H       -9.3030     0.6440     0.8240 H     1 <1>   0.0800 
@<TRIPOS>BOND
  1   1   2  2   
  2   2   3  1   
  3   2   4  1   
  4   3   5  1   
  5   4   6  ar  
  6   4   7  ar  
  7   5   8  1   
  8   5  21  1   
  9   5  22  1   
 10   6   9  1   
 11   6  10  ar  
 12   7  11  ar  
 13   7  23  1   
 14   8  12  1   
 15   8  24  1   
 16   8  25  1   
 17  10  13  ar  
 18  10  26  1   
 19  11  13  ar  
 20  11  27  1   
 21  12  14  1   
 22  12  15  1   
 23  12  28  1   
 24  13  29  1   
 25  14  16  1   
 26  14  17  1   
 27  14  18  1   
 28  15  19  1   
 29  15  30  1   
 30  15  31  1   
 31  16  19  1   
 32  16  20  1   
 33  16  32  1   
 34  17  33  1   
 35  17  34  1   
 36  17  35  1   
 37  18  36  1   
 38  18  37  1   
 39  18  38  1   
 40  19  39  1   
 41  19  40  1   
 42  20  41  1   
 43  20  42  1   
 44  20  43  1   
@<TRIPOS>SUBSTRUCTURE
  1 ****   5 GROUP 4 **** **** 0

# MOE 2024.06 (io_trps.svl 2023.06)
