@<TRIPOS>MOLECULE
NONAME
44 44 1 0 0 
SMALL
USER_CHARGES


@<TRIPOS>ATOM
  1 O        8.1800    -0.0180     0.3120 O.3   1 <1>  -0.3630 
  2 C        9.5250    -0.1450     0.1590 C.ar  1 <1>   0.0830 
  3 C        7.5770     1.2320     0.5680 C.3   1 <1>   0.1200 
  4 C       10.0290    -1.4270    -0.0410 C.ar  1 <1>  -0.1440 
  5 C       10.3980     0.9410     0.1950 C.ar  1 <1>  -0.1500 
  6 C        6.0640     1.0160     0.6960 C.3   1 <1>   0.2000 
  7 C       11.3940    -1.6060    -0.2010 C.ar  1 <1>  -0.1500 
  8 C        9.1050    -2.6360    -0.0860 C.3   1 <1>  -0.0960 
  9 C       11.7600     0.7550     0.0330 C.ar  1 <1>  -0.1430 
 10 O        5.6150     0.2870    -0.4080 O.3   1 <1>  -0.6800 
 11 C        5.2740     2.3380     0.7670 C.3   1 <1>   0.3430 
 12 C       12.2540    -0.5230    -0.1640 C.ar  1 <1>  -0.1500 
 13 C       12.7120     1.9380     0.0740 C.3   1 <1>  -0.0970 
 14 N        3.8690     2.1060     0.3130 N.4   1 <1>  -0.9060 
 15 C        3.0970     3.2410    -0.1820 C.3   1 <1>   0.5030 
 16 C        3.7690     3.8130    -1.4290 C.3   1 <1>  -0.2400 
 17 C        2.9800     4.2960     0.9160 C.3   1 <1>  -0.2400 
 18 C        1.7170     2.6990    -0.5380 C.3   1 <1>  -0.2400 
 19 H        7.8020     1.8900    -0.2530 H     1 <1>   0.0800 
 20 H        7.9880     1.6260     1.4820 H     1 <1>   0.0800 
 21 H       10.0400     1.9390     0.3490 H     1 <1>   0.1500 
 22 H        5.8690     0.4280     1.5770 H     1 <1>   0.0800 
 23 H       11.7980    -2.5900    -0.3560 H     1 <1>   0.1500 
 24 H        8.5420    -2.6990     0.8280 H     1 <1>   0.0800 
 25 H        9.6630    -3.5460    -0.2060 H     1 <1>   0.0800 
 26 H        8.4220    -2.5420    -0.9110 H     1 <1>   0.0800 
 27 H        6.2810    -0.4170    -0.6000 H     1 <1>   0.4000 
 28 H        5.7530     3.0480     0.1150 H     1 <1>   0.0800 
 29 H        5.2950     2.7370     1.7680 H     1 <1>   0.0800 
 30 H       13.3100    -0.6820    -0.2890 H     1 <1>   0.1500 
 31 H       12.2170     2.8360    -0.2480 H     1 <1>   0.0800 
 32 H       13.5520     1.7650    -0.5760 H     1 <1>   0.0800 
 33 H       13.0740     2.0790     1.0760 H     1 <1>   0.0800 
 34 H        3.3340     1.6240     1.0390 H     1 <1>   0.4500 
 35 H        3.9690     1.4130    -0.4490 H     1 <1>   0.4500 
 36 H        3.9110     3.0500    -2.1750 H     1 <1>   0.0800 
 37 H        4.7150     4.2670    -1.2000 H     1 <1>   0.0800 
 38 H        3.1450     4.5780    -1.8570 H     1 <1>   0.0800 
 39 H        3.9360     4.7250     1.1560 H     1 <1>   0.0800 
 40 H        2.5400     3.8810     1.8060 H     1 <1>   0.0800 
 41 H        2.3450     5.0980     0.5800 H     1 <1>   0.0800 
 42 H        1.7820     1.9440    -1.3020 H     1 <1>   0.0800 
 43 H        1.0980     3.4930    -0.9160 H     1 <1>   0.0800 
 44 H        1.2250     2.2870     0.3260 H     1 <1>   0.0800 
@<TRIPOS>BOND
  1   1   2  1   
  2   1   3  1   
  3   2   4  ar  
  4   2   5  ar  
  5   3   6  1   
  6   3  19  1   
  7   3  20  1   
  8   4   7  ar  
  9   4   8  1   
 10   5   9  ar  
 11   5  21  1   
 12   6  10  1   
 13   6  11  1   
 14   6  22  1   
 15   7  12  ar  
 16   7  23  1   
 17   8  24  1   
 18   8  25  1   
 19   8  26  1   
 20   9  12  ar  
 21   9  13  1   
 22  10  27  1   
 23  11  14  1   
 24  11  28  1   
 25  11  29  1   
 26  12  30  1   
 27  13  31  1   
 28  13  32  1   
 29  13  33  1   
 30  14  15  1   
 31  14  34  1   
 32  14  35  1   
 33  15  16  1   
 34  15  17  1   
 35  15  18  1   
 36  16  36  1   
 37  16  37  1   
 38  16  38  1   
 39  17  39  1   
 40  17  40  1   
 41  17  41  1   
 42  18  42  1   
 43  18  43  1   
 44  18  44  1   
@<TRIPOS>SUBSTRUCTURE
  1 ****   3 GROUP 4 **** **** 0

# MOE 2024.06 (io_trps.svl 2023.06)
