@<TRIPOS>MOLECULE
NONAME
52 55 1 0 0 
SMALL
USER_CHARGES


@<TRIPOS>ATOM
  1 O        2.1030    -5.1880    -1.5640 O.co2 1 <1>  -0.9000 
  2 C        1.9330    -4.2610    -0.7690 C.2   1 <1>   0.9060 
  3 O        1.1500    -4.4270     0.1660 O.co2 1 <1>  -0.9000 
  4 C        2.8510    -3.0600    -0.8570 C.3   1 <1>  -0.1860 
  5 C        3.9060    -2.8160     0.4810 C.3   1 <1>  -0.0190 
  6 C        2.0720    -1.6310    -1.1260 C.3   1 <1>   0.0580 
  7 C        3.7350    -3.8030     1.6630 C.2   1 <1>   0.5690 
  8 C        3.7450    -1.2030     0.8890 C.3   1 <1>   0.0580 
  9 C        2.1600    -0.0770    -0.6990 C.2   1 <1>  -0.2880 
 10 C        2.9300    -1.5400    -0.1060 C.3   1 <1>  -0.1600 
 11 O        3.3960    -3.3640     2.7380 O.2   1 <1>  -0.5700 
 12 N        3.9940    -5.1540     1.5500 N.am  1 <1>  -0.6600 
 13 C        3.0340     0.1500     0.3560 C.2   1 <1>  -0.2880 
 14 C        4.4360    -5.8790     0.3130 C.3   1 <1>   0.1400 
 15 C        3.3860    -6.0760     2.5530 C.3   1 <1>   0.1400 
 16 C        3.5730    -7.1360     0.0050 C.3   1 <1>   0.3430 
 17 C        2.0760    -6.6550     1.9840 C.3   1 <1>   0.3430 
 18 N        2.1660    -7.0350     0.5310 N.4   1 <1>  -0.9590 
 19 C        1.1940    -8.0790     0.1190 C.3   1 <1>   0.4230 
 20 C        1.3950    -8.5130    -1.3440 C.3   1 <1>  -0.1600 
 21 C       -0.2350    -7.5460     0.3190 C.3   1 <1>  -0.1600 
 22 C        0.3350    -9.5310    -1.7930 C.3   1 <1>  -0.1600 
 23 C       -1.2980    -8.5620    -0.1250 C.3   1 <1>  -0.1600 
 24 C       -1.0810    -8.9830    -1.5820 C.3   1 <1>  -0.1600 
 25 H        3.4640    -3.2590    -1.7240 H     1 <1>   0.0800 
 26 H        4.9190    -2.9630     0.1400 H     1 <1>   0.0800 
 27 H        1.0320    -1.8690    -0.9400 H     1 <1>   0.0800 
 28 H        3.4080    -1.1990     1.9130 H     1 <1>   0.0800 
 29 H        1.5550     0.6330    -1.2370 H     1 <1>   0.1500 
 30 H        2.0690    -1.7440     0.6550 H     1 <1>   0.0800 
 31 H        3.8270    -1.2630    -0.8840 H     1 <1>   0.0800 
 32 H        3.2780     1.0800     0.8410 H     1 <1>   0.1500 
 33 H        5.4600    -6.1850     0.4350 H     1 <1>   0.0800 
 34 H        4.4100    -5.2260    -0.5380 H     1 <1>   0.0800 
 35 H        3.1760    -5.5700     3.4790 H     1 <1>   0.0800 
 36 H        4.0750    -6.8710     2.7720 H     1 <1>   0.0800 
 37 H        4.0490    -8.0020     0.4300 H     1 <1>   0.0800 
 38 H        3.5490    -7.2580    -1.0650 H     1 <1>   0.0800 
 39 H        1.3080    -5.9050     2.0900 H     1 <1>   0.0800 
 40 H        1.7880    -7.5080     2.5730 H     1 <1>   0.0800 
 41 H        1.8090    -6.1670     0.0370 H     1 <1>   0.4500 
 42 H        1.3260    -8.9460     0.7440 H     1 <1>   0.0800 
 43 H        2.3580    -8.9700    -1.4720 H     1 <1>   0.0800 
 44 H        1.3340    -7.6470    -1.9820 H     1 <1>   0.0800 
 45 H       -0.3550    -6.6440    -0.2600 H     1 <1>   0.0800 
 46 H       -0.4120    -7.3050     1.3500 H     1 <1>   0.0800 
 47 H        0.4510   -10.4450    -1.2360 H     1 <1>   0.0800 
 48 H        0.4760    -9.7590    -2.8360 H     1 <1>   0.0800 
 49 H       -2.2760    -8.1220    -0.0230 H     1 <1>   0.0800 
 50 H       -1.2590    -9.4300     0.5110 H     1 <1>   0.0800 
 51 H       -1.8050    -9.7320    -1.8550 H     1 <1>   0.0800 
 52 H       -1.2320    -8.1310    -2.2240 H     1 <1>   0.0800 
@<TRIPOS>BOND
  1   1   2  ar  
  2   2   3  ar  
  3   2   4  1   
  4   4   5  1   
  5   4   6  1   
  6   4  25  1   
  7   5   7  1   
  8   5   8  1   
  9   5  26  1   
 10   6   9  1   
 11   6  10  1   
 12   6  27  1   
 13   7  11  2   
 14   7  12  am  
 15   8  10  1   
 16   8  13  1   
 17   8  28  1   
 18   9  13  2   
 19   9  29  1   
 20  10  30  1   
 21  10  31  1   
 22  12  14  1   
 23  12  15  1   
 24  13  32  1   
 25  14  16  1   
 26  14  33  1   
 27  14  34  1   
 28  15  17  1   
 29  15  35  1   
 30  15  36  1   
 31  16  18  1   
 32  16  37  1   
 33  16  38  1   
 34  17  18  1   
 35  17  39  1   
 36  17  40  1   
 37  18  19  1   
 38  18  41  1   
 39  19  20  1   
 40  19  21  1   
 41  19  42  1   
 42  20  22  1   
 43  20  43  1   
 44  20  44  1   
 45  21  23  1   
 46  21  45  1   
 47  21  46  1   
 48  22  24  1   
 49  22  47  1   
 50  22  48  1   
 51  23  24  1   
 52  23  49  1   
 53  23  50  1   
 54  24  51  1   
 55  24  52  1   
@<TRIPOS>SUBSTRUCTURE
  1 ****   3 GROUP 4 **** **** 0

# MOE 2024.06 (io_trps.svl 2023.06)
