@<TRIPOS>MOLECULE
NONAME
47 48 1 0 0 
SMALL
USER_CHARGES


@<TRIPOS>ATOM
  1 S        0.3140    -0.4130     2.0110 S.o2  1 <1>   1.4470 
  2 O        1.0150    -1.0550     3.1030 O.2   1 <1>  -0.6500 
  3 O       -0.1050     0.9650     2.1440 O.2   1 <1>  -0.6500 
  4 N        1.3310    -0.4950     0.6590 N.am  1 <1>  -0.8490 
  5 C       -1.1140    -1.4140     1.5110 C.ar  1 <1>  -0.0090 
  6 C        2.3110     0.6020     0.6550 C.3   1 <1>   0.1960 
  7 C        1.9860    -1.7940     0.5130 C.3   1 <1>   0.1960 
  8 C       -1.6670    -1.2760     0.2450 C.ar  1 <1>  -0.1500 
  9 C       -1.6930    -2.3320     2.3770 C.ar  1 <1>  -0.1500 
 10 C        3.4240     0.4050    -0.3930 C.3   1 <1>  -0.1600 
 11 C        2.6030    -1.9190    -0.8900 C.3   1 <1>  -0.1600 
 12 C       -2.7720    -2.0120    -0.1630 C.ar  1 <1>   0.1170 
 13 C       -2.7810    -3.0970     1.9900 C.ar  1 <1>  -0.1500 
 14 C        3.0060    -0.5650    -1.5060 C.3   1 <1>  -0.0800 
 15 N       -3.3320    -1.8620    -1.4430 N.am  1 <1>  -0.5470 
 16 C       -3.3210    -2.9480     0.7180 C.ar  1 <1>   0.0820 
 17 C        4.1160    -0.7350    -2.5490 C.3   1 <1>  -0.2400 
 18 C       -3.5540    -0.7910    -2.2480 C.2   1 <1>   0.5690 
 19 O       -4.3800    -3.6830     0.2710 O.3   1 <1>  -0.3630 
 20 O       -4.0680    -0.9490    -3.3250 O.2   1 <1>  -0.5700 
 21 C       -3.2020     0.6150    -1.8210 C.3   1 <1>  -0.1790 
 22 C       -5.0630    -4.5850     1.1100 C.3   1 <1>   0.1200 
 23 C       -6.2130    -5.1920     0.3120 C.3   1 <1>  -0.2400 
 24 H        2.7600     0.6990     1.6310 H     1 <1>   0.0800 
 25 H        1.7880     1.5200     0.4430 H     1 <1>   0.0800 
 26 H        1.2770    -2.5930     0.6570 H     1 <1>   0.0800 
 27 H        2.7540    -1.8920     1.2630 H     1 <1>   0.0800 
 28 H       -1.2110    -0.5820    -0.4360 H     1 <1>   0.1500 
 29 H       -1.2840    -2.4530     3.3670 H     1 <1>   0.1500 
 30 H        4.2990     0.0230     0.1030 H     1 <1>   0.0800 
 31 H        3.6850     1.3620    -0.8090 H     1 <1>   0.0800 
 32 H        1.8970    -2.4000    -1.5430 H     1 <1>   0.0800 
 33 H        3.4590    -2.5660    -0.8150 H     1 <1>   0.0800 
 34 H       -3.1860    -3.8000     2.6940 H     1 <1>   0.1500 
 35 H        2.1410    -0.1480    -1.9950 H     1 <1>   0.0800 
 36 H       -3.8180    -2.6980    -1.7760 H     1 <1>   0.3700 
 37 H        5.0090    -1.1280    -2.0960 H     1 <1>   0.0800 
 38 H        4.3490     0.2130    -3.0010 H     1 <1>   0.0800 
 39 H        3.7960    -1.4090    -3.3240 H     1 <1>   0.0800 
 40 H       -2.1710     0.8130    -2.0400 H     1 <1>   0.0800 
 41 H       -3.3860     0.7460    -0.7710 H     1 <1>   0.0800 
 42 H       -3.8100     1.3150    -2.3640 H     1 <1>   0.0800 
 43 H       -5.4360    -4.0440     1.9630 H     1 <1>   0.0800 
 44 H       -4.3730    -5.3500     1.4240 H     1 <1>   0.0800 
 45 H       -6.8870    -4.4190    -0.0120 H     1 <1>   0.0800 
 46 H       -6.7570    -5.8860     0.9270 H     1 <1>   0.0800 
 47 H       -5.8320    -5.7190    -0.5450 H     1 <1>   0.0800 
@<TRIPOS>BOND
  1   1   2  2   
  2   1   3  2   
  3   1   4  am  
  4   1   5  1   
  5   4   6  1   
  6   4   7  1   
  7   5   8  ar  
  8   5   9  ar  
  9   6  10  1   
 10   6  24  1   
 11   6  25  1   
 12   7  11  1   
 13   7  26  1   
 14   7  27  1   
 15   8  12  ar  
 16   8  28  1   
 17   9  13  ar  
 18   9  29  1   
 19  10  14  1   
 20  10  30  1   
 21  10  31  1   
 22  11  14  1   
 23  11  32  1   
 24  11  33  1   
 25  12  15  1   
 26  12  16  ar  
 27  13  16  ar  
 28  13  34  1   
 29  14  17  1   
 30  14  35  1   
 31  15  18  am  
 32  15  36  1   
 33  16  19  1   
 34  17  37  1   
 35  17  38  1   
 36  17  39  1   
 37  18  20  2   
 38  18  21  1   
 39  19  22  1   
 40  21  40  1   
 41  21  41  1   
 42  21  42  1   
 43  22  23  1   
 44  22  43  1   
 45  22  44  1   
 46  23  45  1   
 47  23  46  1   
 48  23  47  1   
@<TRIPOS>SUBSTRUCTURE
  1 ****   8 GROUP 4 **** **** 0

# MOE 2024.06 (io_trps.svl 2023.06)
