@<TRIPOS>MOLECULE
NONAME
41 42 1 0 0 
SMALL
USER_CHARGES


@<TRIPOS>ATOM
  1 CL      -0.1950     0.1150     1.2570 Cl    1 <1>  -0.1770 
  2 C        0.1310     1.7190     0.6500 C.ar  1 <1>   0.1770 
  3 C        1.4420     2.1320     0.5120 C.ar  1 <1>  -0.1500 
  4 C       -0.9300     2.5430     0.3200 C.ar  1 <1>  -0.1500 
  5 C        1.6990     3.4110     0.0280 C.ar  1 <1>   0.0830 
  6 C       -0.6710     3.8150    -0.1620 C.ar  1 <1>  -0.1500 
  7 O        2.9460     3.9150    -0.1460 O.3   1 <1>  -0.3630 
  8 C        0.6390     4.2420    -0.3050 C.ar  1 <1>  -0.1500 
  9 C        4.0930     3.1580     0.1570 C.3   1 <1>   0.1200 
 10 C        5.3120     4.0280    -0.1590 C.3   1 <1>  -0.1600 
 11 C        6.6310     3.2960     0.1290 C.3   1 <1>  -0.1600 
 12 C        7.8230     4.2010    -0.1950 C.3   1 <1>   0.3430 
 13 N        9.1040     3.5410     0.1780 N.4   1 <1>  -0.9590 
 14 C       10.2060     4.5460     0.2360 C.3   1 <1>   0.3430 
 15 C        9.4510     2.4110    -0.7390 C.3   1 <1>   0.3430 
 16 C       11.4810     3.8850     0.7650 C.3   1 <1>  -0.1600 
 17 C       10.7100     1.7040    -0.2340 C.3   1 <1>  -0.1600 
 18 C       11.8880     2.6750    -0.0850 C.3   1 <1>  -0.1600 
 19 H        2.2230     1.4510     0.7840 H     1 <1>   0.1500 
 20 H       -1.9390     2.1910     0.4390 H     1 <1>   0.1500 
 21 H       -1.4850     4.4700    -0.4240 H     1 <1>   0.1500 
 22 H        0.8470     5.2290    -0.6790 H     1 <1>   0.1500 
 23 H        4.0820     2.2700    -0.4520 H     1 <1>   0.0800 
 24 H        4.0610     2.8990     1.2010 H     1 <1>   0.0800 
 25 H        5.2540     4.9230     0.4380 H     1 <1>   0.0800 
 26 H        5.2700     4.3070    -1.1990 H     1 <1>   0.0800 
 27 H        6.6650     2.4040    -0.4710 H     1 <1>   0.0800 
 28 H        6.6570     3.0220     1.1690 H     1 <1>   0.0800 
 29 H        7.7170     5.1190     0.3620 H     1 <1>   0.0800 
 30 H        7.8240     4.4470    -1.2450 H     1 <1>   0.0800 
 31 H        9.0050     3.1500     1.1230 H     1 <1>   0.4500 
 32 H        9.9310     5.3610     0.8860 H     1 <1>   0.0800 
 33 H       10.3910     4.9440    -0.7490 H     1 <1>   0.0800 
 34 H        9.6260     2.7890    -1.7340 H     1 <1>   0.0800 
 35 H        8.6410     1.7020    -0.7840 H     1 <1>   0.0800 
 36 H       11.3310     3.5830     1.7870 H     1 <1>   0.0800 
 37 H       12.2800     4.6070     0.7590 H     1 <1>   0.0800 
 38 H       10.9780     0.9250    -0.9280 H     1 <1>   0.0800 
 39 H       10.5000     1.2320     0.7110 H     1 <1>   0.0800 
 40 H       12.7240     2.1700     0.3720 H     1 <1>   0.0800 
 41 H       12.2030     3.0100    -1.0600 H     1 <1>   0.0800 
@<TRIPOS>BOND
  1   1   2  1   
  2   2   3  ar  
  3   2   4  ar  
  4   3   5  ar  
  5   3  19  1   
  6   4   6  ar  
  7   4  20  1   
  8   5   7  1   
  9   5   8  ar  
 10   6   8  ar  
 11   6  21  1   
 12   7   9  1   
 13   8  22  1   
 14   9  10  1   
 15   9  23  1   
 16   9  24  1   
 17  10  11  1   
 18  10  25  1   
 19  10  26  1   
 20  11  12  1   
 21  11  27  1   
 22  11  28  1   
 23  12  13  1   
 24  12  29  1   
 25  12  30  1   
 26  13  14  1   
 27  13  15  1   
 28  13  31  1   
 29  14  16  1   
 30  14  32  1   
 31  14  33  1   
 32  15  17  1   
 33  15  34  1   
 34  15  35  1   
 35  16  18  1   
 36  16  36  1   
 37  16  37  1   
 38  17  18  1   
 39  17  38  1   
 40  17  39  1   
 41  18  40  1   
 42  18  41  1   
@<TRIPOS>SUBSTRUCTURE
  1 ****   9 GROUP 4 **** **** 0

# MOE 2024.06 (io_trps.svl 2023.06)
