@<TRIPOS>MOLECULE
NONAME
36 38 1 0 0 
SMALL
USER_CHARGES


@<TRIPOS>ATOM
  1 O       -1.2460     0.6120     2.2460 O.2   1 <1>  -0.5700 
  2 C       -1.3830     0.8230     1.0780 C.2   1 <1>   0.4480 
  3 C       -2.7380     1.2500     0.4710 C.3   1 <1>   0.0610 
  4 C       -0.1800     0.6900     0.1620 C.3   1 <1>  -0.1790 
  5 C       -2.7310     2.7700     0.1770 C.3   1 <1>  -0.1600 
  6 C       -3.8950     0.9600     1.4630 C.3   1 <1>  -0.1600 
  7 C       -3.0450     0.4920    -0.8460 C.3   1 <1>  -0.1600 
  8 C       -4.0810     3.2510    -0.4090 C.3   1 <1>   0.0610 
  9 C       -5.2520     1.4000     0.8850 C.3   1 <1>  -0.0800 
 10 C       -4.3960     0.9350    -1.4330 C.3   1 <1>  -0.0800 
 11 C       -4.0150     4.7650    -0.7090 C.2   1 <1>   0.4480 
 12 C       -5.2080     2.9110     0.5990 C.3   1 <1>  -0.1600 
 13 C       -4.3510     2.4480    -1.7080 C.3   1 <1>  -0.1600 
 14 C       -5.5160     0.6380    -0.4230 C.3   1 <1>  -0.1600 
 15 O       -3.8740     5.1890    -1.8180 O.2   1 <1>  -0.5700 
 16 C       -4.1110     5.7450     0.4450 C.3   1 <1>  -0.1790 
 17 H       -0.0720     1.5640    -0.4520 H     1 <1>   0.0800 
 18 H       -0.2870    -0.1780    -0.4610 H     1 <1>   0.0800 
 19 H        0.7090     0.5750     0.7540 H     1 <1>   0.0800 
 20 H       -1.9470     3.0050    -0.5210 H     1 <1>   0.0800 
 21 H       -2.5180     3.2970     1.0900 H     1 <1>   0.0800 
 22 H       -3.7190     1.4780     2.3900 H     1 <1>   0.0800 
 23 H       -3.9230    -0.0920     1.6870 H     1 <1>   0.0800 
 24 H       -3.0630    -0.5680    -0.6590 H     1 <1>   0.0800 
 25 H       -2.2790     0.6820    -1.5770 H     1 <1>   0.0800 
 26 H       -6.0340     1.1850     1.5930 H     1 <1>   0.0800 
 27 H       -4.5870     0.4050    -2.3510 H     1 <1>   0.0800 
 28 H       -6.1570     3.2300     0.2040 H     1 <1>   0.0800 
 29 H       -5.0500     3.4280     1.5290 H     1 <1>   0.0800 
 30 H       -5.2850     2.7650    -2.1400 H     1 <1>   0.0800 
 31 H       -3.5810     2.6550    -2.4320 H     1 <1>   0.0800 
 32 H       -6.4660     0.9340    -0.8330 H     1 <1>   0.0800 
 33 H       -5.5610    -0.4200    -0.2270 H     1 <1>   0.0800 
 34 H       -3.4290     5.4760     1.2290 H     1 <1>   0.0800 
 35 H       -5.1140     5.7640     0.8290 H     1 <1>   0.0800 
 36 H       -3.8630     6.7320     0.0980 H     1 <1>   0.0800 
@<TRIPOS>BOND
  1   1   2  2   
  2   2   3  1   
  3   2   4  1   
  4   3   5  1   
  5   3   6  1   
  6   3   7  1   
  7   4  17  1   
  8   4  18  1   
  9   4  19  1   
 10   5   8  1   
 11   5  20  1   
 12   5  21  1   
 13   6   9  1   
 14   6  22  1   
 15   6  23  1   
 16   7  10  1   
 17   7  24  1   
 18   7  25  1   
 19   8  11  1   
 20   8  12  1   
 21   8  13  1   
 22   9  12  1   
 23   9  14  1   
 24   9  26  1   
 25  10  13  1   
 26  10  14  1   
 27  10  27  1   
 28  11  15  2   
 29  11  16  1   
 30  12  28  1   
 31  12  29  1   
 32  13  30  1   
 33  13  31  1   
 34  14  32  1   
 35  14  33  1   
 36  16  34  1   
 37  16  35  1   
 38  16  36  1   
@<TRIPOS>SUBSTRUCTURE
  1 ****   5 GROUP 4 **** **** 0

# MOE 2024.06 (io_trps.svl 2023.06)
