@<TRIPOS>MOLECULE
NONAME
38 40 1 0 0 
SMALL
USER_CHARGES


@<TRIPOS>ATOM
  1 O       -2.5970    -0.3760     3.6180 O.2   1 <1>  -0.5700 
  2 C       -3.0360    -0.8800     2.6050 C.2   1 <1>   0.7060 
  3 O       -4.3290    -0.7030     2.3130 O.3   1 <1>  -0.2320 
  4 C       -2.2410    -1.6550     1.7080 C.2   1 <1>  -0.1360 
  5 C       -4.9070    -1.2270     1.2060 C.ar  1 <1>   0.0830 
  6 C       -2.7690    -2.2000     0.5910 C.2   1 <1>  -0.1780 
  7 C       -4.1530    -1.9930     0.3050 C.ar  1 <1>   0.0280 
  8 C       -6.2530    -0.9940     0.9810 C.ar  1 <1>  -0.1500 
  9 C       -4.7940    -2.5110    -0.8200 C.ar  1 <1>  -0.1500 
 10 C       -6.8770    -1.5130    -0.1390 C.ar  1 <1>   0.0830 
 11 C       -6.1370    -2.2770    -1.0430 C.ar  1 <1>  -0.1500 
 12 O       -8.1930    -1.2400    -0.2860 O.3   1 <1>  -0.3620 
 13 C       -8.9420    -1.7200    -1.3970 C.3   1 <1>   0.1810 
 14 C      -10.3980    -1.2730    -1.3260 C.2   1 <1>   0.5690 
 15 O      -11.1500    -1.6130    -2.2080 O.2   1 <1>  -0.5700 
 16 N      -10.8110    -0.5110    -0.2810 N.am  1 <1>  -0.7300 
 17 C      -12.1690     0.0040    -0.0560 C.3   1 <1>   0.2200 
 18 C      -12.0990     1.5190     0.0880 C.3   1 <1>  -0.1600 
 19 C      -12.6450    -0.4560     1.3160 C.3   1 <1>  -0.1600 
 20 C      -11.6610     1.7800     1.5350 C.3   1 <1>  -0.1600 
 21 C      -12.0110     0.5110     2.3230 C.3   1 <1>  -0.1600 
 22 H       -1.2090    -1.7720     1.9810 H     1 <1>   0.1500 
 23 H       -2.1880    -2.7870    -0.0990 H     1 <1>   0.1500 
 24 H       -6.8160    -0.4050     1.6810 H     1 <1>   0.1500 
 25 H       -4.2290    -3.1010    -1.5210 H     1 <1>   0.1500 
 26 H       -6.5930    -2.6940    -1.9220 H     1 <1>   0.1500 
 27 H       -8.9040    -2.7940    -1.3950 H     1 <1>   0.0800 
 28 H       -8.5010    -1.3360    -2.2980 H     1 <1>   0.0800 
 29 H      -10.1260    -0.2570     0.4340 H     1 <1>   0.3700 
 30 H      -12.8310    -0.3060    -0.8480 H     1 <1>   0.0800 
 31 H      -13.0880     1.9190    -0.0550 H     1 <1>   0.0800 
 32 H      -11.4400     1.9660    -0.6350 H     1 <1>   0.0800 
 33 H      -12.3930    -1.4840     1.5100 H     1 <1>   0.0800 
 34 H      -13.7150    -0.3510     1.3570 H     1 <1>   0.0800 
 35 H      -12.1620     2.6450     1.9360 H     1 <1>   0.0800 
 36 H      -10.5980     1.9470     1.5700 H     1 <1>   0.0800 
 37 H      -11.1130     0.0790     2.7310 H     1 <1>   0.0800 
 38 H      -12.6910     0.7240     3.1310 H     1 <1>   0.0800 
@<TRIPOS>BOND
  1   1   2  2   
  2   2   3  1   
  3   2   4  1   
  4   3   5  1   
  5   4   6  2   
  6   4  22  1   
  7   5   7  ar  
  8   5   8  ar  
  9   6   7  1   
 10   6  23  1   
 11   7   9  ar  
 12   8  10  ar  
 13   8  24  1   
 14   9  11  ar  
 15   9  25  1   
 16  10  11  ar  
 17  10  12  1   
 18  11  26  1   
 19  12  13  1   
 20  13  14  1   
 21  13  27  1   
 22  13  28  1   
 23  14  15  2   
 24  14  16  am  
 25  16  17  1   
 26  16  29  1   
 27  17  18  1   
 28  17  19  1   
 29  17  30  1   
 30  18  20  1   
 31  18  31  1   
 32  18  32  1   
 33  19  21  1   
 34  19  33  1   
 35  19  34  1   
 36  20  21  1   
 37  20  35  1   
 38  20  36  1   
 39  21  37  1   
 40  21  38  1   
@<TRIPOS>SUBSTRUCTURE
  1 ****  12 GROUP 4 **** **** 0

# MOE 2024.06 (io_trps.svl 2023.06)
