@<TRIPOS>MOLECULE
NONAME
38 39 1 0 0 
SMALL
USER_CHARGES


@<TRIPOS>ATOM
  1 N       -0.1220     0.4120     0.3310 N.ar  1 <1>  -0.6200 
  2 C       -1.0010     1.2580     0.8530 C.ar  1 <1>   0.4100 
  3 C        1.0820     0.4210     0.8770 C.ar  1 <1>   0.1600 
  4 N       -2.2610     1.2790     0.3080 N.pl3 1 <1>  -0.8690 
  5 C       -0.7030     2.1150     1.9090 C.ar  1 <1>  -0.1500 
  6 C        1.4680     1.2320     1.9290 C.ar  1 <1>  -0.1500 
  7 C       -2.7750     0.1500    -0.4880 C.3   1 <1>   0.3530 
  8 C        0.5530     2.1120     2.4700 C.ar  1 <1>  -0.1500 
  9 C       -4.2840     0.1260    -0.3270 C.ar  1 <1>  -0.1430 
 10 C       -4.8810    -0.7120     0.5990 C.ar  1 <1>  -0.1500 
 11 C       -5.0860     0.9510    -1.0960 C.ar  1 <1>  -0.1500 
 12 C       -6.2560    -0.7260     0.7460 C.ar  1 <1>  -0.1500 
 13 C       -6.4620     0.9350    -0.9470 C.ar  1 <1>  -0.1500 
 14 C       -7.0770     0.0950    -0.0210 C.ar  1 <1>  -0.1430 
 15 C       -8.6070     0.0430     0.1820 C.3   1 <1>   0.1440 
 16 C       -9.3740     1.0080    -0.7370 C.3   1 <1>  -0.2400 
 17 C       -8.9460     0.4180     1.6330 C.3   1 <1>  -0.2400 
 18 C       -9.1150    -1.3770    -0.1100 C.3   1 <1>  -0.2400 
 19 H        1.8050    -0.2600     0.4600 H     1 <1>   0.1500 
 20 H       -2.9980     1.6850     0.8850 H     1 <1>   0.4000 
 21 H       -1.4630     2.7770     2.2760 H     1 <1>   0.1500 
 22 H        2.4690     1.1780     2.3160 H     1 <1>   0.1500 
 23 H       -2.3500    -0.7770    -0.1430 H     1 <1>   0.0800 
 24 H       -2.5060     0.2890    -1.5210 H     1 <1>   0.0800 
 25 H        0.8110     2.7620     3.2870 H     1 <1>   0.1500 
 26 H       -4.2750    -1.3570     1.2120 H     1 <1>   0.1500 
 27 H       -4.6370     1.6140    -1.8160 H     1 <1>   0.1500 
 28 H       -6.6830    -1.3900     1.4740 H     1 <1>   0.1500 
 29 H       -7.0330     1.5950    -1.5710 H     1 <1>   0.1500 
 30 H       -9.1930     0.7700    -1.7700 H     1 <1>   0.0800 
 31 H       -9.0730     2.0240    -0.5530 H     1 <1>   0.0800 
 32 H      -10.4320     0.9390    -0.5610 H     1 <1>   0.0800 
 33 H       -8.5620     1.3970     1.8570 H     1 <1>   0.0800 
 34 H       -8.5130    -0.2800     2.3250 H     1 <1>   0.0800 
 35 H      -10.0100     0.4230     1.7860 H     1 <1>   0.0800 
 36 H       -8.8530    -1.6610    -1.1140 H     1 <1>   0.0800 
 37 H      -10.1850    -1.4260    -0.0090 H     1 <1>   0.0800 
 38 H       -8.6830    -2.0910     0.5660 H     1 <1>   0.0800 
@<TRIPOS>BOND
  1   1   2  ar  
  2   1   3  ar  
  3   2   4  1   
  4   2   5  ar  
  5   3   6  ar  
  6   3  19  1   
  7   4   7  1   
  8   4  20  1   
  9   5   8  ar  
 10   5  21  1   
 11   6   8  ar  
 12   6  22  1   
 13   7   9  1   
 14   7  23  1   
 15   7  24  1   
 16   8  25  1   
 17   9  10  ar  
 18   9  11  ar  
 19  10  12  ar  
 20  10  26  1   
 21  11  13  ar  
 22  11  27  1   
 23  12  14  ar  
 24  12  28  1   
 25  13  14  ar  
 26  13  29  1   
 27  14  15  1   
 28  15  16  1   
 29  15  17  1   
 30  15  18  1   
 31  16  30  1   
 32  16  31  1   
 33  16  32  1   
 34  17  33  1   
 35  17  34  1   
 36  17  35  1   
 37  18  36  1   
 38  18  37  1   
 39  18  38  1   
@<TRIPOS>SUBSTRUCTURE
  1 ****   9 GROUP 4 **** **** 0

# MOE 2024.06 (io_trps.svl 2023.06)
