@<TRIPOS>MOLECULE
NONAME
46 48 1 0 0 
SMALL
USER_CHARGES


@<TRIPOS>ATOM
  1 S       -0.3760     0.1940     1.0900 S.o2  1 <1>   1.4470 
  2 O       -0.6110     1.4580     1.7560 O.2   1 <1>  -0.6500 
  3 O       -0.8050    -1.0190     1.7530 O.2   1 <1>  -0.6500 
  4 N       -1.0920     0.2920    -0.4550 N.am  1 <1>  -0.8490 
  5 C        1.4030     0.1030     0.7360 C.ar  1 <1>  -0.0090 
  6 C       -1.3160    -0.9410    -1.2270 C.3   1 <1>   0.2760 
  7 C       -2.2780     1.1570    -0.5080 C.3   1 <1>   0.1960 
  8 C        2.2100    -0.8600     1.2920 C.ar  1 <1>  -0.1500 
  9 C        2.0000     1.0370    -0.1280 C.ar  1 <1>  -0.1500 
 10 C       -2.5410    -1.7320    -0.7340 C.3   1 <1>  -0.1600 
 11 C       -0.0690    -1.8200    -1.3200 C.3   1 <1>  -0.2400 
 12 C       -3.5050     0.4500     0.0810 C.3   1 <1>  -0.1600 
 13 C        3.5890    -0.9450     1.0180 C.ar  1 <1>   0.0000 
 14 C        3.3360     0.9870    -0.4160 C.ar  1 <1>  -0.1500 
 15 C       -3.7990    -0.8560    -0.6670 C.3   1 <1>  -0.1600 
 16 C        4.1680    -0.0020     0.1430 C.ar  1 <1>   0.0000 
 17 C        4.4130    -1.9380     1.5840 C.ar  1 <1>  -0.1500 
 18 C        5.5460    -0.0850    -0.1370 C.ar  1 <1>  -0.1500 
 19 C        5.7480    -1.9960     1.2960 C.ar  1 <1>  -0.1500 
 20 C        6.3300    -1.0650     0.4270 C.ar  1 <1>   0.0830 
 21 O        7.6580    -1.2100     0.2070 O.3   1 <1>  -0.3630 
 22 C        8.3620    -0.3380    -0.6460 C.3   1 <1>   0.1200 
 23 C        9.8220    -0.7780    -0.6700 C.3   1 <1>  -0.2400 
 24 H       -1.5370    -0.6330    -2.2360 H     1 <1>   0.0800 
 25 H       -2.4780     1.4090    -1.5350 H     1 <1>   0.0800 
 26 H       -2.0990     2.0840     0.0120 H     1 <1>   0.0800 
 27 H        1.7840    -1.5850     1.9640 H     1 <1>   0.1500 
 28 H        1.3750     1.8000    -0.5610 H     1 <1>   0.1500 
 29 H       -2.3470    -2.1590     0.2330 H     1 <1>   0.0800 
 30 H       -2.7230    -2.5530    -1.4040 H     1 <1>   0.0800 
 31 H        0.1610    -2.2790    -0.3770 H     1 <1>   0.0800 
 32 H        0.7710    -1.2450    -1.6660 H     1 <1>   0.0800 
 33 H       -0.2420    -2.6090    -2.0300 H     1 <1>   0.0800 
 34 H       -4.3570     1.1030     0.0100 H     1 <1>   0.0800 
 35 H       -3.3390     0.2480     1.1250 H     1 <1>   0.0800 
 36 H        3.7750     1.7110    -1.0800 H     1 <1>   0.1500 
 37 H       -4.5930    -1.3910    -0.1750 H     1 <1>   0.0800 
 38 H       -4.1230    -0.6250    -1.6680 H     1 <1>   0.0800 
 39 H        3.9700    -2.6540     2.2520 H     1 <1>   0.1500 
 40 H        5.9580     0.6450    -0.8050 H     1 <1>   0.1500 
 41 H        6.3800    -2.7530     1.7260 H     1 <1>   0.1500 
 42 H        8.2730     0.6630    -0.2600 H     1 <1>   0.0800 
 43 H        7.9290    -0.4010    -1.6300 H     1 <1>   0.0800 
 44 H       10.2390    -0.7280     0.3200 H     1 <1>   0.0800 
 45 H       10.3880    -0.1310    -1.3150 H     1 <1>   0.0800 
 46 H        9.8980    -1.7850    -1.0410 H     1 <1>   0.0800 
@<TRIPOS>BOND
  1   1   2  2   
  2   1   3  2   
  3   1   4  am  
  4   1   5  1   
  5   4   6  1   
  6   4   7  1   
  7   5   8  ar  
  8   5   9  ar  
  9   6  10  1   
 10   6  11  1   
 11   6  24  1   
 12   7  12  1   
 13   7  25  1   
 14   7  26  1   
 15   8  13  ar  
 16   8  27  1   
 17   9  14  ar  
 18   9  28  1   
 19  10  15  1   
 20  10  29  1   
 21  10  30  1   
 22  11  31  1   
 23  11  32  1   
 24  11  33  1   
 25  12  15  1   
 26  12  34  1   
 27  12  35  1   
 28  13  16  ar  
 29  13  17  ar  
 30  14  16  ar  
 31  14  36  1   
 32  15  37  1   
 33  15  38  1   
 34  16  18  ar  
 35  17  19  ar  
 36  17  39  1   
 37  18  20  ar  
 38  18  40  1   
 39  19  20  ar  
 40  19  41  1   
 41  20  21  1   
 42  21  22  1   
 43  22  23  1   
 44  22  42  1   
 45  22  43  1   
 46  23  44  1   
 47  23  45  1   
 48  23  46  1   
@<TRIPOS>SUBSTRUCTURE
  1 ****   5 GROUP 4 **** **** 0

# MOE 2024.06 (io_trps.svl 2023.06)
