@<TRIPOS>MOLECULE
NONAME
39 40 1 0 0 
SMALL
USER_CHARGES


@<TRIPOS>ATOM
  1 O        0.2150     0.4490    -1.1230 O.2   1 <1>  -0.5700 
  2 C       -0.0070     1.4140    -0.4180 C.2   1 <1>   0.7160 
  3 N       -1.2800     1.6200     0.0140 N.am  1 <1>  -0.7300 
  4 C        1.0360     2.3390    -0.0350 C.2   1 <1>  -0.0860 
  5 C       -2.4570     0.8820    -0.4450 C.3   1 <1>   0.3640 
  6 C        2.3930     2.2390    -0.1400 C.2   1 <1>  -0.0400 
  7 C        0.8370     3.6070     0.5570 C.2   1 <1>  -0.1500 
  8 C       -3.6450     1.8380    -0.4120 C.ar  1 <1>  -0.1440 
  9 C       -2.6670    -0.3340     0.4530 C.3   1 <1>  -0.2400 
 10 O        2.9840     3.3120     0.3290 O.3   1 <1>  -0.2800 
 11 C        3.2860     1.1410    -0.6830 C.3   1 <1>  -0.0600 
 12 C        2.0580     4.1410     0.7510 C.2   1 <1>  -0.0400 
 13 C       -4.2610     2.2060    -1.5990 C.ar  1 <1>  -0.1500 
 14 C       -4.1220     2.3630     0.7830 C.ar  1 <1>  -0.1500 
 15 C        2.4870     5.4660     1.3400 C.3   1 <1>  -0.0600 
 16 C       -5.3350     3.0780    -1.5920 C.ar  1 <1>  -0.1500 
 17 C       -5.1970     3.2360     0.7940 C.ar  1 <1>  -0.1500 
 18 C       -5.8120     3.5980    -0.4010 C.ar  1 <1>   0.0830 
 19 O       -6.8680     4.4450    -0.4820 O.3   1 <1>  -0.3630 
 20 C       -7.4540     5.0020     0.6740 C.3   1 <1>   0.0400 
 21 H       -1.4980     2.4720     0.5220 H     1 <1>   0.3700 
 22 H       -2.2930     0.5440    -1.4550 H     1 <1>   0.0800 
 23 H       -0.1140     4.0470     0.7950 H     1 <1>   0.1500 
 24 H       -2.7520    -0.0480     1.4850 H     1 <1>   0.0800 
 25 H       -1.8400    -1.0130     0.3420 H     1 <1>   0.0800 
 26 H       -3.5660    -0.8450     0.1610 H     1 <1>   0.0800 
 27 H        2.7120     0.2940    -1.0080 H     1 <1>   0.0800 
 28 H        3.9680     0.8210     0.0830 H     1 <1>   0.0800 
 29 H        3.8510     1.5160    -1.5170 H     1 <1>   0.0800 
 30 H       -3.9080     1.8170    -2.5390 H     1 <1>   0.1500 
 31 H       -3.6600     2.0950     1.7170 H     1 <1>   0.1500 
 32 H        1.6280     6.0380     1.6380 H     1 <1>   0.0800 
 33 H        3.0440     6.0230     0.6080 H     1 <1>   0.0800 
 34 H        3.1120     5.2950     2.1970 H     1 <1>   0.0800 
 35 H       -5.8120     3.3610    -2.5130 H     1 <1>   0.1500 
 36 H       -5.5410     3.6210     1.7350 H     1 <1>   0.1500 
 37 H       -8.2740     5.6240     0.3650 H     1 <1>   0.0800 
 38 H       -6.7180     5.5960     1.1870 H     1 <1>   0.0800 
 39 H       -7.8140     4.2060     1.3000 H     1 <1>   0.0800 
@<TRIPOS>BOND
  1   1   2  2   
  2   2   3  am  
  3   2   4  1   
  4   3   5  1   
  5   3  21  1   
  6   4   6  2   
  7   4   7  1   
  8   5   8  1   
  9   5   9  1   
 10   5  22  1   
 11   6  10  1   
 12   6  11  1   
 13   7  12  2   
 14   7  23  1   
 15   8  13  ar  
 16   8  14  ar  
 17   9  24  1   
 18   9  25  1   
 19   9  26  1   
 20  10  12  1   
 21  11  27  1   
 22  11  28  1   
 23  11  29  1   
 24  12  15  1   
 25  13  16  ar  
 26  13  30  1   
 27  14  17  ar  
 28  14  31  1   
 29  15  32  1   
 30  15  33  1   
 31  15  34  1   
 32  16  18  ar  
 33  16  35  1   
 34  17  18  ar  
 35  17  36  1   
 36  18  19  1   
 37  19  20  1   
 38  20  37  1   
 39  20  38  1   
 40  20  39  1   
@<TRIPOS>SUBSTRUCTURE
  1 ****   3 GROUP 4 **** **** 0

# MOE 2024.06 (io_trps.svl 2023.06)
