@<TRIPOS>MOLECULE
NONAME
46 47 1 0 0 
SMALL
USER_CHARGES


@<TRIPOS>ATOM
  1 CL      -0.9620    -0.3610     0.2560 Cl    1 <1>  -0.1770 
  2 C       -2.3990     0.6220     0.1050 C.ar  1 <1>   0.1770 
  3 C       -3.6270     0.0360    -0.1480 C.ar  1 <1>  -0.1440 
  4 C       -2.2770     1.9900     0.2400 C.ar  1 <1>  -0.1500 
  5 C       -4.7370     0.8600    -0.2560 C.ar  1 <1>  -0.1500 
  6 C       -3.7620    -1.4710    -0.3090 C.3   1 <1>  -0.0960 
  7 C       -3.3940     2.8040     0.1280 C.ar  1 <1>  -0.1430 
  8 C       -4.6540     2.2450    -0.1100 C.ar  1 <1>  -0.0090 
  9 C       -3.2000     4.3100     0.2660 C.3   1 <1>  -0.0960 
 10 S       -6.1580     3.2620    -0.2690 S.o2  1 <1>   1.4470 
 11 O       -6.2380     4.2740     0.7580 O.2   1 <1>  -0.6500 
 12 O       -6.3880     3.6230    -1.6490 O.2   1 <1>  -0.6500 
 13 N       -7.4260     2.2480     0.1640 N.am  1 <1>  -0.9140 
 14 C       -8.7030     2.7550    -0.2940 C.3   1 <1>   0.1960 
 15 C       -9.8050     1.8060     0.1700 C.3   1 <1>  -0.1600 
 16 C      -11.1520     2.2580    -0.3950 C.3   1 <1>   0.3430 
 17 N      -12.2500     1.3700     0.0800 N.4   1 <1>  -0.9590 
 18 C      -12.1910    -0.0050    -0.5400 C.3   1 <1>   0.3430 
 19 C      -13.5940     1.9960    -0.1900 C.3   1 <1>   0.3430 
 20 C      -13.4120    -0.8600    -0.1490 C.3   1 <1>   0.1200 
 21 C      -14.7500     1.0500     0.1880 C.3   1 <1>   0.1200 
 22 O      -14.5950    -0.1810    -0.4540 O.3   1 <1>  -0.5600 
 23 H       -1.3030     2.4040     0.4300 H     1 <1>   0.1500 
 24 H       -5.6940     0.4140    -0.4630 H     1 <1>   0.1500 
 25 H       -3.1540    -1.8070    -1.1300 H     1 <1>   0.0800 
 26 H       -4.7810    -1.7520    -0.5030 H     1 <1>   0.0800 
 27 H       -3.4350    -1.9670     0.5880 H     1 <1>   0.0800 
 28 H       -2.1550     4.5670     0.2660 H     1 <1>   0.0800 
 29 H       -3.6290     4.6570     1.1900 H     1 <1>   0.0800 
 30 H       -3.6650     4.8300    -0.5530 H     1 <1>   0.0800 
 31 H       -7.4110     2.3180     1.1820 H     1 <1>   0.4200 
 32 H       -8.7000     2.8050    -1.3720 H     1 <1>   0.0800 
 33 H       -8.8640     3.7500     0.0940 H     1 <1>   0.0800 
 34 H       -9.8400     1.8090     1.2450 H     1 <1>   0.0800 
 35 H       -9.5670     0.8190    -0.1840 H     1 <1>   0.0800 
 36 H      -11.1170     2.2550    -1.4730 H     1 <1>   0.0800 
 37 H      -11.3420     3.2700    -0.0710 H     1 <1>   0.0800 
 38 H      -12.1650     1.2560     1.0990 H     1 <1>   0.4500 
 39 H      -11.2920    -0.5140    -0.2310 H     1 <1>   0.0800 
 40 H      -12.1690     0.0800    -1.6140 H     1 <1>   0.0800 
 41 H      -13.6820     2.2300    -1.2390 H     1 <1>   0.0800 
 42 H      -13.6920     2.9150     0.3640 H     1 <1>   0.0800 
 43 H      -13.4060    -1.0960     0.9010 H     1 <1>   0.0800 
 44 H      -13.4130    -1.7820    -0.7060 H     1 <1>   0.0800 
 45 H      -15.6900     1.4670    -0.1300 H     1 <1>   0.0800 
 46 H      -14.7920     0.8860     1.2520 H     1 <1>   0.0800 
@<TRIPOS>BOND
  1   1   2  1   
  2   2   3  ar  
  3   2   4  ar  
  4   3   5  ar  
  5   3   6  1   
  6   4   7  ar  
  7   4  23  1   
  8   5   8  ar  
  9   5  24  1   
 10   6  25  1   
 11   6  26  1   
 12   6  27  1   
 13   7   8  ar  
 14   7   9  1   
 15   8  10  1   
 16   9  28  1   
 17   9  29  1   
 18   9  30  1   
 19  10  11  2   
 20  10  12  2   
 21  10  13  am  
 22  13  14  1   
 23  13  31  1   
 24  14  15  1   
 25  14  32  1   
 26  14  33  1   
 27  15  16  1   
 28  15  34  1   
 29  15  35  1   
 30  16  17  1   
 31  16  36  1   
 32  16  37  1   
 33  17  18  1   
 34  17  19  1   
 35  17  38  1   
 36  18  20  1   
 37  18  39  1   
 38  18  40  1   
 39  19  21  1   
 40  19  41  1   
 41  19  42  1   
 42  20  22  1   
 43  20  43  1   
 44  20  44  1   
 45  21  22  1   
 46  21  45  1   
 47  21  46  1   
@<TRIPOS>SUBSTRUCTURE
  1 ****  13 GROUP 4 **** **** 0

# MOE 2024.06 (io_trps.svl 2023.06)
