@<TRIPOS>MOLECULE
NONAME
42 45 1 0 0 
SMALL
USER_CHARGES


@<TRIPOS>ATOM
  1 O       -0.0530     0.8860    -1.0160 O.2   1 <1>  -0.5700 
  2 C       -0.0620     1.4470     0.0610 C.2   1 <1>   0.6900 
  3 N        1.0690     1.7320     0.7440 N.am  1 <1>  -0.7300 
  4 N       -1.2280     1.8060     0.6310 N.am  1 <1>  -0.7300 
  5 C        2.4640     1.4670     0.3540 C.3   1 <1>   0.3000 
  6 C       -2.5490     1.5190     0.0340 C.3   1 <1>   0.3200 
  7 C        2.8240     2.2110    -0.9470 C.3   1 <1>  -0.1600 
  8 C        2.7120    -0.0440     0.1790 C.3   1 <1>  -0.1600 
  9 C        3.3670     1.9880     1.4880 C.3   1 <1>  -0.1600 
 10 C       -3.5710     2.5470     0.4910 C.2   1 <1>  -0.0400 
 11 C        4.3020     1.9630    -1.3050 C.3   1 <1>  -0.0800 
 12 C        4.1910    -0.2980    -0.1760 C.3   1 <1>  -0.0800 
 13 C        4.8500     1.7460     1.1500 C.3   1 <1>  -0.0800 
 14 O       -4.8500     2.2840     0.2960 O.3   1 <1>  -0.2800 
 15 C       -3.4270     3.7500     1.0910 C.2   1 <1>  -0.1500 
 16 C        4.5320     0.4490    -1.4800 C.3   1 <1>  -0.1600 
 17 C        5.1950     2.4800    -0.1600 C.3   1 <1>  -0.1600 
 18 C        5.0830     0.2350     0.9600 C.3   1 <1>  -0.1600 
 19 C       -5.5440     3.3020     0.7640 C.2   1 <1>  -0.0100 
 20 C       -4.7240     4.2450     1.2720 C.2   1 <1>  -0.1500 
 21 H        0.9830     2.3230     1.5630 H     1 <1>   0.3700 
 22 H       -1.2450     2.0660     1.6110 H     1 <1>   0.3700 
 23 H       -2.8660     0.5390     0.3440 H     1 <1>   0.0800 
 24 H       -2.4840     1.5310    -1.0410 H     1 <1>   0.0800 
 25 H        2.6500     3.2650    -0.8270 H     1 <1>   0.0800 
 26 H        2.2060     1.8600    -1.7540 H     1 <1>   0.0800 
 27 H        2.0940    -0.4300    -0.6120 H     1 <1>   0.0800 
 28 H        2.4600    -0.5640     1.0850 H     1 <1>   0.0800 
 29 H        3.2050     3.0420     1.6290 H     1 <1>   0.0800 
 30 H        3.1270     1.4820     2.4060 H     1 <1>   0.0800 
 31 H        4.5460     2.4770    -2.2190 H     1 <1>   0.0800 
 32 H        4.3560    -1.3540    -0.3070 H     1 <1>   0.0800 
 33 H        5.4730     2.1130     1.9480 H     1 <1>   0.0800 
 34 H       -2.5230     4.2560     1.3780 H     1 <1>   0.1500 
 35 H        3.9160     0.0790    -2.2820 H     1 <1>   0.0800 
 36 H        5.5580     0.2650    -1.7470 H     1 <1>   0.0800 
 37 H        5.0500     3.5390    -0.0350 H     1 <1>   0.0800 
 38 H        6.2300     2.3190    -0.4060 H     1 <1>   0.0800 
 39 H        6.1180     0.0530     0.7250 H     1 <1>   0.0800 
 40 H        4.8600    -0.2880     1.8740 H     1 <1>   0.0800 
 41 H       -6.6180     3.2730     0.6950 H     1 <1>   0.1500 
 42 H       -4.9790     5.1870     1.7240 H     1 <1>   0.1500 
@<TRIPOS>BOND
  1   1   2  2   
  2   2   3  am  
  3   2   4  am  
  4   3   5  1   
  5   3  21  1   
  6   4   6  1   
  7   4  22  1   
  8   5   7  1   
  9   5   8  1   
 10   5   9  1   
 11   6  10  1   
 12   6  23  1   
 13   6  24  1   
 14   7  11  1   
 15   7  25  1   
 16   7  26  1   
 17   8  12  1   
 18   8  27  1   
 19   8  28  1   
 20   9  13  1   
 21   9  29  1   
 22   9  30  1   
 23  10  14  1   
 24  10  15  2   
 25  11  16  1   
 26  11  17  1   
 27  11  31  1   
 28  12  16  1   
 29  12  18  1   
 30  12  32  1   
 31  13  17  1   
 32  13  18  1   
 33  13  33  1   
 34  14  19  1   
 35  15  20  1   
 36  15  34  1   
 37  16  35  1   
 38  16  36  1   
 39  17  37  1   
 40  17  38  1   
 41  18  39  1   
 42  18  40  1   
 43  19  20  2   
 44  19  41  1   
 45  20  42  1   
@<TRIPOS>SUBSTRUCTURE
  1 ****   3 GROUP 4 **** **** 0

# MOE 2024.06 (io_trps.svl 2023.06)
