@<TRIPOS>MOLECULE
NONAME
29 29 1 0 0 
SMALL
USER_CHARGES


@<TRIPOS>ATOM
  1 S       -0.1860    -0.2190     0.1650 S.o2  1 <1>   1.4470 
  2 O       -0.5420    -0.7820     1.4460 O.2   1 <1>  -0.6500 
  3 O       -0.1940    -1.0360    -1.0250 O.2   1 <1>  -0.6500 
  4 N       -1.2940     0.9910    -0.1770 N.am  1 <1>  -0.9140 
  5 C        1.3820     0.6860     0.3030 C.ar  1 <1>  -0.0090 
  6 C       -2.6520     0.6290     0.1850 C.3   1 <1>   0.1960 
  7 C        2.4640     0.3780    -0.5190 C.ar  1 <1>  -0.1500 
  8 C        1.5300     1.7090     1.2420 C.ar  1 <1>  -0.1500 
  9 C       -3.5980     1.7240    -0.3040 C.3   1 <1>  -0.1600 
 10 C        3.6460     1.0820    -0.3920 C.ar  1 <1>   0.1900 
 11 C        2.7170     2.4180     1.3710 C.ar  1 <1>  -0.1500 
 12 C       -5.0530     1.4040     0.0630 C.3   1 <1>  -0.1600 
 13 F        4.6470     0.7760    -1.1760 F     1 <1>  -0.1900 
 14 C        3.7740     2.0940     0.5430 C.ar  1 <1>   0.1900 
 15 C       -5.9980     2.5040    -0.4290 C.3   1 <1>  -0.2400 
 16 F        4.8950     2.7570     0.6580 F     1 <1>  -0.1900 
 17 H       -1.2710     1.0490    -1.1940 H     1 <1>   0.4200 
 18 H       -2.7280     0.5330     1.2570 H     1 <1>   0.0800 
 19 H       -2.9150    -0.3160    -0.2640 H     1 <1>   0.0800 
 20 H        2.3890    -0.4060    -1.2540 H     1 <1>   0.1500 
 21 H        0.6980     1.9530     1.8830 H     1 <1>   0.1500 
 22 H       -3.5150     1.8180    -1.3730 H     1 <1>   0.0800 
 23 H       -3.3150     2.6590     0.1480 H     1 <1>   0.0800 
 24 H        2.8220     3.2050     2.0980 H     1 <1>   0.1500 
 25 H       -5.1460     1.3120     1.1320 H     1 <1>   0.0800 
 26 H       -5.3430     0.4660    -0.3800 H     1 <1>   0.0800 
 27 H       -5.7420     3.4490     0.0190 H     1 <1>   0.0800 
 28 H       -7.0120     2.2640    -0.1610 H     1 <1>   0.0800 
 29 H       -5.9420     2.6000    -1.4990 H     1 <1>   0.0800 
@<TRIPOS>BOND
  1   1   2  2   
  2   1   3  2   
  3   1   4  am  
  4   1   5  1   
  5   4   6  1   
  6   4  17  1   
  7   5   7  ar  
  8   5   8  ar  
  9   6   9  1   
 10   6  18  1   
 11   6  19  1   
 12   7  10  ar  
 13   7  20  1   
 14   8  11  ar  
 15   8  21  1   
 16   9  12  1   
 17   9  22  1   
 18   9  23  1   
 19  10  13  1   
 20  10  14  ar  
 21  11  14  ar  
 22  11  24  1   
 23  12  15  1   
 24  12  25  1   
 25  12  26  1   
 26  14  16  1   
 27  15  27  1   
 28  15  28  1   
 29  15  29  1   
@<TRIPOS>SUBSTRUCTURE
  1 ****   5 GROUP 4 **** **** 0

# MOE 2024.06 (io_trps.svl 2023.06)
