@<TRIPOS>MOLECULE
NONAME
24 24 1 0 0 
SMALL
USER_CHARGES


@<TRIPOS>ATOM
  1 BR      -0.9690     0.4610    -1.9280 Br    1 <1>  -0.0570 
  2 C       -1.8450    -0.8510    -0.8000 C.2   1 <1>   0.0570 
  3 C       -2.8360    -0.5960     0.1500 C.2   1 <1>   0.2030 
  4 C       -1.6040    -2.1700    -0.8220 C.2   1 <1>  -0.3020 
  5 N       -3.1830    -1.7530     0.7010 N.2   1 <1>  -0.7070 
  6 C       -3.3780     0.7220     0.4570 C.2   1 <1>   0.7160 
  7 N       -2.4370    -2.6940     0.0990 N.pl3 1 <1>   0.3140 
  8 O       -2.6670     1.7120     0.4730 O.2   1 <1>  -0.5700 
  9 N       -4.6930     0.9470     0.7430 N.am  1 <1>  -0.7300 
 10 C       -2.5730    -4.1150     0.4360 C.3   1 <1>   0.0160 
 11 C       -5.8280     0.0070     0.5980 C.3   1 <1>   0.1400 
 12 C       -6.9960     0.7500    -0.0270 C.3   1 <1>  -0.2660 
 13 C       -8.1570    -0.1940    -0.1490 C.2   1 <1>   0.9060 
 14 O       -8.2550    -0.8770    -1.1700 O.co2 1 <1>  -0.9000 
 15 O       -8.9550    -0.2620     0.7890 O.co2 1 <1>  -0.9000 
 16 H       -0.9210    -2.7450    -1.4180 H     1 <1>   0.1500 
 17 H       -4.9450     1.9090     0.9590 H     1 <1>   0.3700 
 18 H       -1.6500    -4.4690     0.8550 H     1 <1>   0.0800 
 19 H       -2.8110    -4.6680    -0.4530 H     1 <1>   0.0800 
 20 H       -3.3640    -4.2320     1.1540 H     1 <1>   0.0800 
 21 H       -6.1110    -0.3720     1.5660 H     1 <1>   0.0800 
 22 H       -5.5560    -0.8270    -0.0290 H     1 <1>   0.0800 
 23 H       -6.7420     1.0970    -1.0100 H     1 <1>   0.0800 
 24 H       -7.2990     1.5740     0.5890 H     1 <1>   0.0800 
@<TRIPOS>BOND
  1   1   2  1   
  2   2   3  1   
  3   2   4  2   
  4   3   5  2   
  5   3   6  1   
  6   4   7  1   
  7   4  16  1   
  8   5   7  1   
  9   6   8  2   
 10   6   9  am  
 11   7  10  1   
 12   9  11  1   
 13   9  17  1   
 14  10  18  1   
 15  10  19  1   
 16  10  20  1   
 17  11  12  1   
 18  11  21  1   
 19  11  22  1   
 20  12  13  1   
 21  12  23  1   
 22  12  24  1   
 23  13  14  ar  
 24  13  15  ar  
@<TRIPOS>SUBSTRUCTURE
  1 ****   3 GROUP 4 **** **** 0

# MOE 2024.06 (io_trps.svl 2023.06)
