@<TRIPOS>MOLECULE
NONAME
45 46 1 0 0 
SMALL
USER_CHARGES


@<TRIPOS>ATOM
  1 BR      -0.0100     0.8080    -1.4270 Br    1 <1>  -0.1110 
  2 C        0.9260     2.1540    -0.4100 C.ar  1 <1>   0.1110 
  3 C        0.2520     3.2910     0.0100 C.ar  1 <1>   0.0820 
  4 C        2.2600     1.9290    -0.1240 C.ar  1 <1>  -0.1500 
  5 O       -1.0620     3.4330    -0.2890 O.3   1 <1>  -0.3630 
  6 C        0.9680     4.2500     0.7360 C.ar  1 <1>   0.0830 
  7 C        2.9590     2.8750     0.6130 C.ar  1 <1>  -0.1440 
  8 C       -1.9650     3.1390     0.7580 C.3   1 <1>   0.3000 
  9 O        0.4490     5.4220     1.1830 O.3   1 <1>  -0.3620 
 10 C        2.3020     4.0230     1.0410 C.ar  1 <1>  -0.1500 
 11 C        4.4210     2.6690     0.9420 C.3   1 <1>   0.4870 
 12 C       -3.3610     3.5580     0.3390 C.2   1 <1>  -0.1400 
 13 C       -0.3840     6.1910     0.3370 C.3   1 <1>   0.0400 
 14 N        5.1940     3.3650    -0.1110 N.4   1 <1>  -0.9060 
 15 S       -4.6310     3.3850     1.5400 S.3   1 <1>  -0.0800 
 16 C       -3.8630     4.0580    -0.8060 C.2   1 <1>  -0.1500 
 17 C        6.6520     3.3320    -0.0110 C.3   1 <1>   0.5030 
 18 C       -5.8330     4.0130     0.4260 C.2   1 <1>  -0.1100 
 19 C       -5.2700     4.3170    -0.7570 C.2   1 <1>  -0.1500 
 20 C        7.1810     4.1140    -1.2080 C.3   1 <1>  -0.2400 
 21 C        7.1410     1.8860    -0.0770 C.3   1 <1>  -0.2400 
 22 C        7.0960     4.0050     1.2880 C.3   1 <1>  -0.2400 
 23 H        2.7200     1.0210    -0.4750 H     1 <1>   0.1500 
 24 H       -1.6640     3.6810     1.6370 H     1 <1>   0.0800 
 25 H       -1.9290     2.0820     0.9510 H     1 <1>   0.0800 
 26 H        2.8120     4.7720     1.6220 H     1 <1>   0.1500 
 27 H        4.6530     1.6170     0.9520 H     1 <1>   0.0800 
 28 H        4.6400     3.0850     1.9120 H     1 <1>   0.0800 
 29 H       -0.3330     7.2160     0.6570 H     1 <1>   0.0800 
 30 H       -1.3970     5.8410     0.4210 H     1 <1>   0.0800 
 31 H       -0.0390     6.1050    -0.6790 H     1 <1>   0.0800 
 32 H        4.8930     4.3430    -0.1280 H     1 <1>   0.4500 
 33 H        4.9210     2.9740    -1.0160 H     1 <1>   0.4500 
 34 H       -3.2940     4.2570    -1.6980 H     1 <1>   0.1500 
 35 H       -6.8460     4.0870     0.7800 H     1 <1>   0.1500 
 36 H       -5.7860     4.7180    -1.6120 H     1 <1>   0.1500 
 37 H        6.8770     3.6610    -2.1350 H     1 <1>   0.0800 
 38 H        8.2570     4.1270    -1.1910 H     1 <1>   0.0800 
 39 H        6.8450     5.1360    -1.1860 H     1 <1>   0.0800 
 40 H        8.2170     1.8700    -0.0990 H     1 <1>   0.0800 
 41 H        6.8350     1.3210     0.7850 H     1 <1>   0.0800 
 42 H        6.7900     1.3970    -0.9680 H     1 <1>   0.0800 
 43 H        6.7120     5.0070     1.3570 H     1 <1>   0.0800 
 44 H        8.1700     4.0650     1.3130 H     1 <1>   0.0800 
 45 H        6.7900     3.4440     2.1530 H     1 <1>   0.0800 
@<TRIPOS>BOND
  1   1   2  1   
  2   2   3  ar  
  3   2   4  ar  
  4   3   5  1   
  5   3   6  ar  
  6   4   7  ar  
  7   4  23  1   
  8   5   8  1   
  9   6   9  1   
 10   6  10  ar  
 11   7  10  ar  
 12   7  11  1   
 13   8  12  1   
 14   8  24  1   
 15   8  25  1   
 16   9  13  1   
 17  10  26  1   
 18  11  14  1   
 19  11  27  1   
 20  11  28  1   
 21  12  15  1   
 22  12  16  2   
 23  13  29  1   
 24  13  30  1   
 25  13  31  1   
 26  14  17  1   
 27  14  32  1   
 28  14  33  1   
 29  15  18  1   
 30  16  19  1   
 31  16  34  1   
 32  17  20  1   
 33  17  21  1   
 34  17  22  1   
 35  18  19  2   
 36  18  35  1   
 37  19  36  1   
 38  20  37  1   
 39  20  38  1   
 40  20  39  1   
 41  21  40  1   
 42  21  41  1   
 43  21  42  1   
 44  22  43  1   
 45  22  44  1   
 46  22  45  1   
@<TRIPOS>SUBSTRUCTURE
  1 ****   3 GROUP 4 **** **** 0

# MOE 2024.06 (io_trps.svl 2023.06)
