@<TRIPOS>MOLECULE
NONAME
53 55 1 0 0 
SMALL
USER_CHARGES


@<TRIPOS>ATOM
  1 O       -1.4850     0.9830     0.0670 O.2   1 <1>  -0.5700 
  2 C       -1.7740     2.1650    -0.1020 C.2   1 <1>   0.7670 
  3 N       -2.9750     2.5750     0.3670 N.2   1 <1>  -0.6610 
  4 C       -0.8670     3.0560    -0.7710 C.2   1 <1>  -0.1240 
  5 C       -3.2820     3.8180     0.1870 C.2   1 <1>   0.5500 
  6 C       -1.2290     4.3560    -0.9070 C.2   1 <1>  -0.0380 
  7 C        0.4590     2.4930    -1.2880 C.3   1 <1>  -0.0220 
  8 N       -2.4550     4.7040    -0.4150 N.pl3 1 <1>  -0.5500 
  9 N       -4.4800     4.3010     0.6010 N.pl3 1 <1>  -0.7880 
 10 C       -0.4280     5.4860    -1.5340 C.3   1 <1>  -0.1020 
 11 C        1.5400     2.5700    -0.1990 C.3   1 <1>  -0.1600 
 12 C       -5.4350     4.9060    -0.3810 C.3   1 <1>   0.2090 
 13 C       -5.1880     3.6520     1.7540 C.3   1 <1>   0.2090 
 14 C        2.8850     1.9470    -0.6190 C.3   1 <1>  -0.0800 
 15 C       -6.4860     3.8780    -0.8500 C.3   1 <1>   0.2090 
 16 C       -6.2340     2.6310     1.2710 C.3   1 <1>   0.2090 
 17 C        3.8360     1.9180     0.5830 C.3   1 <1>  -0.2400 
 18 C        3.5470     2.7120    -1.7730 C.3   1 <1>  -0.2400 
 19 N       -7.1970     3.2510     0.3050 N.pl3 1 <1>  -0.8380 
 20 C       -8.3070     2.4820    -0.0230 C.ar  1 <1>   0.1000 
 21 C       -8.1810     1.2560    -0.6690 C.ar  1 <1>  -0.1500 
 22 C       -9.5770     2.9410     0.2940 C.ar  1 <1>  -0.1500 
 23 C       -9.3000     0.5090    -0.9900 C.ar  1 <1>  -0.1500 
 24 C      -10.6990     2.1980    -0.0240 C.ar  1 <1>  -0.1500 
 25 C      -10.5620     0.9800    -0.6670 C.ar  1 <1>  -0.1500 
 26 H        0.7670     3.0340    -2.1620 H     1 <1>   0.0800 
 27 H        0.3280     1.4690    -1.5930 H     1 <1>   0.0800 
 28 H       -2.7780     5.6690    -0.4030 H     1 <1>   0.4000 
 29 H       -0.9000     5.8060    -2.4450 H     1 <1>   0.0800 
 30 H        0.5800     5.1920    -1.7560 H     1 <1>   0.0800 
 31 H       -0.3820     6.3190    -0.8560 H     1 <1>   0.0800 
 32 H        1.1740     2.0450     0.6680 H     1 <1>   0.0800 
 33 H        1.6900     3.5970     0.0850 H     1 <1>   0.0800 
 34 H       -4.9030     5.2730    -1.2400 H     1 <1>   0.0800 
 35 H       -5.9400     5.7350     0.0810 H     1 <1>   0.0800 
 36 H       -5.6810     4.4090     2.3370 H     1 <1>   0.0800 
 37 H       -4.4760     3.1580     2.3920 H     1 <1>   0.0800 
 38 H        2.7120     0.9290    -0.9320 H     1 <1>   0.0800 
 39 H       -5.9950     3.1130    -1.4250 H     1 <1>   0.0800 
 40 H       -7.2050     4.3650    -1.4840 H     1 <1>   0.0800 
 41 H       -6.7760     2.2470     2.1160 H     1 <1>   0.0800 
 42 H       -5.7230     1.8090     0.7990 H     1 <1>   0.0800 
 43 H        4.0370     2.9150     0.9320 H     1 <1>   0.0800 
 44 H        4.7680     1.4530     0.3130 H     1 <1>   0.0800 
 45 H        3.4020     1.3530     1.3890 H     1 <1>   0.0800 
 46 H        3.6730     3.7490    -1.5160 H     1 <1>   0.0800 
 47 H        2.9550     2.6460    -2.6680 H     1 <1>   0.0800 
 48 H        4.5140     2.2930    -1.9890 H     1 <1>   0.0800 
 49 H       -7.2020     0.8920    -0.9190 H     1 <1>   0.1500 
 50 H       -9.6710     3.8870     0.7940 H     1 <1>   0.1500 
 51 H       -9.1900    -0.4370    -1.4890 H     1 <1>   0.1500 
 52 H      -11.6780     2.5670     0.2290 H     1 <1>   0.1500 
 53 H      -11.4340     0.4000    -0.9160 H     1 <1>   0.1500 
@<TRIPOS>BOND
  1   1   2  2   
  2   2   3  1   
  3   2   4  1   
  4   3   5  2   
  5   4   6  2   
  6   4   7  1   
  7   5   8  1   
  8   5   9  1   
  9   6   8  1   
 10   6  10  1   
 11   7  11  1   
 12   7  26  1   
 13   7  27  1   
 14   8  28  1   
 15   9  12  1   
 16   9  13  1   
 17  10  29  1   
 18  10  30  1   
 19  10  31  1   
 20  11  14  1   
 21  11  32  1   
 22  11  33  1   
 23  12  15  1   
 24  12  34  1   
 25  12  35  1   
 26  13  16  1   
 27  13  36  1   
 28  13  37  1   
 29  14  17  1   
 30  14  18  1   
 31  14  38  1   
 32  15  19  1   
 33  15  39  1   
 34  15  40  1   
 35  16  19  1   
 36  16  41  1   
 37  16  42  1   
 38  17  43  1   
 39  17  44  1   
 40  17  45  1   
 41  18  46  1   
 42  18  47  1   
 43  18  48  1   
 44  19  20  1   
 45  20  21  ar  
 46  20  22  ar  
 47  21  23  ar  
 48  21  49  1   
 49  22  24  ar  
 50  22  50  1   
 51  23  25  ar  
 52  23  51  1   
 53  24  25  ar  
 54  24  52  1   
 55  25  53  1   
@<TRIPOS>SUBSTRUCTURE
  1 ****   3 GROUP 4 **** **** 0

# MOE 2024.06 (io_trps.svl 2023.06)
