@<TRIPOS>MOLECULE
NONAME
46 47 1 0 0 
SMALL
USER_CHARGES


@<TRIPOS>ATOM
  1 O       -0.8080    -0.9140     1.9930 O.2   1 <1>  -0.5700 
  2 C       -1.0330    -1.2230     0.8430 C.2   1 <1>   0.5690 
  3 N       -0.0410    -1.5640    -0.0090 N.am  1 <1>  -0.7300 
  4 C       -2.4700    -1.2300     0.3030 C.3   1 <1>  -0.0190 
  5 C        1.3340    -1.9010     0.3560 C.3   1 <1>   0.2200 
  6 C       -3.4160    -0.4380     1.2300 C.3   1 <1>  -0.0160 
  7 C       -3.0000    -2.6660     0.0490 C.3   1 <1>  -0.2660 
  8 C        2.2930    -1.1450    -0.5680 C.3   1 <1>  -0.1600 
  9 C        1.5090    -3.4160     0.2170 C.3   1 <1>  -0.1600 
 10 C       -4.8090    -0.2360     0.6450 C.ar  1 <1>  -0.1440 
 11 C       -2.1390    -3.4780    -0.8910 C.2   1 <1>   0.9060 
 12 C        3.7510    -1.5570    -0.3160 C.3   1 <1>  -0.1600 
 13 C        2.9650    -3.8370     0.4680 C.3   1 <1>  -0.1600 
 14 C       -5.8800    -0.9910     1.0960 C.ar  1 <1>  -0.1500 
 15 C       -5.0210     0.7120    -0.3430 C.ar  1 <1>  -0.1500 
 16 O       -1.5890    -2.9100    -1.8430 O.co2 1 <1>  -0.9000 
 17 O       -1.9800    -4.6770    -0.6590 O.co2 1 <1>  -0.9000 
 18 C        3.9270    -3.0760    -0.4540 C.3   1 <1>  -0.1600 
 19 C       -7.1460    -0.7980     0.5680 C.ar  1 <1>  -0.1500 
 20 C       -6.2860     0.9050    -0.8710 C.ar  1 <1>  -0.1500 
 21 C       -7.3570     0.1530    -0.4160 C.ar  1 <1>  -0.1440 
 22 C       -8.7430     0.3630    -0.9970 C.3   1 <1>  -0.0970 
 23 H       -0.3600    -1.9990    -0.9020 H     1 <1>   0.3700 
 24 H       -2.4440    -0.7200    -0.6430 H     1 <1>   0.0800 
 25 H        1.5190    -1.6120     1.3780 H     1 <1>   0.0800 
 26 H       -2.9860     0.5300     1.4230 H     1 <1>   0.0800 
 27 H       -3.4880    -0.9440     2.1770 H     1 <1>   0.0800 
 28 H       -3.9790    -2.6280    -0.3860 H     1 <1>   0.0800 
 29 H       -3.0620    -3.1990     0.9780 H     1 <1>   0.0800 
 30 H        2.1820    -0.0890    -0.4040 H     1 <1>   0.0800 
 31 H        2.0370    -1.3610    -1.5910 H     1 <1>   0.0800 
 32 H        1.2150    -3.7200    -0.7740 H     1 <1>   0.0800 
 33 H        0.8610    -3.9140     0.9180 H     1 <1>   0.0800 
 34 H        4.0390    -1.2540     0.6760 H     1 <1>   0.0800 
 35 H        4.3940    -1.0540    -1.0170 H     1 <1>   0.0800 
 36 H        3.0620    -4.8960     0.3010 H     1 <1>   0.0800 
 37 H        3.2190    -3.6380     1.4950 H     1 <1>   0.0800 
 38 H       -5.7290    -1.7370     1.8560 H     1 <1>   0.1500 
 39 H       -4.1970     1.3000    -0.7070 H     1 <1>   0.1500 
 40 H        4.9420    -3.3470    -0.2200 H     1 <1>   0.0800 
 41 H        3.7360    -3.3630    -1.4750 H     1 <1>   0.0800 
 42 H       -7.9630    -1.3970     0.9280 H     1 <1>   0.1500 
 43 H       -6.4300     1.6430    -1.6390 H     1 <1>   0.1500 
 44 H       -8.8730    -0.2650    -1.8600 H     1 <1>   0.0800 
 45 H       -8.8760     1.3890    -1.2900 H     1 <1>   0.0800 
 46 H       -9.4960     0.1170    -0.2710 H     1 <1>   0.0800 
@<TRIPOS>BOND
  1   1   2  2   
  2   2   3  am  
  3   2   4  1   
  4   3   5  1   
  5   3  23  1   
  6   4   6  1   
  7   4   7  1   
  8   4  24  1   
  9   5   8  1   
 10   5   9  1   
 11   5  25  1   
 12   6  10  1   
 13   6  26  1   
 14   6  27  1   
 15   7  11  1   
 16   7  28  1   
 17   7  29  1   
 18   8  12  1   
 19   8  30  1   
 20   8  31  1   
 21   9  13  1   
 22   9  32  1   
 23   9  33  1   
 24  10  14  ar  
 25  10  15  ar  
 26  11  16  ar  
 27  11  17  ar  
 28  12  18  1   
 29  12  34  1   
 30  12  35  1   
 31  13  18  1   
 32  13  36  1   
 33  13  37  1   
 34  14  19  ar  
 35  14  38  1   
 36  15  20  ar  
 37  15  39  1   
 38  18  40  1   
 39  18  41  1   
 40  19  21  ar  
 41  19  42  1   
 42  20  21  ar  
 43  20  43  1   
 44  21  22  1   
 45  22  44  1   
 46  22  45  1   
 47  22  46  1   
@<TRIPOS>SUBSTRUCTURE
  1 ****   4 GROUP 4 **** **** 0

# MOE 2024.06 (io_trps.svl 2023.06)
