@<TRIPOS>MOLECULE
NONAME
41 41 1 0 0 
SMALL
USER_CHARGES


@<TRIPOS>ATOM
  1 O        1.5670    -1.6220     0.1010 O.2   1 <1>  -0.5700 
  2 C        0.8420    -2.4890    -0.3490 C.2   1 <1>   0.5440 
  3 N        1.3490    -3.3470    -1.2890 N.am  1 <1>  -0.7300 
  4 C       -0.5290    -2.6160     0.1060 C.ar  1 <1>   0.0860 
  5 C        2.6850    -3.3290    -1.9420 C.3   1 <1>   0.1400 
  6 C       -1.2550    -1.4950     0.5120 C.ar  1 <1>  -0.1500 
  7 C       -1.1780    -3.8520     0.1630 C.ar  1 <1>  -0.1500 
  8 C        3.8290    -3.4290    -0.9140 C.3   1 <1>  -0.0800 
  9 C       -2.5630    -1.6000     0.9450 C.ar  1 <1>  -0.1500 
 10 C       -2.4870    -3.9660     0.5940 C.ar  1 <1>  -0.1500 
 11 C        4.3730    -2.0250    -0.5940 C.3   1 <1>   0.3430 
 12 C        4.9600    -4.3350    -1.4340 C.3   1 <1>  -0.2400 
 13 C       -3.1920    -2.8330     0.9890 C.ar  1 <1>   0.0830 
 14 N        5.0370    -1.9880     0.7430 N.4   1 <1>  -0.9590 
 15 O       -4.4710    -2.8530     1.4240 O.3   1 <1>  -0.3630 
 16 C        4.0000    -1.9210     1.8230 C.3   1 <1>   0.2630 
 17 C        5.9550    -0.8160     0.8400 C.3   1 <1>   0.2630 
 18 C       -5.2060    -4.0530     1.5220 C.3   1 <1>   0.0400 
 19 H        0.6770    -3.9740    -1.7400 H     1 <1>   0.3700 
 20 H        2.7790    -2.4380    -2.5410 H     1 <1>   0.0800 
 21 H        2.7300    -4.1730    -2.6110 H     1 <1>   0.0800 
 22 H       -0.7840    -0.5270     0.4870 H     1 <1>   0.1500 
 23 H       -0.6510    -4.7440    -0.1260 H     1 <1>   0.1500 
 24 H        3.4260    -3.8850    -0.0270 H     1 <1>   0.0800 
 25 H       -3.1090    -0.7260     1.2540 H     1 <1>   0.1500 
 26 H       -2.9440    -4.9370     0.6210 H     1 <1>   0.1500 
 27 H        3.5760    -1.3010    -0.6170 H     1 <1>   0.0800 
 28 H        5.0770    -1.7490    -1.3610 H     1 <1>   0.0800 
 29 H        5.3790    -3.9420    -2.3450 H     1 <1>   0.0800 
 30 H        4.5820    -5.3230    -1.6350 H     1 <1>   0.0800 
 31 H        5.7470    -4.4270    -0.7060 H     1 <1>   0.0800 
 32 H        5.5790    -2.8570     0.8510 H     1 <1>   0.4500 
 33 H        3.3970    -1.0340     1.7050 H     1 <1>   0.0800 
 34 H        4.4650    -1.8990     2.7950 H     1 <1>   0.0800 
 35 H        3.3450    -2.7750     1.7730 H     1 <1>   0.0800 
 36 H        5.4010     0.1010     0.7190 H     1 <1>   0.0800 
 37 H        6.7100    -0.8670     0.0730 H     1 <1>   0.0800 
 38 H        6.4410    -0.8010     1.8020 H     1 <1>   0.0800 
 39 H       -6.1870    -3.8140     1.8920 H     1 <1>   0.0800 
 40 H       -4.7080    -4.7120     2.2100 H     1 <1>   0.0800 
 41 H       -5.2820    -4.4970     0.5460 H     1 <1>   0.0800 
@<TRIPOS>BOND
  1   1   2  2   
  2   2   3  am  
  3   2   4  1   
  4   3   5  1   
  5   3  19  1   
  6   4   6  ar  
  7   4   7  ar  
  8   5   8  1   
  9   5  20  1   
 10   5  21  1   
 11   6   9  ar  
 12   6  22  1   
 13   7  10  ar  
 14   7  23  1   
 15   8  11  1   
 16   8  12  1   
 17   8  24  1   
 18   9  13  ar  
 19   9  25  1   
 20  10  13  ar  
 21  10  26  1   
 22  11  14  1   
 23  11  27  1   
 24  11  28  1   
 25  12  29  1   
 26  12  30  1   
 27  12  31  1   
 28  13  15  1   
 29  14  16  1   
 30  14  17  1   
 31  14  32  1   
 32  15  18  1   
 33  16  33  1   
 34  16  34  1   
 35  16  35  1   
 36  17  36  1   
 37  17  37  1   
 38  17  38  1   
 39  18  39  1   
 40  18  40  1   
 41  18  41  1   
@<TRIPOS>SUBSTRUCTURE
  1 ****   2 GROUP 4 **** **** 0

# MOE 2024.06 (io_trps.svl 2023.06)
