@<TRIPOS>MOLECULE
NONAME
34 36 1 0 0 
SMALL
USER_CHARGES


@<TRIPOS>ATOM
  1 N        2.2330     5.0190    -0.3090 N.4   1 <1>  -0.9590 
  2 C        0.7600     4.9770     0.0440 C.3   1 <1>   0.3430 
  3 C        3.0320     3.8350     0.1860 C.3   1 <1>   0.3430 
  4 C        2.8470     6.3010     0.1560 C.3   1 <1>   0.2630 
  5 C        0.1950     3.6500    -0.4320 C.3   1 <1>   0.0630 
  6 C        2.3740     2.4910    -0.1670 C.3   1 <1>  -0.1600 
  7 C       -1.2270     3.2320    -0.1840 C.ar  1 <1>  -0.1430 
  8 C        0.9360     2.5480     0.3140 C.3   1 <1>   0.2890 
  9 C       -1.2040     1.8740     0.0660 C.ar  1 <1>   0.1000 
 10 C       -2.4120     3.9410    -0.2060 C.ar  1 <1>  -0.1500 
 11 N        0.0890     1.3680     0.1050 N.pl3 1 <1>  -0.8690 
 12 C       -2.3870     1.1930     0.2910 C.ar  1 <1>  -0.1500 
 13 C       -3.6010     3.2640     0.0300 C.ar  1 <1>  -0.1430 
 14 C       -3.5820     1.8940     0.2720 C.ar  1 <1>  -0.1500 
 15 C       -4.9250     4.0070     0.0130 C.3   1 <1>  -0.0970 
 16 H        2.2900     5.0030    -1.3400 H     1 <1>   0.4500 
 17 H        0.2340     5.7860    -0.4380 H     1 <1>   0.0800 
 18 H        0.6250     5.0640     1.1100 H     1 <1>   0.0800 
 19 H        3.1250     3.8980     1.2590 H     1 <1>   0.0800 
 20 H        4.0270     3.8650    -0.2310 H     1 <1>   0.0800 
 21 H        2.8110     6.3680     1.2310 H     1 <1>   0.0800 
 22 H        2.3170     7.1440    -0.2590 H     1 <1>   0.0800 
 23 H        3.8780     6.3590    -0.1580 H     1 <1>   0.0800 
 24 H        0.3630     3.5570    -1.4910 H     1 <1>   0.0800 
 25 H        2.8930     1.6940     0.3350 H     1 <1>   0.0800 
 26 H        2.4170     2.3120    -1.2270 H     1 <1>   0.0800 
 27 H        0.9250     2.7610     1.3720 H     1 <1>   0.0800 
 28 H       -2.4250     4.9960    -0.4110 H     1 <1>   0.1500 
 29 H        0.2250     0.6020     0.7750 H     1 <1>   0.4000 
 30 H       -2.3700     0.1350     0.4770 H     1 <1>   0.1500 
 31 H       -4.5040     1.3670     0.4470 H     1 <1>   0.1500 
 32 H       -4.7800     5.0490     0.2360 H     1 <1>   0.0800 
 33 H       -5.5940     3.5950     0.7460 H     1 <1>   0.0800 
 34 H       -5.3780     3.9200    -0.9580 H     1 <1>   0.0800 
@<TRIPOS>BOND
  1   1   2  1   
  2   1   3  1   
  3   1   4  1   
  4   1  16  1   
  5   2   5  1   
  6   2  17  1   
  7   2  18  1   
  8   3   6  1   
  9   3  19  1   
 10   3  20  1   
 11   4  21  1   
 12   4  22  1   
 13   4  23  1   
 14   5   7  1   
 15   5   8  1   
 16   5  24  1   
 17   6   8  1   
 18   6  25  1   
 19   6  26  1   
 20   7   9  ar  
 21   7  10  ar  
 22   8  11  1   
 23   8  27  1   
 24   9  11  1   
 25   9  12  ar  
 26  10  13  ar  
 27  10  28  1   
 28  11  29  1   
 29  12  14  ar  
 30  12  30  1   
 31  13  14  ar  
 32  13  15  1   
 33  14  31  1   
 34  15  32  1   
 35  15  33  1   
 36  15  34  1   
@<TRIPOS>SUBSTRUCTURE
  1 ****   7 GROUP 4 **** **** 0

# MOE 2024.06 (io_trps.svl 2023.06)
