@<TRIPOS>MOLECULE
NONAME
44 44 1 0 0 
SMALL
USER_CHARGES


@<TRIPOS>ATOM
  1 CL      -1.4820    -0.5190     0.6840 Cl    1 <1>  -0.1770 
  2 C       -0.9870    -2.0950     0.1090 C.ar  1 <1>   0.1770 
  3 C       -1.8150    -2.7860    -0.7560 C.ar  1 <1>  -0.1440 
  4 C        0.2090    -2.6230     0.5520 C.ar  1 <1>  -0.1500 
  5 C       -1.4220    -4.0450    -1.1780 C.ar  1 <1>  -0.1500 
  6 C       -3.1180    -2.1830    -1.2240 C.3   1 <1>   0.4870 
  7 C        0.6050    -3.8900     0.1310 C.ar  1 <1>   0.0820 
  8 C       -0.2300    -4.6080    -0.7480 C.ar  1 <1>   0.0820 
  9 N       -4.0530    -2.2260    -0.0690 N.4   1 <1>  -0.9060 
 10 O        1.7740    -4.4360     0.5700 O.3   1 <1>  -0.3620 
 11 O       -0.0090    -5.8540    -1.2570 O.3   1 <1>  -0.3620 
 12 C       -5.3740    -1.5630    -0.3410 C.3   1 <1>   0.3430 
 13 C        2.7210    -3.7170     1.3290 C.3   1 <1>   0.1200 
 14 C        1.2120    -6.5490    -1.1210 C.3   1 <1>   0.0400 
 15 C       -6.3250    -1.5420     0.8930 C.3   1 <1>   0.3430 
 16 C        3.9340    -4.6190     1.5390 C.3   1 <1>  -0.2400 
 17 N       -7.6600    -0.8760     0.6530 N.4   1 <1>  -0.9590 
 18 C       -7.5620     0.6010     0.3840 C.3   1 <1>   0.2630 
 19 C       -8.5600    -1.0840     1.8400 C.3   1 <1>   0.2630 
 20 H        0.8040    -2.0340     1.2240 H     1 <1>   0.1500 
 21 H       -2.0260    -4.6230    -1.8570 H     1 <1>   0.1500 
 22 H       -3.5090    -2.7480    -2.0560 H     1 <1>   0.0800 
 23 H       -2.9500    -1.1660    -1.5420 H     1 <1>   0.0800 
 24 H       -3.5430    -1.7690     0.7040 H     1 <1>   0.4500 
 25 H       -4.1430    -3.2190     0.1950 H     1 <1>   0.4500 
 26 H       -5.8660    -2.0800    -1.1490 H     1 <1>   0.0800 
 27 H       -5.1940    -0.5460    -0.6530 H     1 <1>   0.0800 
 28 H        2.2770    -3.4560     2.2740 H     1 <1>   0.0800 
 29 H        2.9980    -2.8310     0.7840 H     1 <1>   0.0800 
 30 H        1.1530    -7.4480    -1.7070 H     1 <1>   0.0800 
 31 H        1.3580    -6.7990    -0.0860 H     1 <1>   0.0800 
 32 H        2.0120    -5.9280    -1.4840 H     1 <1>   0.0800 
 33 H       -5.8290    -1.0350     1.7050 H     1 <1>   0.0800 
 34 H       -6.5020    -2.5610     1.1990 H     1 <1>   0.0800 
 35 H        3.6460    -5.5090     2.0680 H     1 <1>   0.0800 
 36 H        4.6770    -4.1010     2.1170 H     1 <1>   0.0800 
 37 H        4.3640    -4.8880     0.5900 H     1 <1>   0.0800 
 38 H       -8.1450    -1.3150    -0.1490 H     1 <1>   0.4500 
 39 H       -7.0930     1.1080     1.2130 H     1 <1>   0.0800 
 40 H       -8.5470     1.0210     0.2470 H     1 <1>   0.0800 
 41 H       -6.9900     0.7930    -0.5090 H     1 <1>   0.0800 
 42 H       -8.1370    -0.6300     2.7220 H     1 <1>   0.0800 
 43 H       -8.7020    -2.1360     2.0290 H     1 <1>   0.0800 
 44 H       -9.5270    -0.6400     1.6600 H     1 <1>   0.0800 
@<TRIPOS>BOND
  1   1   2  1   
  2   2   3  ar  
  3   2   4  ar  
  4   3   5  ar  
  5   3   6  1   
  6   4   7  ar  
  7   4  20  1   
  8   5   8  ar  
  9   5  21  1   
 10   6   9  1   
 11   6  22  1   
 12   6  23  1   
 13   7   8  ar  
 14   7  10  1   
 15   8  11  1   
 16   9  12  1   
 17   9  24  1   
 18   9  25  1   
 19  10  13  1   
 20  11  14  1   
 21  12  15  1   
 22  12  26  1   
 23  12  27  1   
 24  13  16  1   
 25  13  28  1   
 26  13  29  1   
 27  14  30  1   
 28  14  31  1   
 29  14  32  1   
 30  15  17  1   
 31  15  33  1   
 32  15  34  1   
 33  16  35  1   
 34  16  36  1   
 35  16  37  1   
 36  17  18  1   
 37  17  19  1   
 38  17  38  1   
 39  18  39  1   
 40  18  40  1   
 41  18  41  1   
 42  19  42  1   
 43  19  43  1   
 44  19  44  1   
@<TRIPOS>SUBSTRUCTURE
  1 ****   3 GROUP 4 **** **** 0

# MOE 2024.06 (io_trps.svl 2023.06)
