@<TRIPOS>MOLECULE
NONAME
45 47 1 0 0 
SMALL
USER_CHARGES


@<TRIPOS>ATOM
  1 O        2.1800     0.4600    -0.4750 O.co2 1 <1>  -0.9000 
  2 C        2.5240    -0.2800     0.4490 C.2   1 <1>   0.9060 
  3 O        3.5270    -0.0330     1.1310 O.co2 1 <1>  -0.9000 
  4 C        1.7400    -1.5380     0.8050 C.3   1 <1>  -0.1860 
  5 C        2.3810    -2.9080     0.3790 C.3   1 <1>  -0.0190 
  6 C        0.2370    -1.4930     0.4180 C.3   1 <1>  -0.0800 
  7 C        3.6010    -2.8970    -0.5690 C.2   1 <1>   0.5690 
  8 C        1.2450    -3.8610    -0.1020 C.3   1 <1>  -0.0800 
  9 C        0.0720    -1.8390    -1.0760 C.3   1 <1>  -0.1600 
 10 C       -0.4920    -2.5800     1.2350 C.3   1 <1>  -0.1600 
 11 O        3.6530    -3.6660    -1.5050 O.2   1 <1>  -0.5700 
 12 N        4.6560    -2.0950    -0.2960 N.am  1 <1>  -0.7300 
 13 C        0.5660    -3.2720    -1.3590 C.3   1 <1>  -0.1600 
 14 C        0.1680    -3.9580     1.0020 C.3   1 <1>  -0.1600 
 15 C        5.8100    -1.8890    -1.1870 C.3   1 <1>   0.2840 
 16 C        7.0070    -1.3620    -0.4010 C.ar  1 <1>  -0.1440 
 17 C        8.2490    -1.9930    -0.4480 C.ar  1 <1>   0.0820 
 18 C        6.8550    -0.2180     0.3700 C.ar  1 <1>  -0.1500 
 19 O        8.3770    -3.1020    -1.2250 O.3   1 <1>  -0.3630 
 20 C        9.3140    -1.4730     0.2870 C.ar  1 <1>  -0.1500 
 21 C        7.9150     0.2920     1.0980 C.ar  1 <1>  -0.1500 
 22 C        9.5270    -3.9140    -1.1780 C.3   1 <1>   0.0400 
 23 C        9.1450    -0.3360     1.0570 C.ar  1 <1>  -0.1500 
 24 H        1.7590    -1.5260     1.8780 H     1 <1>   0.0800 
 25 H        2.7750    -3.3400     1.2800 H     1 <1>   0.0800 
 26 H       -0.1730    -0.5190     0.6260 H     1 <1>   0.0800 
 27 H        1.6420    -4.8390    -0.3150 H     1 <1>   0.0800 
 28 H        0.6380    -1.1410    -1.6700 H     1 <1>   0.0800 
 29 H       -0.9590    -1.7430    -1.3630 H     1 <1>   0.0800 
 30 H       -1.5250    -2.6150     0.9360 H     1 <1>   0.0800 
 31 H       -0.4620    -2.3330     2.2820 H     1 <1>   0.0800 
 32 H        4.5000    -1.3160     0.3760 H     1 <1>   0.3700 
 33 H       -0.2650    -3.8930    -1.6410 H     1 <1>   0.0800 
 34 H        1.2510    -3.2550    -2.1880 H     1 <1>   0.0800 
 35 H        0.6210    -4.3030     1.9150 H     1 <1>   0.0800 
 36 H       -0.5820    -4.6750     0.7160 H     1 <1>   0.0800 
 37 H        5.5370    -1.1690    -1.9380 H     1 <1>   0.0800 
 38 H        6.0420    -2.8160    -1.6820 H     1 <1>   0.0800 
 39 H        5.9000     0.2840     0.4110 H     1 <1>   0.1500 
 40 H       10.2800    -1.9370     0.2710 H     1 <1>   0.1500 
 41 H        7.7700     1.1760     1.6930 H     1 <1>   0.1500 
 42 H        9.3570    -4.7680    -1.8090 H     1 <1>   0.0800 
 43 H        9.6860    -4.2340    -0.1640 H     1 <1>   0.0800 
 44 H       10.3670    -3.3510    -1.5440 H     1 <1>   0.0800 
 45 H        9.9680     0.0610     1.6240 H     1 <1>   0.1500 
@<TRIPOS>BOND
  1   1   2  ar  
  2   2   3  ar  
  3   2   4  1   
  4   4   5  1   
  5   4   6  1   
  6   4  24  1   
  7   5   7  1   
  8   5   8  1   
  9   5  25  1   
 10   6   9  1   
 11   6  10  1   
 12   6  26  1   
 13   7  11  2   
 14   7  12  am  
 15   8  13  1   
 16   8  14  1   
 17   8  27  1   
 18   9  13  1   
 19   9  28  1   
 20   9  29  1   
 21  10  14  1   
 22  10  30  1   
 23  10  31  1   
 24  12  15  1   
 25  12  32  1   
 26  13  33  1   
 27  13  34  1   
 28  14  35  1   
 29  14  36  1   
 30  15  16  1   
 31  15  37  1   
 32  15  38  1   
 33  16  17  ar  
 34  16  18  ar  
 35  17  19  1   
 36  17  20  ar  
 37  18  21  ar  
 38  18  39  1   
 39  19  22  1   
 40  20  23  ar  
 41  20  40  1   
 42  21  23  ar  
 43  21  41  1   
 44  22  42  1   
 45  22  43  1   
 46  22  44  1   
 47  23  45  1   
@<TRIPOS>SUBSTRUCTURE
  1 ****  12 GROUP 4 **** **** 0

# MOE 2024.06 (io_trps.svl 2023.06)
