@<TRIPOS>MOLECULE
NONAME
39 39 1 0 0 
SMALL
USER_CHARGES


@<TRIPOS>ATOM
  1 O        2.7930    -2.0310     0.3660 O.2   1 <1>  -0.5700 
  2 C        1.7170    -1.9290     0.9050 C.2   1 <1>   0.6590 
  3 O        0.9280    -2.9480     1.2170 O.3   1 <1>  -0.4300 
  4 C        1.1720    -0.5750     1.2790 C.3   1 <1>  -0.1790 
  5 C        1.1390    -4.3180     0.9350 C.3   1 <1>   0.6180 
  6 C        2.5290    -4.6980     1.3470 C.1   1 <1>  -0.2000 
  7 C        0.8920    -4.5940    -0.5670 C.2   1 <1>  -0.2760 
  8 C        0.1260    -5.0700     1.7950 C.3   1 <1>  -0.2400 
  9 C        3.7060    -4.7650     1.4930 C.1   1 <1>  -0.2000 
 10 C        0.4340    -3.7010    -1.4570 C.2   1 <1>  -0.3000 
 11 C        1.1910    -6.0220    -1.0290 C.3   1 <1>  -0.1020 
 12 C        5.1580    -4.4820     1.4120 C.3   1 <1>   0.5430 
 13 N        5.2790    -3.4380     0.3700 N.4   1 <1>  -0.9590 
 14 C        5.1000    -3.9320    -1.0120 C.3   1 <1>   0.3430 
 15 C        6.5200    -2.6400     0.3940 C.3   1 <1>   0.3430 
 16 C        5.6080    -2.7850    -1.8710 C.3   1 <1>  -0.1600 
 17 C        6.5920    -2.0060    -0.9900 C.3   1 <1>  -0.1600 
 18 H        0.2310    -0.4190     0.7860 H     1 <1>   0.0800 
 19 H        1.8580     0.1950     0.9790 H     1 <1>   0.0800 
 20 H        1.0270    -0.5260     2.3420 H     1 <1>   0.0800 
 21 H        0.2410    -4.7960     2.8280 H     1 <1>   0.0800 
 22 H        0.2720    -6.1300     1.7120 H     1 <1>   0.0800 
 23 H       -0.8710    -4.8350     1.4720 H     1 <1>   0.0800 
 24 H        0.2640    -3.9190    -2.4980 H     1 <1>   0.1500 
 25 H        0.1780    -2.6800    -1.2360 H     1 <1>   0.1500 
 26 H        2.2200    -6.2780    -0.8580 H     1 <1>   0.0800 
 27 H        0.9970    -6.1280    -2.0820 H     1 <1>   0.0800 
 28 H        0.5670    -6.7290    -0.5120 H     1 <1>   0.0800 
 29 H        5.7120    -5.3660     1.1430 H     1 <1>   0.0800 
 30 H        5.5060    -4.1100     2.3620 H     1 <1>   0.0800 
 31 H        4.4690    -2.7980     0.5140 H     1 <1>   0.4500 
 32 H        4.0650    -4.1570    -1.2190 H     1 <1>   0.0800 
 33 H        5.7050    -4.8090    -1.1740 H     1 <1>   0.0800 
 34 H        7.3710    -3.2850     0.5400 H     1 <1>   0.0800 
 35 H        6.4940    -1.8920     1.1720 H     1 <1>   0.0800 
 36 H        4.7770    -2.1560    -2.1440 H     1 <1>   0.0800 
 37 H        6.0700    -3.1540    -2.7710 H     1 <1>   0.0800 
 38 H        7.5960    -2.0650    -1.3720 H     1 <1>   0.0800 
 39 H        6.3070    -0.9700    -0.9360 H     1 <1>   0.0800 
@<TRIPOS>BOND
  1   1   2  2   
  2   2   3  1   
  3   2   4  1   
  4   3   5  1   
  5   4  18  1   
  6   4  19  1   
  7   4  20  1   
  8   5   6  1   
  9   5   7  1   
 10   5   8  1   
 11   6   9  3   
 12   7  10  2   
 13   7  11  1   
 14   8  21  1   
 15   8  22  1   
 16   8  23  1   
 17   9  12  1   
 18  10  24  1   
 19  10  25  1   
 20  11  26  1   
 21  11  27  1   
 22  11  28  1   
 23  12  13  1   
 24  12  29  1   
 25  12  30  1   
 26  13  14  1   
 27  13  15  1   
 28  13  31  1   
 29  14  16  1   
 30  14  32  1   
 31  14  33  1   
 32  15  17  1   
 33  15  34  1   
 34  15  35  1   
 35  16  17  1   
 36  16  36  1   
 37  16  37  1   
 38  17  38  1   
 39  17  39  1   
@<TRIPOS>SUBSTRUCTURE
  1 ****   1 GROUP 4 **** **** 0

# MOE 2024.06 (io_trps.svl 2023.06)
