@<TRIPOS>MOLECULE
NONAME
44 45 1 0 0 
SMALL
USER_CHARGES


@<TRIPOS>ATOM
  1 S       -0.0870    -0.0780     0.5960 S.o2  1 <1>   1.4470 
  2 O       -0.4420     0.1890     1.9710 O.2   1 <1>  -0.6500 
  3 O       -0.5990    -1.2450    -0.0840 O.2   1 <1>  -0.6500 
  4 N       -0.6330     1.2060    -0.3350 N.am  1 <1>  -0.9140 
  5 C        1.7110     0.0280     0.4030 C.ar  1 <1>  -0.0090 
  6 C       -1.8740     1.8080     0.1060 C.3   1 <1>   0.2760 
  7 C        2.4430    -1.0130    -0.1550 C.ar  1 <1>  -0.1500 
  8 C        2.4000     1.1630     0.8090 C.ar  1 <1>  -0.1500 
  9 C       -3.0620     0.8670    -0.1550 C.3   1 <1>  -0.1600 
 10 C       -2.0430     3.1200    -0.6670 C.3   1 <1>  -0.1600 
 11 C        3.8170    -0.9360    -0.3070 C.ar  1 <1>  -0.1430 
 12 C        3.7710     1.2610     0.6660 C.ar  1 <1>  -0.1500 
 13 C       -4.3990     1.5470     0.1740 C.3   1 <1>  -0.1600 
 14 C       -3.3760     3.8060    -0.3310 C.3   1 <1>  -0.1600 
 15 C        4.4900     0.2100     0.1050 C.ar  1 <1>   0.0830 
 16 C        4.5740    -2.1040    -0.9230 C.3   1 <1>  -0.0970 
 17 C       -4.5590     2.8660    -0.5920 C.3   1 <1>  -0.1600 
 18 O        5.8350     0.2440    -0.0620 O.3   1 <1>  -0.3630 
 19 C        6.6110     1.3630     0.3480 C.3   1 <1>   0.1810 
 20 C        8.0910     1.1410     0.0600 C.2   1 <1>   0.5690 
 21 O        8.8840     2.0010     0.3440 O.2   1 <1>  -0.5700 
 22 N        8.5110    -0.0080    -0.5070 N.am  1 <1>  -0.8000 
 23 H       -0.8190     0.7860    -1.2410 H     1 <1>   0.4200 
 24 H       -1.8200     2.0410     1.1580 H     1 <1>   0.0800 
 25 H        1.9200    -1.9000    -0.4730 H     1 <1>   0.1500 
 26 H        1.8490     1.9810     1.2440 H     1 <1>   0.1500 
 27 H       -2.9750    -0.0150     0.4540 H     1 <1>   0.0800 
 28 H       -3.0690     0.5680    -1.1890 H     1 <1>   0.0800 
 29 H       -2.0100     2.9240    -1.7240 H     1 <1>   0.0800 
 30 H       -1.2330     3.7830    -0.4190 H     1 <1>   0.0800 
 31 H        4.2530     2.1620     0.9970 H     1 <1>   0.1500 
 32 H       -4.4460     1.7420     1.2330 H     1 <1>   0.0800 
 33 H       -5.2100     0.8850    -0.0740 H     1 <1>   0.0800 
 34 H       -3.4840     4.6960    -0.9260 H     1 <1>   0.0800 
 35 H       -3.3750     4.1000     0.7050 H     1 <1>   0.0800 
 36 H        3.9070    -2.9060    -1.1860 H     1 <1>   0.0800 
 37 H        5.2980    -2.4790    -0.2230 H     1 <1>   0.0800 
 38 H        5.0850    -1.7800    -1.8120 H     1 <1>   0.0800 
 39 H       -5.4750     3.3470    -0.2930 H     1 <1>   0.0800 
 40 H       -4.6270     2.6600    -1.6470 H     1 <1>   0.0800 
 41 H        6.4750     1.5050     1.4040 H     1 <1>   0.0800 
 42 H        6.2730     2.2290    -0.1900 H     1 <1>   0.0800 
 43 H        9.5000    -0.1600    -0.7020 H     1 <1>   0.3700 
 44 H        7.8550    -0.7500    -0.7580 H     1 <1>   0.3700 
@<TRIPOS>BOND
  1   1   2  2   
  2   1   3  2   
  3   1   4  am  
  4   1   5  1   
  5   4   6  1   
  6   4  23  1   
  7   5   7  ar  
  8   5   8  ar  
  9   6   9  1   
 10   6  10  1   
 11   6  24  1   
 12   7  11  ar  
 13   7  25  1   
 14   8  12  ar  
 15   8  26  1   
 16   9  13  1   
 17   9  27  1   
 18   9  28  1   
 19  10  14  1   
 20  10  29  1   
 21  10  30  1   
 22  11  15  ar  
 23  11  16  1   
 24  12  15  ar  
 25  12  31  1   
 26  13  17  1   
 27  13  32  1   
 28  13  33  1   
 29  14  17  1   
 30  14  34  1   
 31  14  35  1   
 32  15  18  1   
 33  16  36  1   
 34  16  37  1   
 35  16  38  1   
 36  17  39  1   
 37  17  40  1   
 38  18  19  1   
 39  19  20  1   
 40  19  41  1   
 41  19  42  1   
 42  20  21  2   
 43  20  22  am  
 44  22  43  1   
 45  22  44  1   
@<TRIPOS>SUBSTRUCTURE
  1 ****   5 GROUP 4 **** **** 0

# MOE 2024.06 (io_trps.svl 2023.06)
