@<TRIPOS>MOLECULE
NONAME
39 40 1 0 0 
SMALL
USER_CHARGES


@<TRIPOS>ATOM
  1 S        0.0870     2.8340     0.2270 S.3   1 <1>  -0.4600 
  2 C       -1.4460     1.8660     0.2160 C.3   1 <1>   0.2140 
  3 C        0.9460     2.2840     1.7470 C.3   1 <1>   0.1310 
  4 C       -1.0930     0.4070    -0.0220 C.ar  1 <1>  -0.1440 
  5 C        2.1940     1.4700     1.4350 C.2   1 <1>   0.5690 
  6 C       -0.6730    -0.0060    -1.2770 C.ar  1 <1>  -0.1500 
  7 C       -1.1970    -0.5230     1.0010 C.ar  1 <1>  -0.1500 
  8 O        3.2300     1.7820     1.9740 O.2   1 <1>  -0.5700 
  9 N        2.1110     0.4060     0.5950 N.am  1 <1>  -0.7300 
 10 C       -0.3690    -1.3350    -1.5100 C.ar  1 <1>  -0.1500 
 11 C       -0.8880    -1.8520     0.7700 C.ar  1 <1>  -0.1500 
 12 C        3.2460    -0.4280     0.1740 C.3   1 <1>   0.2200 
 13 C       -0.4780    -2.2600    -0.4870 C.ar  1 <1>  -0.1500 
 14 C        3.3120    -0.4390    -1.3570 C.3   1 <1>  -0.1600 
 15 C        3.0680    -1.8400     0.7400 C.3   1 <1>  -0.1600 
 16 C        4.4130    -1.3840    -1.8600 C.3   1 <1>  -0.1600 
 17 C        4.1690    -2.7850     0.2370 C.3   1 <1>  -0.1600 
 18 C        4.2280    -2.7990    -1.2970 C.3   1 <1>  -0.1600 
 19 H       -2.0580     2.2510    -0.5800 H     1 <1>   0.0800 
 20 H       -1.9370     2.0190     1.1600 H     1 <1>   0.0800 
 21 H        0.2580     1.7040     2.3300 H     1 <1>   0.0800 
 22 H        1.2190     3.1720     2.2870 H     1 <1>   0.0800 
 23 H       -0.5830     0.7090    -2.0780 H     1 <1>   0.1500 
 24 H       -1.5220    -0.2230     1.9820 H     1 <1>   0.1500 
 25 H        1.2100     0.1770     0.1590 H     1 <1>   0.3700 
 26 H       -0.0490    -1.6510    -2.4890 H     1 <1>   0.1500 
 27 H       -0.9700    -2.5710     1.5670 H     1 <1>   0.1500 
 28 H        4.1630    -0.0120     0.5580 H     1 <1>   0.0800 
 29 H       -0.2420    -3.2940    -0.6690 H     1 <1>   0.1500 
 30 H        3.5080     0.5590    -1.7090 H     1 <1>   0.0800 
 31 H        2.3680    -0.7620    -1.7550 H     1 <1>   0.0800 
 32 H        2.1120    -2.2280     0.4420 H     1 <1>   0.0800 
 33 H        3.1000    -1.7950     1.8140 H     1 <1>   0.0800 
 34 H        5.3740    -1.0030    -1.5570 H     1 <1>   0.0800 
 35 H        4.3960    -1.4170    -2.9360 H     1 <1>   0.0800 
 36 H        3.9830    -3.7810     0.6010 H     1 <1>   0.0800 
 37 H        5.1190    -2.4630     0.6270 H     1 <1>   0.0800 
 38 H        5.0420    -3.4250    -1.6200 H     1 <1>   0.0800 
 39 H        3.3150    -3.2200    -1.6840 H     1 <1>   0.0800 
@<TRIPOS>BOND
  1   1   2  1   
  2   1   3  1   
  3   2   4  1   
  4   2  19  1   
  5   2  20  1   
  6   3   5  1   
  7   3  21  1   
  8   3  22  1   
  9   4   6  ar  
 10   4   7  ar  
 11   5   8  2   
 12   5   9  am  
 13   6  10  ar  
 14   6  23  1   
 15   7  11  ar  
 16   7  24  1   
 17   9  12  1   
 18   9  25  1   
 19  10  13  ar  
 20  10  26  1   
 21  11  13  ar  
 22  11  27  1   
 23  12  14  1   
 24  12  15  1   
 25  12  28  1   
 26  13  29  1   
 27  14  16  1   
 28  14  30  1   
 29  14  31  1   
 30  15  17  1   
 31  15  32  1   
 32  15  33  1   
 33  16  18  1   
 34  16  34  1   
 35  16  35  1   
 36  17  18  1   
 37  17  36  1   
 38  17  37  1   
 39  18  38  1   
 40  18  39  1   
@<TRIPOS>SUBSTRUCTURE
  1 ****   9 GROUP 4 **** **** 0

# MOE 2024.06 (io_trps.svl 2023.06)
