@<TRIPOS>MOLECULE
NONAME
52 53 1 0 0 
SMALL
USER_CHARGES


@<TRIPOS>ATOM
  1 S       -0.2860     0.4800     0.5500 S.3   1 <1>  -0.0800 
  2 C        0.3820    -1.1150     0.3290 C.2   1 <1>   0.1040 
  3 C        1.2490     1.2840     0.2160 C.2   1 <1>  -0.0450 
  4 N       -0.4160    -2.2360     0.4580 N.am  1 <1>  -0.4940 
  5 C        1.7150    -1.0420     0.0150 C.2   1 <1>  -0.0860 
  6 C        2.1760     0.3220    -0.0830 C.2   1 <1>  -0.1810 
  7 C        1.2300     2.7170     0.3190 C.2   1 <1>   0.5940 
  8 C       -1.7160    -2.4080     0.8700 C.2   1 <1>   0.5690 
  9 C        2.4950    -2.2450    -0.1750 C.2   1 <1>   0.8060 
 10 C        3.5970     0.6430    -0.5420 C.3   1 <1>  -0.0590 
 11 O        0.2400     3.3860     0.1500 O.2   1 <1>  -0.5700 
 12 C        2.4830     3.4800     0.6880 C.3   1 <1>  -0.1790 
 13 O       -2.3990    -1.5380     1.3510 O.2   1 <1>  -0.5700 
 14 C       -2.3710    -3.7880     0.7010 C.3   1 <1>   0.4040 
 15 O        1.9750    -3.3410    -0.3190 O.2   1 <1>  -0.5700 
 16 O        3.8290    -2.1800    -0.1630 O.3   1 <1>  -0.4300 
 17 N       -3.8770    -3.7170     0.5840 N.4   1 <1>  -0.9590 
 18 C        4.6380    -3.3250    -0.3210 C.3   1 <1>   0.1200 
 19 C       -4.5350    -5.0400     0.7680 C.3   1 <1>   0.3430 
 20 C       -4.3020    -3.0250    -0.6700 C.3   1 <1>   0.3430 
 21 C        6.0960    -2.8800    -0.2800 C.3   1 <1>  -0.2400 
 22 C       -6.0520    -4.8600     0.8000 C.3   1 <1>  -0.1600 
 23 C       -5.8160    -2.8220    -0.6560 C.3   1 <1>  -0.1600 
 24 C       -6.5670    -4.1470    -0.4590 C.3   1 <1>  -0.0800 
 25 C       -8.0760    -3.9020    -0.3610 C.3   1 <1>  -0.2400 
 26 H        0.0960    -3.0890     0.1960 H     1 <1>   0.3700 
 27 H        3.8490     0.0560    -1.4070 H     1 <1>   0.0800 
 28 H        3.7020     1.6710    -0.8300 H     1 <1>   0.0800 
 29 H        4.3010     0.4290     0.2420 H     1 <1>   0.0800 
 30 H        2.2190     4.3140     1.3120 H     1 <1>   0.0800 
 31 H        3.1640     2.8530     1.2320 H     1 <1>   0.0800 
 32 H        2.9550     3.8530    -0.2010 H     1 <1>   0.0800 
 33 H       -2.1090    -4.3780     1.5620 H     1 <1>   0.0800 
 34 H       -1.9630    -4.2660    -0.1720 H     1 <1>   0.0800 
 35 H       -4.1770    -3.0880     1.3500 H     1 <1>   0.4500 
 36 H        4.4030    -3.7850    -1.2670 H     1 <1>   0.0800 
 37 H        4.4220    -4.0120     0.4800 H     1 <1>   0.0800 
 38 H       -4.2100    -5.4920     1.6920 H     1 <1>   0.0800 
 39 H       -4.2690    -5.6960    -0.0450 H     1 <1>   0.0800 
 40 H       -4.0250    -3.6160    -1.5280 H     1 <1>   0.0800 
 41 H       -3.8180    -2.0630    -0.7440 H     1 <1>   0.0800 
 42 H        6.2990    -2.1910    -1.0800 H     1 <1>   0.0800 
 43 H        6.7390    -3.7350    -0.3960 H     1 <1>   0.0800 
 44 H        6.3170    -2.4140     0.6640 H     1 <1>   0.0800 
 45 H       -6.3240    -4.3030     1.6800 H     1 <1>   0.0800 
 46 H       -6.5150    -5.8290     0.8770 H     1 <1>   0.0800 
 47 H       -6.1140    -2.3760    -1.5890 H     1 <1>   0.0800 
 48 H       -6.0710    -2.1280     0.1260 H     1 <1>   0.0800 
 49 H       -6.3840    -4.7790    -1.3140 H     1 <1>   0.0800 
 50 H       -8.3130    -3.2730     0.4800 H     1 <1>   0.0800 
 51 H       -8.6020    -4.8350    -0.2470 H     1 <1>   0.0800 
 52 H       -8.4380    -3.4240    -1.2550 H     1 <1>   0.0800 
@<TRIPOS>BOND
  1   1   2  1   
  2   1   3  1   
  3   2   4  1   
  4   2   5  2   
  5   3   6  2   
  6   3   7  1   
  7   4   8  am  
  8   4  26  1   
  9   5   6  1   
 10   5   9  1   
 11   6  10  1   
 12   7  11  2   
 13   7  12  1   
 14   8  13  2   
 15   8  14  1   
 16   9  15  2   
 17   9  16  1   
 18  10  27  1   
 19  10  28  1   
 20  10  29  1   
 21  12  30  1   
 22  12  31  1   
 23  12  32  1   
 24  14  17  1   
 25  14  33  1   
 26  14  34  1   
 27  16  18  1   
 28  17  19  1   
 29  17  20  1   
 30  17  35  1   
 31  18  21  1   
 32  18  36  1   
 33  18  37  1   
 34  19  22  1   
 35  19  38  1   
 36  19  39  1   
 37  20  23  1   
 38  20  40  1   
 39  20  41  1   
 40  21  42  1   
 41  21  43  1   
 42  21  44  1   
 43  22  24  1   
 44  22  45  1   
 45  22  46  1   
 46  23  24  1   
 47  23  47  1   
 48  23  48  1   
 49  24  25  1   
 50  24  49  1   
 51  25  50  1   
 52  25  51  1   
 53  25  52  1   
@<TRIPOS>SUBSTRUCTURE
  1 ****   4 GROUP 4 **** **** 0

# MOE 2024.06 (io_trps.svl 2023.06)
