@<TRIPOS>MOLECULE
NONAME
52 53 1 0 0 
SMALL
USER_CHARGES


@<TRIPOS>ATOM
  1 S       -0.2880     0.4020    -0.7120 S.3   1 <1>  -0.0800 
  2 C        0.3740    -1.1900    -0.4350 C.2   1 <1>   0.1040 
  3 C        1.2690     1.1700    -0.4720 C.2   1 <1>  -0.1400 
  4 N       -0.4540    -2.3050    -0.4670 N.am  1 <1>  -0.4940 
  5 C        1.7200    -1.1230    -0.1910 C.2   1 <1>  -0.0860 
  6 C        2.2150     0.2490    -0.1750 C.2   1 <1>  -0.1810 
  7 C        1.2090     2.6800    -0.6370 C.3   1 <1>  -0.0600 
  8 C       -1.7700    -2.4860    -0.8180 C.2   1 <1>   0.5690 
  9 C        2.4940    -2.3280     0.0040 C.2   1 <1>   0.8060 
 10 C        3.6840     0.5150     0.1860 C.3   1 <1>   0.0210 
 11 O       -2.4570    -1.6210    -1.3050 O.2   1 <1>  -0.5700 
 12 C       -2.3760    -3.8790    -0.5620 C.3   1 <1>   0.1710 
 13 O        1.9800    -3.3930     0.3120 O.2   1 <1>  -0.5700 
 14 O        3.8180    -2.3140    -0.1920 O.3   1 <1>  -0.4300 
 15 C        4.0630     1.9470     0.5720 C.3   1 <1>  -0.2400 
 16 N       -3.8350    -3.9080    -0.2420 N.3   1 <1>  -0.8100 
 17 C        4.6170    -3.4730    -0.0480 C.3   1 <1>   0.0400 
 18 C       -4.3850    -5.2740    -0.1120 C.3   1 <1>   0.1100 
 19 C       -4.1980    -3.0720     0.9310 C.3   1 <1>   0.1100 
 20 C       -5.9160    -5.2590     0.1360 C.3   1 <1>   0.3430 
 21 C       -5.7290    -3.0190     1.1530 C.3   1 <1>   0.3430 
 22 N       -6.4540    -3.8570     0.1360 N.4   1 <1>  -0.9590 
 23 C       -7.9320    -3.7930     0.2080 C.3   1 <1>   0.3430 
 24 C       -8.4080    -2.4020    -0.1920 C.3   1 <1>  -0.2400 
 25 H        0.0360    -3.1550    -0.1680 H     1 <1>   0.3700 
 26 H        0.4520     2.9390    -1.3550 H     1 <1>   0.0800 
 27 H        2.1360     3.0750    -0.9970 H     1 <1>   0.0800 
 28 H        0.9600     3.1400     0.3020 H     1 <1>   0.0800 
 29 H        4.3100     0.2020    -0.6310 H     1 <1>   0.0800 
 30 H        3.9270    -0.0960     1.0380 H     1 <1>   0.0800 
 31 H       -1.8340    -4.3460     0.2410 H     1 <1>   0.0800 
 32 H       -2.2110    -4.4600    -1.4520 H     1 <1>   0.0800 
 33 H        4.1110     2.5740    -0.2980 H     1 <1>   0.0800 
 34 H        5.0360     1.9510     1.0280 H     1 <1>   0.0800 
 35 H        3.3570     2.3480     1.2770 H     1 <1>   0.0800 
 36 H        5.6400    -3.2090    -0.2480 H     1 <1>   0.0800 
 37 H        4.2830    -4.2170    -0.7500 H     1 <1>   0.0800 
 38 H        4.5200    -3.8410     0.9590 H     1 <1>   0.0800 
 39 H       -3.8980    -5.7920     0.6980 H     1 <1>   0.0800 
 40 H       -4.1860    -5.8240    -1.0160 H     1 <1>   0.0800 
 41 H       -3.8490    -2.0630     0.7850 H     1 <1>   0.0800 
 42 H       -3.7200    -3.4530     1.8170 H     1 <1>   0.0800 
 43 H       -6.1270    -5.7330     1.0790 H     1 <1>   0.0800 
 44 H       -6.3970    -5.8360    -0.6370 H     1 <1>   0.0800 
 45 H       -6.0480    -1.9930     1.0770 H     1 <1>   0.0800 
 46 H       -5.9580    -3.3630     2.1480 H     1 <1>   0.0800 
 47 H       -6.1260    -3.4680    -0.7650 H     1 <1>   0.4500 
 48 H       -8.2680    -4.0300     1.2050 H     1 <1>   0.0800 
 49 H       -8.3580    -4.5140    -0.4730 H     1 <1>   0.0800 
 50 H       -8.0950    -1.6590     0.5190 H     1 <1>   0.0800 
 51 H       -9.4830    -2.3920    -0.2220 H     1 <1>   0.0800 
 52 H       -8.0460    -2.1410    -1.1710 H     1 <1>   0.0800 
@<TRIPOS>BOND
  1   1   2  1   
  2   1   3  1   
  3   2   4  1   
  4   2   5  2   
  5   3   6  2   
  6   3   7  1   
  7   4   8  am  
  8   4  25  1   
  9   5   6  1   
 10   5   9  1   
 11   6  10  1   
 12   7  26  1   
 13   7  27  1   
 14   7  28  1   
 15   8  11  2   
 16   8  12  1   
 17   9  13  2   
 18   9  14  1   
 19  10  15  1   
 20  10  29  1   
 21  10  30  1   
 22  12  16  1   
 23  12  31  1   
 24  12  32  1   
 25  14  17  1   
 26  15  33  1   
 27  15  34  1   
 28  15  35  1   
 29  16  18  1   
 30  16  19  1   
 31  17  36  1   
 32  17  37  1   
 33  17  38  1   
 34  18  20  1   
 35  18  39  1   
 36  18  40  1   
 37  19  21  1   
 38  19  41  1   
 39  19  42  1   
 40  20  22  1   
 41  20  43  1   
 42  20  44  1   
 43  21  22  1   
 44  21  45  1   
 45  21  46  1   
 46  22  23  1   
 47  22  47  1   
 48  23  24  1   
 49  23  48  1   
 50  23  49  1   
 51  24  50  1   
 52  24  51  1   
 53  24  52  1   
@<TRIPOS>SUBSTRUCTURE
  1 ****   4 GROUP 4 **** **** 0

# MOE 2024.06 (io_trps.svl 2023.06)
