@<TRIPOS>MOLECULE
NONAME
42 43 1 0 0 
SMALL
USER_CHARGES


@<TRIPOS>ATOM
  1 CL      -0.3860     2.8460    -3.9110 Cl    1 <1>  -0.1770 
  2 C        0.0260     3.4290    -2.3140 C.ar  1 <1>   0.1770 
  3 C       -0.7790     3.1270    -1.2230 C.ar  1 <1>   0.0820 
  4 C        1.1790     4.1810    -2.1790 C.ar  1 <1>  -0.1500 
  5 O       -1.8860     2.3650    -1.4030 O.3   1 <1>  -0.3630 
  6 C       -0.4140     3.6230     0.0350 C.ar  1 <1>   0.0820 
  7 C        1.5520     4.6510    -0.9280 C.ar  1 <1>  -0.1440 
  8 C       -1.7120     0.9780    -1.2250 C.3   1 <1>   0.0400 
  9 O       -1.1190     3.4240     1.1790 O.3   1 <1>  -0.3630 
 10 C        0.7480     4.3680     0.1680 C.ar  1 <1>  -0.1500 
 11 C        2.8200     5.4570    -0.7510 C.3   1 <1>   0.4860 
 12 C       -2.5280     3.5390     1.1600 C.3   1 <1>   0.0400 
 13 N        3.8800     4.5010    -0.3820 N.4   1 <1>  -0.9060 
 14 C        5.1990     5.1070    -0.1230 C.3   1 <1>   0.4860 
 15 C        6.1240     3.9610     0.2040 C.ar  1 <1>  -0.1430 
 16 C        6.2560     3.5190     1.5120 C.ar  1 <1>  -0.1500 
 17 C        6.8410     3.3320    -0.8040 C.ar  1 <1>  -0.1500 
 18 C        7.0870     2.4530     1.8050 C.ar  1 <1>  -0.1500 
 19 C        7.6710     2.2670    -0.5060 C.ar  1 <1>  -0.1500 
 20 C        7.7950     1.8200     0.7990 C.ar  1 <1>  -0.1430 
 21 C        8.7090     0.6510     1.1240 C.3   1 <1>  -0.0970 
 22 H        1.7620     4.3830    -3.0610 H     1 <1>   0.1500 
 23 H       -2.6620     0.4970    -1.3760 H     1 <1>   0.0800 
 24 H       -1.3610     0.7960    -0.2240 H     1 <1>   0.0800 
 25 H       -1.0000     0.6190    -1.9470 H     1 <1>   0.0800 
 26 H        0.9980     4.7260     1.1520 H     1 <1>   0.1500 
 27 H        2.6810     6.1900     0.0290 H     1 <1>   0.0800 
 28 H        3.0670     5.9650    -1.6690 H     1 <1>   0.0800 
 29 H       -2.8610     3.7580     2.1580 H     1 <1>   0.0800 
 30 H       -2.9530     2.6070     0.8360 H     1 <1>   0.0800 
 31 H       -2.8110     4.3350     0.4940 H     1 <1>   0.0800 
 32 H        3.9830     3.7940    -1.1180 H     1 <1>   0.4500 
 33 H        3.5910     3.9720     0.4490 H     1 <1>   0.4500 
 34 H        5.1500     5.7910     0.7090 H     1 <1>   0.0800 
 35 H        5.5570     5.6330    -0.9930 H     1 <1>   0.0800 
 36 H        5.7230     3.9920     2.3200 H     1 <1>   0.1500 
 37 H        6.7700     3.6570    -1.8280 H     1 <1>   0.1500 
 38 H        7.1860     2.1160     2.8240 H     1 <1>   0.1500 
 39 H        8.2270     1.7840    -1.2920 H     1 <1>   0.1500 
 40 H        8.3410     0.1090     1.9760 H     1 <1>   0.0800 
 41 H        9.6980     1.0120     1.3440 H     1 <1>   0.0800 
 42 H        8.7660    -0.0270     0.2910 H     1 <1>   0.0800 
@<TRIPOS>BOND
  1   1   2  1   
  2   2   3  ar  
  3   2   4  ar  
  4   3   5  1   
  5   3   6  ar  
  6   4   7  ar  
  7   4  22  1   
  8   5   8  1   
  9   6   9  1   
 10   6  10  ar  
 11   7  10  ar  
 12   7  11  1   
 13   8  23  1   
 14   8  24  1   
 15   8  25  1   
 16   9  12  1   
 17  10  26  1   
 18  11  13  1   
 19  11  27  1   
 20  11  28  1   
 21  12  29  1   
 22  12  30  1   
 23  12  31  1   
 24  13  14  1   
 25  13  32  1   
 26  13  33  1   
 27  14  15  1   
 28  14  34  1   
 29  14  35  1   
 30  15  16  ar  
 31  15  17  ar  
 32  16  18  ar  
 33  16  36  1   
 34  17  19  ar  
 35  17  37  1   
 36  18  20  ar  
 37  18  38  1   
 38  19  20  ar  
 39  19  39  1   
 40  20  21  1   
 41  21  40  1   
 42  21  41  1   
 43  21  42  1   
@<TRIPOS>SUBSTRUCTURE
  1 ****  13 GROUP 4 **** **** 0

# MOE 2024.06 (io_trps.svl 2023.06)
