@<TRIPOS>MOLECULE
NONAME
39 40 1 0 0 
SMALL
USER_CHARGES


@<TRIPOS>ATOM
  1 CL       2.3920     0.2650     2.1350 Cl    1 <1>  -0.1770 
  2 C        2.5560    -1.2700     1.3270 C.ar  1 <1>   0.1770 
  3 C        2.1550    -1.3930     0.0110 C.ar  1 <1>  -0.1500 
  4 C        3.0940    -2.3410     2.0130 C.ar  1 <1>  -0.1500 
  5 C        2.3050    -2.6100    -0.6330 C.ar  1 <1>  -0.1500 
  6 C        3.2460    -3.5540     1.3630 C.ar  1 <1>  -0.1500 
  7 C        2.8590    -3.6980     0.0320 C.ar  1 <1>  -0.1430 
  8 C        3.0580    -5.0140    -0.7240 C.3   1 <1>   0.5940 
  9 S        2.6400    -6.4220     0.3270 S.3   1 <1>  -0.4600 
 10 N        4.4930    -5.1940    -1.0340 N.am  1 <1>  -0.6600 
 11 C        4.2890    -7.1520     0.4130 C.3   1 <1>   0.1310 
 12 C        5.1510    -6.1950    -0.3790 C.2   1 <1>   0.5690 
 13 C        5.0710    -4.3250    -2.1010 C.3   1 <1>   0.1400 
 14 O        6.3550    -6.3040    -0.3680 O.2   1 <1>  -0.5700 
 15 C        6.3450    -3.6000    -1.6500 C.3   1 <1>  -0.1600 
 16 C        6.1950    -2.9940    -0.2520 C.3   1 <1>   0.3430 
 17 N        7.5310    -2.7150     0.3450 N.4   1 <1>  -0.9590 
 18 C        8.1740    -3.9900     0.8090 C.3   1 <1>   0.2630 
 19 C        7.4030    -1.7520     1.4790 C.3   1 <1>   0.2630 
 20 H        1.7270    -0.5460    -0.4960 H     1 <1>   0.1500 
 21 H        3.3800    -2.2240     3.0430 H     1 <1>   0.1500 
 22 H        1.9840    -2.6990    -1.6580 H     1 <1>   0.1500 
 23 H        3.6610    -4.3860     1.9060 H     1 <1>   0.1500 
 24 H        2.4470    -5.0800    -1.6090 H     1 <1>   0.0800 
 25 H        4.2540    -8.1250    -0.0410 H     1 <1>   0.0800 
 26 H        4.5860    -7.2070     1.4440 H     1 <1>   0.0800 
 27 H        4.3400    -3.5930    -2.4020 H     1 <1>   0.0800 
 28 H        5.2930    -4.9330    -2.9630 H     1 <1>   0.0800 
 29 H        6.5690    -2.8220    -2.3570 H     1 <1>   0.0800 
 30 H        7.1510    -4.3080    -1.6850 H     1 <1>   0.0800 
 31 H        5.6660    -3.6800     0.3890 H     1 <1>   0.0800 
 32 H        5.6130    -2.0880    -0.3180 H     1 <1>   0.0800 
 33 H        8.1250    -2.2930    -0.3850 H     1 <1>   0.4500 
 34 H        7.5610    -4.4670     1.5560 H     1 <1>   0.0800 
 35 H        9.1450    -3.7900     1.2310 H     1 <1>   0.0800 
 36 H        8.2930    -4.6780    -0.0130 H     1 <1>   0.0800 
 37 H        6.7780    -2.1670     2.2540 H     1 <1>   0.0800 
 38 H        6.9610    -0.8290     1.1390 H     1 <1>   0.0800 
 39 H        8.3730    -1.5350     1.8970 H     1 <1>   0.0800 
@<TRIPOS>BOND
  1   1   2  1   
  2   2   3  ar  
  3   2   4  ar  
  4   3   5  ar  
  5   3  20  1   
  6   4   6  ar  
  7   4  21  1   
  8   5   7  ar  
  9   5  22  1   
 10   6   7  ar  
 11   6  23  1   
 12   7   8  1   
 13   8   9  1   
 14   8  10  1   
 15   8  24  1   
 16   9  11  1   
 17  10  12  am  
 18  10  13  1   
 19  11  12  1   
 20  11  25  1   
 21  11  26  1   
 22  12  14  2   
 23  13  15  1   
 24  13  27  1   
 25  13  28  1   
 26  15  16  1   
 27  15  29  1   
 28  15  30  1   
 29  16  17  1   
 30  16  31  1   
 31  16  32  1   
 32  17  18  1   
 33  17  19  1   
 34  17  33  1   
 35  18  34  1   
 36  18  35  1   
 37  18  36  1   
 38  19  37  1   
 39  19  38  1   
 40  19  39  1   
@<TRIPOS>SUBSTRUCTURE
  1 ****   7 GROUP 4 **** **** 0

# MOE 2024.06 (io_trps.svl 2023.06)
