@<TRIPOS>MOLECULE
NONAME
40 42 1 0 0 
SMALL
USER_CHARGES


@<TRIPOS>ATOM
  1 F       -0.2190     0.6280     1.0530 F     1 <1>  -0.1900 
  2 C       -0.2110     1.8680     0.6470 C.ar  1 <1>   0.1900 
  3 C        0.3390     2.1630    -0.5840 C.ar  1 <1>  -0.1500 
  4 C       -0.7550     2.8400     1.4620 C.ar  1 <1>  -0.1500 
  5 C        0.3480     3.4810    -1.0110 C.ar  1 <1>  -0.1500 
  6 C       -0.7420     4.1550     1.0280 C.ar  1 <1>  -0.1500 
  7 C       -0.1870     4.4850    -0.2080 C.ar  1 <1>  -0.1430 
  8 C       -0.1450     5.9280    -0.6910 C.3   1 <1>   0.7100 
  9 N        0.9840     6.5430     0.0250 N.4   1 <1>  -0.9060 
 10 C       -1.4390     6.7030    -0.4300 C.ar  1 <1>  -0.1430 
 11 C        1.0800     8.0080    -0.1990 C.3   1 <1>   0.3430 
 12 C       -1.4340     7.9940     0.0860 C.ar  1 <1>  -0.1430 
 13 C       -2.6560     6.1120    -0.7350 C.ar  1 <1>  -0.1500 
 14 C       -0.1300     8.7020     0.4280 C.3   1 <1>  -0.0170 
 15 C       -2.6320     8.6580     0.3010 C.ar  1 <1>  -0.1500 
 16 C       -3.8600     6.7620    -0.5280 C.ar  1 <1>   0.0830 
 17 C       -3.8560     8.0630     0.0030 C.ar  1 <1>   0.0830 
 18 O       -4.9480     6.0180    -0.8840 O.3   1 <1>  -0.3630 
 19 O       -5.0290     8.7250     0.2210 O.3   1 <1>  -0.3620 
 20 C       -6.2790     6.4650    -0.7630 C.3   1 <1>   0.0400 
 21 C       -5.0890    10.0390     0.7350 C.3   1 <1>   0.0400 
 22 H        0.7470     1.3720    -1.1900 H     1 <1>   0.1500 
 23 H       -1.1820     2.5660     2.4110 H     1 <1>   0.1500 
 24 H        0.7740     3.7030    -1.9760 H     1 <1>   0.1500 
 25 H       -1.1810     4.9080     1.6640 H     1 <1>   0.1500 
 26 H        0.0480     5.9420    -1.7520 H     1 <1>   0.0800 
 27 H        1.8380     6.0450    -0.2400 H     1 <1>   0.4500 
 28 H        0.8120     6.3450     1.0150 H     1 <1>   0.4500 
 29 H        1.1010     8.2140    -1.2570 H     1 <1>   0.0800 
 30 H        1.9850     8.3970     0.2410 H     1 <1>   0.0800 
 31 H       -2.7000     5.1170    -1.1450 H     1 <1>   0.1500 
 32 H       -0.1660     9.7200     0.0780 H     1 <1>   0.0800 
 33 H       -0.0130     8.7330     1.4980 H     1 <1>   0.0800 
 34 H       -2.5960     9.6510     0.7060 H     1 <1>   0.1500 
 35 H       -6.9290     5.6830    -1.1140 H     1 <1>   0.0800 
 36 H       -6.4090     7.3450    -1.3670 H     1 <1>   0.0800 
 37 H       -6.4850     6.6740     0.2710 H     1 <1>   0.0800 
 38 H       -6.1240    10.3230     0.8010 H     1 <1>   0.0800 
 39 H       -4.5730    10.7020     0.0640 H     1 <1>   0.0800 
 40 H       -4.6460    10.0530     1.7150 H     1 <1>   0.0800 
@<TRIPOS>BOND
  1   1   2  1   
  2   2   3  ar  
  3   2   4  ar  
  4   3   5  ar  
  5   3  22  1   
  6   4   6  ar  
  7   4  23  1   
  8   5   7  ar  
  9   5  24  1   
 10   6   7  ar  
 11   6  25  1   
 12   7   8  1   
 13   8   9  1   
 14   8  10  1   
 15   8  26  1   
 16   9  11  1   
 17   9  27  1   
 18   9  28  1   
 19  10  12  ar  
 20  10  13  ar  
 21  11  14  1   
 22  11  29  1   
 23  11  30  1   
 24  12  14  1   
 25  12  15  ar  
 26  13  16  ar  
 27  13  31  1   
 28  14  32  1   
 29  14  33  1   
 30  15  17  ar  
 31  15  34  1   
 32  16  17  ar  
 33  16  18  1   
 34  17  19  1   
 35  18  20  1   
 36  19  21  1   
 37  20  35  1   
 38  20  36  1   
 39  20  37  1   
 40  21  38  1   
 41  21  39  1   
 42  21  40  1   
@<TRIPOS>SUBSTRUCTURE
  1 ****  10 GROUP 4 **** **** 0

# MOE 2024.06 (io_trps.svl 2023.06)
