@<TRIPOS>MOLECULE
NONAME
48 50 1 0 0 
SMALL
USER_CHARGES


@<TRIPOS>ATOM
  1 S        0.6330    -0.1850    -1.5430 S.2   1 <1>  -0.3800 
  2 C        1.0900    -1.1150    -0.2960 C.2   1 <1>   0.5900 
  3 O        2.1870    -0.7970     0.3760 O.3   1 <1>  -0.2330 
  4 N        0.3990    -2.2200     0.0770 N.am  1 <1>  -0.6600 
  5 C        2.8990     0.3560     0.3280 C.ar  1 <1>   0.0830 
  6 C       -0.8430    -2.7130    -0.6010 C.3   1 <1>   0.1400 
  7 C        0.7930    -3.0920     1.2270 C.3   1 <1>   0.1400 
  8 C        4.2580     0.2850     0.0790 C.ar  1 <1>  -0.1500 
  9 C        2.2920     1.5830     0.5510 C.ar  1 <1>  -0.1500 
 10 C       -0.7290    -4.2130    -0.9210 C.3   1 <1>   0.1200 
 11 C        0.8220    -4.5700     0.8040 C.3   1 <1>   0.1200 
 12 C        5.0510     1.4340     0.0450 C.ar  1 <1>   0.0860 
 13 C        3.0540     2.7360     0.5110 C.ar  1 <1>  -0.1500 
 14 O       -0.3970    -4.9410     0.2280 O.3   1 <1>  -0.5600 
 15 C        6.4830     1.3790    -0.1990 C.2   1 <1>   0.5440 
 16 C        4.4120     2.6570     0.2590 C.ar  1 <1>  -0.1500 
 17 O        7.0480     2.3150    -0.7280 O.2   1 <1>  -0.5700 
 18 N        7.1910     0.2610     0.1790 N.am  1 <1>  -0.5470 
 19 C        8.5480    -0.0830     0.0480 C.ar  1 <1>   0.1170 
 20 C        8.9210    -1.4270    -0.0760 C.ar  1 <1>  -0.1430 
 21 C        9.5380     0.8930     0.0770 C.ar  1 <1>  -0.1500 
 22 C       10.2710    -1.7690    -0.1530 C.ar  1 <1>  -0.1430 
 23 C        7.8310    -2.5020    -0.1300 C.3   1 <1>  -0.0970 
 24 C       10.8720     0.5540    -0.0130 C.ar  1 <1>  -0.1500 
 25 C       11.2350    -0.7730    -0.1240 C.ar  1 <1>  -0.1500 
 26 C       10.7510    -3.2110    -0.2680 C.3   1 <1>  -0.0970 
 27 H       -1.0320    -2.1800    -1.5140 H     1 <1>   0.0800 
 28 H       -1.6850    -2.5570     0.0500 H     1 <1>   0.0800 
 29 H        0.0790    -2.9700     2.0230 H     1 <1>   0.0800 
 30 H        1.7600    -2.8170     1.6080 H     1 <1>   0.0800 
 31 H        4.6920    -0.6800    -0.1020 H     1 <1>   0.1500 
 32 H        1.2360     1.6380     0.7510 H     1 <1>   0.1500 
 33 H        0.0250    -4.3840    -1.6690 H     1 <1>   0.0800 
 34 H       -1.6690    -4.5870    -1.2860 H     1 <1>   0.0800 
 35 H        0.9830    -5.2000     1.6610 H     1 <1>   0.0800 
 36 H        1.6090    -4.7470     0.0910 H     1 <1>   0.0800 
 37 H        2.5900     3.6940     0.6730 H     1 <1>   0.1500 
 38 H        4.9970     3.5610     0.2250 H     1 <1>   0.1500 
 39 H        6.6330    -0.4680     0.6120 H     1 <1>   0.3700 
 40 H        9.2690     1.9280     0.1750 H     1 <1>   0.1500 
 41 H        7.0300    -2.1900    -0.7760 H     1 <1>   0.0800 
 42 H        7.4430    -2.6750     0.8570 H     1 <1>   0.0800 
 43 H        8.1930    -3.4340    -0.5190 H     1 <1>   0.0800 
 44 H       11.6250     1.3220     0.0070 H     1 <1>   0.1500 
 45 H       12.2790    -1.0220    -0.1890 H     1 <1>   0.1500 
 46 H       10.3240    -3.8070     0.5180 H     1 <1>   0.0800 
 47 H       11.8210    -3.2710    -0.1850 H     1 <1>   0.0800 
 48 H       10.4640    -3.6180    -1.2200 H     1 <1>   0.0800 
@<TRIPOS>BOND
  1   1   2  2   
  2   2   3  1   
  3   2   4  am  
  4   3   5  1   
  5   4   6  1   
  6   4   7  1   
  7   5   8  ar  
  8   5   9  ar  
  9   6  10  1   
 10   6  27  1   
 11   6  28  1   
 12   7  11  1   
 13   7  29  1   
 14   7  30  1   
 15   8  12  ar  
 16   8  31  1   
 17   9  13  ar  
 18   9  32  1   
 19  10  14  1   
 20  10  33  1   
 21  10  34  1   
 22  11  14  1   
 23  11  35  1   
 24  11  36  1   
 25  12  15  1   
 26  12  16  ar  
 27  13  16  ar  
 28  13  37  1   
 29  15  17  2   
 30  15  18  am  
 31  16  38  1   
 32  18  19  1   
 33  18  39  1   
 34  19  20  ar  
 35  19  21  ar  
 36  20  22  ar  
 37  20  23  1   
 38  21  24  ar  
 39  21  40  1   
 40  22  25  ar  
 41  22  26  1   
 42  23  41  1   
 43  23  42  1   
 44  23  43  1   
 45  24  25  ar  
 46  24  44  1   
 47  25  45  1   
 48  26  46  1   
 49  26  47  1   
 50  26  48  1   
@<TRIPOS>SUBSTRUCTURE
  1 ****   8 GROUP 4 **** **** 0

# MOE 2024.06 (io_trps.svl 2023.06)
