@<TRIPOS>MOLECULE
NONAME
47 47 1 0 0 
SMALL
USER_CHARGES


@<TRIPOS>ATOM
  1 S        0.4690     0.1710     0.6200 S.3   1 <1>  -0.4600 
  2 C       -1.1770     0.6580     1.2070 C.3   1 <1>   0.2140 
  3 C        1.6020     1.1140     1.7100 C.3   1 <1>   0.1310 
  4 C       -2.2180    -0.0680     0.3730 C.ar  1 <1>  -0.1440 
  5 C        3.0680     0.8420     1.3990 C.2   1 <1>   0.5690 
  6 C       -2.4930    -1.4060     0.6090 C.ar  1 <1>  -0.1500 
  7 C       -2.9080     0.5980    -0.6280 C.ar  1 <1>  -0.1500 
  8 O        3.9060     1.3460     2.1080 O.2   1 <1>  -0.5700 
  9 N        3.3900     0.0490     0.3460 N.am  1 <1>  -0.7300 
 10 C       -3.4510    -2.0670    -0.1410 C.ar  1 <1>  -0.1500 
 11 C       -3.8660    -0.0630    -1.3770 C.ar  1 <1>  -0.1500 
 12 C        4.7520    -0.3530    -0.0700 C.3   1 <1>   0.2200 
 13 C       -4.1450    -1.3980    -1.1360 C.ar  1 <1>  -0.1430 
 14 C        5.0130     0.1920    -1.5020 C.3   1 <1>  -0.0800 
 15 C        4.9390    -1.8990     0.0610 C.3   1 <1>  -0.0800 
 16 C       -5.1940    -2.1250    -1.9580 C.3   1 <1>  -0.0970 
 17 C        6.4290    -0.1190    -2.0180 C.3   1 <1>  -0.2400 
 18 C        4.8050     1.7160    -1.5850 C.3   1 <1>  -0.2400 
 19 C        3.8740    -2.6230     0.9110 C.3   1 <1>  -0.2400 
 20 C        6.3150    -2.2270     0.6680 C.3   1 <1>  -0.2400 
 21 H       -1.2570     1.7250     1.1010 H     1 <1>   0.0800 
 22 H       -1.2470     0.3810     2.2440 H     1 <1>   0.0800 
 23 H        1.3860     0.8270     2.7220 H     1 <1>   0.0800 
 24 H        1.3890     2.1570     1.5710 H     1 <1>   0.0800 
 25 H       -1.9590    -1.9390     1.3750 H     1 <1>   0.1500 
 26 H       -2.7030     1.6340    -0.8320 H     1 <1>   0.1500 
 27 H        2.6210    -0.3620    -0.1900 H     1 <1>   0.3700 
 28 H       -3.6520    -3.1050     0.0540 H     1 <1>   0.1500 
 29 H       -4.3930     0.4660    -2.1510 H     1 <1>   0.1500 
 30 H        5.4500     0.1270     0.5970 H     1 <1>   0.0800 
 31 H        4.3120    -0.2780    -2.1720 H     1 <1>   0.0800 
 32 H        4.8990    -2.3310    -0.9240 H     1 <1>   0.0800 
 33 H       -4.7290    -2.5890    -2.8100 H     1 <1>   0.0800 
 34 H       -5.9450    -1.4370    -2.3030 H     1 <1>   0.0800 
 35 H       -5.6750    -2.8830    -1.3670 H     1 <1>   0.0800 
 36 H        7.1700     0.2820    -1.3490 H     1 <1>   0.0800 
 37 H        6.5780     0.3170    -2.9900 H     1 <1>   0.0800 
 38 H        6.5820    -1.1780    -2.1150 H     1 <1>   0.0800 
 39 H        5.4410     2.2200    -0.8790 H     1 <1>   0.0800 
 40 H        3.7850     1.9780    -1.3700 H     1 <1>   0.0800 
 41 H        5.0320     2.0780    -2.5730 H     1 <1>   0.0800 
 42 H        3.8400    -2.2090     1.9050 H     1 <1>   0.0800 
 43 H        4.1020    -3.6710     0.9860 H     1 <1>   0.0800 
 44 H        2.9000    -2.5320     0.4640 H     1 <1>   0.0800 
 45 H        6.3740    -1.8570     1.6770 H     1 <1>   0.0800 
 46 H        7.1100    -1.7830     0.1000 H     1 <1>   0.0800 
 47 H        6.4730    -3.2910     0.6850 H     1 <1>   0.0800 
@<TRIPOS>BOND
  1   1   2  1   
  2   1   3  1   
  3   2   4  1   
  4   2  21  1   
  5   2  22  1   
  6   3   5  1   
  7   3  23  1   
  8   3  24  1   
  9   4   6  ar  
 10   4   7  ar  
 11   5   8  2   
 12   5   9  am  
 13   6  10  ar  
 14   6  25  1   
 15   7  11  ar  
 16   7  26  1   
 17   9  12  1   
 18   9  27  1   
 19  10  13  ar  
 20  10  28  1   
 21  11  13  ar  
 22  11  29  1   
 23  12  14  1   
 24  12  15  1   
 25  12  30  1   
 26  13  16  1   
 27  14  17  1   
 28  14  18  1   
 29  14  31  1   
 30  15  19  1   
 31  15  20  1   
 32  15  32  1   
 33  16  33  1   
 34  16  34  1   
 35  16  35  1   
 36  17  36  1   
 37  17  37  1   
 38  17  38  1   
 39  18  39  1   
 40  18  40  1   
 41  18  41  1   
 42  19  42  1   
 43  19  43  1   
 44  19  44  1   
 45  20  45  1   
 46  20  46  1   
 47  20  47  1   
@<TRIPOS>SUBSTRUCTURE
  1 ****   1 GROUP 4 **** **** 0

# MOE 2024.06 (io_trps.svl 2023.06)
