@<TRIPOS>MOLECULE
NONAME
47 49 1 0 0 
SMALL
USER_CHARGES


@<TRIPOS>ATOM
  1 CL      -1.8560     3.9020    -2.2340 Cl    1 <1>  -0.1770 
  2 C       -0.9570     3.5500    -0.7770 C.ar  1 <1>   0.1770 
  3 C       -1.4270     2.5900     0.1070 C.ar  1 <1>  -0.1440 
  4 C        0.2060     4.2540    -0.5300 C.ar  1 <1>  -0.1500 
  5 C       -0.7010     2.3350     1.2630 C.ar  1 <1>  -0.1500 
  6 C       -2.7090     1.8360    -0.1860 C.3   1 <1>   0.4870 
  7 C        0.9200     3.9950     0.6270 C.ar  1 <1>  -0.1500 
  8 C        0.4660     3.0370     1.5190 C.ar  1 <1>  -0.1500 
  9 N       -3.8570     2.7730    -0.0980 N.4   1 <1>  -0.9590 
 10 C       -4.0080     3.3810     1.2750 C.3   1 <1>   0.3430 
 11 C       -5.1480     2.1410    -0.5470 C.3   1 <1>   0.3430 
 12 C       -5.1750     4.3850     1.3410 C.3   1 <1>   0.2090 
 13 C       -6.3270     3.1330    -0.5020 C.3   1 <1>   0.2090 
 14 N       -6.4460     3.7760     0.8410 N.pl3 1 <1>  -0.8380 
 15 C       -7.5680     4.6050     0.9790 C.ar  1 <1>   0.1000 
 16 C       -7.7450     5.8090     0.2720 C.ar  1 <1>   0.0830 
 17 C       -8.5540     4.2020     1.8680 C.ar  1 <1>  -0.1500 
 18 O       -6.7640     6.1980    -0.6030 O.3   1 <1>  -0.3630 
 19 C       -8.8970     6.5640     0.4770 C.ar  1 <1>  -0.1500 
 20 C       -9.6950     4.9580     2.0660 C.ar  1 <1>  -0.1500 
 21 C       -6.8550     7.4070    -1.3190 C.3   1 <1>   0.1200 
 22 C       -9.8660     6.1390     1.3700 C.ar  1 <1>  -0.1500 
 23 C       -5.5990     7.5420    -2.1750 C.3   1 <1>  -0.2400 
 24 H        0.5500     4.9930    -1.2320 H     1 <1>   0.1500 
 25 H       -1.0250     1.5920     1.9720 H     1 <1>   0.1500 
 26 H       -2.8320     1.0300     0.5200 H     1 <1>   0.0800 
 27 H       -2.6510     1.4150    -1.1770 H     1 <1>   0.0800 
 28 H        1.8300     4.5350     0.8330 H     1 <1>   0.1500 
 29 H        1.0300     2.8370     2.4160 H     1 <1>   0.1500 
 30 H       -3.6550     3.5490    -0.7460 H     1 <1>   0.4500 
 31 H       -3.1000     3.8880     1.5570 H     1 <1>   0.0800 
 32 H       -4.1930     2.6040     1.9980 H     1 <1>   0.0800 
 33 H       -5.3870     1.3090     0.0950 H     1 <1>   0.0800 
 34 H       -5.0450     1.7680    -1.5530 H     1 <1>   0.0800 
 35 H       -4.9300     5.2560     0.7610 H     1 <1>   0.0800 
 36 H       -5.3170     4.7010     2.3610 H     1 <1>   0.0800 
 37 H       -7.2420     2.6090    -0.7210 H     1 <1>   0.0800 
 38 H       -6.1910     3.8840    -1.2600 H     1 <1>   0.0800 
 39 H       -8.4210     3.2830     2.4090 H     1 <1>   0.1500 
 40 H       -9.0680     7.4860    -0.0440 H     1 <1>   0.1500 
 41 H      -10.4470     4.6270     2.7610 H     1 <1>   0.1500 
 42 H       -6.9240     8.2180    -0.6150 H     1 <1>   0.0800 
 43 H       -7.7350     7.3730    -1.9390 H     1 <1>   0.0800 
 44 H      -10.7540     6.7290     1.5230 H     1 <1>   0.1500 
 45 H       -4.7250     7.5640    -1.5500 H     1 <1>   0.0800 
 46 H       -5.6410     8.4590    -2.7350 H     1 <1>   0.0800 
 47 H       -5.5320     6.7220    -2.8680 H     1 <1>   0.0800 
@<TRIPOS>BOND
  1   1   2  1   
  2   2   3  ar  
  3   2   4  ar  
  4   3   5  ar  
  5   3   6  1   
  6   4   7  ar  
  7   4  24  1   
  8   5   8  ar  
  9   5  25  1   
 10   6   9  1   
 11   6  26  1   
 12   6  27  1   
 13   7   8  ar  
 14   7  28  1   
 15   8  29  1   
 16   9  10  1   
 17   9  11  1   
 18   9  30  1   
 19  10  12  1   
 20  10  31  1   
 21  10  32  1   
 22  11  13  1   
 23  11  33  1   
 24  11  34  1   
 25  12  14  1   
 26  12  35  1   
 27  12  36  1   
 28  13  14  1   
 29  13  37  1   
 30  13  38  1   
 31  14  15  1   
 32  15  16  ar  
 33  15  17  ar  
 34  16  18  1   
 35  16  19  ar  
 36  17  20  ar  
 37  17  39  1   
 38  18  21  1   
 39  19  22  ar  
 40  19  40  1   
 41  20  22  ar  
 42  20  41  1   
 43  21  23  1   
 44  21  42  1   
 45  21  43  1   
 46  22  44  1   
 47  23  45  1   
 48  23  46  1   
 49  23  47  1   
@<TRIPOS>SUBSTRUCTURE
  1 ****  12 GROUP 4 **** **** 0

# MOE 2024.06 (io_trps.svl 2023.06)
