@<TRIPOS>MOLECULE
NONAME
40 40 1 0 0 
SMALL
USER_CHARGES


@<TRIPOS>ATOM
  1 CL      -0.1430    -0.3140    -0.0200 Cl    1 <1>  -0.1770 
  2 C        1.4870    -0.9590    -0.0050 C.ar  1 <1>   0.1770 
  3 C        1.6700    -2.3350     0.0530 C.ar  1 <1>  -0.1440 
  4 C        2.5640    -0.0820    -0.0500 C.ar  1 <1>  -0.1440 
  5 C        2.9620    -2.8320     0.0640 C.ar  1 <1>  -0.1500 
  6 C        0.4840    -3.2870     0.1020 C.3   1 <1>  -0.0960 
  7 C        3.8500    -0.6000    -0.0370 C.ar  1 <1>  -0.1500 
  8 C        2.3430     1.4230    -0.1120 C.3   1 <1>  -0.0960 
  9 C        4.0530    -1.9770     0.0200 C.ar  1 <1>   0.0830 
 10 O        5.2780    -2.5610     0.0350 O.3   1 <1>  -0.3630 
 11 C        6.4570    -1.7970    -0.0060 C.3   1 <1>   0.1200 
 12 C        7.6280    -2.7810     0.0270 C.3   1 <1>   0.3430 
 13 N        8.9480    -2.0810    -0.0130 N.4   1 <1>  -0.9060 
 14 C       10.0810    -3.0370     0.0200 C.3   1 <1>   0.3430 
 15 C       11.3910    -2.2530    -0.0240 C.3   1 <1>  -0.1600 
 16 C       12.5950    -3.2030     0.0080 C.3   1 <1>  -0.1600 
 17 C       13.9100    -2.4200    -0.0360 C.3   1 <1>  -0.2400 
 18 H        3.1350    -3.8920     0.1080 H     1 <1>   0.1500 
 19 H       -0.1140    -3.0840     0.9730 H     1 <1>   0.0800 
 20 H        0.8100    -4.3100     0.1430 H     1 <1>   0.0800 
 21 H       -0.1270    -3.1590    -0.7740 H     1 <1>   0.0800 
 22 H        4.6760     0.0830    -0.0730 H     1 <1>   0.1500 
 23 H        1.7800     1.6740    -0.9940 H     1 <1>   0.0800 
 24 H        3.2760     1.9550    -0.1420 H     1 <1>   0.0800 
 25 H        1.7930     1.7490     0.7530 H     1 <1>   0.0800 
 26 H        6.4660    -1.1520     0.8550 H     1 <1>   0.0800 
 27 H        6.4520    -1.2280    -0.9190 H     1 <1>   0.0800 
 28 H        7.5440    -3.4440    -0.8200 H     1 <1>   0.0800 
 29 H        7.5570    -3.3690     0.9280 H     1 <1>   0.0800 
 30 H        9.0340    -1.4410     0.7880 H     1 <1>   0.4500 
 31 H        9.0220    -1.5120    -0.8660 H     1 <1>   0.4500 
 32 H       10.0310    -3.7030    -0.8280 H     1 <1>   0.0800 
 33 H       10.0440    -3.6280     0.9210 H     1 <1>   0.0800 
 34 H       11.4490    -1.5930     0.8240 H     1 <1>   0.0800 
 35 H       11.4360    -1.6680    -0.9260 H     1 <1>   0.0800 
 36 H       12.5620    -3.8720    -0.8360 H     1 <1>   0.0800 
 37 H       12.5750    -3.7980     0.9060 H     1 <1>   0.0800 
 38 H       13.9780    -1.8350    -0.9370 H     1 <1>   0.0800 
 39 H       14.7440    -3.1000    -0.0130 H     1 <1>   0.0800 
 40 H       13.9910    -1.7600     0.8110 H     1 <1>   0.0800 
@<TRIPOS>BOND
  1   1   2  1   
  2   2   3  ar  
  3   2   4  ar  
  4   3   5  ar  
  5   3   6  1   
  6   4   7  ar  
  7   4   8  1   
  8   5   9  ar  
  9   5  18  1   
 10   6  19  1   
 11   6  20  1   
 12   6  21  1   
 13   7   9  ar  
 14   7  22  1   
 15   8  23  1   
 16   8  24  1   
 17   8  25  1   
 18   9  10  1   
 19  10  11  1   
 20  11  12  1   
 21  11  26  1   
 22  11  27  1   
 23  12  13  1   
 24  12  28  1   
 25  12  29  1   
 26  13  14  1   
 27  13  30  1   
 28  13  31  1   
 29  14  15  1   
 30  14  32  1   
 31  14  33  1   
 32  15  16  1   
 33  15  34  1   
 34  15  35  1   
 35  16  17  1   
 36  16  36  1   
 37  16  37  1   
 38  17  38  1   
 39  17  39  1   
 40  17  40  1   
@<TRIPOS>SUBSTRUCTURE
  1 ****  10 GROUP 4 **** **** 0

# MOE 2024.06 (io_trps.svl 2023.06)
