@<TRIPOS>MOLECULE
NONAME
36 38 1 0 0 
SMALL
USER_CHARGES


@<TRIPOS>ATOM
  1 O       -0.3390     1.6050    -0.3820 O.3   1 <1>  -0.5600 
  2 C       -0.6540     2.7950     0.2970 C.3   1 <1>   0.1200 
  3 C       -1.4500     0.9740    -0.9610 C.3   1 <1>   0.1200 
  4 C       -1.6590     2.5260     1.4310 C.3   1 <1>   0.2090 
  5 C       -2.5050     0.6120     0.1030 C.3   1 <1>   0.2090 
  6 N       -2.8710     1.8220     0.8940 N.pl3 1 <1>  -0.8380 
  7 C       -4.0400     2.4950     0.6380 C.ar  1 <1>   0.7200 
  8 N       -3.9800     3.7990     0.6290 N.ar  1 <1>  -0.6200 
  9 N       -5.1150     1.7920     0.4010 N.ar  1 <1>  -0.6200 
 10 C       -5.1120     4.3990     0.3760 C.ar  1 <1>   0.7030 
 11 C       -6.1780     2.5110     0.1650 C.ar  1 <1>   0.7200 
 12 O       -5.1330     5.7410     0.3380 O.3   1 <1>  -0.1650 
 13 N       -6.2520     3.8120     0.1340 N.ar  1 <1>  -0.6200 
 14 N       -7.3490     1.8800    -0.0810 N.pl3 1 <1>  -0.8690 
 15 C       -3.9760     6.4510     0.3580 C.ar  1 <1>   0.3930 
 16 C       -7.6370     0.4420     0.1490 C.3   1 <1>   0.1290 
 17 N       -3.7410     7.1750     1.4480 N.ar  1 <1>  -0.3100 
 18 C       -3.1260     6.3860    -0.7360 C.ar  1 <1>  -0.1500 
 19 N       -2.6160     7.8500     1.5330 N.ar  1 <1>  -0.3100 
 20 C       -1.9590     7.0880    -0.6520 C.ar  1 <1>  -0.1500 
 21 C       -1.7220     7.8080     0.5150 C.ar  1 <1>   0.1390 
 22 O       -0.6420     8.4340     0.6220 O.3   1 <1>  -0.8290 
 23 H       -1.0640     3.5020    -0.4040 H     1 <1>   0.0800 
 24 H        0.2580     3.2010     0.6980 H     1 <1>   0.0800 
 25 H       -1.1020     0.0850    -1.4540 H     1 <1>   0.0800 
 26 H       -1.8750     1.6350    -1.6950 H     1 <1>   0.0800 
 27 H       -1.9220     3.4550     1.9080 H     1 <1>   0.0800 
 28 H       -1.1910     1.9070     2.1750 H     1 <1>   0.0800 
 29 H       -2.1040    -0.1360     0.7640 H     1 <1>   0.0800 
 30 H       -3.3690     0.1940    -0.3820 H     1 <1>   0.0800 
 31 H       -8.1480     2.5120    -0.1450 H     1 <1>   0.4000 
 32 H       -6.7360    -0.1430     0.0720 H     1 <1>   0.0800 
 33 H       -8.3390     0.0900    -0.5860 H     1 <1>   0.0800 
 34 H       -8.0550     0.3080     1.1320 H     1 <1>   0.0800 
 35 H       -3.3760     5.8020    -1.5990 H     1 <1>   0.1500 
 36 H       -1.2170     7.1120    -1.4250 H     1 <1>   0.1500 
@<TRIPOS>BOND
  1   1   2  1   
  2   1   3  1   
  3   2   4  1   
  4   2  23  1   
  5   2  24  1   
  6   3   5  1   
  7   3  25  1   
  8   3  26  1   
  9   4   6  1   
 10   4  27  1   
 11   4  28  1   
 12   5   6  1   
 13   5  29  1   
 14   5  30  1   
 15   6   7  1   
 16   7   8  ar  
 17   7   9  ar  
 18   8  10  ar  
 19   9  11  ar  
 20  10  12  1   
 21  10  13  ar  
 22  11  13  ar  
 23  11  14  1   
 24  12  15  1   
 25  14  16  1   
 26  14  31  1   
 27  15  17  ar  
 28  15  18  ar  
 29  16  32  1   
 30  16  33  1   
 31  16  34  1   
 32  17  19  ar  
 33  18  20  ar  
 34  18  35  1   
 35  19  21  ar  
 36  20  21  ar  
 37  20  36  1   
 38  21  22  1   
@<TRIPOS>SUBSTRUCTURE
  1 ****   8 GROUP 4 **** **** 0

# MOE 2024.06 (io_trps.svl 2023.06)
