@<TRIPOS>MOLECULE
NONAME
32 33 1 0 0 
SMALL
USER_CHARGES


@<TRIPOS>ATOM
  1 BR       0.0120    -0.7800     1.0650 Br    1 <1>  -0.1110 
  2 C        1.8520    -1.1060     0.6070 C.ar  1 <1>   0.1110 
  3 C        2.6260    -1.8690     1.4600 C.ar  1 <1>  -0.1500 
  4 C        2.3530    -0.5680    -0.5620 C.ar  1 <1>  -0.1500 
  5 C        3.9490    -2.1020     1.1240 C.ar  1 <1>  -0.1500 
  6 C        3.6780    -0.8090    -0.8860 C.ar  1 <1>  -0.1500 
  7 C        4.4790    -1.5780    -0.0490 C.ar  1 <1>  -0.1430 
  8 C        5.9350    -1.8480    -0.4240 C.3   1 <1>   0.0450 
  9 C        6.9160    -0.7240    -0.0900 C.2   1 <1>   0.5690 
 10 O        6.4760     0.3610     0.2130 O.2   1 <1>  -0.5700 
 11 N        8.2730    -0.9500    -0.1490 N.am  1 <1>  -0.6600 
 12 C        8.9290    -2.1950    -0.6410 C.3   1 <1>   0.1400 
 13 C        9.2430     0.0850     0.3100 C.3   1 <1>   0.1400 
 14 C        9.7740    -2.8030     0.4830 C.3   1 <1>  -0.1600 
 15 C       10.1060    -0.4890     1.4400 C.3   1 <1>  -0.1600 
 16 C       10.7990    -1.7940     1.0210 C.3   1 <1>  -0.1600 
 17 H        2.2030    -2.2670     2.3640 H     1 <1>   0.1500 
 18 H        1.7250     0.0260    -1.2000 H     1 <1>   0.1500 
 19 H        4.5640    -2.6900     1.7830 H     1 <1>   0.1500 
 20 H        4.0880    -0.3880    -1.7880 H     1 <1>   0.1500 
 21 H        5.9910    -2.0340    -1.4800 H     1 <1>   0.0800 
 22 H        6.2540    -2.7370     0.0840 H     1 <1>   0.0800 
 23 H        9.5640    -1.9440    -1.4730 H     1 <1>   0.0800 
 24 H        8.2090    -2.9140    -0.9850 H     1 <1>   0.0800 
 25 H        8.7300     0.9640     0.6640 H     1 <1>   0.0800 
 26 H        9.8650     0.3750    -0.5180 H     1 <1>   0.0800 
 27 H       10.2870    -3.6740     0.1130 H     1 <1>   0.0800 
 28 H        9.1230    -3.1190     1.2790 H     1 <1>   0.0800 
 29 H        9.4760    -0.6690     2.2940 H     1 <1>   0.0800 
 30 H       10.8440     0.2380     1.7260 H     1 <1>   0.0800 
 31 H       11.5250    -1.5810     0.2560 H     1 <1>   0.0800 
 32 H       11.3190    -2.2170     1.8640 H     1 <1>   0.0800 
@<TRIPOS>BOND
  1   1   2  1   
  2   2   3  ar  
  3   2   4  ar  
  4   3   5  ar  
  5   3  17  1   
  6   4   6  ar  
  7   4  18  1   
  8   5   7  ar  
  9   5  19  1   
 10   6   7  ar  
 11   6  20  1   
 12   7   8  1   
 13   8   9  1   
 14   8  21  1   
 15   8  22  1   
 16   9  10  2   
 17   9  11  am  
 18  11  12  1   
 19  11  13  1   
 20  12  14  1   
 21  12  23  1   
 22  12  24  1   
 23  13  15  1   
 24  13  25  1   
 25  13  26  1   
 26  14  16  1   
 27  14  27  1   
 28  14  28  1   
 29  15  16  1   
 30  15  29  1   
 31  15  30  1   
 32  16  31  1   
 33  16  32  1   
@<TRIPOS>SUBSTRUCTURE
  1 ****   8 GROUP 4 **** **** 0

# MOE 2024.06 (io_trps.svl 2023.06)
