@<TRIPOS>MOLECULE
NONAME
38 40 1 0 0 
SMALL
USER_CHARGES


@<TRIPOS>ATOM
  1 BR       0.3590    -0.0270    -1.7360 Br    1 <1>  -0.1110 
  2 C        0.0290    -1.7140    -0.8690 C.ar  1 <1>   0.1110 
  3 C       -1.0800    -2.4480    -1.2390 C.ar  1 <1>  -0.1500 
  4 C        0.9110    -2.1470     0.1010 C.ar  1 <1>  -0.1500 
  5 C       -1.3270    -3.6640    -0.6170 C.ar  1 <1>  -0.1440 
  6 C        0.6690    -3.3610     0.7180 C.ar  1 <1>  -0.1500 
  7 C       -0.4450    -4.1250     0.3630 C.ar  1 <1>   0.0830 
  8 C       -2.5520    -4.4740    -1.0260 C.3   1 <1>   0.3530 
  9 O       -0.7150    -5.3270     0.9380 O.3   1 <1>  -0.3630 
 10 N       -3.7490    -3.6060    -0.9650 N.pl3 1 <1>  -0.8690 
 11 C        0.0780    -5.8520     1.9810 C.3   1 <1>   0.0400 
 12 C       -4.9840    -4.2230    -0.8220 C.ar  1 <1>   0.1000 
 13 C       -5.8220    -3.8570     0.2260 C.ar  1 <1>  -0.1500 
 14 C       -5.4070    -5.2060    -1.7140 C.ar  1 <1>  -0.1500 
 15 C       -7.0460    -4.4790     0.3730 C.ar  1 <1>  -0.1430 
 16 C       -6.6360    -5.8280    -1.5610 C.ar  1 <1>  -0.1500 
 17 C       -7.4480    -5.4530    -0.5070 C.ar  1 <1>  -0.1430 
 18 C       -8.0900    -4.2350     1.4330 C.3   1 <1>  -0.0170 
 19 C       -8.8130    -5.9870    -0.1490 C.3   1 <1>  -0.0170 
 20 C       -9.3250    -4.9830     0.8990 C.3   1 <1>  -0.1600 
 21 H       -1.7420    -2.0730    -2.0010 H     1 <1>   0.1500 
 22 H        1.7650    -1.5480     0.3620 H     1 <1>   0.1500 
 23 H        1.3600    -3.6950     1.4690 H     1 <1>   0.1500 
 24 H       -2.6990    -5.3240    -0.3820 H     1 <1>   0.0800 
 25 H       -2.4230    -4.8310    -2.0330 H     1 <1>   0.0800 
 26 H       -3.5830    -2.8740    -0.2690 H     1 <1>   0.4000 
 27 H       -0.3500    -6.7900     2.2850 H     1 <1>   0.0800 
 28 H        0.0690    -5.1630     2.8070 H     1 <1>   0.0800 
 29 H        1.0770    -6.0080     1.6160 H     1 <1>   0.0800 
 30 H       -5.5150    -3.0960     0.9170 H     1 <1>   0.1500 
 31 H       -4.7710    -5.4780    -2.5340 H     1 <1>   0.1500 
 32 H       -6.9550    -6.5870    -2.2520 H     1 <1>   0.1500 
 33 H       -8.2880    -3.1850     1.5590 H     1 <1>   0.0800 
 34 H       -7.7600    -4.6610     2.3640 H     1 <1>   0.0800 
 35 H       -8.7110    -6.9680     0.2810 H     1 <1>   0.0800 
 36 H       -9.4590    -6.0270    -1.0080 H     1 <1>   0.0800 
 37 H       -9.9720    -4.2760     0.4110 H     1 <1>   0.0800 
 38 H       -9.8700    -5.4710     1.6880 H     1 <1>   0.0800 
@<TRIPOS>BOND
  1   1   2  1   
  2   2   3  ar  
  3   2   4  ar  
  4   3   5  ar  
  5   3  21  1   
  6   4   6  ar  
  7   4  22  1   
  8   5   7  ar  
  9   5   8  1   
 10   6   7  ar  
 11   6  23  1   
 12   7   9  1   
 13   8  10  1   
 14   8  24  1   
 15   8  25  1   
 16   9  11  1   
 17  10  12  1   
 18  10  26  1   
 19  11  27  1   
 20  11  28  1   
 21  11  29  1   
 22  12  13  ar  
 23  12  14  ar  
 24  13  15  ar  
 25  13  30  1   
 26  14  16  ar  
 27  14  31  1   
 28  15  17  ar  
 29  15  18  1   
 30  16  17  ar  
 31  16  32  1   
 32  17  19  1   
 33  18  20  1   
 34  18  33  1   
 35  18  34  1   
 36  19  20  1   
 37  19  35  1   
 38  19  36  1   
 39  20  37  1   
 40  20  38  1   
@<TRIPOS>SUBSTRUCTURE
  1 ****  10 GROUP 4 **** **** 0

# MOE 2024.06 (io_trps.svl 2023.06)
