@<TRIPOS>MOLECULE
NONAME
28 28 1 0 0 
SMALL
USER_CHARGES


@<TRIPOS>ATOM
  1 O        0.2140     0.4170     0.6890 O.co2 1 <1>  -0.9000 
  2 C        0.4260     1.3360    -0.1220 C.2   1 <1>   0.9790 
  3 O        1.2880     1.1670    -1.0040 O.co2 1 <1>  -0.9000 
  4 C       -0.3060     2.5970    -0.0410 C.ar  1 <1>  -0.1790 
  5 C        0.3450     3.8000     0.2650 C.ar  1 <1>  -0.1440 
  6 C       -1.6840     2.6370    -0.2800 C.ar  1 <1>  -0.1440 
  7 C       -0.3370     5.0260     0.2670 C.ar  1 <1>   0.0860 
  8 C        1.8370     3.7390     0.6090 C.3   1 <1>  -0.0970 
  9 C       -2.3720     3.8330    -0.2280 C.ar  1 <1>  -0.1500 
 10 C       -2.4430     1.3570    -0.6010 C.3   1 <1>  -0.0960 
 11 C       -1.7180     5.0200     0.0380 C.ar  1 <1>  -0.1430 
 12 C        0.3580     6.2820     0.4620 C.2   1 <1>   0.4230 
 13 C       -2.5290     6.3110     0.0670 C.3   1 <1>  -0.0960 
 14 O        0.1890     7.0220     1.3970 O.2   1 <1>  -0.5700 
 15 C        1.3460     6.7260    -0.5970 C.3   1 <1>  -0.1790 
 16 H        2.0490     2.8650     1.2000 H     1 <1>   0.0800 
 17 H        2.1610     4.5860     1.1830 H     1 <1>   0.0800 
 18 H        2.4140     3.6760    -0.2960 H     1 <1>   0.0800 
 19 H       -3.4320     3.8350    -0.4030 H     1 <1>   0.1500 
 20 H       -1.9820     0.8580    -1.4350 H     1 <1>   0.0800 
 21 H       -3.4690     1.5570    -0.8460 H     1 <1>   0.0800 
 22 H       -2.4120     0.6980     0.2480 H     1 <1>   0.0800 
 23 H       -2.1330     7.0160    -0.6400 H     1 <1>   0.0800 
 24 H       -2.4860     6.7450     1.0510 H     1 <1>   0.0800 
 25 H       -3.5600     6.1290    -0.1770 H     1 <1>   0.0800 
 26 H        1.3680     6.0230    -1.4110 H     1 <1>   0.0800 
 27 H        2.3260     6.7990    -0.1660 H     1 <1>   0.0800 
 28 H        1.0560     7.6890    -0.9730 H     1 <1>   0.0800 
@<TRIPOS>BOND
  1   1   2  ar  
  2   2   3  ar  
  3   2   4  1   
  4   4   5  ar  
  5   4   6  ar  
  6   5   7  ar  
  7   5   8  1   
  8   6   9  ar  
  9   6  10  1   
 10   7  11  ar  
 11   7  12  1   
 12   8  16  1   
 13   8  17  1   
 14   8  18  1   
 15   9  11  ar  
 16   9  19  1   
 17  10  20  1   
 18  10  21  1   
 19  10  22  1   
 20  11  13  1   
 21  12  14  2   
 22  12  15  1   
 23  13  23  1   
 24  13  24  1   
 25  13  25  1   
 26  15  26  1   
 27  15  27  1   
 28  15  28  1   
@<TRIPOS>SUBSTRUCTURE
  1 ****   5 GROUP 4 **** **** 0

# MOE 2024.06 (io_trps.svl 2023.06)
