@<TRIPOS>MOLECULE
NONAME
22 22 1 0 0 
SMALL
USER_CHARGES


@<TRIPOS>ATOM
  1 O       -0.2140     0.2390     0.0760 O.2   1 <1>  -0.5700 
  2 C       -0.4430     1.4330     0.0460 C.2   1 <1>   0.8050 
  3 O        0.5720     2.2980     0.0060 O.3   1 <1>  -0.4300 
  4 C       -1.7740     1.9600     0.0530 C.2   1 <1>  -0.2370 
  5 C        1.9110     1.8590    -0.0030 C.3   1 <1>   0.1200 
  6 N       -2.8730     1.1470     0.0930 N.pl3 1 <1>   0.0330 
  7 C       -2.2240     3.2560     0.0230 C.2   1 <1>  -0.1500 
  8 C        2.8120     3.0880    -0.0510 C.3   1 <1>  -0.2400 
  9 C       -3.9840     1.9210     0.0890 C.2   1 <1>  -0.3020 
 10 C       -3.6160     3.2280     0.0460 C.2   1 <1>  -0.1810 
 11 C       -4.5190     4.4430     0.0260 C.3   1 <1>  -0.0590 
 12 H        2.0600     1.2350    -0.8690 H     1 <1>   0.0800 
 13 H        2.0880     1.2850     0.8910 H     1 <1>   0.0800 
 14 H       -2.8310     0.1210     0.1210 H     1 <1>   0.2700 
 15 H       -1.6190     4.1460    -0.0110 H     1 <1>   0.1500 
 16 H        2.6160     3.6560    -0.9430 H     1 <1>   0.0800 
 17 H        3.8420     2.7830    -0.0590 H     1 <1>   0.0800 
 18 H        2.6430     3.7050     0.8130 H     1 <1>   0.0800 
 19 H       -4.9770     1.5080     0.1170 H     1 <1>   0.1500 
 20 H       -4.3180     5.0620     0.8820 H     1 <1>   0.0800 
 21 H       -5.5500     4.1390     0.0510 H     1 <1>   0.0800 
 22 H       -4.3450     5.0130    -0.8680 H     1 <1>   0.0800 
@<TRIPOS>BOND
  1   1   2  2   
  2   2   3  1   
  3   2   4  1   
  4   3   5  1   
  5   4   6  1   
  6   4   7  2   
  7   5   8  1   
  8   5  12  1   
  9   5  13  1   
 10   6   9  1   
 11   6  14  1   
 12   7  10  1   
 13   7  15  1   
 14   8  16  1   
 15   8  17  1   
 16   8  18  1   
 17   9  10  2   
 18   9  19  1   
 19  10  11  1   
 20  11  20  1   
 21  11  21  1   
 22  11  22  1   
@<TRIPOS>SUBSTRUCTURE
  1 ****   4 GROUP 4 **** **** 0

# MOE 2024.06 (io_trps.svl 2023.06)
