@<TRIPOS>MOLECULE
NONAME
53 54 1 0 0 
SMALL
USER_CHARGES


@<TRIPOS>ATOM
  1 S        1.3420     2.3900     2.1040 S.o2  1 <1>   1.3330 
  2 O        1.1170     0.9690     2.1750 O.2   1 <1>  -0.6500 
  3 O        2.6800     2.9160     2.2260 O.2   1 <1>  -0.6500 
  4 N        0.7760     2.9360     0.5700 N.am  1 <1>  -0.6930 
  5 C        0.2710     3.2340     3.2470 C.3   1 <1>  -0.1350 
  6 C       -0.4750     2.5500     0.0860 C.ar  1 <1>   0.1990 
  7 C        1.4730     4.0980    -0.0620 C.3   1 <1>   0.2570 
  8 C       -1.6120     3.3600     0.2260 C.ar  1 <1>   0.0830 
  9 C       -0.5940     1.3250    -0.5520 C.ar  1 <1>  -0.1500 
 10 C        2.5530     3.7030    -1.0730 C.2   1 <1>   0.5690 
 11 O       -1.4710     4.5570     0.8770 O.3   1 <1>  -0.3630 
 12 C       -2.8310     2.9260    -0.2850 C.ar  1 <1>  -0.1500 
 13 C       -1.8080     0.8930    -1.0570 C.ar  1 <1>  -0.1440 
 14 O        2.5920     4.3250    -2.1080 O.2   1 <1>  -0.5700 
 15 N        3.4370     2.6970    -0.7660 N.am  1 <1>  -0.5470 
 16 C       -2.5250     5.4950     0.9130 C.3   1 <1>   0.0400 
 17 C       -2.9240     1.7000    -0.9230 C.ar  1 <1>  -0.1500 
 18 C       -1.9080    -0.4530    -1.7520 C.3   1 <1>  -0.0970 
 19 C        4.4290     2.0710    -1.5470 C.ar  1 <1>   0.1170 
 20 C        5.5460     1.4520    -0.9620 C.ar  1 <1>  -0.1430 
 21 C        4.3010     2.0350    -2.9340 C.ar  1 <1>  -0.1500 
 22 C        6.4890     0.8450    -1.7830 C.ar  1 <1>  -0.1500 
 23 C        5.8110     1.3840     0.5490 C.3   1 <1>   0.0630 
 24 C        5.2480     1.4290    -3.7360 C.ar  1 <1>  -0.1500 
 25 C        6.3490     0.8320    -3.1580 C.ar  1 <1>  -0.1500 
 26 C        4.7950     0.4830     1.2610 C.3   1 <1>  -0.2400 
 27 C        5.9360     2.7680     1.1990 C.3   1 <1>  -0.2400 
 28 H        0.5520     3.0020     4.2550 H     1 <1>   0.0800 
 29 H       -0.7450     2.9280     3.0940 H     1 <1>   0.0800 
 30 H        0.3360     4.2950     3.1030 H     1 <1>   0.0800 
 31 H        1.9180     4.7200     0.6920 H     1 <1>   0.0800 
 32 H        0.7470     4.6980    -0.5820 H     1 <1>   0.0800 
 33 H        0.2820     0.7080    -0.6470 H     1 <1>   0.1500 
 34 H       -3.7220     3.5170    -0.1980 H     1 <1>   0.1500 
 35 H        3.4180     2.3950     0.2120 H     1 <1>   0.3700 
 36 H       -2.1700     6.3800     1.4100 H     1 <1>   0.0800 
 37 H       -3.3500     5.0760     1.4610 H     1 <1>   0.0800 
 38 H       -2.8140     5.7360    -0.0960 H     1 <1>   0.0800 
 39 H       -3.8730     1.3760    -1.3160 H     1 <1>   0.1500 
 40 H       -1.2030    -1.1460    -1.3280 H     1 <1>   0.0800 
 41 H       -1.6950    -0.3390    -2.7990 H     1 <1>   0.0800 
 42 H       -2.8950    -0.8650    -1.6400 H     1 <1>   0.0800 
 43 H        3.4470     2.4830    -3.4050 H     1 <1>   0.1500 
 44 H        7.3540     0.3670    -1.3580 H     1 <1>   0.1500 
 45 H        6.7690     0.9150     0.6960 H     1 <1>   0.0800 
 46 H        5.1250     1.4230    -4.8040 H     1 <1>   0.1500 
 47 H        7.0930     0.3590    -3.7740 H     1 <1>   0.1500 
 48 H        3.7900     0.8270     1.1250 H     1 <1>   0.0800 
 49 H        5.0020     0.4440     2.3150 H     1 <1>   0.0800 
 50 H        4.8570    -0.5150     0.8640 H     1 <1>   0.0800 
 51 H        5.0090     3.3060     1.1890 H     1 <1>   0.0800 
 52 H        6.6700     3.3500     0.6710 H     1 <1>   0.0800 
 53 H        6.2510     2.6670     2.2220 H     1 <1>   0.0800 
@<TRIPOS>BOND
  1   1   2  2   
  2   1   3  2   
  3   1   4  am  
  4   1   5  1   
  5   4   6  1   
  6   4   7  1   
  7   5  28  1   
  8   5  29  1   
  9   5  30  1   
 10   6   8  ar  
 11   6   9  ar  
 12   7  10  1   
 13   7  31  1   
 14   7  32  1   
 15   8  11  1   
 16   8  12  ar  
 17   9  13  ar  
 18   9  33  1   
 19  10  14  2   
 20  10  15  am  
 21  11  16  1   
 22  12  17  ar  
 23  12  34  1   
 24  13  17  ar  
 25  13  18  1   
 26  15  19  1   
 27  15  35  1   
 28  16  36  1   
 29  16  37  1   
 30  16  38  1   
 31  17  39  1   
 32  18  40  1   
 33  18  41  1   
 34  18  42  1   
 35  19  20  ar  
 36  19  21  ar  
 37  20  22  ar  
 38  20  23  1   
 39  21  24  ar  
 40  21  43  1   
 41  22  25  ar  
 42  22  44  1   
 43  23  26  1   
 44  23  27  1   
 45  23  45  1   
 46  24  25  ar  
 47  24  46  1   
 48  25  47  1   
 49  26  48  1   
 50  26  49  1   
 51  26  50  1   
 52  27  51  1   
 53  27  52  1   
 54  27  53  1   
@<TRIPOS>SUBSTRUCTURE
  1 ****   4 GROUP 4 **** **** 0

# MOE 2024.06 (io_trps.svl 2023.06)
