@<TRIPOS>MOLECULE
NONAME
36 38 1 0 0 
SMALL
USER_CHARGES


@<TRIPOS>ATOM
  1 N       -0.6280     0.0520     0.4330 N.2   1 <1>  -0.5030 
  2 N       -0.8530     1.3920     0.2470 N.pl3 1 <1>  -0.5690 
  3 C       -1.4920    -0.8400     0.1580 C.2   1 <1>   0.3280 
  4 C       -1.2490    -2.3320     0.3820 C.3   1 <1>   0.0610 
  5 C       -2.9000    -0.5760    -0.3440 C.3   1 <1>  -0.0190 
  6 C       -2.2160    -2.7530     1.5030 C.3   1 <1>   0.3430 
  7 C       -1.5380    -3.0770    -0.9370 C.3   1 <1>   0.1100 
  8 C        0.2110    -2.6210     0.8350 C.3   1 <1>  -0.1600 
  9 C       -3.8540    -0.9600     0.7860 C.3   1 <1>   0.3430 
 10 C       -3.1480    -1.3440    -1.6450 C.3   1 <1>   0.1100 
 11 N       -3.6620    -2.3620     1.3020 N.4   1 <1>  -0.9590 
 12 N       -2.8690    -2.7740    -1.4850 N.3   1 <1>  -0.8100 
 13 C        0.5400    -4.0950     1.1310 C.3   1 <1>  -0.2400 
 14 C       -4.4200    -3.3780     0.4900 C.3   1 <1>   0.3430 
 15 C       -3.9770    -3.5990    -0.9750 C.3   1 <1>   0.1100 
 16 H       -0.0810     2.0210     0.5150 H     1 <1>   0.3110 
 17 H       -1.2780     1.6980    -0.6370 H     1 <1>   0.3110 
 18 H       -3.0490     0.4660    -0.5530 H     1 <1>   0.0800 
 19 H       -1.8640    -2.2890     2.4100 H     1 <1>   0.0800 
 20 H       -2.1470    -3.8190     1.6410 H     1 <1>   0.0800 
 21 H       -1.4420    -4.1400    -0.8080 H     1 <1>   0.0800 
 22 H       -0.8020    -2.7780    -1.6670 H     1 <1>   0.0800 
 23 H        0.8870    -2.2690     0.0730 H     1 <1>   0.0800 
 24 H        0.4260    -2.0480     1.7230 H     1 <1>   0.0800 
 25 H       -4.8710    -0.8270     0.4570 H     1 <1>   0.0800 
 26 H       -3.6810    -0.2700     1.5970 H     1 <1>   0.0800 
 27 H       -4.1580    -1.1990    -1.9900 H     1 <1>   0.0800 
 28 H       -2.4900    -0.9560    -2.4060 H     1 <1>   0.0800 
 29 H       -4.0910    -2.3810     2.2370 H     1 <1>   0.4500 
 30 H        0.4400    -4.7060     0.2510 H     1 <1>   0.0800 
 31 H       -0.0800    -4.4960     1.9120 H     1 <1>   0.0800 
 32 H        1.5630    -4.1690     1.4570 H     1 <1>   0.0800 
 33 H       -4.3700    -4.3310     0.9900 H     1 <1>   0.0800 
 34 H       -5.4620    -3.1020     0.4740 H     1 <1>   0.0800 
 35 H       -4.8330    -3.4480    -1.6100 H     1 <1>   0.0800 
 36 H       -3.7090    -4.6360    -1.0910 H     1 <1>   0.0800 
@<TRIPOS>BOND
  1   1   2  1   
  2   1   3  2   
  3   2  16  1   
  4   2  17  1   
  5   3   4  1   
  6   3   5  1   
  7   4   6  1   
  8   4   7  1   
  9   4   8  1   
 10   5   9  1   
 11   5  10  1   
 12   5  18  1   
 13   6  11  1   
 14   6  19  1   
 15   6  20  1   
 16   7  12  1   
 17   7  21  1   
 18   7  22  1   
 19   8  13  1   
 20   8  23  1   
 21   8  24  1   
 22   9  11  1   
 23   9  25  1   
 24   9  26  1   
 25  10  12  1   
 26  10  27  1   
 27  10  28  1   
 28  11  14  1   
 29  11  29  1   
 30  12  15  1   
 31  13  30  1   
 32  13  31  1   
 33  13  32  1   
 34  14  15  1   
 35  14  33  1   
 36  14  34  1   
 37  15  35  1   
 38  15  36  1   
@<TRIPOS>SUBSTRUCTURE
  1 ****   4 GROUP 4 **** **** 0

# MOE 2024.06 (io_trps.svl 2023.06)
