@<TRIPOS>MOLECULE
NONAME
46 48 1 0 0 
SMALL
USER_CHARGES


@<TRIPOS>ATOM
  1 O       -0.7330     0.6370    -0.1960 O.3   1 <1>  -0.5600 
  2 C        0.3990     1.2630    -0.7400 C.3   1 <1>   0.1200 
  3 C       -1.7810     1.5240     0.0910 C.3   1 <1>   0.1200 
  4 C        0.9650     2.3280     0.2180 C.3   1 <1>   0.2090 
  5 C       -1.3360     2.5890     1.1080 C.3   1 <1>   0.2090 
  6 N       -0.1080     3.2880     0.6230 N.pl3 1 <1>  -0.8380 
  7 C       -0.0970     4.6070     0.2220 C.ar  1 <1>   0.7200 
  8 N       -1.2510     5.2030     0.0750 N.ar  1 <1>  -0.6200 
  9 N        1.0710     5.1540     0.0160 N.ar  1 <1>  -0.6200 
 10 C       -1.1750     6.4490    -0.3160 C.ar  1 <1>   0.7200 
 11 C        1.0070     6.3980    -0.3650 C.ar  1 <1>   0.7200 
 12 N       -0.0670     7.1020    -0.5530 N.ar  1 <1>  -0.6200 
 13 N       -2.3620     7.1310    -0.4950 N.pl3 1 <1>  -0.8380 
 14 N        2.1590     7.0690    -0.5990 N.pl3 1 <1>  -0.8690 
 15 C       -3.7010     6.5130    -0.2380 C.3   1 <1>   0.2090 
 16 C       -2.4480     8.4410    -1.2150 C.3   1 <1>   0.2090 
 17 C        3.4760     6.7050    -0.0740 C.3   1 <1>   0.2890 
 18 C       -4.6860     7.5470     0.3350 C.3   1 <1>   0.1200 
 19 C       -3.5110     9.3530    -0.5790 C.3   1 <1>   0.1200 
 20 C        3.6920     7.4600     1.2320 C.3   1 <1>  -0.2400 
 21 C        4.5150     7.0940    -1.1180 C.3   1 <1>  -0.2400 
 22 O       -4.7420     8.6940    -0.4670 O.3   1 <1>  -0.5600 
 23 H        0.1250     1.7160    -1.6770 H     1 <1>   0.0800 
 24 H        1.1370     0.5030    -0.9260 H     1 <1>   0.0800 
 25 H       -2.5980     0.9490     0.4880 H     1 <1>   0.0800 
 26 H       -2.0980     1.9940    -0.8250 H     1 <1>   0.0800 
 27 H        1.7810     2.8340    -0.2670 H     1 <1>   0.0800 
 28 H        1.3560     1.8450     1.0960 H     1 <1>   0.0800 
 29 H       -1.1180     2.1080     2.0460 H     1 <1>   0.0800 
 30 H       -2.1410     3.2810     1.2820 H     1 <1>   0.0800 
 31 H        2.0120     8.0600    -0.7660 H     1 <1>   0.4000 
 32 H       -3.6200     5.6990     0.4600 H     1 <1>   0.0800 
 33 H       -4.0920     6.1230    -1.1610 H     1 <1>   0.0800 
 34 H       -2.7070     8.2610    -2.2430 H     1 <1>   0.0800 
 35 H       -1.5040     8.9570    -1.1980 H     1 <1>   0.0800 
 36 H        3.5290     5.6430     0.1050 H     1 <1>   0.0800 
 37 H       -4.3870     7.8360     1.3270 H     1 <1>   0.0800 
 38 H       -5.6760     7.1290     0.3800 H     1 <1>   0.0800 
 39 H       -3.6600    10.2270    -1.1880 H     1 <1>   0.0800 
 40 H       -3.1970     9.6650     0.4020 H     1 <1>   0.0800 
 41 H        3.6430     8.5210     1.0730 H     1 <1>   0.0800 
 42 H        4.6550     7.2150     1.6400 H     1 <1>   0.0800 
 43 H        2.9400     7.1710     1.9460 H     1 <1>   0.0800 
 44 H        4.4860     8.1510    -1.3100 H     1 <1>   0.0800 
 45 H        4.3270     6.5600    -2.0320 H     1 <1>   0.0800 
 46 H        5.4970     6.8330    -0.7690 H     1 <1>   0.0800 
@<TRIPOS>BOND
  1   1   2  1   
  2   1   3  1   
  3   2   4  1   
  4   2  23  1   
  5   2  24  1   
  6   3   5  1   
  7   3  25  1   
  8   3  26  1   
  9   4   6  1   
 10   4  27  1   
 11   4  28  1   
 12   5   6  1   
 13   5  29  1   
 14   5  30  1   
 15   6   7  1   
 16   7   8  ar  
 17   7   9  ar  
 18   8  10  ar  
 19   9  11  ar  
 20  10  12  ar  
 21  10  13  1   
 22  11  12  ar  
 23  11  14  1   
 24  13  15  1   
 25  13  16  1   
 26  14  17  1   
 27  14  31  1   
 28  15  18  1   
 29  15  32  1   
 30  15  33  1   
 31  16  19  1   
 32  16  34  1   
 33  16  35  1   
 34  17  20  1   
 35  17  21  1   
 36  17  36  1   
 37  18  22  1   
 38  18  37  1   
 39  18  38  1   
 40  19  22  1   
 41  19  39  1   
 42  19  40  1   
 43  20  41  1   
 44  20  42  1   
 45  20  43  1   
 46  21  44  1   
 47  21  45  1   
 48  21  46  1   
@<TRIPOS>SUBSTRUCTURE
  1 ****   8 GROUP 4 **** **** 0

# MOE 2024.06 (io_trps.svl 2023.06)
