@<TRIPOS>MOLECULE
NONAME
46 47 1 0 0 
SMALL
USER_CHARGES


@<TRIPOS>ATOM
  1 O        4.2720    -3.6910    -1.0390 O.3   1 <1>  -0.5320 
  2 C        3.0170    -3.8690    -0.5780 C.ar  1 <1>   0.0830 
  3 C        2.6770    -5.0170     0.1500 C.ar  1 <1>   0.3100 
  4 C        2.0700    -2.8950    -0.8310 C.ar  1 <1>  -0.1440 
  5 N        1.4510    -5.2130     0.6380 N.ar  1 <1>  -0.6200 
  6 C        3.6690    -6.0390     0.3940 C.ar  1 <1>   0.0000 
  7 C        0.8000    -3.1240    -0.3330 C.ar  1 <1>  -0.1500 
  8 C        2.4270    -1.6560    -1.6410 C.3   1 <1>   0.4860 
  9 C        0.5390    -4.2840     0.3890 C.ar  1 <1>   0.1660 
 10 C        4.1840    -6.2490     1.6710 C.ar  1 <1>  -0.1500 
 11 C        4.1520    -6.8320    -0.6460 C.ar  1 <1>  -0.1500 
 12 N        2.7440    -0.5150    -0.7290 N.4   1 <1>  -0.9590 
 13 C       -0.8640    -4.5590     0.9470 C.3   1 <1>   0.4860 
 14 C        5.1570    -7.2040     1.9000 C.ar  1 <1>  -0.1500 
 15 C        5.1250    -7.7880    -0.4210 C.ar  1 <1>  -0.1500 
 16 C        2.8260     0.7690    -1.4900 C.3   1 <1>   0.2630 
 17 C        4.0240    -0.7610     0.0110 C.3   1 <1>   0.2630 
 18 N       -1.1240    -6.0350     0.9690 N.4   1 <1>  -0.9590 
 19 C        5.6310    -7.9740     0.8530 C.ar  1 <1>  -0.1500 
 20 C       -1.4660    -6.5750    -0.3820 C.3   1 <1>   0.2630 
 21 C       -2.1180    -6.4360     2.0070 C.3   1 <1>   0.2630 
 22 H        4.8710    -4.4490    -0.8430 H     1 <1>   0.4500 
 23 H        0.0120    -2.4110    -0.5050 H     1 <1>   0.1500 
 24 H        1.5940    -1.3980    -2.2740 H     1 <1>   0.0800 
 25 H        3.2740    -1.8670    -2.2740 H     1 <1>   0.0800 
 26 H        3.8200    -5.6580     2.4930 H     1 <1>   0.1500 
 27 H        3.7610    -6.7070    -1.6410 H     1 <1>   0.1500 
 28 H        1.9860    -0.4480    -0.0380 H     1 <1>   0.4500 
 29 H       -1.6120    -4.0540     0.3590 H     1 <1>   0.0800 
 30 H       -0.9020    -4.1760     1.9530 H     1 <1>   0.0800 
 31 H        5.5470    -7.3530     2.8930 H     1 <1>   0.1500 
 32 H        5.4900    -8.3940    -1.2340 H     1 <1>   0.1500 
 33 H        3.6170     0.7230    -2.2210 H     1 <1>   0.0800 
 34 H        3.0270     1.5880    -0.8190 H     1 <1>   0.0800 
 35 H        1.8960     0.9660    -1.9990 H     1 <1>   0.0800 
 36 H        4.8400    -0.8840    -0.6820 H     1 <1>   0.0800 
 37 H        3.9470    -1.6560     0.6070 H     1 <1>   0.0800 
 38 H        4.2460     0.0670     0.6650 H     1 <1>   0.0800 
 39 H       -0.1900    -6.4220     1.2150 H     1 <1>   0.4500 
 40 H        6.3890    -8.7190     1.0310 H     1 <1>   0.1500 
 41 H       -2.4020    -6.1670    -0.7270 H     1 <1>   0.0800 
 42 H       -1.5510    -7.6490    -0.3420 H     1 <1>   0.0800 
 43 H       -0.6920    -6.3230    -1.0900 H     1 <1>   0.0800 
 44 H       -3.0860    -6.0170     1.7850 H     1 <1>   0.0800 
 45 H       -1.8050    -6.0920     2.9800 H     1 <1>   0.0800 
 46 H       -2.2080    -7.5100     2.0400 H     1 <1>   0.0800 
@<TRIPOS>BOND
  1   1   2  1   
  2   1  22  1   
  3   2   3  ar  
  4   2   4  ar  
  5   3   5  ar  
  6   3   6  1   
  7   4   7  ar  
  8   4   8  1   
  9   5   9  ar  
 10   6  10  ar  
 11   6  11  ar  
 12   7   9  ar  
 13   7  23  1   
 14   8  12  1   
 15   8  24  1   
 16   8  25  1   
 17   9  13  1   
 18  10  14  ar  
 19  10  26  1   
 20  11  15  ar  
 21  11  27  1   
 22  12  16  1   
 23  12  17  1   
 24  12  28  1   
 25  13  18  1   
 26  13  29  1   
 27  13  30  1   
 28  14  19  ar  
 29  14  31  1   
 30  15  19  ar  
 31  15  32  1   
 32  16  33  1   
 33  16  34  1   
 34  16  35  1   
 35  17  36  1   
 36  17  37  1   
 37  17  38  1   
 38  18  20  1   
 39  18  21  1   
 40  18  39  1   
 41  19  40  1   
 42  20  41  1   
 43  20  42  1   
 44  20  43  1   
 45  21  44  1   
 46  21  45  1   
 47  21  46  1   
@<TRIPOS>SUBSTRUCTURE
  1 ****   3 GROUP 4 **** **** 0

# MOE 2024.06 (io_trps.svl 2023.06)
