@<TRIPOS>MOLECULE
NONAME
27 27 1 0 0 
SMALL
USER_CHARGES


@<TRIPOS>ATOM
  1 S       -0.3100    -0.5160     0.6910 S.o2  1 <1>   1.3330 
  2 O       -1.2690    -0.4680     1.7650 O.2   1 <1>  -0.6500 
  3 O       -0.2220    -1.6720    -0.1670 O.2   1 <1>  -0.6500 
  4 N        1.2010    -0.3610     1.4830 N.am  1 <1>  -0.7570 
  5 C       -0.4000     0.9970    -0.2740 C.3   1 <1>  -0.0550 
  6 C        2.4300    -0.4390     0.8490 C.ar  1 <1>   0.1990 
  7 C       -1.6970     1.1580    -1.0860 C.3   1 <1>  -0.2400 
  8 C        3.2740     0.6650     0.8570 C.ar  1 <1>  -0.1500 
  9 C        2.8450    -1.6000     0.2060 C.ar  1 <1>  -0.1500 
 10 C        4.5070     0.6160     0.2320 C.ar  1 <1>  -0.1500 
 11 C        4.0760    -1.6570    -0.4210 C.ar  1 <1>  -0.1500 
 12 C        4.9090    -0.5490    -0.4010 C.ar  1 <1>   0.0820 
 13 O        6.1120    -0.5980    -1.0190 O.3   1 <1>  -0.3630 
 14 C        7.2100    -1.0400    -0.2470 C.3   1 <1>   1.3000 
 15 F        7.0300    -2.2810     0.1890 F     1 <1>  -0.3400 
 16 F        8.3130    -1.0260    -0.9810 F     1 <1>  -0.3400 
 17 F        7.4130    -0.2530     0.8030 F     1 <1>  -0.3400 
 18 H        1.1310    -0.8300     2.3830 H     1 <1>   0.4200 
 19 H        0.4320     1.0250    -0.9510 H     1 <1>   0.0800 
 20 H       -0.3060     1.8360     0.3890 H     1 <1>   0.0800 
 21 H       -1.8030     0.3410    -1.7800 H     1 <1>   0.0800 
 22 H       -1.6800     2.0810    -1.6370 H     1 <1>   0.0800 
 23 H       -2.5490     1.1620    -0.4280 H     1 <1>   0.0800 
 24 H        2.9570     1.5630     1.3560 H     1 <1>   0.1500 
 25 H        2.1980    -2.4600     0.1930 H     1 <1>   0.1500 
 26 H        5.1530     1.4770     0.2370 H     1 <1>   0.1500 
 27 H        4.3860    -2.5560    -0.9250 H     1 <1>   0.1500 
@<TRIPOS>BOND
  1   1   2  2   
  2   1   3  2   
  3   1   4  am  
  4   1   5  1   
  5   4   6  1   
  6   4  18  1   
  7   5   7  1   
  8   5  19  1   
  9   5  20  1   
 10   6   8  ar  
 11   6   9  ar  
 12   7  21  1   
 13   7  22  1   
 14   7  23  1   
 15   8  10  ar  
 16   8  24  1   
 17   9  11  ar  
 18   9  25  1   
 19  10  12  ar  
 20  10  26  1   
 21  11  12  ar  
 22  11  27  1   
 23  12  13  1   
 24  13  14  1   
 25  14  15  1   
 26  14  16  1   
 27  14  17  1   
@<TRIPOS>SUBSTRUCTURE
  1 ****   6 GROUP 4 **** **** 0

# MOE 2024.06 (io_trps.svl 2023.06)
