@<TRIPOS>MOLECULE
NONAME
38 39 1 0 0 
SMALL
USER_CHARGES


@<TRIPOS>ATOM
  1 BR       1.4310    -0.3640    -1.4920 Br    1 <1>  -0.1110 
  2 C        0.5120    -1.8740    -0.7300 C.ar  1 <1>   0.1110 
  3 C       -0.5990    -2.3710    -1.3820 C.ar  1 <1>  -0.1500 
  4 C        0.9860    -2.4190     0.4470 C.ar  1 <1>  -0.1500 
  5 C       -1.2670    -3.4570    -0.8330 C.ar  1 <1>  -0.1430 
  6 C        0.3200    -3.5030     0.9910 C.ar  1 <1>  -0.1500 
  7 C       -0.8070    -4.0260     0.3550 C.ar  1 <1>   0.0830 
  8 C       -2.4920    -4.0190    -1.5310 C.3   1 <1>   0.4870 
  9 O       -1.5040    -5.0850     0.8520 O.3   1 <1>  -0.3620 
 10 N       -3.6480    -3.9450    -0.6040 N.4   1 <1>  -0.9590 
 11 C       -1.0060    -5.8470     1.9340 C.3   1 <1>   0.0400 
 12 C       -4.7640    -4.8050    -1.0700 C.3   1 <1>   0.3430 
 13 C       -4.0180    -2.5370    -0.2870 C.3   1 <1>   0.3430 
 14 C       -5.8290    -5.0000     0.0110 C.3   1 <1>  -0.1600 
 15 C       -4.5610    -2.4610     1.1390 C.3   1 <1>  -0.1600 
 16 C       -6.6710    -3.7410     0.2690 C.3   1 <1>  -0.1600 
 17 C       -6.0620    -2.7680     1.2880 C.3   1 <1>  -0.1600 
 18 H       -0.9170    -1.9060    -2.2990 H     1 <1>   0.1500 
 19 H        1.8570    -2.0020     0.9230 H     1 <1>   0.1500 
 20 H        0.6960    -3.9190     1.9080 H     1 <1>   0.1500 
 21 H       -2.2960    -5.0460    -1.7930 H     1 <1>   0.0800 
 22 H       -2.6980    -3.4670    -2.4330 H     1 <1>   0.0800 
 23 H       -3.2710    -4.3560     0.2680 H     1 <1>   0.4500 
 24 H       -1.6700    -6.6760     2.1010 H     1 <1>   0.0800 
 25 H       -0.9700    -5.2290     2.8150 H     1 <1>   0.0800 
 26 H       -0.0250    -6.2130     1.6850 H     1 <1>   0.0800 
 27 H       -4.3750    -5.7740    -1.3370 H     1 <1>   0.0800 
 28 H       -5.2180    -4.3750    -1.9480 H     1 <1>   0.0800 
 29 H       -4.7400    -2.1580    -0.9920 H     1 <1>   0.0800 
 30 H       -3.1380    -1.9160    -0.3380 H     1 <1>   0.0800 
 31 H       -5.3900    -5.3670     0.9230 H     1 <1>   0.0800 
 32 H       -6.4970    -5.7660    -0.3440 H     1 <1>   0.0800 
 33 H       -4.3990    -1.4620     1.5030 H     1 <1>   0.0800 
 34 H       -3.9880    -3.1120     1.7760 H     1 <1>   0.0800 
 35 H       -7.6330    -4.0450     0.6480 H     1 <1>   0.0800 
 36 H       -6.8570    -3.2300    -0.6610 H     1 <1>   0.0800 
 37 H       -6.6120    -1.8430     1.2240 H     1 <1>   0.0800 
 38 H       -6.2290    -3.1520     2.2810 H     1 <1>   0.0800 
@<TRIPOS>BOND
  1   1   2  1   
  2   2   3  ar  
  3   2   4  ar  
  4   3   5  ar  
  5   3  18  1   
  6   4   6  ar  
  7   4  19  1   
  8   5   7  ar  
  9   5   8  1   
 10   6   7  ar  
 11   6  20  1   
 12   7   9  1   
 13   8  10  1   
 14   8  21  1   
 15   8  22  1   
 16   9  11  1   
 17  10  12  1   
 18  10  13  1   
 19  10  23  1   
 20  11  24  1   
 21  11  25  1   
 22  11  26  1   
 23  12  14  1   
 24  12  27  1   
 25  12  28  1   
 26  13  15  1   
 27  13  29  1   
 28  13  30  1   
 29  14  16  1   
 30  14  31  1   
 31  14  32  1   
 32  15  17  1   
 33  15  33  1   
 34  15  34  1   
 35  16  17  1   
 36  16  35  1   
 37  16  36  1   
 38  17  37  1   
 39  17  38  1   
@<TRIPOS>SUBSTRUCTURE
  1 ****   5 GROUP 4 **** **** 0

# MOE 2024.06 (io_trps.svl 2023.06)
