@<TRIPOS>MOLECULE
NONAME
40 41 1 0 0 
SMALL
USER_CHARGES


@<TRIPOS>ATOM
  1 F       -0.5420    -0.4960     0.0170 F     1 <1>  -0.1900 
  2 C       -1.2810     0.5860     0.0080 C.ar  1 <1>   0.1900 
  3 C       -0.7130     1.8670    -0.0030 C.ar  1 <1>   0.0820 
  4 C       -2.6500     0.3910     0.0100 C.ar  1 <1>  -0.1500 
  5 O        0.6140     2.1820    -0.0050 O.3   1 <1>  -0.3630 
  6 C       -1.5800     2.9510    -0.0120 C.ar  1 <1>  -0.1500 
  7 C       -3.4910     1.4900     0.0010 C.ar  1 <1>  -0.1500 
  8 C        1.6320     1.2090     0.0030 C.3   1 <1>   0.1200 
  9 C       -2.9540     2.7680    -0.0100 C.ar  1 <1>  -0.1500 
 10 C        2.9800     1.9270    -0.0040 C.3   1 <1>  -0.1600 
 11 C        4.1260     0.9170     0.0050 C.3   1 <1>   0.1200 
 12 O        5.3410     1.6300    -0.0010 O.3   1 <1>  -0.3630 
 13 C        6.5350     0.9810     0.0040 C.ar  1 <1>   0.0820 
 14 C        7.6720     1.7720    -0.0030 C.ar  1 <1>  -0.1500 
 15 C        6.6660    -0.4060     0.0150 C.ar  1 <1>  -0.1500 
 16 C        8.9280     1.1920     0.0020 C.ar  1 <1>  -0.1500 
 17 C        7.9230    -0.9860     0.0200 C.ar  1 <1>  -0.1500 
 18 C        9.0630    -0.1860     0.0130 C.ar  1 <1>   0.0820 
 19 O       10.3310    -0.6740     0.0180 O.3   1 <1>  -0.3630 
 20 C       10.5790    -2.0600     0.0290 C.3   1 <1>   0.1200 
 21 C       12.0900    -2.2690     0.0310 C.3   1 <1>  -0.2400 
 22 H       -3.0490    -0.6070     0.0180 H     1 <1>   0.1500 
 23 H       -1.1690     3.9450    -0.0200 H     1 <1>   0.1500 
 24 H       -4.5590     1.3540     0.0020 H     1 <1>   0.1500 
 25 H        1.5230     0.5970    -0.8770 H     1 <1>   0.0800 
 26 H        1.5230     0.6120     0.8920 H     1 <1>   0.0800 
 27 H       -3.6070     3.6240    -0.0170 H     1 <1>   0.1500 
 28 H        3.0520     2.5500     0.8700 H     1 <1>   0.0800 
 29 H        3.0520     2.5360    -0.8870 H     1 <1>   0.0800 
 30 H        4.0940     0.2960    -0.8740 H     1 <1>   0.0800 
 31 H        4.0940     0.3110     0.8940 H     1 <1>   0.0800 
 32 H        7.5660     2.8420    -0.0110 H     1 <1>   0.1500 
 33 H        5.8060    -1.0470     0.0200 H     1 <1>   0.1500 
 34 H        9.8110     1.8050    -0.0030 H     1 <1>   0.1500 
 35 H        7.9940    -2.0560     0.0290 H     1 <1>   0.1500 
 36 H       10.1360    -2.4920    -0.8520 H     1 <1>   0.0800 
 37 H       10.1360    -2.4780     0.9160 H     1 <1>   0.0800 
 38 H       12.5240    -1.8320    -0.8510 H     1 <1>   0.0800 
 39 H       12.3120    -3.3200     0.0390 H     1 <1>   0.0800 
 40 H       12.5230    -1.8180     0.9050 H     1 <1>   0.0800 
@<TRIPOS>BOND
  1   1   2  1   
  2   2   3  ar  
  3   2   4  ar  
  4   3   5  1   
  5   3   6  ar  
  6   4   7  ar  
  7   4  22  1   
  8   5   8  1   
  9   6   9  ar  
 10   6  23  1   
 11   7   9  ar  
 12   7  24  1   
 13   8  10  1   
 14   8  25  1   
 15   8  26  1   
 16   9  27  1   
 17  10  11  1   
 18  10  28  1   
 19  10  29  1   
 20  11  12  1   
 21  11  30  1   
 22  11  31  1   
 23  12  13  1   
 24  13  14  ar  
 25  13  15  ar  
 26  14  16  ar  
 27  14  32  1   
 28  15  17  ar  
 29  15  33  1   
 30  16  18  ar  
 31  16  34  1   
 32  17  18  ar  
 33  17  35  1   
 34  18  19  1   
 35  19  20  1   
 36  20  21  1   
 37  20  36  1   
 38  20  37  1   
 39  21  38  1   
 40  21  39  1   
 41  21  40  1   
@<TRIPOS>SUBSTRUCTURE
  1 ****  11 GROUP 4 **** **** 0

# MOE 2024.06 (io_trps.svl 2023.06)
