@<TRIPOS>MOLECULE
NONAME
34 36 1 0 0 
SMALL
USER_CHARGES


@<TRIPOS>ATOM
  1 BR       0.0700    -0.1820     1.4320 Br    1 <1>  -0.1110 
  2 C       -1.4040     0.8680     0.7480 C.ar  1 <1>   0.1110 
  3 C       -1.2000     2.1780     0.3060 C.ar  1 <1>   0.1000 
  4 C       -2.6470     0.2640     0.7500 C.ar  1 <1>  -0.1500 
  5 N        0.0560     2.8060     0.2870 N.pl3 1 <1>  -0.4580 
  6 C       -2.3130     2.8900    -0.1240 C.ar  1 <1>  -0.1500 
  7 C       -3.7380     0.9890     0.3070 C.ar  1 <1>   0.0830 
  8 N        1.1490     2.3150    -0.3660 N.2   1 <1>  -0.4920 
  9 C       -3.5710     2.3100    -0.1190 C.ar  1 <1>   0.0830 
 10 O       -4.9610     0.3940     0.2960 O.3   1 <1>  -0.3630 
 11 C        2.2960     2.9150    -0.3550 C.2   1 <1>   0.3890 
 12 O       -4.6310     3.0520    -0.5330 O.3   1 <1>  -0.3630 
 13 C       -5.9680     1.0340    -0.4640 C.3   1 <1>   0.1200 
 14 C        3.4910     2.4010    -1.0030 C.2   1 <1>   0.6300 
 15 C        2.4730     4.2430     0.4060 C.3   1 <1>  -0.0990 
 16 C       -5.9210     2.5500    -0.2350 C.3   1 <1>   0.1200 
 17 O        3.5230     1.3820    -1.6730 O.2   1 <1>  -0.5700 
 18 N        4.7000     3.0360    -0.8990 N.am  1 <1>  -0.7300 
 19 C        3.6570     5.0890    -0.0980 C.3   1 <1>  -0.1600 
 20 C        4.9540     4.2810    -0.1570 C.3   1 <1>   0.1400 
 21 H       -2.7660    -0.7480     1.0900 H     1 <1>   0.1500 
 22 H        0.0980     3.7230     0.7430 H     1 <1>   0.4000 
 23 H       -2.2040     3.8990    -0.4730 H     1 <1>   0.1500 
 24 H       -5.8000     0.8060    -1.5020 H     1 <1>   0.0800 
 25 H       -6.9170     0.6300    -0.1620 H     1 <1>   0.0800 
 26 H        1.5890     4.8470     0.3160 H     1 <1>   0.0800 
 27 H        2.6170     4.0110     1.4460 H     1 <1>   0.0800 
 28 H       -6.1410     2.7810     0.7920 H     1 <1>   0.0800 
 29 H       -6.6270     3.0550    -0.8700 H     1 <1>   0.0800 
 30 H        5.4870     2.5600    -1.3460 H     1 <1>   0.3700 
 31 H        3.7960     5.9410     0.5450 H     1 <1>   0.0800 
 32 H        3.4370     5.4600    -1.0850 H     1 <1>   0.0800 
 33 H        5.2920     4.0390     0.8370 H     1 <1>   0.0800 
 34 H        5.7210     4.8500    -0.6550 H     1 <1>   0.0800 
@<TRIPOS>BOND
  1   1   2  1   
  2   2   3  ar  
  3   2   4  ar  
  4   3   5  1   
  5   3   6  ar  
  6   4   7  ar  
  7   4  21  1   
  8   5   8  1   
  9   5  22  1   
 10   6   9  ar  
 11   6  23  1   
 12   7   9  ar  
 13   7  10  1   
 14   8  11  2   
 15   9  12  1   
 16  10  13  1   
 17  11  14  1   
 18  11  15  1   
 19  12  16  1   
 20  13  16  1   
 21  13  24  1   
 22  13  25  1   
 23  14  17  2   
 24  14  18  am  
 25  15  19  1   
 26  15  26  1   
 27  15  27  1   
 28  16  28  1   
 29  16  29  1   
 30  18  20  1   
 31  18  30  1   
 32  19  20  1   
 33  19  31  1   
 34  19  32  1   
 35  20  33  1   
 36  20  34  1   
@<TRIPOS>SUBSTRUCTURE
  1 ****   3 GROUP 4 **** **** 0

# MOE 2024.06 (io_trps.svl 2023.06)
