@<TRIPOS>MOLECULE
NONAME
51 53 1 0 0 
SMALL
USER_CHARGES


@<TRIPOS>ATOM
  1 O       -0.9010    -4.7290    -1.7670 O.3   1 <1>  -0.3630 
  2 C       -1.7630    -4.2580    -0.8190 C.ar  1 <1>   0.0830 
  3 C        0.3390    -5.2570    -1.3410 C.3   1 <1>   0.1200 
  4 C       -2.3720    -5.1110     0.1050 C.ar  1 <1>   0.0830 
  5 C       -2.0450    -2.8930    -0.8030 C.ar  1 <1>   0.0830 
  6 C        1.1520    -4.1900    -0.5910 C.3   1 <1>   0.2000 
  7 O       -2.0880    -6.4430     0.0670 O.3   1 <1>  -0.3630 
  8 C       -3.2540    -4.5830     1.0420 C.ar  1 <1>  -0.1500 
  9 O       -1.4130    -2.0930    -1.7100 O.3   1 <1>  -0.3630 
 10 C       -2.9330    -2.3830     0.1370 C.ar  1 <1>  -0.1500 
 11 O        1.2270    -3.0260    -1.3600 O.3   1 <1>  -0.6800 
 12 C        2.5830    -4.6690    -0.2750 C.3   1 <1>   0.3430 
 13 C       -3.0620    -7.3850     0.4650 C.3   1 <1>   0.0400 
 14 C       -3.5330    -3.2270     1.0550 C.ar  1 <1>  -0.1500 
 15 C       -2.0350    -0.9070    -2.1580 C.3   1 <1>   0.0400 
 16 N        3.4850    -3.4970    -0.0650 N.4   1 <1>  -0.9590 
 17 C        4.9120    -3.7880    -0.3650 C.3   1 <1>   0.4860 
 18 C        3.3210    -2.8450     1.2630 C.3   1 <1>   0.3430 
 19 C        5.7770    -2.5540    -0.1530 C.ar  1 <1>  -0.1430 
 20 C        3.9580    -1.4550     1.2360 C.3   1 <1>  -0.0170 
 21 C        5.3420    -1.4700     0.6040 C.ar  1 <1>  -0.1430 
 22 C        7.0400    -2.5230    -0.7260 C.ar  1 <1>  -0.1500 
 23 C        6.1730    -0.3740     0.7780 C.ar  1 <1>  -0.1500 
 24 C        7.8640    -1.4270    -0.5480 C.ar  1 <1>  -0.1500 
 25 C        7.4310    -0.3520     0.2050 C.ar  1 <1>  -0.1500 
 26 H        0.8640    -5.5790    -2.2220 H     1 <1>   0.0800 
 27 H        0.1590    -6.1150    -0.7200 H     1 <1>   0.0800 
 28 H        0.6500    -3.9440     0.3290 H     1 <1>   0.0800 
 29 H       -3.7300    -5.2120     1.7710 H     1 <1>   0.1500 
 30 H       -3.1630    -1.3340     0.1740 H     1 <1>   0.1500 
 31 H        0.3060    -2.7850    -1.6530 H     1 <1>   0.4000 
 32 H        2.9330    -5.2390    -1.1200 H     1 <1>   0.0800 
 33 H        2.5810    -5.3160     0.5860 H     1 <1>   0.0800 
 34 H       -2.7400    -8.3580     0.1410 H     1 <1>   0.0800 
 35 H       -3.9990    -7.1380    -0.0040 H     1 <1>   0.0800 
 36 H       -3.1520    -7.3700     1.5360 H     1 <1>   0.0800 
 37 H       -4.2190    -2.8280     1.7820 H     1 <1>   0.1500 
 38 H       -1.4930    -0.5470    -3.0140 H     1 <1>   0.0800 
 39 H       -2.0020    -0.1730    -1.3720 H     1 <1>   0.0800 
 40 H       -3.0510    -1.1270    -2.4370 H     1 <1>   0.0800 
 41 H        3.1540    -2.8080    -0.7670 H     1 <1>   0.4500 
 42 H        5.0080    -4.1140    -1.3870 H     1 <1>   0.0800 
 43 H        5.2670    -4.5750     0.2790 H     1 <1>   0.0800 
 44 H        3.7970    -3.4430     2.0230 H     1 <1>   0.0800 
 45 H        2.2750    -2.7470     1.5060 H     1 <1>   0.0800 
 46 H        4.0210    -1.0810     2.2430 H     1 <1>   0.0800 
 47 H        3.3250    -0.7870     0.6790 H     1 <1>   0.0800 
 48 H        7.4010    -3.3480    -1.3160 H     1 <1>   0.1500 
 49 H        5.8480     0.4730     1.3580 H     1 <1>   0.1500 
 50 H        8.8440    -1.4070    -0.9940 H     1 <1>   0.1500 
 51 H        8.0720     0.5020     0.3430 H     1 <1>   0.1500 
@<TRIPOS>BOND
  1   1   2  1   
  2   1   3  1   
  3   2   4  ar  
  4   2   5  ar  
  5   3   6  1   
  6   3  26  1   
  7   3  27  1   
  8   4   7  1   
  9   4   8  ar  
 10   5   9  1   
 11   5  10  ar  
 12   6  11  1   
 13   6  12  1   
 14   6  28  1   
 15   7  13  1   
 16   8  14  ar  
 17   8  29  1   
 18   9  15  1   
 19  10  14  ar  
 20  10  30  1   
 21  11  31  1   
 22  12  16  1   
 23  12  32  1   
 24  12  33  1   
 25  13  34  1   
 26  13  35  1   
 27  13  36  1   
 28  14  37  1   
 29  15  38  1   
 30  15  39  1   
 31  15  40  1   
 32  16  17  1   
 33  16  18  1   
 34  16  41  1   
 35  17  19  1   
 36  17  42  1   
 37  17  43  1   
 38  18  20  1   
 39  18  44  1   
 40  18  45  1   
 41  19  21  ar  
 42  19  22  ar  
 43  20  21  1   
 44  20  46  1   
 45  20  47  1   
 46  21  23  ar  
 47  22  24  ar  
 48  22  48  1   
 49  23  25  ar  
 50  23  49  1   
 51  24  25  ar  
 52  24  50  1   
 53  25  51  1   
@<TRIPOS>SUBSTRUCTURE
  1 ****   6 GROUP 4 **** **** 0

# MOE 2024.06 (io_trps.svl 2023.06)
