@<TRIPOS>MOLECULE
NONAME
45 47 1 0 0 
SMALL
USER_CHARGES


@<TRIPOS>ATOM
  1 S       -0.0870     1.6070    -1.8220 S.o2  1 <1>   1.4470 
  2 O        0.4920     2.3000    -2.9550 O.2   1 <1>  -0.6500 
  3 O       -0.5930     0.2650    -2.0180 O.2   1 <1>  -0.6500 
  4 N       -1.4000     2.5480    -1.3010 N.am  1 <1>  -0.8490 
  5 C        1.0710     1.6750    -0.4250 C.ar  1 <1>  -0.0090 
  6 C       -2.3620     2.8350    -2.3800 C.3   1 <1>   0.1960 
  7 C       -1.9980     2.0430    -0.0500 C.3   1 <1>   0.1960 
  8 C        0.9630     0.7890     0.6390 C.ar  1 <1>  -0.1500 
  9 C        2.0660     2.6420    -0.3630 C.ar  1 <1>  -0.1500 
 10 C       -3.5840     1.9140    -2.3090 C.3   1 <1>  -0.1600 
 11 C       -3.4180     2.5760     0.1430 C.3   1 <1>  -0.1600 
 12 C        1.7890     0.8460     1.7620 C.ar  1 <1>  -0.1790 
 13 C        2.9190     2.7160     0.7230 C.ar  1 <1>  -0.1500 
 14 C       -4.3580     2.0880    -0.9840 C.3   1 <1>  -0.0800 
 15 C        1.6120    -0.0750     2.8780 C.2   1 <1>   0.9790 
 16 C        2.7780     1.8280     1.7720 C.ar  1 <1>  -0.1500 
 17 C       -5.0840     0.7750    -0.6300 C.3   1 <1>  -0.0170 
 18 O        2.4250    -0.1010     3.8170 O.co2 1 <1>  -0.9000 
 19 O        0.6270    -0.8340     2.9120 O.co2 1 <1>  -0.9000 
 20 C       -6.0080     0.9200     0.5730 C.ar  1 <1>  -0.1440 
 21 C       -5.6680     0.3560     1.7930 C.ar  1 <1>  -0.1500 
 22 C       -7.2000     1.6180     0.4560 C.ar  1 <1>  -0.1500 
 23 C       -6.5070     0.4920     2.8850 C.ar  1 <1>  -0.1500 
 24 C       -8.0410     1.7550     1.5480 C.ar  1 <1>  -0.1500 
 25 C       -7.6940     1.1930     2.7630 C.ar  1 <1>  -0.1500 
 26 H       -1.8920     2.7460    -3.3460 H     1 <1>   0.0800 
 27 H       -2.6890     3.8560    -2.2800 H     1 <1>   0.0800 
 28 H       -1.3840     2.3430     0.7840 H     1 <1>   0.0800 
 29 H       -2.0360     0.9650    -0.0620 H     1 <1>   0.0800 
 30 H        0.2050     0.0210     0.6120 H     1 <1>   0.1500 
 31 H        2.1730     3.3440    -1.1730 H     1 <1>   0.1500 
 32 H       -3.2400     0.9000    -2.4210 H     1 <1>   0.0800 
 33 H       -4.2380     2.1230    -3.1360 H     1 <1>   0.0800 
 34 H       -3.3770     3.6510     0.1440 H     1 <1>   0.0800 
 35 H       -3.7830     2.2790     1.1090 H     1 <1>   0.0800 
 36 H        3.6900     3.4660     0.7580 H     1 <1>   0.1500 
 37 H       -5.1050     2.8510    -1.1280 H     1 <1>   0.0800 
 38 H        3.4360     1.8850     2.6240 H     1 <1>   0.1500 
 39 H       -4.3600     0.0010    -0.4400 H     1 <1>   0.0800 
 40 H       -5.6750     0.4570    -1.4720 H     1 <1>   0.0800 
 41 H       -4.7470    -0.1910     1.9020 H     1 <1>   0.1500 
 42 H       -7.4780     2.0580    -0.4850 H     1 <1>   0.1500 
 43 H       -6.2350     0.0530     3.8290 H     1 <1>   0.1500 
 44 H       -8.9630     2.2990     1.4500 H     1 <1>   0.1500 
 45 H       -8.3470     1.2990     3.6120 H     1 <1>   0.1500 
@<TRIPOS>BOND
  1   1   2  2   
  2   1   3  2   
  3   1   4  am  
  4   1   5  1   
  5   4   6  1   
  6   4   7  1   
  7   5   8  ar  
  8   5   9  ar  
  9   6  10  1   
 10   6  26  1   
 11   6  27  1   
 12   7  11  1   
 13   7  28  1   
 14   7  29  1   
 15   8  12  ar  
 16   8  30  1   
 17   9  13  ar  
 18   9  31  1   
 19  10  14  1   
 20  10  32  1   
 21  10  33  1   
 22  11  14  1   
 23  11  34  1   
 24  11  35  1   
 25  12  15  1   
 26  12  16  ar  
 27  13  16  ar  
 28  13  36  1   
 29  14  17  1   
 30  14  37  1   
 31  15  18  ar  
 32  15  19  ar  
 33  16  38  1   
 34  17  20  1   
 35  17  39  1   
 36  17  40  1   
 37  20  21  ar  
 38  20  22  ar  
 39  21  23  ar  
 40  21  41  1   
 41  22  24  ar  
 42  22  42  1   
 43  23  25  ar  
 44  23  43  1   
 45  24  25  ar  
 46  24  44  1   
 47  25  45  1   
@<TRIPOS>SUBSTRUCTURE
  1 ****   7 GROUP 4 **** **** 0

# MOE 2024.06 (io_trps.svl 2023.06)
