@<TRIPOS>MOLECULE
NONAME
36 37 1 0 0 
SMALL
USER_CHARGES


@<TRIPOS>ATOM
  1 S       -0.1100    -0.2490     0.2980 S.o2  1 <1>   1.3330 
  2 O        0.5320     0.8880     0.9100 O.2   1 <1>  -0.6500 
  3 O       -0.0830    -1.5370     0.9480 O.2   1 <1>  -0.6500 
  4 N       -1.7500     0.1510     0.1120 N.am  1 <1>  -0.8490 
  5 C        0.4760    -0.3980    -1.3760 C.3   1 <1>  -0.1350 
  6 C       -2.2270     0.9530     1.2570 C.3   1 <1>   0.1960 
  7 C       -2.6020    -1.0380    -0.0960 C.3   1 <1>   0.1960 
  8 C       -3.7130     1.3480     1.1200 C.3   1 <1>   0.3430 
  9 C       -4.0890    -0.6630    -0.2680 C.3   1 <1>   0.3430 
 10 N       -4.6070     0.1580     0.8870 N.4   1 <1>  -0.9590 
 11 C       -6.0400     0.5740     0.7840 C.3   1 <1>   0.4230 
 12 C       -6.9650    -0.6400     0.8380 C.3   1 <1>  -0.1600 
 13 C       -6.3800     1.2490    -0.5470 C.3   1 <1>  -0.1600 
 14 C       -7.2900    -1.0370    -0.6070 C.3   1 <1>  -0.1600 
 15 C       -6.9240     0.1640    -1.4860 C.3   1 <1>  -0.1600 
 16 H        0.3320     0.5260    -1.9010 H     1 <1>   0.0800 
 17 H       -0.0460    -1.1790    -1.8920 H     1 <1>   0.0800 
 18 H        1.5230    -0.6300    -1.3750 H     1 <1>   0.0800 
 19 H       -1.6500     1.8610     1.3240 H     1 <1>   0.0800 
 20 H       -2.0780     0.4060     2.1740 H     1 <1>   0.0800 
 21 H       -2.5120    -1.7130     0.7390 H     1 <1>   0.0800 
 22 H       -2.2740    -1.5640    -0.9760 H     1 <1>   0.0800 
 23 H       -3.8000     2.0330     0.2930 H     1 <1>   0.0800 
 24 H       -4.0190     1.8690     2.0120 H     1 <1>   0.0800 
 25 H       -4.6680    -1.5650    -0.3640 H     1 <1>   0.0800 
 26 H       -4.1920    -0.1050    -1.1840 H     1 <1>   0.0800 
 27 H       -4.5380    -0.4350     1.7240 H     1 <1>   0.4500 
 28 H       -6.2720     1.2380     1.6030 H     1 <1>   0.0800 
 29 H       -7.8830    -0.3290     1.3080 H     1 <1>   0.0800 
 30 H       -6.5620    -1.4570     1.4090 H     1 <1>   0.0800 
 31 H       -5.5590     1.7910    -0.9800 H     1 <1>   0.0800 
 32 H       -7.1760     1.9510    -0.3620 H     1 <1>   0.0800 
 33 H       -8.3360    -1.2780    -0.7070 H     1 <1>   0.0800 
 34 H       -6.7210    -1.9010    -0.9040 H     1 <1>   0.0800 
 35 H       -6.1820    -0.1200    -2.2130 H     1 <1>   0.0800 
 36 H       -7.7890     0.5260    -2.0190 H     1 <1>   0.0800 
@<TRIPOS>BOND
  1   1   2  2   
  2   1   3  2   
  3   1   4  am  
  4   1   5  1   
  5   4   6  1   
  6   4   7  1   
  7   5  16  1   
  8   5  17  1   
  9   5  18  1   
 10   6   8  1   
 11   6  19  1   
 12   6  20  1   
 13   7   9  1   
 14   7  21  1   
 15   7  22  1   
 16   8  10  1   
 17   8  23  1   
 18   8  24  1   
 19   9  10  1   
 20   9  25  1   
 21   9  26  1   
 22  10  11  1   
 23  10  27  1   
 24  11  12  1   
 25  11  13  1   
 26  11  28  1   
 27  12  14  1   
 28  12  29  1   
 29  12  30  1   
 30  13  15  1   
 31  13  31  1   
 32  13  32  1   
 33  14  15  1   
 34  14  33  1   
 35  14  34  1   
 36  15  35  1   
 37  15  36  1   
@<TRIPOS>SUBSTRUCTURE
  1 ****   9 GROUP 4 **** **** 0

# MOE 2024.06 (io_trps.svl 2023.06)
