@<TRIPOS>MOLECULE
NONAME
51 54 1 0 0 
SMALL
USER_CHARGES


@<TRIPOS>ATOM
  1 O        0.7010     0.7180    -1.7730 O.2   1 <1>  -0.5700 
  2 C        1.8710     0.5060    -1.5550 C.2   1 <1>   0.6900 
  3 N        2.2420    -0.4460    -0.6650 N.am  1 <1>  -0.5390 
  4 N        2.8270     1.2170    -2.1730 N.am  1 <1>  -0.7300 
  5 C        3.5490    -0.7360    -0.3300 C.2   1 <1>  -0.0290 
  6 C        4.2530     1.1590    -1.7990 C.3   1 <1>   0.5020 
  7 C        4.5730     0.0020    -0.8470 C.2   1 <1>  -0.1240 
  8 C        3.6700    -1.9190     0.6190 C.3   1 <1>  -0.1020 
  9 C        4.6190     2.5010    -1.1660 C.ar  1 <1>  -0.1440 
 10 C        5.9820    -0.1200    -0.6290 C.2   1 <1>   0.7060 
 11 C        3.9330     2.9600    -0.0420 C.ar  1 <1>  -0.1500 
 12 C        5.6530     3.2690    -1.7050 C.ar  1 <1>  -0.1500 
 13 O        6.8070     0.2700    -1.4360 O.2   1 <1>  -0.5700 
 14 O        6.4180    -0.6580     0.5150 O.3   1 <1>  -0.4300 
 15 C        4.3010     4.1740     0.5010 C.ar  1 <1>   0.0830 
 16 C        6.0080     4.4900    -1.1450 C.ar  1 <1>  -0.1500 
 17 C        7.7920    -0.7310     0.8540 C.3   1 <1>   0.1200 
 18 O        3.7850     4.7970     1.5660 O.3   1 <1>  -0.3630 
 19 C        5.3090     4.9190    -0.0360 C.ar  1 <1>   0.0830 
 20 C        8.4740    -1.9260     0.1630 C.3   1 <1>  -0.0800 
 21 C        4.5080     6.0170     1.7140 C.3   1 <1>   0.4000 
 22 O        5.4730     6.0460     0.6650 O.3   1 <1>  -0.3630 
 23 C        7.7950    -3.2630     0.5150 C.3   1 <1>  -0.1600 
 24 C        9.9640    -1.9630     0.5480 C.3   1 <1>  -0.1600 
 25 C        8.5200    -4.4530    -0.1280 C.3   1 <1>  -0.1600 
 26 C       10.6860    -3.1510    -0.1020 C.3   1 <1>  -0.1600 
 27 C       10.0040    -4.4760     0.2580 C.3   1 <1>  -0.1600 
 28 H        1.4560    -0.9570    -0.2640 H     1 <1>   0.3700 
 29 H        2.5250     2.0440    -2.6810 H     1 <1>   0.3700 
 30 H        4.8150     1.0260    -2.7090 H     1 <1>   0.0800 
 31 H        3.4000    -1.6160     1.6150 H     1 <1>   0.0800 
 32 H        4.6610    -2.3240     0.6400 H     1 <1>   0.0800 
 33 H        3.0100    -2.7090     0.3080 H     1 <1>   0.0800 
 34 H        3.1330     2.3960     0.4050 H     1 <1>   0.1500 
 35 H        6.1960     2.9150    -2.5660 H     1 <1>   0.1500 
 36 H        6.8030     5.0890    -1.5520 H     1 <1>   0.1500 
 37 H        7.8510    -0.8400     1.9230 H     1 <1>   0.0800 
 38 H        8.2650     0.1970     0.5780 H     1 <1>   0.0800 
 39 H        8.4160    -1.7780    -0.9020 H     1 <1>   0.0800 
 40 H        5.0080     6.0260     2.6660 H     1 <1>   0.0800 
 41 H        3.8350     6.8500     1.6090 H     1 <1>   0.0800 
 42 H        6.7760    -3.2550     0.1710 H     1 <1>   0.0800 
 43 H        7.7830    -3.3910     1.5830 H     1 <1>   0.0800 
 44 H       10.0580    -2.0390     1.6180 H     1 <1>   0.0800 
 45 H       10.4400    -1.0490     0.2380 H     1 <1>   0.0800 
 46 H        8.4340    -4.3850    -1.1990 H     1 <1>   0.0800 
 47 H        8.0530    -5.3720     0.1820 H     1 <1>   0.0800 
 48 H       11.7120    -3.1730     0.2250 H     1 <1>   0.0800 
 49 H       10.6830    -3.0270    -1.1720 H     1 <1>   0.0800 
 50 H       10.4970    -5.2850    -0.2530 H     1 <1>   0.0800 
 51 H       10.0950    -4.6490     1.3160 H     1 <1>   0.0800 
@<TRIPOS>BOND
  1   1   2  2   
  2   2   3  am  
  3   2   4  am  
  4   3   5  1   
  5   3  28  1   
  6   4   6  1   
  7   4  29  1   
  8   5   7  2   
  9   5   8  1   
 10   6   7  1   
 11   6   9  1   
 12   6  30  1   
 13   7  10  1   
 14   8  31  1   
 15   8  32  1   
 16   8  33  1   
 17   9  11  ar  
 18   9  12  ar  
 19  10  13  2   
 20  10  14  1   
 21  11  15  ar  
 22  11  34  1   
 23  12  16  ar  
 24  12  35  1   
 25  14  17  1   
 26  15  18  1   
 27  15  19  ar  
 28  16  19  ar  
 29  16  36  1   
 30  17  20  1   
 31  17  37  1   
 32  17  38  1   
 33  18  21  1   
 34  19  22  1   
 35  20  23  1   
 36  20  24  1   
 37  20  39  1   
 38  21  22  1   
 39  21  40  1   
 40  21  41  1   
 41  23  25  1   
 42  23  42  1   
 43  23  43  1   
 44  24  26  1   
 45  24  44  1   
 46  24  45  1   
 47  25  27  1   
 48  25  46  1   
 49  25  47  1   
 50  26  27  1   
 51  26  48  1   
 52  26  49  1   
 53  27  50  1   
 54  27  51  1   
@<TRIPOS>SUBSTRUCTURE
  1 ****  10 GROUP 4 **** **** 0

# MOE 2024.06 (io_trps.svl 2023.06)
