@<TRIPOS>MOLECULE
NONAME
47 48 1 0 0 
SMALL
USER_CHARGES


@<TRIPOS>ATOM
  1 O        1.0360     3.2710     0.5470 O.3   1 <1>  -0.5600 
  2 C        0.4860     4.3910     1.1870 C.3   1 <1>   0.2000 
  3 C        0.9430     3.1950    -0.8530 C.3   1 <1>   0.2000 
  4 C       -1.0340     4.5010     0.8910 C.3   1 <1>   0.3430 
  5 C        1.2830     5.6440     0.8010 C.3   1 <1>  -0.2400 
  6 C       -0.3970     3.7680    -1.3860 C.3   1 <1>   0.3430 
  7 C        1.0980     1.7150    -1.2020 C.3   1 <1>  -0.2400 
  8 N       -1.4540     3.7310    -0.3300 N.4   1 <1>  -0.9590 
  9 C       -2.8390     4.0270    -0.8070 C.3   1 <1>   0.3430 
 10 C       -3.8830     3.3420     0.1010 C.3   1 <1>   0.2000 
 11 O       -3.3850     2.1020     0.5050 O.3   1 <1>  -0.6800 
 12 C       -5.2300     3.1350    -0.6000 C.3   1 <1>   0.1200 
 13 O       -6.0600     2.3670     0.2470 O.3   1 <1>  -0.3630 
 14 C       -7.3270     2.0430    -0.1210 C.ar  1 <1>   0.0830 
 15 C       -8.0830     1.3390     0.8030 C.ar  1 <1>  -0.1500 
 16 C       -7.8870     2.3780    -1.3520 C.ar  1 <1>  -0.1500 
 17 C       -9.3840     0.9670     0.5140 C.ar  1 <1>  -0.1500 
 18 C       -9.1880     2.0060    -1.6400 C.ar  1 <1>  -0.1500 
 19 C       -9.9440     1.3020    -0.7160 C.ar  1 <1>   0.0830 
 20 O      -11.2110     0.9800    -1.0850 O.3   1 <1>  -0.3620 
 21 C      -12.0600     0.2610    -0.2180 C.3   1 <1>   0.0400 
 22 H        0.6150     4.2320     2.2440 H     1 <1>   0.0800 
 23 H        1.7680     3.7440    -1.2750 H     1 <1>   0.0800 
 24 H       -1.2840     5.5420     0.7780 H     1 <1>   0.0800 
 25 H       -1.5760     4.1300     1.7460 H     1 <1>   0.0800 
 26 H        1.1490     5.9100    -0.2310 H     1 <1>   0.0800 
 27 H        2.3300     5.4810     0.9930 H     1 <1>   0.0800 
 28 H        0.9650     6.4760     1.4030 H     1 <1>   0.0800 
 29 H       -0.7040     3.2000    -2.2490 H     1 <1>   0.0800 
 30 H       -0.2380     4.7850    -1.7030 H     1 <1>   0.0800 
 31 H        0.3030     1.1350    -0.7680 H     1 <1>   0.0800 
 32 H        2.0400     1.3520    -0.8290 H     1 <1>   0.0800 
 33 H        1.0860     1.5770    -2.2680 H     1 <1>   0.0800 
 34 H       -1.5060     2.7430    -0.0060 H     1 <1>   0.4500 
 35 H       -2.9600     3.6350    -1.8030 H     1 <1>   0.0800 
 36 H       -3.0130     5.0900    -0.8450 H     1 <1>   0.0800 
 37 H       -4.0380     3.9360     0.9860 H     1 <1>   0.0800 
 38 H       -4.1300     1.5740     0.8780 H     1 <1>   0.4000 
 39 H       -5.1010     2.5980    -1.5240 H     1 <1>   0.0800 
 40 H       -5.7150     4.0780    -0.7850 H     1 <1>   0.0800 
 41 H       -7.6490     1.0820     1.7520 H     1 <1>   0.1500 
 42 H       -7.3390     2.9200    -2.0970 H     1 <1>   0.1500 
 43 H       -9.9410     0.4230     1.2520 H     1 <1>   0.1500 
 44 H       -9.6300     2.2580    -2.5860 H     1 <1>   0.1500 
 45 H      -13.0020     0.1200    -0.7160 H     1 <1>   0.0800 
 46 H      -12.2050     0.8320     0.6820 H     1 <1>   0.0800 
 47 H      -11.6130    -0.6930    -0.0040 H     1 <1>   0.0800 
@<TRIPOS>BOND
  1   1   2  1   
  2   1   3  1   
  3   2   4  1   
  4   2   5  1   
  5   2  22  1   
  6   3   6  1   
  7   3   7  1   
  8   3  23  1   
  9   4   8  1   
 10   4  24  1   
 11   4  25  1   
 12   5  26  1   
 13   5  27  1   
 14   5  28  1   
 15   6   8  1   
 16   6  29  1   
 17   6  30  1   
 18   7  31  1   
 19   7  32  1   
 20   7  33  1   
 21   8   9  1   
 22   8  34  1   
 23   9  10  1   
 24   9  35  1   
 25   9  36  1   
 26  10  11  1   
 27  10  12  1   
 28  10  37  1   
 29  11  38  1   
 30  12  13  1   
 31  12  39  1   
 32  12  40  1   
 33  13  14  1   
 34  14  15  ar  
 35  14  16  ar  
 36  15  17  ar  
 37  15  41  1   
 38  16  18  ar  
 39  16  42  1   
 40  17  19  ar  
 41  17  43  1   
 42  18  19  ar  
 43  18  44  1   
 44  19  20  1   
 45  20  21  1   
 46  21  45  1   
 47  21  46  1   
 48  21  47  1   
@<TRIPOS>SUBSTRUCTURE
  1 ****  12 GROUP 4 **** **** 0

# MOE 2024.06 (io_trps.svl 2023.06)
