@<TRIPOS>MOLECULE
NONAME
36 36 1 0 0 
SMALL
USER_CHARGES


@<TRIPOS>ATOM
  1 BR       0.0270    -1.2010     1.6160 Br    1 <1>  -0.1110 
  2 C        1.8190    -1.4160     0.9440 C.ar  1 <1>   0.1110 
  3 C        2.7170    -2.1700     1.6740 C.ar  1 <1>  -0.1500 
  4 C        2.1580    -0.8100    -0.2490 C.ar  1 <1>  -0.1500 
  5 C        4.0090    -2.3270     1.1940 C.ar  1 <1>  -0.1440 
  6 C        3.4470    -0.9670    -0.7280 C.ar  1 <1>  -0.1500 
  7 C        4.3760    -1.7240    -0.0110 C.ar  1 <1>   0.0830 
  8 C        5.0090    -3.1540     1.9880 C.3   1 <1>  -0.0960 
  9 O        5.6540    -1.9100    -0.4350 O.3   1 <1>  -0.3630 
 10 C        6.1520    -1.2740    -1.6060 C.3   1 <1>   0.1810 
 11 C        7.6210    -1.6080    -1.8420 C.2   1 <1>   0.5690 
 12 O        8.1840    -1.0990    -2.7810 O.2   1 <1>  -0.5700 
 13 N        8.2570    -2.4640    -0.9990 N.am  1 <1>  -0.7300 
 14 C        9.6770    -2.8580    -1.0750 C.3   1 <1>   0.1400 
 15 C       10.2880    -2.7900     0.3220 C.3   1 <1>  -0.1600 
 16 C       11.7700    -3.1520     0.2820 C.3   1 <1>   0.1200 
 17 O       12.2460    -3.1230     1.5860 O.3   1 <1>  -0.5600 
 18 C       13.6010    -3.4110     1.7000 C.3   1 <1>   0.0400 
 19 H        2.4040    -2.6210     2.5970 H     1 <1>   0.1500 
 20 H        1.4290    -0.2310    -0.7880 H     1 <1>   0.1500 
 21 H        3.7020    -0.4940    -1.6580 H     1 <1>   0.1500 
 22 H        4.5690    -3.5340     2.8930 H     1 <1>   0.0800 
 23 H        5.8580    -2.5470     2.2500 H     1 <1>   0.0800 
 24 H        5.3470    -3.9850     1.3960 H     1 <1>   0.0800 
 25 H        6.0470    -0.2120    -1.4870 H     1 <1>   0.0800 
 26 H        5.5760    -1.6120    -2.4480 H     1 <1>   0.0800 
 27 H        7.7130    -2.8540    -0.2250 H     1 <1>   0.3700 
 28 H       10.2020    -2.1940    -1.7420 H     1 <1>   0.0800 
 29 H        9.7450    -3.8590    -1.4650 H     1 <1>   0.0800 
 30 H        9.7780    -3.4790     0.9710 H     1 <1>   0.0800 
 31 H       10.1860    -1.7910     0.7080 H     1 <1>   0.0800 
 32 H       12.3210    -2.4370    -0.3050 H     1 <1>   0.0800 
 33 H       11.9120    -4.1440    -0.1130 H     1 <1>   0.0800 
 34 H       13.8650    -3.3630     2.7420 H     1 <1>   0.0800 
 35 H       14.1680    -2.6810     1.1490 H     1 <1>   0.0800 
 36 H       13.7870    -4.4020     1.3240 H     1 <1>   0.0800 
@<TRIPOS>BOND
  1   1   2  1   
  2   2   3  ar  
  3   2   4  ar  
  4   3   5  ar  
  5   3  19  1   
  6   4   6  ar  
  7   4  20  1   
  8   5   7  ar  
  9   5   8  1   
 10   6   7  ar  
 11   6  21  1   
 12   7   9  1   
 13   8  22  1   
 14   8  23  1   
 15   8  24  1   
 16   9  10  1   
 17  10  11  1   
 18  10  25  1   
 19  10  26  1   
 20  11  12  2   
 21  11  13  am  
 22  13  14  1   
 23  13  27  1   
 24  14  15  1   
 25  14  28  1   
 26  14  29  1   
 27  15  16  1   
 28  15  30  1   
 29  15  31  1   
 30  16  17  1   
 31  16  32  1   
 32  16  33  1   
 33  17  18  1   
 34  18  34  1   
 35  18  35  1   
 36  18  36  1   
@<TRIPOS>SUBSTRUCTURE
  1 ****   9 GROUP 4 **** **** 0

# MOE 2024.06 (io_trps.svl 2023.06)
