@<TRIPOS>MOLECULE
NONAME
34 35 1 0 0 
SMALL
USER_CHARGES


@<TRIPOS>ATOM
  1 F        0.0440    -0.6920     0.5040 F     1 <1>  -0.3400 
  2 C       -0.7720     0.1560     1.1310 C.3   1 <1>   1.0200 
  3 F       -0.4990     0.0450     2.4300 F     1 <1>  -0.3400 
  4 F       -1.9940    -0.3550     0.9780 F     1 <1>  -0.3400 
  5 C       -0.6630     1.6600     0.5680 C.3   1 <1>   0.5400 
  6 N        0.6690     2.2740     0.7480 N.3   1 <1>  -0.9000 
  7 N       -0.9080     1.7700    -0.8920 N.3   1 <1>  -0.9000 
  8 C       -1.6960     2.5450     1.2920 C.3   1 <1>  -0.0990 
  9 C        1.2910     2.4380    -0.5490 C.3   1 <1>   0.1100 
 10 C        0.1160     2.6230    -1.4750 C.3   1 <1>   0.1100 
 11 C       -1.6790     4.0040     0.8680 C.2   1 <1>   0.4230 
 12 O       -0.8000     4.6800     1.3430 O.2   1 <1>  -0.5700 
 13 C       -2.6890     4.5510    -0.0200 C.ar  1 <1>   0.0860 
 14 C       -3.4900     3.7730    -0.8610 C.ar  1 <1>  -0.1500 
 15 C       -2.8960     5.9320    -0.0650 C.ar  1 <1>  -0.1500 
 16 C       -4.4480     4.3380    -1.6830 C.ar  1 <1>  -0.1500 
 17 C       -3.8520     6.5040    -0.8850 C.ar  1 <1>  -0.1500 
 18 C       -4.6380     5.7080    -1.6990 C.ar  1 <1>  -0.1430 
 19 C       -5.6880     6.3300    -2.6020 C.3   1 <1>  -0.0970 
 20 H        0.4680     3.2300     1.0930 H     1 <1>   0.3600 
 21 H       -0.7210     0.8290    -1.2600 H     1 <1>   0.3600 
 22 H       -1.4930     2.5100     2.3470 H     1 <1>   0.0800 
 23 H       -2.6800     2.1380     1.1630 H     1 <1>   0.0800 
 24 H        1.8350     1.5460    -0.8110 H     1 <1>   0.0800 
 25 H        1.9560     3.2850    -0.5640 H     1 <1>   0.0800 
 26 H       -0.2040     3.6520    -1.4620 H     1 <1>   0.0800 
 27 H        0.3470     2.3350    -2.4860 H     1 <1>   0.0800 
 28 H       -3.3660     2.7060    -0.8940 H     1 <1>   0.1500 
 29 H       -2.2940     6.5700     0.5590 H     1 <1>   0.1500 
 30 H       -5.0450     3.7050    -2.3170 H     1 <1>   0.1500 
 31 H       -3.9790     7.5720    -0.8880 H     1 <1>   0.1500 
 32 H       -5.2570     6.5510    -3.5620 H     1 <1>   0.0800 
 33 H       -6.0630     7.2420    -2.1720 H     1 <1>   0.0800 
 34 H       -6.5140     5.6560    -2.7380 H     1 <1>   0.0800 
@<TRIPOS>BOND
  1   1   2  1   
  2   2   3  1   
  3   2   4  1   
  4   2   5  1   
  5   5   6  1   
  6   5   7  1   
  7   5   8  1   
  8   6   9  1   
  9   6  20  1   
 10   7  10  1   
 11   7  21  1   
 12   8  11  1   
 13   8  22  1   
 14   8  23  1   
 15   9  10  1   
 16   9  24  1   
 17   9  25  1   
 18  10  26  1   
 19  10  27  1   
 20  11  12  2   
 21  11  13  1   
 22  13  14  ar  
 23  13  15  ar  
 24  14  16  ar  
 25  14  28  1   
 26  15  17  ar  
 27  15  29  1   
 28  16  18  ar  
 29  16  30  1   
 30  17  18  ar  
 31  17  31  1   
 32  18  19  1   
 33  19  32  1   
 34  19  33  1   
 35  19  34  1   
@<TRIPOS>SUBSTRUCTURE
  1 ****  11 GROUP 4 **** **** 0

# MOE 2024.06 (io_trps.svl 2023.06)
