@<TRIPOS>MOLECULE
NONAME
49 50 1 0 0 
SMALL
USER_CHARGES


@<TRIPOS>ATOM
  1 O        3.3520    -2.9900    -2.8360 O.2   1 <1>  -0.5700 
  2 C        3.5630    -2.5330    -1.7410 C.2   1 <1>   0.5690 
  3 N        4.2280    -1.3590    -1.6360 N.am  1 <1>  -0.7300 
  4 C        3.0610    -3.3110    -0.5250 C.3   1 <1>  -0.0190 
  5 C        4.6580    -0.5960    -0.4320 C.3   1 <1>   0.1400 
  6 C        3.6530    -4.7310    -0.4840 C.3   1 <1>  -0.1600 
  7 C        1.5230    -3.3840    -0.5310 C.3   1 <1>  -0.1600 
  8 C        3.5540     0.3330     0.0940 C.3   1 <1>   0.1200 
  9 C        3.0890    -5.5450     0.6790 C.3   1 <1>   0.3430 
 10 C        0.9980    -4.2030     0.6420 C.3   1 <1>   0.3430 
 11 O        2.5050    -0.4160     0.6340 O.3   1 <1>  -0.5600 
 12 N        1.6060    -5.5620     0.5970 N.4   1 <1>  -0.9590 
 13 C        1.4350     0.3650     1.0640 C.3   1 <1>   0.0400 
 14 C        0.9940    -6.4900     1.5780 C.3   1 <1>   0.4860 
 15 C       -0.4650    -6.6930     1.2150 C.ar  1 <1>  -0.1440 
 16 C       -0.8140    -7.2060    -0.0320 C.ar  1 <1>   0.0820 
 17 C       -1.4540    -6.3670     2.1300 C.ar  1 <1>  -0.1500 
 18 O        0.1950    -7.4990    -0.8980 O.3   1 <1>  -0.3630 
 19 C       -2.1580    -7.3880    -0.3470 C.ar  1 <1>  -0.1500 
 20 C       -2.7880    -6.5490     1.8090 C.ar  1 <1>  -0.1500 
 21 C       -0.0640    -8.0870    -2.1570 C.3   1 <1>   0.0400 
 22 C       -3.1380    -7.0590     0.5720 C.ar  1 <1>  -0.1500 
 23 H        4.4540    -0.9260    -2.5350 H     1 <1>   0.3700 
 24 H        3.3650    -2.8030     0.3700 H     1 <1>   0.0800 
 25 H        5.5120     0.0020    -0.7020 H     1 <1>   0.0800 
 26 H        4.9700    -1.2660     0.3490 H     1 <1>   0.0800 
 27 H        4.7230    -4.6680    -0.3860 H     1 <1>   0.0800 
 28 H        3.4460    -5.2440    -1.4080 H     1 <1>   0.0800 
 29 H        1.1760    -3.8170    -1.4530 H     1 <1>   0.0800 
 30 H        1.1190    -2.3890    -0.4740 H     1 <1>   0.0800 
 31 H        3.1770     0.9470    -0.7050 H     1 <1>   0.0800 
 32 H        3.9510     0.9630     0.8720 H     1 <1>   0.0800 
 33 H        3.3980    -5.1030     1.6120 H     1 <1>   0.0800 
 34 H        3.4740    -6.5510     0.6310 H     1 <1>   0.0800 
 35 H       -0.0770    -4.2740     0.5730 H     1 <1>   0.0800 
 36 H        1.2510    -3.7140     1.5680 H     1 <1>   0.0800 
 37 H        1.3390    -5.9730    -0.3150 H     1 <1>   0.4500 
 38 H        0.6850    -0.2850     1.4780 H     1 <1>   0.0800 
 39 H        1.0250     0.9000     0.2230 H     1 <1>   0.0800 
 40 H        1.7750     1.0530     1.8190 H     1 <1>   0.0800 
 41 H        1.0800    -6.0930     2.5760 H     1 <1>   0.0800 
 42 H        1.4940    -7.4450     1.5410 H     1 <1>   0.0800 
 43 H       -1.2050    -5.9740     3.1010 H     1 <1>   0.1500 
 44 H       -2.4670    -7.7810    -1.2980 H     1 <1>   0.1500 
 45 H       -3.5560    -6.2980     2.5210 H     1 <1>   0.1500 
 46 H       -0.6670    -7.4150    -2.7430 H     1 <1>   0.0800 
 47 H       -0.5700    -9.0250    -2.0100 H     1 <1>   0.0800 
 48 H        0.8760    -8.2560    -2.6520 H     1 <1>   0.0800 
 49 H       -4.1770    -7.2020     0.3260 H     1 <1>   0.1500 
@<TRIPOS>BOND
  1   1   2  2   
  2   2   3  am  
  3   2   4  1   
  4   3   5  1   
  5   3  23  1   
  6   4   6  1   
  7   4   7  1   
  8   4  24  1   
  9   5   8  1   
 10   5  25  1   
 11   5  26  1   
 12   6   9  1   
 13   6  27  1   
 14   6  28  1   
 15   7  10  1   
 16   7  29  1   
 17   7  30  1   
 18   8  11  1   
 19   8  31  1   
 20   8  32  1   
 21   9  12  1   
 22   9  33  1   
 23   9  34  1   
 24  10  12  1   
 25  10  35  1   
 26  10  36  1   
 27  11  13  1   
 28  12  14  1   
 29  12  37  1   
 30  13  38  1   
 31  13  39  1   
 32  13  40  1   
 33  14  15  1   
 34  14  41  1   
 35  14  42  1   
 36  15  16  ar  
 37  15  17  ar  
 38  16  18  1   
 39  16  19  ar  
 40  17  20  ar  
 41  17  43  1   
 42  18  21  1   
 43  19  22  ar  
 44  19  44  1   
 45  20  22  ar  
 46  20  45  1   
 47  21  46  1   
 48  21  47  1   
 49  21  48  1   
 50  22  49  1   
@<TRIPOS>SUBSTRUCTURE
  1 ****  10 GROUP 4 **** **** 0

# MOE 2024.06 (io_trps.svl 2023.06)
