@<TRIPOS>MOLECULE
NONAME
48 50 1 0 0 
SMALL
USER_CHARGES


@<TRIPOS>ATOM
  1 CL      -1.0490     1.5580    -3.0360 Cl    1 <1>  -0.1770 
  2 C       -1.7060     1.9360    -1.4640 C.ar  1 <1>   0.1770 
  3 C       -3.0670     2.1200    -1.3300 C.ar  1 <1>  -0.1500 
  4 C       -0.8520     2.0430    -0.3830 C.ar  1 <1>  -0.1500 
  5 C       -3.6150     2.4110    -0.0820 C.ar  1 <1>   0.0530 
  6 C       -1.3800     2.3460     0.8600 C.ar  1 <1>  -0.1500 
  7 C       -5.0340     2.5860     0.0980 C.2   1 <1>   0.1330 
  8 C       -2.7450     2.5290     1.0010 C.ar  1 <1>  -0.1500 
  9 N       -5.6030     3.6860     0.5090 N.2   1 <1>  -0.3380 
 10 N       -5.9560     1.6260    -0.1140 N.pl3 1 <1>   0.0480 
 11 N       -6.9160     3.4690     0.5730 N.2   1 <1>  -0.3380 
 12 C       -7.0860     2.2500     0.2040 C.2   1 <1>   0.2430 
 13 C       -5.7620     0.2150    -0.5190 C.3   1 <1>   0.0960 
 14 S       -8.6940     1.4570     0.1350 S.3   1 <1>  -0.2860 
 15 C       -5.3880    -0.6470     0.6910 C.3   1 <1>  -0.2400 
 16 C       -9.8310     2.7860     0.7750 C.3   1 <1>   0.1310 
 17 C      -11.2830     2.3330     0.7700 C.2   1 <1>   0.5690 
 18 O      -12.0580     2.8850     1.5130 O.2   1 <1>  -0.5700 
 19 N      -11.6760     1.3370    -0.0670 N.am  1 <1>  -0.7300 
 20 C      -13.0380     0.7960    -0.1780 C.3   1 <1>   0.2200 
 21 C      -13.0200    -0.6770     0.2430 C.3   1 <1>  -0.1600 
 22 C      -13.5190     0.9570    -1.6240 C.3   1 <1>  -0.1600 
 23 C      -14.3970    -1.3280     0.0440 C.3   1 <1>  -0.1600 
 24 C      -14.8970     0.3090    -1.8260 C.3   1 <1>  -0.1600 
 25 C      -14.8840    -1.1660    -1.4030 C.3   1 <1>  -0.1600 
 26 H       -3.6980     2.0450    -2.1950 H     1 <1>   0.1500 
 27 H        0.2050     1.8960    -0.5160 H     1 <1>   0.1500 
 28 H       -0.7310     2.4430     1.7140 H     1 <1>   0.1500 
 29 H       -3.1540     2.7730     1.9680 H     1 <1>   0.1500 
 30 H       -4.9860     0.1630    -1.2600 H     1 <1>   0.0800 
 31 H       -6.6710    -0.1530    -0.9630 H     1 <1>   0.0800 
 32 H       -4.4650    -0.3060     1.1260 H     1 <1>   0.0800 
 33 H       -5.2600    -1.6690     0.3830 H     1 <1>   0.0800 
 34 H       -6.1670    -0.6110     1.4320 H     1 <1>   0.0800 
 35 H       -9.7070     3.6460     0.1450 H     1 <1>   0.0800 
 36 H       -9.5160     3.0190     1.7750 H     1 <1>   0.0800 
 37 H      -10.9710     0.8730    -0.6420 H     1 <1>   0.3700 
 38 H      -13.7000     1.3410     0.4760 H     1 <1>   0.0800 
 39 H      -12.7420    -0.7450     1.2800 H     1 <1>   0.0800 
 40 H      -12.2930    -1.2110    -0.3430 H     1 <1>   0.0800 
 41 H      -12.8140     0.4940    -2.2920 H     1 <1>   0.0800 
 42 H      -13.5810     2.0040    -1.8620 H     1 <1>   0.0800 
 43 H      -15.1070    -0.8690     0.7110 H     1 <1>   0.0800 
 44 H      -14.3420    -2.3740     0.2920 H     1 <1>   0.0800 
 45 H      -15.1840     0.3860    -2.8610 H     1 <1>   0.0800 
 46 H      -15.6290     0.8400    -1.2410 H     1 <1>   0.0800 
 47 H      -15.8740    -1.5770    -1.4980 H     1 <1>   0.0800 
 48 H      -14.2350    -1.7200    -2.0610 H     1 <1>   0.0800 
@<TRIPOS>BOND
  1   1   2  1   
  2   2   3  ar  
  3   2   4  ar  
  4   3   5  ar  
  5   3  26  1   
  6   4   6  ar  
  7   4  27  1   
  8   5   7  1   
  9   5   8  ar  
 10   6   8  ar  
 11   6  28  1   
 12   7   9  2   
 13   7  10  1   
 14   8  29  1   
 15   9  11  1   
 16  10  12  1   
 17  10  13  1   
 18  11  12  2   
 19  12  14  1   
 20  13  15  1   
 21  13  30  1   
 22  13  31  1   
 23  14  16  1   
 24  15  32  1   
 25  15  33  1   
 26  15  34  1   
 27  16  17  1   
 28  16  35  1   
 29  16  36  1   
 30  17  18  2   
 31  17  19  am  
 32  19  20  1   
 33  19  37  1   
 34  20  21  1   
 35  20  22  1   
 36  20  38  1   
 37  21  23  1   
 38  21  39  1   
 39  21  40  1   
 40  22  24  1   
 41  22  41  1   
 42  22  42  1   
 43  23  25  1   
 44  23  43  1   
 45  23  44  1   
 46  24  25  1   
 47  24  45  1   
 48  24  46  1   
 49  25  47  1   
 50  25  48  1   
@<TRIPOS>SUBSTRUCTURE
  1 ****  14 GROUP 4 **** **** 0

# MOE 2024.06 (io_trps.svl 2023.06)
