@<TRIPOS>MOLECULE
NONAME
45 47 1 0 0 
SMALL
USER_CHARGES


@<TRIPOS>ATOM
  1 O       -0.8890     0.0300    -1.3960 O.2   1 <1>  -0.5700 
  2 C       -1.6190    -0.5640    -0.6250 C.2   1 <1>   0.5440 
  3 N       -1.2870    -1.8490    -0.2430 N.am  1 <1>  -0.6600 
  4 C       -2.8090     0.0990    -0.1270 C.ar  1 <1>   0.0860 
  5 C       -0.2620    -2.6420    -0.9760 C.3   1 <1>   0.1400 
  6 C       -1.8020    -2.5080     0.9890 C.3   1 <1>   0.1400 
  7 C       -4.0640    -0.4980    -0.2220 C.ar  1 <1>  -0.1500 
  8 C       -2.7370     1.3610     0.4580 C.ar  1 <1>  -0.1500 
  9 C       -0.8460    -4.0090    -1.3500 C.3   1 <1>  -0.1600 
 10 C       -2.4090    -3.8680     0.6290 C.3   1 <1>  -0.1600 
 11 C       -5.2160     0.1070     0.2620 C.ar  1 <1>   0.0000 
 12 C       -3.8690     1.9870     0.9450 C.ar  1 <1>  -0.1500 
 13 C       -1.4020    -4.7500    -0.1240 C.3   1 <1>  -0.1600 
 14 C       -6.4990    -0.5480     0.1550 C.ar  1 <1>   0.0000 
 15 C       -5.0980     1.3620     0.8500 C.ar  1 <1>  -0.1500 
 16 C       -7.5570     0.0550    -0.5180 C.ar  1 <1>  -0.1500 
 17 C       -6.7130    -1.8030     0.7190 C.ar  1 <1>  -0.1500 
 18 C       -8.7880    -0.5660    -0.6240 C.ar  1 <1>  -0.1500 
 19 C       -7.9400    -2.4310     0.6170 C.ar  1 <1>  -0.1500 
 20 C       -8.9890    -1.8160    -0.0490 C.ar  1 <1>   0.0820 
 21 O      -10.1640    -2.4930    -0.1160 O.3   1 <1>  -0.2320 
 22 C      -11.3990    -2.0050    -0.2230 C.2   1 <1>   0.6590 
 23 O      -11.6700    -0.8340    -0.2110 O.2   1 <1>  -0.5700 
 24 C      -12.4840    -3.0440    -0.3600 C.3   1 <1>  -0.1790 
 25 H        0.6010    -2.7670    -0.3460 H     1 <1>   0.0800 
 26 H        0.0470    -2.1280    -1.8700 H     1 <1>   0.0800 
 27 H       -2.5350    -1.8950     1.4810 H     1 <1>   0.0800 
 28 H       -0.9820    -2.6500     1.6720 H     1 <1>   0.0800 
 29 H       -4.1400    -1.4610    -0.6960 H     1 <1>   0.1500 
 30 H       -1.7780     1.8470     0.5240 H     1 <1>   0.1500 
 31 H       -0.0820    -4.6040    -1.8160 H     1 <1>   0.0800 
 32 H       -1.6310    -3.8610    -2.0710 H     1 <1>   0.0800 
 33 H       -3.2820    -3.7130     0.0190 H     1 <1>   0.0800 
 34 H       -2.7230    -4.3670     1.5290 H     1 <1>   0.0800 
 35 H       -3.7930     2.9620     1.3970 H     1 <1>   0.1500 
 36 H       -0.5890    -5.0050     0.5350 H     1 <1>   0.0800 
 37 H       -1.8780    -5.6630    -0.4350 H     1 <1>   0.0800 
 38 H       -5.9780     1.8490     1.2340 H     1 <1>   0.1500 
 39 H       -7.4100     1.0220    -0.9670 H     1 <1>   0.1500 
 40 H       -5.9080    -2.2870     1.2440 H     1 <1>   0.1500 
 41 H       -9.5770    -0.0720    -1.1610 H     1 <1>   0.1500 
 42 H       -8.0900    -3.4000     1.0580 H     1 <1>   0.1500 
 43 H      -12.4840    -3.6810     0.5040 H     1 <1>   0.0800 
 44 H      -12.3100    -3.6330    -1.2400 H     1 <1>   0.0800 
 45 H      -13.4410    -2.5620    -0.4430 H     1 <1>   0.0800 
@<TRIPOS>BOND
  1   1   2  2   
  2   2   3  am  
  3   2   4  1   
  4   3   5  1   
  5   3   6  1   
  6   4   7  ar  
  7   4   8  ar  
  8   5   9  1   
  9   5  25  1   
 10   5  26  1   
 11   6  10  1   
 12   6  27  1   
 13   6  28  1   
 14   7  11  ar  
 15   7  29  1   
 16   8  12  ar  
 17   8  30  1   
 18   9  13  1   
 19   9  31  1   
 20   9  32  1   
 21  10  13  1   
 22  10  33  1   
 23  10  34  1   
 24  11  14  1   
 25  11  15  ar  
 26  12  15  ar  
 27  12  35  1   
 28  13  36  1   
 29  13  37  1   
 30  14  16  ar  
 31  14  17  ar  
 32  15  38  1   
 33  16  18  ar  
 34  16  39  1   
 35  17  19  ar  
 36  17  40  1   
 37  18  20  ar  
 38  18  41  1   
 39  19  20  ar  
 40  19  42  1   
 41  20  21  1   
 42  21  22  1   
 43  22  23  2   
 44  22  24  1   
 45  24  43  1   
 46  24  44  1   
 47  24  45  1   
@<TRIPOS>SUBSTRUCTURE
  1 ****  11 GROUP 4 **** **** 0

# MOE 2024.06 (io_trps.svl 2023.06)
