@<TRIPOS>MOLECULE
NONAME
42 42 1 0 0 
SMALL
USER_CHARGES


@<TRIPOS>ATOM
  1 N        0.1100     0.1310    -0.1650 N.4   1 <1>  -0.9590 
  2 C        1.1970    -0.2410    -1.1270 C.3   1 <1>   0.4860 
  3 C       -1.1570    -0.6360    -0.4470 C.3   1 <1>   0.3430 
  4 C       -0.0620     1.6260    -0.1510 C.3   1 <1>   0.2630 
  5 C        2.5090     0.2390    -0.5430 C.ar  1 <1>  -0.1440 
  6 C       -2.2640    -0.4680     0.6360 C.3   1 <1>   0.3430 
  7 C        3.1430    -0.4360     0.4970 C.ar  1 <1>  -0.1440 
  8 C        3.0800     1.3940    -1.0600 C.ar  1 <1>  -0.1500 
  9 N       -3.5490    -1.2120     0.3490 N.4   1 <1>  -0.9590 
 10 C        4.3200     0.0790     1.0190 C.ar  1 <1>  -0.1500 
 11 C        2.6140    -1.7370     1.0930 C.3   1 <1>  -0.0970 
 12 C        4.2570     1.8920    -0.5330 C.ar  1 <1>  -0.1500 
 13 C       -4.6020    -0.8330     1.3520 C.3   1 <1>   0.2630 
 14 C       -3.3960    -2.7080     0.3550 C.3   1 <1>   0.2630 
 15 C        4.8800     1.2380     0.5130 C.ar  1 <1>  -0.1430 
 16 C        6.1710     1.7810     1.1000 C.3   1 <1>  -0.0970 
 17 H        0.5200    -0.1300     0.7480 H     1 <1>   0.4500 
 18 H        1.0290     0.2160    -2.0890 H     1 <1>   0.0800 
 19 H        1.2410    -1.3090    -1.2580 H     1 <1>   0.0800 
 20 H       -0.9150    -1.6830    -0.5240 H     1 <1>   0.0800 
 21 H       -1.5510    -0.3140    -1.3980 H     1 <1>   0.0800 
 22 H       -0.3860     1.9800    -1.1160 H     1 <1>   0.0800 
 23 H        0.8740     2.1070     0.0900 H     1 <1>   0.0800 
 24 H       -0.7850     1.9230     0.5910 H     1 <1>   0.0800 
 25 H       -2.4910     0.5820     0.7240 H     1 <1>   0.0800 
 26 H       -1.8740    -0.8020     1.5840 H     1 <1>   0.0800 
 27 H        2.6250     1.9250    -1.8790 H     1 <1>   0.1500 
 28 H       -3.9230    -0.9340    -0.5760 H     1 <1>   0.4500 
 29 H        4.8180    -0.4270     1.8280 H     1 <1>   0.1500 
 30 H        1.8320    -1.5380     1.8020 H     1 <1>   0.0800 
 31 H        3.4030    -2.2540     1.6120 H     1 <1>   0.0800 
 32 H        2.2550    -2.3980     0.3260 H     1 <1>   0.0800 
 33 H        4.6890     2.7910    -0.9400 H     1 <1>   0.1500 
 34 H       -4.2960    -1.1130     2.3480 H     1 <1>   0.0800 
 35 H       -5.5310    -1.3350     1.1290 H     1 <1>   0.0800 
 36 H       -4.7810     0.2300     1.3330 H     1 <1>   0.0800 
 37 H       -3.0380    -3.0480     1.3150 H     1 <1>   0.0800 
 38 H       -2.7040    -3.0280    -0.4070 H     1 <1>   0.0800 
 39 H       -4.3470    -3.1800     0.1640 H     1 <1>   0.0800 
 40 H        6.8260     0.9730     1.3740 H     1 <1>   0.0800 
 41 H        5.9580     2.3660     1.9760 H     1 <1>   0.0800 
 42 H        6.6830     2.4010     0.3860 H     1 <1>   0.0800 
@<TRIPOS>BOND
  1   1   2  1   
  2   1   3  1   
  3   1   4  1   
  4   1  17  1   
  5   2   5  1   
  6   2  18  1   
  7   2  19  1   
  8   3   6  1   
  9   3  20  1   
 10   3  21  1   
 11   4  22  1   
 12   4  23  1   
 13   4  24  1   
 14   5   7  ar  
 15   5   8  ar  
 16   6   9  1   
 17   6  25  1   
 18   6  26  1   
 19   7  10  ar  
 20   7  11  1   
 21   8  12  ar  
 22   8  27  1   
 23   9  13  1   
 24   9  14  1   
 25   9  28  1   
 26  10  15  ar  
 27  10  29  1   
 28  11  30  1   
 29  11  31  1   
 30  11  32  1   
 31  12  15  ar  
 32  12  33  1   
 33  13  34  1   
 34  13  35  1   
 35  13  36  1   
 36  14  37  1   
 37  14  38  1   
 38  14  39  1   
 39  15  16  1   
 40  16  40  1   
 41  16  41  1   
 42  16  42  1   
@<TRIPOS>SUBSTRUCTURE
  1 ****   1 GROUP 4 **** **** 0

# MOE 2024.06 (io_trps.svl 2023.06)
