@<TRIPOS>MOLECULE
NONAME
46 47 1 0 0 
SMALL
USER_CHARGES


@<TRIPOS>ATOM
  1 S       -0.2230     0.2350    -0.7970 S.o2  1 <1>   1.4470 
  2 O       -0.8190    -1.0760    -0.9650 O.2   1 <1>  -0.6500 
  3 O       -0.3320     1.1860    -1.8820 O.2   1 <1>  -0.6500 
  4 N       -0.9130     0.8960     0.6140 N.am  1 <1>  -0.8490 
  5 C        1.5370     0.0370    -0.3570 C.ar  1 <1>  -0.0090 
  6 C       -2.2100     1.5800     0.4830 C.3   1 <1>   0.2760 
  7 C       -0.9360    -0.0640     1.7250 C.3   1 <1>   0.1160 
  8 C        2.3740     1.1070    -0.0260 C.ar  1 <1>  -0.1440 
  9 C        2.0810    -1.2420    -0.3340 C.ar  1 <1>  -0.1500 
 10 C       -3.2520     0.8200    -0.3580 C.3   1 <1>  -0.1600 
 11 C       -2.0360     3.0240    -0.0080 C.3   1 <1>  -0.1600 
 12 C        3.6980     0.8780     0.3190 C.ar  1 <1>  -0.1500 
 13 C        1.8760     2.5470    -0.0310 C.3   1 <1>  -0.0970 
 14 C        3.4080    -1.4750     0.0090 C.ar  1 <1>   0.0830 
 15 C       -4.5970     1.5620    -0.3530 C.3   1 <1>  -0.1600 
 16 C       -3.3810     3.7660    -0.0090 C.3   1 <1>  -0.1600 
 17 C        4.2230    -0.4010     0.3420 C.ar  1 <1>  -0.1430 
 18 O        3.9570    -2.7180     0.0370 O.3   1 <1>  -0.3630 
 19 C       -4.4310     3.0100    -0.8360 C.3   1 <1>  -0.1600 
 20 C        5.6790    -0.6200     0.7240 C.3   1 <1>  -0.0970 
 21 C        3.2370    -3.8610    -0.3720 C.3   1 <1>   0.0400 
 22 H       -2.6260     1.6710     1.4730 H     1 <1>   0.0800 
 23 H        0.0480    -0.4730     1.8830 H     1 <1>   0.0800 
 24 H       -1.6160    -0.8720     1.5110 H     1 <1>   0.0800 
 25 H       -1.2430     0.4240     2.6340 H     1 <1>   0.0800 
 26 H        1.4420    -2.0650    -0.5930 H     1 <1>   0.1500 
 27 H       -3.3920    -0.1710     0.0340 H     1 <1>   0.0800 
 28 H       -2.9220     0.7410    -1.3780 H     1 <1>   0.0800 
 29 H       -1.6440     3.0390    -1.0070 H     1 <1>   0.0800 
 30 H       -1.3460     3.5390     0.6360 H     1 <1>   0.0800 
 31 H        4.3320     1.7080     0.5730 H     1 <1>   0.1500 
 32 H        1.4760     2.8040    -0.9950 H     1 <1>   0.0800 
 33 H        2.6730     3.2340     0.1870 H     1 <1>   0.0800 
 34 H        1.1120     2.6800     0.7130 H     1 <1>   0.0800 
 35 H       -5.0060     1.5620     0.6430 H     1 <1>   0.0800 
 36 H       -5.2920     1.0470    -0.9940 H     1 <1>   0.0800 
 37 H       -3.2460     4.7540    -0.4160 H     1 <1>   0.0800 
 38 H       -3.7340     3.8730     1.0030 H     1 <1>   0.0800 
 39 H       -5.3760     3.5220    -0.7750 H     1 <1>   0.0800 
 40 H       -4.1280     3.0050    -1.8700 H     1 <1>   0.0800 
 41 H        6.1670     0.3090     0.9570 H     1 <1>   0.0800 
 42 H        6.2020    -1.0880    -0.0910 H     1 <1>   0.0800 
 43 H        5.7370    -1.2640     1.5840 H     1 <1>   0.0800 
 44 H        3.8900    -4.7110    -0.2980 H     1 <1>   0.0800 
 45 H        2.9220    -3.7290    -1.3920 H     1 <1>   0.0800 
 46 H        2.3910    -3.9920     0.2800 H     1 <1>   0.0800 
@<TRIPOS>BOND
  1   1   2  2   
  2   1   3  2   
  3   1   4  am  
  4   1   5  1   
  5   4   6  1   
  6   4   7  1   
  7   5   8  ar  
  8   5   9  ar  
  9   6  10  1   
 10   6  11  1   
 11   6  22  1   
 12   7  23  1   
 13   7  24  1   
 14   7  25  1   
 15   8  12  ar  
 16   8  13  1   
 17   9  14  ar  
 18   9  26  1   
 19  10  15  1   
 20  10  27  1   
 21  10  28  1   
 22  11  16  1   
 23  11  29  1   
 24  11  30  1   
 25  12  17  ar  
 26  12  31  1   
 27  13  32  1   
 28  13  33  1   
 29  13  34  1   
 30  14  17  ar  
 31  14  18  1   
 32  15  19  1   
 33  15  35  1   
 34  15  36  1   
 35  16  19  1   
 36  16  37  1   
 37  16  38  1   
 38  17  20  1   
 39  18  21  1   
 40  19  39  1   
 41  19  40  1   
 42  20  41  1   
 43  20  42  1   
 44  20  43  1   
 45  21  44  1   
 46  21  45  1   
 47  21  46  1   
@<TRIPOS>SUBSTRUCTURE
  1 ****   1 GROUP 4 **** **** 0

# MOE 2024.06 (io_trps.svl 2023.06)
