@<TRIPOS>MOLECULE
NONAME
52 55 1 0 0 
SMALL
USER_CHARGES


@<TRIPOS>ATOM
  1 S       -1.4190    -0.6740    -1.9960 S.3   1 <1>  -0.0800 
  2 C       -0.6780     0.5230    -0.9360 C.2   1 <1>   0.3250 
  3 C       -0.0100    -0.6700    -3.0070 C.2   1 <1>  -0.1100 
  4 N        0.5010     0.8610    -1.3370 N.2   1 <1>  -0.5650 
  5 C       -1.4070     0.9990     0.2210 C.ar  1 <1>   0.0530 
  6 C        0.8750     0.1970    -2.4960 C.2   1 <1>   0.0460 
  7 C       -1.0130     2.1750     0.8610 C.ar  1 <1>  -0.1500 
  8 C       -2.5100     0.3280     0.7550 C.ar  1 <1>  -0.1500 
  9 C        2.2580     0.5120    -3.0480 C.3   1 <1>   0.5240 
 10 C       -1.6800     2.6570     1.9720 C.ar  1 <1>  -0.1500 
 11 C       -3.1800     0.8070     1.8650 C.ar  1 <1>  -0.1500 
 12 N        3.1970     0.5720    -1.8960 N.4   1 <1>  -0.9590 
 13 C       -2.7710     1.9760     2.4820 C.ar  1 <1>  -0.1430 
 14 C        4.4510     1.3410    -2.1890 C.3   1 <1>   0.3430 
 15 C        3.4750    -0.7870    -1.3160 C.3   1 <1>   0.3430 
 16 C       -3.5060     2.5010     3.7010 C.3   1 <1>  -0.0970 
 17 C        5.3510     1.4430    -0.9470 C.3   1 <1>   0.1400 
 18 C        4.4040    -0.7270    -0.0880 C.3   1 <1>   0.1400 
 19 N        5.6270     0.0890    -0.3700 N.am  1 <1>  -0.6600 
 20 C        6.9220    -0.3120    -0.1070 C.2   1 <1>   0.5690 
 21 O        7.8410     0.2940    -0.6100 O.2   1 <1>  -0.5700 
 22 C        7.2640    -1.5370     0.7800 C.3   1 <1>   0.2610 
 23 O        6.3570    -1.7370     1.8420 O.3   1 <1>  -0.5600 
 24 C        8.6360    -1.4760     1.4500 C.3   1 <1>  -0.1600 
 25 C        6.9920    -2.1930     2.9990 C.3   1 <1>   0.1200 
 26 C        8.4610    -2.3810     2.6500 C.3   1 <1>  -0.1600 
 27 H       -0.0130    -1.3190    -3.8660 H     1 <1>   0.1500 
 28 H       -0.1710     2.7250     0.4820 H     1 <1>   0.1500 
 29 H       -2.8580    -0.5860     0.3090 H     1 <1>   0.1500 
 30 H        2.2180     1.4730    -3.5350 H     1 <1>   0.0800 
 31 H        2.5650    -0.2320    -3.7640 H     1 <1>   0.0800 
 32 H       -1.3480     3.5680     2.4410 H     1 <1>   0.1500 
 33 H       -4.0260     0.2630     2.2510 H     1 <1>   0.1500 
 34 H        2.6450     1.0790    -1.1810 H     1 <1>   0.4500 
 35 H        4.2050     2.3360    -2.5250 H     1 <1>   0.0800 
 36 H        5.0080     0.8520    -2.9720 H     1 <1>   0.0800 
 37 H        3.9420    -1.4090    -2.0620 H     1 <1>   0.0800 
 38 H        2.5480    -1.2580    -1.0280 H     1 <1>   0.0800 
 39 H       -3.4420     3.5730     3.7470 H     1 <1>   0.0800 
 40 H       -3.0710     2.0890     4.5940 H     1 <1>   0.0800 
 41 H       -4.5450     2.2250     3.6620 H     1 <1>   0.0800 
 42 H        4.8710     2.0510    -0.2000 H     1 <1>   0.0800 
 43 H        6.2670     1.9380    -1.2200 H     1 <1>   0.0800 
 44 H        4.6690    -1.7360     0.1700 H     1 <1>   0.0800 
 45 H        3.8790    -0.3020     0.7510 H     1 <1>   0.0800 
 46 H        7.2190    -2.4200     0.1680 H     1 <1>   0.0800 
 47 H        8.8370    -0.4670     1.7690 H     1 <1>   0.0800 
 48 H        9.4210    -1.7990     0.7890 H     1 <1>   0.0800 
 49 H        6.5290    -3.1110     3.3190 H     1 <1>   0.0800 
 50 H        6.8700    -1.4370     3.7560 H     1 <1>   0.0800 
 51 H        9.1080    -2.1160     3.4680 H     1 <1>   0.0800 
 52 H        8.6360    -3.4070     2.3780 H     1 <1>   0.0800 
@<TRIPOS>BOND
  1   1   2  1   
  2   1   3  1   
  3   2   4  2   
  4   2   5  1   
  5   3   6  2   
  6   3  27  1   
  7   4   6  1   
  8   5   7  ar  
  9   5   8  ar  
 10   6   9  1   
 11   7  10  ar  
 12   7  28  1   
 13   8  11  ar  
 14   8  29  1   
 15   9  12  1   
 16   9  30  1   
 17   9  31  1   
 18  10  13  ar  
 19  10  32  1   
 20  11  13  ar  
 21  11  33  1   
 22  12  14  1   
 23  12  15  1   
 24  12  34  1   
 25  13  16  1   
 26  14  17  1   
 27  14  35  1   
 28  14  36  1   
 29  15  18  1   
 30  15  37  1   
 31  15  38  1   
 32  16  39  1   
 33  16  40  1   
 34  16  41  1   
 35  17  19  1   
 36  17  42  1   
 37  17  43  1   
 38  18  19  1   
 39  18  44  1   
 40  18  45  1   
 41  19  20  am  
 42  20  21  2   
 43  20  22  1   
 44  22  23  1   
 45  22  24  1   
 46  22  46  1   
 47  23  25  1   
 48  24  26  1   
 49  24  47  1   
 50  24  48  1   
 51  25  26  1   
 52  25  49  1   
 53  25  50  1   
 54  26  51  1   
 55  26  52  1   
@<TRIPOS>SUBSTRUCTURE
  1 ****  15 GROUP 4 **** **** 0

# MOE 2024.06 (io_trps.svl 2023.06)
