@<TRIPOS>MOLECULE
NONAME
45 45 1 0 0 
SMALL
USER_CHARGES


@<TRIPOS>ATOM
  1 BR      -2.5170     1.0170    -2.0310 Br    1 <1>  -0.1110 
  2 C       -2.0470     1.7490    -0.3120 C.ar  1 <1>   0.1110 
  3 C       -2.3050     3.0840    -0.0360 C.ar  1 <1>  -0.1440 
  4 C       -1.4820     0.8930     0.6140 C.ar  1 <1>  -0.1500 
  5 C       -1.9690     3.5650     1.2230 C.ar  1 <1>  -0.1500 
  6 C       -2.9350     3.9950    -1.0700 C.3   1 <1>   0.4870 
  7 C       -1.1670     1.3870     1.8670 C.ar  1 <1>  -0.1500 
  8 C       -1.4100     2.7180     2.1670 C.ar  1 <1>  -0.1500 
  9 N       -4.3720     4.2470    -0.7180 N.4   1 <1>  -0.9590 
 10 C       -5.1990     2.9760    -0.6500 C.3   1 <1>   0.3430 
 11 C       -4.9340     5.2210    -1.6980 C.3   1 <1>   0.3430 
 12 C       -5.2340     2.2940     0.7510 C.3   1 <1>   0.3430 
 13 C       -6.1880     5.8630    -1.1160 C.3   1 <1>  -0.2400 
 14 N       -5.9330     0.9540     0.7960 N.4   1 <1>  -0.9590 
 15 C       -5.1350    -0.1140     0.1220 C.3   1 <1>   0.3430 
 16 C       -7.3580     0.9610     0.3370 C.3   1 <1>   0.3430 
 17 C       -5.5380    -1.4790     0.6650 C.3   1 <1>  -0.2400 
 18 C       -8.1900     1.8770     1.2260 C.3   1 <1>  -0.2400 
 19 H       -1.2800    -0.1360     0.3640 H     1 <1>   0.1500 
 20 H       -2.1230     4.5990     1.4880 H     1 <1>   0.1500 
 21 H       -2.8610     3.5550    -2.0510 H     1 <1>   0.0800 
 22 H       -2.3920     4.9280    -1.0880 H     1 <1>   0.0800 
 23 H       -0.7190     0.7420     2.6070 H     1 <1>   0.1500 
 24 H       -1.1460     3.0960     3.1430 H     1 <1>   0.1500 
 25 H       -4.3710     4.7230     0.1950 H     1 <1>   0.4500 
 26 H       -4.8200     2.2760    -1.3750 H     1 <1>   0.0800 
 27 H       -6.2150     3.2060    -0.9230 H     1 <1>   0.0800 
 28 H       -5.1620     4.7320    -2.6320 H     1 <1>   0.0800 
 29 H       -4.2120     6.0000    -1.8960 H     1 <1>   0.0800 
 30 H       -5.7270     2.9610     1.4390 H     1 <1>   0.0800 
 31 H       -4.2260     2.1570     1.1040 H     1 <1>   0.0800 
 32 H       -6.9800     5.1500    -0.9770 H     1 <1>   0.0800 
 33 H       -6.5460     6.6090    -1.8040 H     1 <1>   0.0800 
 34 H       -5.9730     6.3580    -0.1860 H     1 <1>   0.0800 
 35 H       -5.9660     0.6700     1.7900 H     1 <1>   0.4500 
 36 H       -4.0860     0.0330     0.3230 H     1 <1>   0.0800 
 37 H       -5.2830    -0.0830    -0.9470 H     1 <1>   0.0800 
 38 H       -7.7660    -0.0360     0.4000 H     1 <1>   0.0800 
 39 H       -7.4260     1.2790    -0.6910 H     1 <1>   0.0800 
 40 H       -5.4100    -1.5240     1.7320 H     1 <1>   0.0800 
 41 H       -4.9020    -2.2300     0.2280 H     1 <1>   0.0800 
 42 H       -6.5510    -1.7290     0.4090 H     1 <1>   0.0800 
 43 H       -8.1120     1.5850     2.2590 H     1 <1>   0.0800 
 44 H       -9.2250     1.7900     0.9430 H     1 <1>   0.0800 
 45 H       -7.9130     2.9090     1.1160 H     1 <1>   0.0800 
@<TRIPOS>BOND
  1   1   2  1   
  2   2   3  ar  
  3   2   4  ar  
  4   3   5  ar  
  5   3   6  1   
  6   4   7  ar  
  7   4  19  1   
  8   5   8  ar  
  9   5  20  1   
 10   6   9  1   
 11   6  21  1   
 12   6  22  1   
 13   7   8  ar  
 14   7  23  1   
 15   8  24  1   
 16   9  10  1   
 17   9  11  1   
 18   9  25  1   
 19  10  12  1   
 20  10  26  1   
 21  10  27  1   
 22  11  13  1   
 23  11  28  1   
 24  11  29  1   
 25  12  14  1   
 26  12  30  1   
 27  12  31  1   
 28  13  32  1   
 29  13  33  1   
 30  13  34  1   
 31  14  15  1   
 32  14  16  1   
 33  14  35  1   
 34  15  17  1   
 35  15  36  1   
 36  15  37  1   
 37  16  18  1   
 38  16  38  1   
 39  16  39  1   
 40  17  40  1   
 41  17  41  1   
 42  17  42  1   
 43  18  43  1   
 44  18  44  1   
 45  18  45  1   
@<TRIPOS>SUBSTRUCTURE
  1 ****  12 GROUP 4 **** **** 0

# MOE 2024.06 (io_trps.svl 2023.06)
