@<TRIPOS>MOLECULE
NONAME
32 33 1 0 0 
SMALL
USER_CHARGES


@<TRIPOS>ATOM
  1 BR      -1.1610     0.5260     2.6250 Br    1 <1>  -0.1110 
  2 C       -2.1440     1.1820     1.1080 C.ar  1 <1>   0.1110 
  3 C       -3.2640     0.4860     0.6960 C.ar  1 <1>  -0.1500 
  4 C       -1.7080     2.3280     0.4740 C.ar  1 <1>  -0.1500 
  5 C       -3.9810     0.9590    -0.3950 C.ar  1 <1>  -0.1440 
  6 C       -2.4230     2.7910    -0.6160 C.ar  1 <1>  -0.1500 
  7 C       -3.5520     2.1100    -1.0480 C.ar  1 <1>  -0.1500 
  8 C       -5.2220     0.2330    -0.8640 C.3   1 <1>   0.4870 
  9 N       -6.3540     0.8160    -0.1160 N.4   1 <1>  -0.9060 
 10 C       -7.6730     0.2190    -0.4900 C.3   1 <1>   0.3430 
 11 C       -8.8460     0.8640     0.2650 C.3   1 <1>   0.2000 
 12 O      -10.0160     0.3340    -0.2450 O.3   1 <1>  -0.5600 
 13 C       -9.0040     2.3670     0.0680 C.3   1 <1>  -0.1600 
 14 C      -11.0940     1.1810     0.0150 C.3   1 <1>   0.1200 
 15 C      -10.5010     2.5700     0.2400 C.3   1 <1>  -0.1600 
 16 H       -3.5470    -0.4050     1.2290 H     1 <1>   0.1500 
 17 H       -0.8290     2.8420     0.8250 H     1 <1>   0.1500 
 18 H       -2.0970     3.6810    -1.1290 H     1 <1>   0.1500 
 19 H       -4.0820     2.4930    -1.9050 H     1 <1>   0.1500 
 20 H       -5.1330    -0.8220    -0.6590 H     1 <1>   0.0800 
 21 H       -5.3530     0.3740    -1.9250 H     1 <1>   0.0800 
 22 H       -6.3560     1.8290    -0.2880 H     1 <1>   0.4500 
 23 H       -6.1680     0.6970     0.8870 H     1 <1>   0.4500 
 24 H       -7.6700    -0.8380    -0.2760 H     1 <1>   0.0800 
 25 H       -7.8420     0.3520    -1.5460 H     1 <1>   0.0800 
 26 H       -8.8170     0.6140     1.3120 H     1 <1>   0.0800 
 27 H       -8.7160     2.6460    -0.9310 H     1 <1>   0.0800 
 28 H       -8.4360     2.9380     0.7820 H     1 <1>   0.0800 
 29 H      -11.6050     0.8230     0.8940 H     1 <1>   0.0800 
 30 H      -11.7600     1.1560    -0.8310 H     1 <1>   0.0800 
 31 H      -10.8950     3.2810    -0.4660 H     1 <1>   0.0800 
 32 H      -10.7370     2.9030     1.2360 H     1 <1>   0.0800 
@<TRIPOS>BOND
  1   1   2  1   
  2   2   3  ar  
  3   2   4  ar  
  4   3   5  ar  
  5   3  16  1   
  6   4   6  ar  
  7   4  17  1   
  8   5   7  ar  
  9   5   8  1   
 10   6   7  ar  
 11   6  18  1   
 12   7  19  1   
 13   8   9  1   
 14   8  20  1   
 15   8  21  1   
 16   9  10  1   
 17   9  22  1   
 18   9  23  1   
 19  10  11  1   
 20  10  24  1   
 21  10  25  1   
 22  11  12  1   
 23  11  13  1   
 24  11  26  1   
 25  12  14  1   
 26  13  15  1   
 27  13  27  1   
 28  13  28  1   
 29  14  15  1   
 30  14  29  1   
 31  14  30  1   
 32  15  31  1   
 33  15  32  1   
@<TRIPOS>SUBSTRUCTURE
  1 ****   9 GROUP 4 **** **** 0

# MOE 2024.06 (io_trps.svl 2023.06)
