@<TRIPOS>MOLECULE
NONAME
35 35 1 0 0 
SMALL
USER_CHARGES


@<TRIPOS>ATOM
  1 S       -1.2150     0.3170     2.2990 S.2   1 <1>  -0.7500 
  2 C       -1.9010     0.0120     0.8720 C.2   1 <1>   0.7960 
  3 S       -1.2970     0.6180    -0.5160 S.2   1 <1>  -0.7500 
  4 N       -3.0870    -0.6240     0.8760 N.am  1 <1>  -0.9660 
  5 C       -3.8320    -1.1060    -0.3280 C.3   1 <1>   0.1400 
  6 C       -4.7580    -0.0100    -0.8950 C.3   1 <1>   0.3430 
  7 N       -4.1570     1.3220    -0.6260 N.4   1 <1>  -0.9060 
  8 C       -4.8710     2.5480    -1.0710 C.3   1 <1>   0.3430 
  9 C       -6.2050     2.7630    -0.3420 C.3   1 <1>   0.1200 
 10 O       -7.0970     1.7180    -0.6690 O.3   1 <1>  -0.3630 
 11 C       -8.2980     1.5950    -0.0510 C.ar  1 <1>   0.0820 
 12 C       -9.0760     0.5070    -0.4150 C.ar  1 <1>  -0.1500 
 13 C       -8.7700     2.4860     0.9090 C.ar  1 <1>  -0.1500 
 14 C      -10.3120     0.2930     0.1700 C.ar  1 <1>  -0.1430 
 15 C      -10.0040     2.2730     1.4960 C.ar  1 <1>  -0.1500 
 16 C      -10.7710     1.1800     1.1290 C.ar  1 <1>  -0.1500 
 17 C      -11.1660    -0.8980    -0.2260 C.3   1 <1>  -0.0970 
 18 H       -3.3000    -1.0590     1.7790 H     1 <1>   0.3700 
 19 H       -4.4090    -1.9790    -0.0760 H     1 <1>   0.0800 
 20 H       -3.1250    -1.3970    -1.0870 H     1 <1>   0.0800 
 21 H       -5.7150    -0.0820    -0.4050 H     1 <1>   0.0800 
 22 H       -4.9040    -0.1590    -1.9520 H     1 <1>   0.0800 
 23 H       -3.1800     1.2850    -0.9890 H     1 <1>   0.4500 
 24 H       -3.9570     1.3120     0.3880 H     1 <1>   0.4500 
 25 H       -5.0510     2.5020    -2.1320 H     1 <1>   0.0800 
 26 H       -4.2390     3.4000    -0.8820 H     1 <1>   0.0800 
 27 H       -6.6540     3.6910    -0.6520 H     1 <1>   0.0800 
 28 H       -6.0490     2.7710     0.7220 H     1 <1>   0.0800 
 29 H       -8.7080    -0.1720    -1.1620 H     1 <1>   0.1500 
 30 H       -8.2040     3.3440     1.2140 H     1 <1>   0.1500 
 31 H      -10.3750     2.9570     2.2400 H     1 <1>   0.1500 
 32 H      -11.7300     1.0250     1.5930 H     1 <1>   0.1500 
 33 H      -10.8100    -1.3380    -1.1410 H     1 <1>   0.0800 
 34 H      -12.1850    -0.5890    -0.3740 H     1 <1>   0.0800 
 35 H      -11.1370    -1.6420     0.5500 H     1 <1>   0.0800 
@<TRIPOS>BOND
  1   1   2  ar  
  2   2   3  ar  
  3   2   4  am  
  4   4   5  1   
  5   4  18  1   
  6   5   6  1   
  7   5  19  1   
  8   5  20  1   
  9   6   7  1   
 10   6  21  1   
 11   6  22  1   
 12   7   8  1   
 13   7  23  1   
 14   7  24  1   
 15   8   9  1   
 16   8  25  1   
 17   8  26  1   
 18   9  10  1   
 19   9  27  1   
 20   9  28  1   
 21  10  11  1   
 22  11  12  ar  
 23  11  13  ar  
 24  12  14  ar  
 25  12  29  1   
 26  13  15  ar  
 27  13  30  1   
 28  14  16  ar  
 29  14  17  1   
 30  15  16  ar  
 31  15  31  1   
 32  16  32  1   
 33  17  33  1   
 34  17  34  1   
 35  17  35  1   
@<TRIPOS>SUBSTRUCTURE
  1 ****  10 GROUP 4 **** **** 0

# MOE 2024.06 (io_trps.svl 2023.06)
