@<TRIPOS>MOLECULE
NONAME
47 50 1 0 0 
SMALL
USER_CHARGES


@<TRIPOS>ATOM
  1 N       -6.2210     4.9250    -0.1630 N.2   1 <1>  -0.2670 
  2 N       -7.2060     3.9810    -0.2160 N.pl3 1 <1>  -0.3360 
  3 C       -5.2050     4.2800     0.2940 C.2   1 <1>   0.4800 
  4 C       -6.7620     2.8180     0.2070 C.cat 1 <1>   1.0690 
  5 C       -8.5500     3.8390    -0.5190 C.ar  1 <1>   0.3810 
  6 N       -5.4950     2.9590     0.5390 N.pl3 1 <1>  -0.7040 
  7 C       -3.8140     4.8470     0.5610 C.3   1 <1>  -0.0010 
  8 N       -7.7130     1.8520     0.1860 N.pl3 1 <1>  -0.5800 
  9 C       -8.8690     2.5100    -0.2570 C.ar  1 <1>   0.3050 
 10 C       -9.5000     4.7360    -0.9830 C.ar  1 <1>  -0.1580 
 11 C       -3.6740     6.3400     0.2290 C.3   1 <1>  -0.2470 
 12 C       -7.6320     0.4360     0.6590 C.3   1 <1>   0.1600 
 13 C      -10.1720     2.0590    -0.4470 C.ar  1 <1>  -0.1580 
 14 C      -10.7890     4.2800    -1.1780 C.ar  1 <1>  -0.1580 
 15 C       -7.8550    -0.5760    -0.4900 C.3   1 <1>   0.3370 
 16 C      -11.1220     2.9510    -0.9090 C.ar  1 <1>  -0.1580 
 17 N       -7.7760    -2.0070    -0.0500 N.4   1 <1>  -0.9610 
 18 C       -7.7500    -2.9090    -1.2430 C.3   1 <1>   0.3370 
 19 C       -8.8870    -2.4090     0.8710 C.3   1 <1>   0.3370 
 20 C       -7.4770    -4.3450    -0.7950 C.3   1 <1>  -0.1680 
 21 C       -8.6440    -3.8310     1.3770 C.3   1 <1>  -0.1680 
 22 C       -8.5180    -4.8290     0.2210 C.3   1 <1>  -0.1680 
 23 H       -4.8530     2.2690     0.9210 H     1 <1>   0.4440 
 24 H       -3.0970     4.2970    -0.0240 H     1 <1>   0.0720 
 25 H       -3.5740     4.7020     1.5990 H     1 <1>   0.0720 
 26 H       -9.2300     5.7600    -1.1810 H     1 <1>   0.1420 
 27 H       -3.8770     6.5190    -0.8130 H     1 <1>   0.0720 
 28 H       -2.6720     6.6720     0.4400 H     1 <1>   0.0720 
 29 H       -4.3560     6.9260     0.8210 H     1 <1>   0.0720 
 30 H       -8.3810     0.2930     1.4190 H     1 <1>   0.0720 
 31 H       -6.6650     0.2650     1.0990 H     1 <1>   0.0720 
 32 H      -10.4490     1.0420    -0.2360 H     1 <1>   0.1420 
 33 H      -11.5530     4.9530    -1.5380 H     1 <1>   0.1420 
 34 H       -7.1050    -0.4070    -1.2450 H     1 <1>   0.0720 
 35 H       -8.8210    -0.4030    -0.9350 H     1 <1>   0.0720 
 36 H      -12.1400     2.6280    -1.0670 H     1 <1>   0.1420 
 37 H       -6.8950    -2.1910     0.4490 H     1 <1>   0.4440 
 38 H       -6.9770    -2.5990    -1.9270 H     1 <1>   0.0720 
 39 H       -8.6970    -2.8680    -1.7560 H     1 <1>   0.0720 
 40 H       -9.8280    -2.3720     0.3470 H     1 <1>   0.0720 
 41 H       -8.9380    -1.7410     1.7150 H     1 <1>   0.0720 
 42 H       -6.4900    -4.4100    -0.3690 H     1 <1>   0.0720 
 43 H       -7.4960    -4.9920    -1.6560 H     1 <1>   0.0720 
 44 H       -9.4650    -4.1250     2.0090 H     1 <1>   0.0720 
 45 H       -7.7520    -3.8530     1.9800 H     1 <1>   0.0720 
 46 H       -8.2390    -5.7980     0.6000 H     1 <1>   0.0720 
 47 H       -9.4730    -4.9340    -0.2680 H     1 <1>   0.0720 
@<TRIPOS>BOND
  1   1   2  1   
  2   1   3  2   
  3   2   4  ar  
  4   2   5  1   
  5   3   6  1   
  6   3   7  1   
  7   4   6  ar  
  8   4   8  ar  
  9   5   9  ar  
 10   5  10  ar  
 11   6  23  1   
 12   7  11  1   
 13   7  24  1   
 14   7  25  1   
 15   8   9  1   
 16   8  12  1   
 17   9  13  ar  
 18  10  14  ar  
 19  10  26  1   
 20  11  27  1   
 21  11  28  1   
 22  11  29  1   
 23  12  15  1   
 24  12  30  1   
 25  12  31  1   
 26  13  16  ar  
 27  13  32  1   
 28  14  16  ar  
 29  14  33  1   
 30  15  17  1   
 31  15  34  1   
 32  15  35  1   
 33  16  36  1   
 34  17  18  1   
 35  17  19  1   
 36  17  37  1   
 37  18  20  1   
 38  18  38  1   
 39  18  39  1   
 40  19  21  1   
 41  19  40  1   
 42  19  41  1   
 43  20  22  1   
 44  20  42  1   
 45  20  43  1   
 46  21  22  1   
 47  21  44  1   
 48  21  45  1   
 49  22  46  1   
 50  22  47  1   
@<TRIPOS>SUBSTRUCTURE
  1 ****   8 GROUP 4 **** **** 0

# MOE 2024.06 (io_trps.svl 2023.06)
