@<TRIPOS>MOLECULE
NONAME
39 40 1 0 0 
SMALL
USER_CHARGES


@<TRIPOS>ATOM
  1 BR      -0.0710     0.4680     0.4730 Br    1 <1>  -0.1110 
  2 C        1.7400     1.0950     0.2780 C.ar  1 <1>   0.1110 
  3 C        1.9540     2.3690    -0.2120 C.ar  1 <1>  -0.1500 
  4 C        2.7770     0.2530     0.6340 C.ar  1 <1>  -0.1500 
  5 C        3.2590     2.8110    -0.3480 C.ar  1 <1>  -0.1500 
  6 C        4.0790     0.7050     0.4940 C.ar  1 <1>  -0.1500 
  7 C        4.3230     1.9880     0.0010 C.ar  1 <1>   0.0830 
  8 O        5.5650     2.5070    -0.1670 O.3   1 <1>  -0.3630 
  9 C        6.7200     1.7660     0.1440 C.3   1 <1>   0.1200 
 10 C        7.9290     2.6510    -0.1660 C.3   1 <1>  -0.1600 
 11 C        9.2560     1.9360     0.1260 C.3   1 <1>  -0.1600 
 12 C       10.4380     2.8580    -0.1840 C.3   1 <1>   0.3430 
 13 N       11.7220     2.2080     0.1910 N.4   1 <1>  -0.9590 
 14 C       12.8640     3.1830     0.2450 C.3   1 <1>   0.3430 
 15 C       12.0940     1.0260    -0.6640 C.3   1 <1>   0.3430 
 16 C       14.1800     2.4900     0.6700 C.3   1 <1>   0.1200 
 17 C       13.4760     0.4510    -0.2720 C.3   1 <1>   0.1200 
 18 O       13.9970     1.1110     0.8500 O.3   1 <1>  -0.5600 
 19 H        1.1230     2.9960    -0.4790 H     1 <1>   0.1500 
 20 H        2.5660    -0.7310     1.0120 H     1 <1>   0.1500 
 21 H        3.4620     3.7960    -0.7270 H     1 <1>   0.1500 
 22 H        4.8810     0.0490     0.7720 H     1 <1>   0.1500 
 23 H        6.7240     0.8760    -0.4620 H     1 <1>   0.0800 
 24 H        6.6850     1.5100     1.1900 H     1 <1>   0.0800 
 25 H        7.8580     3.5440     0.4320 H     1 <1>   0.0800 
 26 H        7.8880     2.9310    -1.2060 H     1 <1>   0.0800 
 27 H        9.3080     1.0470    -0.4780 H     1 <1>   0.0800 
 28 H        9.2790     1.6560     1.1660 H     1 <1>   0.0800 
 29 H       10.3190     3.7700     0.3790 H     1 <1>   0.0800 
 30 H       10.4410     3.1100    -1.2330 H     1 <1>   0.0800 
 31 H       11.6520     1.8340     1.1500 H     1 <1>   0.4500 
 32 H       12.6440     3.9740     0.9440 H     1 <1>   0.0800 
 33 H       13.0060     3.6370    -0.7220 H     1 <1>   0.0800 
 34 H       12.1180     1.3130    -1.7020 H     1 <1>   0.0800 
 35 H       11.3550     0.2500    -0.5600 H     1 <1>   0.0800 
 36 H       14.5280     2.8970     1.6040 H     1 <1>   0.0800 
 37 H       14.9480     2.6430    -0.0690 H     1 <1>   0.0800 
 38 H       14.1750     0.5460    -1.0850 H     1 <1>   0.0800 
 39 H       13.3870    -0.5940    -0.0270 H     1 <1>   0.0800 
@<TRIPOS>BOND
  1   1   2  1   
  2   2   3  ar  
  3   2   4  ar  
  4   3   5  ar  
  5   3  19  1   
  6   4   6  ar  
  7   4  20  1   
  8   5   7  ar  
  9   5  21  1   
 10   6   7  ar  
 11   6  22  1   
 12   7   8  1   
 13   8   9  1   
 14   9  10  1   
 15   9  23  1   
 16   9  24  1   
 17  10  11  1   
 18  10  25  1   
 19  10  26  1   
 20  11  12  1   
 21  11  27  1   
 22  11  28  1   
 23  12  13  1   
 24  12  29  1   
 25  12  30  1   
 26  13  14  1   
 27  13  15  1   
 28  13  31  1   
 29  14  16  1   
 30  14  32  1   
 31  14  33  1   
 32  15  17  1   
 33  15  34  1   
 34  15  35  1   
 35  16  18  1   
 36  16  36  1   
 37  16  37  1   
 38  17  18  1   
 39  17  38  1   
 40  17  39  1   
@<TRIPOS>SUBSTRUCTURE
  1 ****   9 GROUP 4 **** **** 0

# MOE 2024.06 (io_trps.svl 2023.06)
