@<TRIPOS>MOLECULE
NONAME
34 36 1 0 0 
SMALL
USER_CHARGES


@<TRIPOS>ATOM
  1 S        0.2890     0.0710     0.2490 S.3   1 <1>  -0.0800 
  2 C        0.5500    -1.2830    -0.8470 C.2   1 <1>   0.4340 
  3 C       -1.4230    -0.3060     0.2400 C.ar  1 <1>   0.0400 
  4 S        2.2270    -1.6360    -1.3650 S.3   1 <1>  -0.2860 
  5 N       -0.4840    -1.9400    -1.1810 N.2   1 <1>  -0.5650 
  6 C       -1.6190    -1.4040    -0.5820 C.ar  1 <1>   0.2270 
  7 C       -2.4450     0.3360     0.9120 C.ar  1 <1>  -0.1500 
  8 C        3.3170    -0.3160    -0.6370 C.3   1 <1>   0.1310 
  9 C       -2.9140    -1.8780    -0.7390 C.ar  1 <1>  -0.1500 
 10 C       -3.7360    -0.1510     0.7540 C.ar  1 <1>   0.1000 
 11 C        3.0980     1.0400    -1.3010 C.2   1 <1>   0.5690 
 12 C       -3.9570    -1.2530    -0.0760 C.ar  1 <1>  -0.1500 
 13 N       -4.7930     0.4450     1.4110 N.pl3 1 <1>  -0.9000 
 14 O        3.0310     1.0910    -2.5070 O.2   1 <1>  -0.5700 
 15 N        3.0120     2.1790    -0.5430 N.am  1 <1>  -0.6600 
 16 C        3.2000     2.2990     0.9210 C.3   1 <1>   0.1400 
 17 C        2.7600     3.5020    -1.1540 C.3   1 <1>   0.1400 
 18 C        3.3260     3.7970     1.1740 C.3   1 <1>  -0.1600 
 19 C        2.5630     4.4480     0.0250 C.3   1 <1>  -0.1600 
 20 H       -2.2460     1.1870     1.5340 H     1 <1>   0.1500 
 21 H        4.3280    -0.6340    -0.8060 H     1 <1>   0.0800 
 22 H        3.1180    -0.2910     0.4160 H     1 <1>   0.0800 
 23 H       -3.0830    -2.7260    -1.3770 H     1 <1>   0.1500 
 24 H       -4.9600    -1.6170    -0.2020 H     1 <1>   0.1500 
 25 H       -5.6410    -0.1160     1.5330 H     1 <1>   0.4000 
 26 H       -4.5740     1.0020     2.2420 H     1 <1>   0.4000 
 27 H        4.0800     1.7730     1.2470 H     1 <1>   0.0800 
 28 H        2.3300     1.9120     1.4240 H     1 <1>   0.0800 
 29 H        1.8930     3.4700    -1.7920 H     1 <1>   0.0800 
 30 H        3.6210     3.7890    -1.7330 H     1 <1>   0.0800 
 31 H        4.3650     4.0740     1.1250 H     1 <1>   0.0800 
 32 H        2.9340     4.0750     2.1360 H     1 <1>   0.0800 
 33 H        1.5140     4.4960     0.2600 H     1 <1>   0.0800 
 34 H        2.9170     5.4390    -0.1960 H     1 <1>   0.0800 
@<TRIPOS>BOND
  1   1   2  1   
  2   1   3  1   
  3   2   4  1   
  4   2   5  2   
  5   3   6  ar  
  6   3   7  ar  
  7   4   8  1   
  8   5   6  1   
  9   6   9  ar  
 10   7  10  ar  
 11   7  20  1   
 12   8  11  1   
 13   8  21  1   
 14   8  22  1   
 15   9  12  ar  
 16   9  23  1   
 17  10  12  ar  
 18  10  13  1   
 19  11  14  2   
 20  11  15  am  
 21  12  24  1   
 22  13  25  1   
 23  13  26  1   
 24  15  16  1   
 25  15  17  1   
 26  16  18  1   
 27  16  27  1   
 28  16  28  1   
 29  17  19  1   
 30  17  29  1   
 31  17  30  1   
 32  18  19  1   
 33  18  31  1   
 34  18  32  1   
 35  19  33  1   
 36  19  34  1   
@<TRIPOS>SUBSTRUCTURE
  1 ****   1 GROUP 4 **** **** 0

# MOE 2024.06 (io_trps.svl 2023.06)
