@<TRIPOS>MOLECULE
NONAME
34 35 1 0 0 
SMALL
USER_CHARGES


@<TRIPOS>ATOM
  1 CL      -2.4240    -1.1810     1.3900 Cl    1 <1>  -0.1770 
  2 C       -2.1480    -1.7420    -0.2470 C.ar  1 <1>   0.1770 
  3 C       -0.9540    -2.3960    -0.5620 C.ar  1 <1>   0.1990 
  4 C       -3.1330    -1.5160    -1.1920 C.ar  1 <1>  -0.1500 
  5 N        0.0410    -2.6190     0.3910 N.am  1 <1>  -0.6930 
  6 C       -0.7710    -2.8240    -1.8720 C.ar  1 <1>  -0.1500 
  7 C       -2.9350    -1.9490    -2.4930 C.ar  1 <1>  -0.1500 
  8 S        0.2590    -4.1740     1.1160 S.o2  1 <1>   1.3330 
  9 C        1.1650    -1.6350     0.4820 C.3   1 <1>   0.2570 
 10 C       -1.7560    -2.5980    -2.8140 C.ar  1 <1>   0.1770 
 11 O        1.6050    -4.1940     1.6390 O.2   1 <1>  -0.6500 
 12 O       -0.1640    -5.1590     0.1550 O.2   1 <1>  -0.6500 
 13 C       -0.8910    -4.1270     2.4730 C.3   1 <1>  -0.1350 
 14 C        2.2690    -1.8690    -0.5530 C.2   1 <1>   0.5690 
 15 CL      -1.5100    -3.1430    -4.4530 Cl    1 <1>  -0.1770 
 16 O        2.4130    -1.0560    -1.4360 O.2   1 <1>  -0.5700 
 17 N        3.0460    -2.9810    -0.4520 N.am  1 <1>  -0.5790 
 18 C        4.0870    -3.4010    -1.3950 C.3   1 <1>   0.0490 
 19 C        4.1470    -4.8470    -1.7570 C.3   1 <1>  -0.2000 
 20 C        5.2020    -4.2470    -0.8770 C.3   1 <1>  -0.2000 
 21 H       -4.0400    -1.0080    -0.9130 H     1 <1>   0.1500 
 22 H        0.1320    -3.3340    -2.1530 H     1 <1>   0.1500 
 23 H       -3.6820    -1.7880    -3.2520 H     1 <1>   0.1500 
 24 H        1.5970    -1.6650     1.4660 H     1 <1>   0.0800 
 25 H        0.7720    -0.6450     0.3320 H     1 <1>   0.0800 
 26 H       -0.6670    -3.3040     3.1230 H     1 <1>   0.0800 
 27 H       -0.8320    -5.0370     3.0370 H     1 <1>   0.0800 
 28 H       -1.8920    -4.0160     2.1070 H     1 <1>   0.0800 
 29 H        2.8500    -3.6500     0.3080 H     1 <1>   0.3700 
 30 H        4.2980    -2.6670    -2.1580 H     1 <1>   0.1000 
 31 H        4.4140    -5.1150    -2.7640 H     1 <1>   0.1000 
 32 H        3.4210    -5.5170    -1.3280 H     1 <1>   0.1000 
 33 H        5.2170    -4.5040     0.1680 H     1 <1>   0.1000 
 34 H        6.1870    -4.1100    -1.2850 H     1 <1>   0.1000 
@<TRIPOS>BOND
  1   1   2  1   
  2   2   3  ar  
  3   2   4  ar  
  4   3   5  1   
  5   3   6  ar  
  6   4   7  ar  
  7   4  21  1   
  8   5   8  am  
  9   5   9  1   
 10   6  10  ar  
 11   6  22  1   
 12   7  10  ar  
 13   7  23  1   
 14   8  11  2   
 15   8  12  2   
 16   8  13  1   
 17   9  14  1   
 18   9  24  1   
 19   9  25  1   
 20  10  15  1   
 21  13  26  1   
 22  13  27  1   
 23  13  28  1   
 24  14  16  2   
 25  14  17  am  
 26  17  18  1   
 27  17  29  1   
 28  18  19  1   
 29  18  20  1   
 30  18  30  1   
 31  19  20  1   
 32  19  31  1   
 33  19  32  1   
 34  20  33  1   
 35  20  34  1   
@<TRIPOS>SUBSTRUCTURE
  1 ****   5 GROUP 4 **** **** 0

# MOE 2024.06 (io_trps.svl 2023.06)
