@<TRIPOS>MOLECULE
NONAME
40 41 1 0 0 
SMALL
USER_CHARGES


@<TRIPOS>ATOM
  1 O        0.7840     1.0430    -2.2690 O.2   1 <1>  -0.5700 
  2 C        0.9980     0.9920    -1.0760 C.2   1 <1>   0.7160 
  3 N        1.1870    -0.2400    -0.5460 N.am  1 <1>  -0.7300 
  4 C        1.0670     2.1810    -0.2690 C.2   1 <1>  -0.0860 
  5 C        2.0530    -0.4960     0.6100 C.3   1 <1>   0.3640 
  6 C        0.3820     2.5640     0.8280 C.2   1 <1>  -0.0400 
  7 C        1.9300     3.2510    -0.4340 C.2   1 <1>   0.1080 
  8 C        3.4680     0.0450     0.3600 C.ar  1 <1>  -0.1440 
  9 C        2.0070    -1.9800     0.9600 C.3   1 <1>  -0.2400 
 10 O        0.7850     3.7250     1.2860 O.3   1 <1>  -0.0190 
 11 C       -0.7430     1.8580     1.5580 C.3   1 <1>  -0.0600 
 12 N        1.7460     4.1250     0.4830 N.2   1 <1>  -0.4100 
 13 C        2.9660     3.3730    -1.5310 C.3   1 <1>  -0.0590 
 14 C        4.3470    -0.3980    -0.6330 C.ar  1 <1>  -0.1440 
 15 C        3.8750     1.0810     1.1940 C.ar  1 <1>  -0.1500 
 16 C        5.5970     0.1940    -0.7480 C.ar  1 <1>  -0.1500 
 17 C        4.0270    -1.5080    -1.6280 C.3   1 <1>  -0.0970 
 18 C        5.1150     1.6770     1.0640 C.ar  1 <1>  -0.1440 
 19 C        5.9810     1.2220     0.0900 C.ar  1 <1>  -0.1500 
 20 C        5.4980     2.8230     1.9830 C.3   1 <1>  -0.0970 
 21 H        1.1820    -0.9850    -1.2370 H     1 <1>   0.3700 
 22 H        1.6350     0.0320     1.4510 H     1 <1>   0.0800 
 23 H        2.2700    -2.5970     0.1240 H     1 <1>   0.0800 
 24 H        1.0190    -2.2450     1.2900 H     1 <1>   0.0800 
 25 H        2.6950    -2.1780     1.7610 H     1 <1>   0.0800 
 26 H       -0.9900     0.9330     1.0720 H     1 <1>   0.0800 
 27 H       -1.6160     2.4870     1.5680 H     1 <1>   0.0800 
 28 H       -0.4500     1.6550     2.5720 H     1 <1>   0.0800 
 29 H        3.6320     2.5300    -1.5010 H     1 <1>   0.0800 
 30 H        3.5400     4.2720    -1.4000 H     1 <1>   0.0800 
 31 H        2.4800     3.4030    -2.4890 H     1 <1>   0.0800 
 32 H        3.2140     1.4530     1.9570 H     1 <1>   0.1500 
 33 H        6.2880    -0.1420    -1.5000 H     1 <1>   0.1500 
 34 H        3.0210    -1.4310    -1.9910 H     1 <1>   0.0800 
 35 H        4.1730    -2.4670    -1.1670 H     1 <1>   0.0800 
 36 H        4.6760    -1.4490    -2.4830 H     1 <1>   0.0800 
 37 H        6.9540     1.6660    -0.0230 H     1 <1>   0.1500 
 38 H        4.7180     3.5640     1.9850 H     1 <1>   0.0800 
 39 H        6.4100     3.2890     1.6560 H     1 <1>   0.0800 
 40 H        5.6350     2.4580     2.9850 H     1 <1>   0.0800 
@<TRIPOS>BOND
  1   1   2  2   
  2   2   3  am  
  3   2   4  1   
  4   3   5  1   
  5   3  21  1   
  6   4   6  2   
  7   4   7  1   
  8   5   8  1   
  9   5   9  1   
 10   5  22  1   
 11   6  10  1   
 12   6  11  1   
 13   7  12  2   
 14   7  13  1   
 15   8  14  ar  
 16   8  15  ar  
 17   9  23  1   
 18   9  24  1   
 19   9  25  1   
 20  10  12  1   
 21  11  26  1   
 22  11  27  1   
 23  11  28  1   
 24  13  29  1   
 25  13  30  1   
 26  13  31  1   
 27  14  16  ar  
 28  14  17  1   
 29  15  18  ar  
 30  15  32  1   
 31  16  19  ar  
 32  16  33  1   
 33  17  34  1   
 34  17  35  1   
 35  17  36  1   
 36  18  19  ar  
 37  18  20  1   
 38  19  37  1   
 39  20  38  1   
 40  20  39  1   
 41  20  40  1   
@<TRIPOS>SUBSTRUCTURE
  1 ****   8 GROUP 4 **** **** 0

# MOE 2024.06 (io_trps.svl 2023.06)
