@<TRIPOS>MOLECULE
NONAME
34 34 1 0 0 
SMALL
USER_CHARGES


@<TRIPOS>ATOM
  1 BR       1.0380     0.5360    -1.8360 Br    1 <1>  -0.1110 
  2 C        1.3390    -1.2650    -1.2290 C.ar  1 <1>   0.1110 
  3 C        0.4360    -2.2460    -1.5920 C.ar  1 <1>  -0.1500 
  4 C        2.4460    -1.5300    -0.4480 C.ar  1 <1>  -0.1500 
  5 C        0.6490    -3.5450    -1.1550 C.ar  1 <1>  -0.1440 
  6 C        2.6570    -2.8260    -0.0120 C.ar  1 <1>  -0.1500 
  7 C        1.7600    -3.8370    -0.3610 C.ar  1 <1>   0.0830 
  8 C       -0.3170    -4.6440    -1.5460 C.3   1 <1>   0.4870 
  9 O        1.9060    -5.1260     0.0490 O.3   1 <1>  -0.3630 
 10 N       -0.8820    -5.1950    -0.3000 N.4   1 <1>  -0.9060 
 11 C        3.0910    -5.5660     0.6800 C.3   1 <1>   0.1200 
 12 C       -1.7300    -6.3870    -0.4960 C.3   1 <1>   0.3430 
 13 C        2.9680    -7.0680     0.9160 C.3   1 <1>  -0.2400 
 14 C       -2.1700    -6.9060     0.8710 C.3   1 <1>  -0.1600 
 15 C       -3.0490    -8.1540     0.7300 C.3   1 <1>  -0.2400 
 16 H       -0.4050    -1.9760    -2.2080 H     1 <1>   0.1500 
 17 H        3.1260    -0.7360    -0.1900 H     1 <1>   0.1500 
 18 H        3.5200    -3.0210     0.5970 H     1 <1>   0.1500 
 19 H        0.2170    -5.4110    -2.0840 H     1 <1>   0.0800 
 20 H       -1.0990    -4.2510    -2.1760 H     1 <1>   0.0800 
 21 H       -1.3780    -4.4530     0.2050 H     1 <1>   0.4500 
 22 H       -0.0560    -5.4320     0.2750 H     1 <1>   0.4500 
 23 H        3.2010    -5.0430     1.6150 H     1 <1>   0.0800 
 24 H        3.9260    -5.3500     0.0340 H     1 <1>   0.0800 
 25 H       -1.1760    -7.1560    -1.0110 H     1 <1>   0.0800 
 26 H       -2.5980    -6.1350    -1.0850 H     1 <1>   0.0800 
 27 H        2.1360    -7.2810     1.5630 H     1 <1>   0.0800 
 28 H        3.8630    -7.4310     1.3890 H     1 <1>   0.0800 
 29 H        2.8480    -7.5860    -0.0180 H     1 <1>   0.0800 
 30 H       -2.7320    -6.1480     1.3890 H     1 <1>   0.0800 
 31 H       -1.3060    -7.1610     1.4610 H     1 <1>   0.0800 
 32 H       -3.9400    -7.9350     0.1650 H     1 <1>   0.0800 
 33 H       -3.3480    -8.5050     1.7030 H     1 <1>   0.0800 
 34 H       -2.5130    -8.9480     0.2380 H     1 <1>   0.0800 
@<TRIPOS>BOND
  1   1   2  1   
  2   2   3  ar  
  3   2   4  ar  
  4   3   5  ar  
  5   3  16  1   
  6   4   6  ar  
  7   4  17  1   
  8   5   7  ar  
  9   5   8  1   
 10   6   7  ar  
 11   6  18  1   
 12   7   9  1   
 13   8  10  1   
 14   8  19  1   
 15   8  20  1   
 16   9  11  1   
 17  10  12  1   
 18  10  21  1   
 19  10  22  1   
 20  11  13  1   
 21  11  23  1   
 22  11  24  1   
 23  12  14  1   
 24  12  25  1   
 25  12  26  1   
 26  13  27  1   
 27  13  28  1   
 28  13  29  1   
 29  14  15  1   
 30  14  30  1   
 31  14  31  1   
 32  15  32  1   
 33  15  33  1   
 34  15  34  1   
@<TRIPOS>SUBSTRUCTURE
  1 ****   5 GROUP 4 **** **** 0

# MOE 2024.06 (io_trps.svl 2023.06)
