@<TRIPOS>MOLECULE
NONAME
43 44 1 0 0 
SMALL
USER_CHARGES


@<TRIPOS>ATOM
  1 I       -0.0230     0.3040    -1.2460 I     1 <1>  -0.0810 
  2 C       -1.9230    -0.5820    -0.8700 C.ar  1 <1>   0.0810 
  3 C       -2.3610    -0.6860     0.4370 C.ar  1 <1>  -0.1500 
  4 C       -2.6700    -1.0330    -1.9420 C.ar  1 <1>  -0.1500 
  5 C       -3.5970    -1.2630     0.6720 C.ar  1 <1>  -0.1500 
  6 C       -3.9040    -1.6050    -1.6860 C.ar  1 <1>  -0.1500 
  7 C       -4.3840    -1.7240    -0.3840 C.ar  1 <1>   0.1170 
  8 N       -5.6410    -2.3160    -0.1980 N.am  1 <1>  -0.5470 
  9 C       -6.5490    -2.2270     0.8230 C.2   1 <1>   0.5690 
 10 O       -6.3650    -1.5630     1.8150 O.2   1 <1>  -0.5700 
 11 C       -7.8690    -3.0050     0.6980 C.3   1 <1>   0.2570 
 12 N       -8.9920    -2.2970     0.0160 N.am  1 <1>  -0.8490 
 13 S       -8.6850    -1.8820    -1.6040 S.o2  1 <1>   1.3330 
 14 C      -10.2930    -2.8870     0.3710 C.3   1 <1>   0.2760 
 15 O       -7.5990    -2.7200    -2.0690 O.2   1 <1>  -0.6500 
 16 O       -9.9000    -1.8230    -2.3780 O.2   1 <1>  -0.6500 
 17 C       -8.0980    -0.2060    -1.4540 C.3   1 <1>  -0.1350 
 18 C      -10.6250    -4.1730    -0.4070 C.3   1 <1>  -0.1600 
 19 C      -11.4310    -1.8580     0.3130 C.3   1 <1>  -0.1600 
 20 C      -11.9460    -4.7800     0.0920 C.3   1 <1>  -0.1600 
 21 C      -12.7460    -2.4770     0.8110 C.3   1 <1>  -0.1600 
 22 C      -13.0870    -3.7540     0.0280 C.3   1 <1>  -0.1600 
 23 H       -1.7560    -0.3280     1.2510 H     1 <1>   0.1500 
 24 H       -2.2990    -0.9390    -2.9470 H     1 <1>   0.1500 
 25 H       -3.9470    -1.3540     1.6840 H     1 <1>   0.1500 
 26 H       -4.5010    -1.9620    -2.5070 H     1 <1>   0.1500 
 27 H       -6.0180    -2.7740    -1.0400 H     1 <1>   0.3700 
 28 H       -8.1630    -3.2460     1.7040 H     1 <1>   0.0800 
 29 H       -7.6740    -3.9350     0.1940 H     1 <1>   0.0800 
 30 H      -10.2400    -3.1700     1.4090 H     1 <1>   0.0800 
 31 H       -7.2290    -0.1560    -0.8290 H     1 <1>   0.0800 
 32 H       -8.8630     0.4100    -1.0230 H     1 <1>   0.0800 
 33 H       -7.8490     0.1830    -2.4210 H     1 <1>   0.0800 
 34 H       -9.8390    -4.8950    -0.2840 H     1 <1>   0.0800 
 35 H      -10.7330    -3.9650    -1.4550 H     1 <1>   0.0800 
 36 H      -11.5890    -1.5120    -0.6900 H     1 <1>   0.0800 
 37 H      -11.1800    -1.0130     0.9290 H     1 <1>   0.0800 
 38 H      -11.8270    -5.1170     1.1080 H     1 <1>   0.0800 
 39 H      -12.1980    -5.6350    -0.5110 H     1 <1>   0.0800 
 40 H      -13.5440    -1.7630     0.6980 H     1 <1>   0.0800 
 41 H      -12.6600    -2.7120     1.8580 H     1 <1>   0.0800 
 42 H      -13.9870    -4.1910     0.4260 H     1 <1>   0.0800 
 43 H      -13.2750    -3.4980    -1.0010 H     1 <1>   0.0800 
@<TRIPOS>BOND
  1   1   2  1   
  2   2   3  ar  
  3   2   4  ar  
  4   3   5  ar  
  5   3  23  1   
  6   4   6  ar  
  7   4  24  1   
  8   5   7  ar  
  9   5  25  1   
 10   6   7  ar  
 11   6  26  1   
 12   7   8  1   
 13   8   9  am  
 14   8  27  1   
 15   9  10  2   
 16   9  11  1   
 17  11  12  1   
 18  11  28  1   
 19  11  29  1   
 20  12  13  am  
 21  12  14  1   
 22  13  15  2   
 23  13  16  2   
 24  13  17  1   
 25  14  18  1   
 26  14  19  1   
 27  14  30  1   
 28  17  31  1   
 29  17  32  1   
 30  17  33  1   
 31  18  20  1   
 32  18  34  1   
 33  18  35  1   
 34  19  21  1   
 35  19  36  1   
 36  19  37  1   
 37  20  22  1   
 38  20  38  1   
 39  20  39  1   
 40  21  22  1   
 41  21  40  1   
 42  21  41  1   
 43  22  42  1   
 44  22  43  1   
@<TRIPOS>SUBSTRUCTURE
  1 ****   9 GROUP 4 **** **** 0

# MOE 2024.06 (io_trps.svl 2023.06)
