@<TRIPOS>MOLECULE
NONAME
33 34 1 0 0 
SMALL
USER_CHARGES


@<TRIPOS>ATOM
  1 O        0.0800    -0.5660     0.5130 O.2   1 <1>  -0.5700 
  2 C       -0.2290    -1.6980     0.2290 C.2   1 <1>   0.5690 
  3 N        0.5730    -2.7860     0.3810 N.am  1 <1>  -0.4200 
  4 C       -1.5890    -2.1040    -0.3150 C.3   1 <1>  -0.0190 
  5 C       -0.1180    -3.9360     0.1660 C.2   1 <1>   0.5690 
  6 C        2.0250    -2.6980     0.0300 C.3   1 <1>   0.0340 
  7 C       -2.8000    -1.4570     0.3990 C.3   1 <1>   0.0630 
  8 C       -1.5510    -3.6440    -0.1940 C.3   1 <1>  -0.0990 
  9 O        0.3070    -5.0580     0.2900 O.2   1 <1>  -0.5700 
 10 C        2.2610    -2.5720    -1.4750 C.2   1 <1>   0.9060 
 11 C       -4.1010    -2.1850     0.0590 C.ar  1 <1>  -0.1440 
 12 C       -2.9660     0.0330     0.0580 C.3   1 <1>  -0.2400 
 13 O        3.4270    -2.4940    -1.8750 O.co2 1 <1>  -0.9000 
 14 O        1.2940    -2.5480    -2.2530 O.co2 1 <1>  -0.9000 
 15 C       -4.5230    -2.3200    -1.2570 C.ar  1 <1>  -0.1500 
 16 C       -4.8780    -2.7270     1.0730 C.ar  1 <1>  -0.1500 
 17 C       -5.6980    -2.9900    -1.5540 C.ar  1 <1>  -0.1500 
 18 C       -6.0520    -3.3970     0.7780 C.ar  1 <1>  -0.1500 
 19 C       -6.4630    -3.5300    -0.5360 C.ar  1 <1>  -0.1500 
 20 H       -1.5940    -1.8440    -1.3590 H     1 <1>   0.0800 
 21 H        2.5330    -3.5790     0.3720 H     1 <1>   0.0800 
 22 H        2.4580    -1.8410     0.5060 H     1 <1>   0.0800 
 23 H       -2.6320    -1.5320     1.4600 H     1 <1>   0.0800 
 24 H       -1.8030    -4.1170    -1.1260 H     1 <1>   0.0800 
 25 H       -2.1840    -4.0140     0.5910 H     1 <1>   0.0800 
 26 H       -3.0440     0.1740    -1.0050 H     1 <1>   0.0800 
 27 H       -2.1320     0.6070     0.4180 H     1 <1>   0.0800 
 28 H       -3.8580     0.4160     0.5200 H     1 <1>   0.0800 
 29 H       -3.9380    -1.9060    -2.0590 H     1 <1>   0.1500 
 30 H       -4.5730    -2.6310     2.1000 H     1 <1>   0.1500 
 31 H       -6.0150    -3.0900    -2.5770 H     1 <1>   0.1500 
 32 H       -6.6460    -3.8150     1.5710 H     1 <1>   0.1500 
 33 H       -7.3750    -4.0510    -0.7660 H     1 <1>   0.1500 
@<TRIPOS>BOND
  1   1   2  2   
  2   2   3  am  
  3   2   4  1   
  4   3   5  am  
  5   3   6  1   
  6   4   7  1   
  7   4   8  1   
  8   4  20  1   
  9   5   8  1   
 10   5   9  2   
 11   6  10  1   
 12   6  21  1   
 13   6  22  1   
 14   7  11  1   
 15   7  12  1   
 16   7  23  1   
 17   8  24  1   
 18   8  25  1   
 19  10  13  ar  
 20  10  14  ar  
 21  11  15  ar  
 22  11  16  ar  
 23  12  26  1   
 24  12  27  1   
 25  12  28  1   
 26  15  17  ar  
 27  15  29  1   
 28  16  18  ar  
 29  16  30  1   
 30  17  19  ar  
 31  17  31  1   
 32  18  19  ar  
 33  18  32  1   
 34  19  33  1   
@<TRIPOS>SUBSTRUCTURE
  1 ****   4 GROUP 4 **** **** 0

# MOE 2024.06 (io_trps.svl 2023.06)
