@<TRIPOS>MOLECULE
NONAME
37 37 1 0 0 
SMALL
USER_CHARGES


@<TRIPOS>ATOM
  1 BR      -0.3240     0.3740     0.2410 Br    1 <1>  -0.1110 
  2 C        1.4600     1.0830     0.0980 C.ar  1 <1>   0.1110 
  3 C        1.6230     2.3950    -0.3000 C.ar  1 <1>  -0.1500 
  4 C        2.5300     0.2600     0.3970 C.ar  1 <1>  -0.1500 
  5 C        2.9120     2.8830    -0.3960 C.ar  1 <1>   0.1770 
  6 C        3.8180     0.7650     0.2960 C.ar  1 <1>  -0.1500 
  7 CL       3.1300     4.5460    -0.9000 Cl    1 <1>  -0.1770 
  8 C        4.0200     2.0880    -0.1040 C.ar  1 <1>   0.0830 
  9 O        5.2550     2.6470    -0.2240 O.3   1 <1>  -0.3630 
 10 C        6.4310     1.9280     0.0510 C.3   1 <1>   0.1200 
 11 C        7.6070     2.8770    -0.1910 C.3   1 <1>  -0.1600 
 12 C        8.9600     2.2040     0.0790 C.3   1 <1>  -0.1600 
 13 C       10.1030     3.1860    -0.1730 C.3   1 <1>   0.3430 
 14 N       11.3950     2.5120     0.1010 N.4   1 <1>  -0.9060 
 15 C       12.5710     3.3600    -0.1400 C.3   1 <1>   0.4230 
 16 C       13.7930     2.4510    -0.1420 C.3   1 <1>  -0.2400 
 17 C       12.6770     4.4060     0.9670 C.3   1 <1>  -0.2400 
 18 H        0.7780     3.0180    -0.5280 H     1 <1>   0.1500 
 19 H        2.3560    -0.7570     0.7040 H     1 <1>   0.1500 
 20 H        4.6400     0.1170     0.5300 H     1 <1>   0.1500 
 21 H        6.4740     1.0800    -0.6120 H     1 <1>   0.0800 
 22 H        6.3990     1.6040     1.0770 H     1 <1>   0.0800 
 23 H        7.4910     3.7320     0.4540 H     1 <1>   0.0800 
 24 H        7.5660     3.2140    -1.2140 H     1 <1>   0.0800 
 25 H        9.0620     1.3510    -0.5700 H     1 <1>   0.0800 
 26 H        8.9850     1.8710     1.1030 H     1 <1>   0.0800 
 27 H        9.9870     4.0440     0.4710 H     1 <1>   0.0800 
 28 H       10.0700     3.5230    -1.1980 H     1 <1>   0.0800 
 29 H       11.4730     1.6780    -0.4910 H     1 <1>   0.4500 
 30 H       11.4230     2.1910     1.0740 H     1 <1>   0.4500 
 31 H       12.4890     3.8480    -1.1000 H     1 <1>   0.0800 
 32 H       13.9100     1.9480     0.8020 H     1 <1>   0.0800 
 33 H       14.6780     3.0390    -0.3150 H     1 <1>   0.0800 
 34 H       13.7280     1.7250    -0.9320 H     1 <1>   0.0800 
 35 H       12.7390     3.9450     1.9370 H     1 <1>   0.0800 
 36 H       11.8440     5.0850     0.9430 H     1 <1>   0.0800 
 37 H       13.5690     4.9900     0.8220 H     1 <1>   0.0800 
@<TRIPOS>BOND
  1   1   2  1   
  2   2   3  ar  
  3   2   4  ar  
  4   3   5  ar  
  5   3  18  1   
  6   4   6  ar  
  7   4  19  1   
  8   5   7  1   
  9   5   8  ar  
 10   6   8  ar  
 11   6  20  1   
 12   8   9  1   
 13   9  10  1   
 14  10  11  1   
 15  10  21  1   
 16  10  22  1   
 17  11  12  1   
 18  11  23  1   
 19  11  24  1   
 20  12  13  1   
 21  12  25  1   
 22  12  26  1   
 23  13  14  1   
 24  13  27  1   
 25  13  28  1   
 26  14  15  1   
 27  14  29  1   
 28  14  30  1   
 29  15  16  1   
 30  15  17  1   
 31  15  31  1   
 32  16  32  1   
 33  16  33  1   
 34  16  34  1   
 35  17  35  1   
 36  17  36  1   
 37  17  37  1   
@<TRIPOS>SUBSTRUCTURE
  1 ****  10 GROUP 4 **** **** 0

# MOE 2024.06 (io_trps.svl 2023.06)
