@<TRIPOS>MOLECULE
NONAME
41 42 1 0 0 
SMALL
USER_CHARGES


@<TRIPOS>ATOM
  1 O       -0.6420    -0.2140    -0.1860 O.2   1 <1>  -0.5700 
  2 C       -1.5310     0.5770     0.0890 C.2   1 <1>   0.4140 
  3 C       -1.4210     1.9600    -0.1770 C.3   1 <1>  -0.7150 
  4 C       -2.7840    -0.0100     0.7650 C.3   1 <1>   0.1610 
  5 C       -2.4160     2.8450     0.2800 C.2   1 <1>   0.4140 
  6 C       -0.3320     2.4700    -0.9110 C.2   1 <1>   0.4140 
  7 C       -3.0550    -1.4680     0.3730 C.2   1 <1>  -0.0400 
  8 C       -4.0370     0.8850     0.5340 C.3   1 <1>   0.0000 
  9 O       -2.3280     4.0590     0.2650 O.2   1 <1>  -0.5700 
 10 C       -3.6780     2.3250     0.9350 C.3   1 <1>  -0.0990 
 11 O       -0.4690     3.2510    -1.8390 O.2   1 <1>  -0.5700 
 12 C        1.1010     2.0570    -0.5970 C.3   1 <1>  -0.0990 
 13 O       -3.7050    -2.2560     1.1910 O.3   1 <1>  -0.0190 
 14 C       -2.7460    -2.1870    -0.7170 C.2   1 <1>  -0.1500 
 15 C       -5.2340     0.4380     1.3990 C.3   1 <1>  -0.2400 
 16 C       -4.4900     0.8620    -0.9430 C.3   1 <1>  -0.2400 
 17 C        2.0500     3.2590    -0.4570 C.3   1 <1>  -0.1600 
 18 N       -3.8540    -3.4550     0.7030 N.2   1 <1>  -0.4100 
 19 C       -3.2810    -3.4420    -0.4460 C.2   1 <1>   0.1080 
 20 C        3.4700     2.8160    -0.0900 C.3   1 <1>  -0.2400 
 21 C       -3.1970    -4.6310    -1.3750 C.3   1 <1>  -0.0590 
 22 H       -2.5590    -0.0110     1.8150 H     1 <1>   0.0800 
 23 H       -4.4860     2.9860     0.6810 H     1 <1>   0.0800 
 24 H       -3.5300     2.3870     1.9970 H     1 <1>   0.0800 
 25 H        1.4380     1.4070    -1.3830 H     1 <1>   0.0800 
 26 H        1.1100     1.5050     0.3240 H     1 <1>   0.0800 
 27 H       -2.2060    -1.8800    -1.5940 H     1 <1>   0.1500 
 28 H       -4.9490     0.3680     2.4340 H     1 <1>   0.0800 
 29 H       -5.6020    -0.5210     1.0820 H     1 <1>   0.0800 
 30 H       -6.0420     1.1430     1.3150 H     1 <1>   0.0800 
 31 H       -3.6900     1.1670    -1.5960 H     1 <1>   0.0800 
 32 H       -5.3150     1.5350    -1.0960 H     1 <1>   0.0800 
 33 H       -4.8030    -0.1240    -1.2350 H     1 <1>   0.0800 
 34 H        1.6640     3.9180     0.3020 H     1 <1>   0.0800 
 35 H        2.0690     3.8030    -1.3860 H     1 <1>   0.0800 
 36 H        3.4650     2.2890     0.8480 H     1 <1>   0.0800 
 37 H        4.1100     3.6760     0.0010 H     1 <1>   0.0800 
 38 H        3.8660     2.1690    -0.8520 H     1 <1>   0.0800 
 39 H       -3.6910    -4.4040    -2.3010 H     1 <1>   0.0800 
 40 H       -3.6710    -5.4840    -0.9240 H     1 <1>   0.0800 
 41 H       -2.1670    -4.8660    -1.5690 H     1 <1>   0.0800 
@<TRIPOS>BOND
  1   1   2  2   
  2   2   3  1   
  3   2   4  1   
  4   3   5  1   
  5   3   6  1   
  6   4   7  1   
  7   4   8  1   
  8   4  22  1   
  9   5   9  2   
 10   5  10  1   
 11   6  11  2   
 12   6  12  1   
 13   7  13  1   
 14   7  14  2   
 15   8  10  1   
 16   8  15  1   
 17   8  16  1   
 18  10  23  1   
 19  10  24  1   
 20  12  17  1   
 21  12  25  1   
 22  12  26  1   
 23  13  18  1   
 24  14  19  1   
 25  14  27  1   
 26  15  28  1   
 27  15  29  1   
 28  15  30  1   
 29  16  31  1   
 30  16  32  1   
 31  16  33  1   
 32  17  20  1   
 33  17  34  1   
 34  17  35  1   
 35  18  19  2   
 36  19  21  1   
 37  20  36  1   
 38  20  37  1   
 39  20  38  1   
 40  21  39  1   
 41  21  40  1   
 42  21  41  1   
@<TRIPOS>SUBSTRUCTURE
  1 ****   2 GROUP 4 **** **** 0

# MOE 2024.06 (io_trps.svl 2023.06)
