@<TRIPOS>MOLECULE
NONAME
38 40 1 0 0 
SMALL
USER_CHARGES


@<TRIPOS>ATOM
  1 S       -1.4020    -0.2950     0.0260 S.o2  1 <1>   1.4470 
  2 O       -0.9000    -0.6290    -1.2830 O.2   1 <1>  -0.6500 
  3 O       -2.7550    -0.6750     0.3700 O.2   1 <1>  -0.6500 
  4 N       -1.3450     1.3840     0.2150 N.am  1 <1>  -0.8490 
  5 C       -0.3030    -0.9230     1.3270 C.ar  1 <1>  -0.0090 
  6 C       -0.1820     2.2430    -0.3320 C.3   1 <1>   0.4170 
  7 C       -2.5720     2.0710    -0.1580 C.3   1 <1>   0.4140 
  8 C       -0.6080    -0.7230     2.6690 C.ar  1 <1>  -0.1500 
  9 C        0.8670    -1.6120     1.0240 C.ar  1 <1>  -0.1500 
 10 C        0.6780     2.7380     0.8410 C.2   1 <1>   0.6590 
 11 C        0.9190     1.7330    -1.3340 C.3   1 <1>   1.0200 
 12 C       -0.9800     3.4410    -0.9390 C.3   1 <1>   0.0580 
 13 C       -2.6630     2.0740    -1.6680 C.2   1 <1>  -0.2880 
 14 C       -2.1500     3.5170     0.0430 C.3   1 <1>  -0.1600 
 15 C        0.2240    -1.1860     3.6740 C.ar  1 <1>  -0.1500 
 16 C        1.7060    -2.0760     2.0220 C.ar  1 <1>  -0.1500 
 17 O        0.9400     3.9030     1.0150 O.2   1 <1>  -0.5700 
 18 O        1.1160     1.8120     1.6890 O.3   1 <1>  -0.4300 
 19 F        1.8170     2.6800    -1.5950 F     1 <1>  -0.3400 
 20 F        0.4910     1.3550    -2.5330 F     1 <1>  -0.3400 
 21 F        1.6280     0.7090    -0.8690 F     1 <1>  -0.3400 
 22 C       -1.7520     2.9200    -2.1390 C.2   1 <1>  -0.2880 
 23 C        1.3850    -1.8620     3.3500 C.ar  1 <1>  -0.1500 
 24 C        1.9100     2.1180     2.8150 C.3   1 <1>   0.0400 
 25 H       -3.4580     1.7740     0.3810 H     1 <1>   0.0800 
 26 H       -1.5120    -0.1980     2.9280 H     1 <1>   0.1500 
 27 H        1.1280    -1.7870    -0.0070 H     1 <1>   0.1500 
 28 H       -0.4520     4.3660    -1.1020 H     1 <1>   0.0800 
 29 H       -3.3830     1.4490    -2.1680 H     1 <1>   0.1500 
 30 H       -1.8720     3.7330     1.0600 H     1 <1>   0.0800 
 31 H       -2.9120     4.2060    -0.2800 H     1 <1>   0.0800 
 32 H       -0.0340    -1.0210     4.7060 H     1 <1>   0.1500 
 33 H        2.6080    -2.6040     1.7640 H     1 <1>   0.1500 
 34 H       -1.4990     3.2070    -3.1470 H     1 <1>   0.1500 
 35 H        2.0350    -2.2250     4.1280 H     1 <1>   0.1500 
 36 H        1.3590     2.7790     3.4610 H     1 <1>   0.0800 
 37 H        2.8180     2.5920     2.4840 H     1 <1>   0.0800 
 38 H        2.1370     1.2010     3.3290 H     1 <1>   0.0800 
@<TRIPOS>BOND
  1   1   2  2   
  2   1   3  2   
  3   1   4  am  
  4   1   5  1   
  5   4   6  1   
  6   4   7  1   
  7   5   8  ar  
  8   5   9  ar  
  9   6  10  1   
 10   6  11  1   
 11   6  12  1   
 12   7  13  1   
 13   7  14  1   
 14   7  25  1   
 15   8  15  ar  
 16   8  26  1   
 17   9  16  ar  
 18   9  27  1   
 19  10  17  2   
 20  10  18  1   
 21  11  19  1   
 22  11  20  1   
 23  11  21  1   
 24  12  14  1   
 25  12  22  1   
 26  12  28  1   
 27  13  22  2   
 28  13  29  1   
 29  14  30  1   
 30  14  31  1   
 31  15  23  ar  
 32  15  32  1   
 33  16  23  ar  
 34  16  33  1   
 35  18  24  1   
 36  22  34  1   
 37  23  35  1   
 38  24  36  1   
 39  24  37  1   
 40  24  38  1   
@<TRIPOS>SUBSTRUCTURE
  1 ****   4 GROUP 4 **** **** 0

# MOE 2024.06 (io_trps.svl 2023.06)
