@<TRIPOS>MOLECULE
NONAME
44 45 1 0 0 
SMALL
USER_CHARGES


@<TRIPOS>ATOM
  1 O      -12.1690     5.5930     0.5510 O.3   1 <1>  -0.3630 
  2 C      -11.2020     4.7160     0.1580 C.ar  1 <1>   0.0820 
  3 C      -13.5470     5.3550     0.3800 C.3   1 <1>   0.1200 
  4 C      -11.3790     3.3780    -0.2380 C.ar  1 <1>   0.0820 
  5 C       -9.9270     5.2570     0.1750 C.ar  1 <1>  -0.1500 
  6 C      -14.2950     6.6360     0.7350 C.3   1 <1>  -0.2400 
  7 O      -12.6240     2.8230    -0.2460 O.3   1 <1>  -0.3620 
  8 C      -10.2590     2.6350    -0.6090 C.ar  1 <1>  -0.1500 
  9 C       -8.8190     4.5070    -0.1840 C.ar  1 <1>  -0.1440 
 10 C      -12.8890     1.5430    -0.7730 C.3   1 <1>   0.1200 
 11 C       -8.9930     3.1920    -0.5820 C.ar  1 <1>  -0.1500 
 12 C       -7.4420     5.1200    -0.1210 C.3   1 <1>   0.4860 
 13 C      -14.3950     1.3120    -0.7050 C.3   1 <1>  -0.2400 
 14 N       -7.0270     5.0450     1.2970 N.4   1 <1>  -0.9060 
 15 C       -5.6650     5.5720     1.5650 C.3   1 <1>   0.4860 
 16 C       -4.6670     4.8120     0.7180 C.ar  1 <1>  -0.1440 
 17 C       -4.3020     3.5190     1.0640 C.ar  1 <1>   0.1600 
 18 C       -4.1110     5.3820    -0.4120 C.ar  1 <1>  -0.1500 
 19 N       -3.4730     2.7620     0.3720 N.ar  1 <1>  -0.6200 
 20 C       -3.2310     4.6050    -1.1350 C.ar  1 <1>  -0.1500 
 21 C       -2.9500     3.3190    -0.7080 C.ar  1 <1>   0.1600 
 22 H      -13.8390     4.5520     1.0340 H     1 <1>   0.0800 
 23 H      -13.7230     5.0830    -0.6470 H     1 <1>   0.0800 
 24 H       -9.8320     6.2860     0.4740 H     1 <1>   0.1500 
 25 H      -14.1030     6.9050     1.7580 H     1 <1>   0.0800 
 26 H      -15.3520     6.4830     0.6140 H     1 <1>   0.0800 
 27 H      -13.9880     7.4370     0.0860 H     1 <1>   0.0800 
 28 H      -10.3510     1.6120    -0.9210 H     1 <1>   0.1500 
 29 H      -12.3670     0.8130    -0.1800 H     1 <1>   0.0800 
 30 H      -12.5470     1.5150    -1.7940 H     1 <1>   0.0800 
 31 H       -8.1520     2.5840    -0.8770 H     1 <1>   0.1500 
 32 H       -7.4760     6.1440    -0.4580 H     1 <1>   0.0800 
 33 H       -6.7620     4.5650    -0.7490 H     1 <1>   0.0800 
 34 H      -14.7310     1.3590     0.3160 H     1 <1>   0.0800 
 35 H      -14.6330     0.3400    -1.0990 H     1 <1>   0.0800 
 36 H      -14.9110     2.0540    -1.2880 H     1 <1>   0.0800 
 37 H       -7.0820     4.0570     1.5650 H     1 <1>   0.4500 
 38 H       -7.7340     5.5310     1.8600 H     1 <1>   0.4500 
 39 H       -5.4190     5.4520     2.6080 H     1 <1>   0.0800 
 40 H       -5.6180     6.6220     1.3250 H     1 <1>   0.0800 
 41 H       -4.7080     3.0680     1.9550 H     1 <1>   0.1500 
 42 H       -4.3350     6.3870    -0.7320 H     1 <1>   0.1500 
 43 H       -2.7570     4.9880    -2.0230 H     1 <1>   0.1500 
 44 H       -2.2610     2.7190    -1.2810 H     1 <1>   0.1500 
@<TRIPOS>BOND
  1   1   2  1   
  2   1   3  1   
  3   2   4  ar  
  4   2   5  ar  
  5   3   6  1   
  6   3  22  1   
  7   3  23  1   
  8   4   7  1   
  9   4   8  ar  
 10   5   9  ar  
 11   5  24  1   
 12   6  25  1   
 13   6  26  1   
 14   6  27  1   
 15   7  10  1   
 16   8  11  ar  
 17   8  28  1   
 18   9  11  ar  
 19   9  12  1   
 20  10  13  1   
 21  10  29  1   
 22  10  30  1   
 23  11  31  1   
 24  12  14  1   
 25  12  32  1   
 26  12  33  1   
 27  13  34  1   
 28  13  35  1   
 29  13  36  1   
 30  14  15  1   
 31  14  37  1   
 32  14  38  1   
 33  15  16  1   
 34  15  39  1   
 35  15  40  1   
 36  16  17  ar  
 37  16  18  ar  
 38  17  19  ar  
 39  17  41  1   
 40  18  20  ar  
 41  18  42  1   
 42  19  21  ar  
 43  20  21  ar  
 44  20  43  1   
 45  21  44  1   
@<TRIPOS>SUBSTRUCTURE
  1 ****   9 GROUP 4 **** **** 0

# MOE 2024.06 (io_trps.svl 2023.06)
