@<TRIPOS>MOLECULE
NONAME
31 31 1 0 0 
SMALL
USER_CHARGES


@<TRIPOS>ATOM
  1 CL       0.3640     0.0010    -0.0110 Cl    1 <1>  -0.1770 
  2 C        0.1900     1.7430    -0.0040 C.ar  1 <1>   0.1770 
  3 C        1.3210     2.5530    -0.0010 C.ar  1 <1>   0.0820 
  4 C       -1.0830     2.2790     0.0000 C.ar  1 <1>  -0.1500 
  5 O        2.5400     1.9500    -0.0050 O.3   1 <1>  -0.3630 
  6 C        1.1480     3.9360     0.0050 C.ar  1 <1>  -0.1500 
  7 C       -1.2480     3.6550     0.0060 C.ar  1 <1>  -0.1430 
  8 C        3.7380     2.6820    -0.0020 C.3   1 <1>   0.1200 
  9 C       -0.1290     4.4740     0.0080 C.ar  1 <1>  -0.1500 
 10 C       -2.6360     4.2710     0.0090 C.3   1 <1>  -0.0960 
 11 C        4.8750     1.6580    -0.0080 C.3   1 <1>   0.3430 
 12 N        6.2200     2.3120    -0.0060 N.4   1 <1>  -0.9060 
 13 C        7.3150     1.3180    -0.0110 C.3   1 <1>   0.3430 
 14 C        8.6360     2.0710    -0.0080 C.3   1 <1>  -0.2400 
 15 H       -1.9310     1.6180    -0.0020 H     1 <1>   0.1500 
 16 H        1.9810     4.6110     0.0070 H     1 <1>   0.1500 
 17 H        3.7580     3.2850     0.8890 H     1 <1>   0.0800 
 18 H        3.7570     3.2920    -0.8880 H     1 <1>   0.0800 
 19 H       -0.2550     5.5440     0.0130 H     1 <1>   0.1500 
 20 H       -3.3960     3.5100    -0.0010 H     1 <1>   0.0800 
 21 H       -2.7640     4.8920    -0.8590 H     1 <1>   0.0800 
 22 H       -2.7680     4.8730     0.8900 H     1 <1>   0.0800 
 23 H        4.7750     1.0390    -0.8850 H     1 <1>   0.0800 
 24 H        4.7760     1.0310     0.8640 H     1 <1>   0.0800 
 25 H        6.3220     2.9100     0.8240 H     1 <1>   0.4500 
 26 H        6.3210     2.9170    -0.8300 H     1 <1>   0.4500 
 27 H        7.2510     0.6950    -0.8900 H     1 <1>   0.0800 
 28 H        7.2520     0.6870     0.8630 H     1 <1>   0.0800 
 29 H        8.7340     2.6860    -0.8860 H     1 <1>   0.0800 
 30 H        9.4470     1.3620    -0.0120 H     1 <1>   0.0800 
 31 H        8.7350     2.6780     0.8750 H     1 <1>   0.0800 
@<TRIPOS>BOND
  1   1   2  1   
  2   2   3  ar  
  3   2   4  ar  
  4   3   5  1   
  5   3   6  ar  
  6   4   7  ar  
  7   4  15  1   
  8   5   8  1   
  9   6   9  ar  
 10   6  16  1   
 11   7   9  ar  
 12   7  10  1   
 13   8  11  1   
 14   8  17  1   
 15   8  18  1   
 16   9  19  1   
 17  10  20  1   
 18  10  21  1   
 19  10  22  1   
 20  11  12  1   
 21  11  23  1   
 22  11  24  1   
 23  12  13  1   
 24  12  25  1   
 25  12  26  1   
 26  13  14  1   
 27  13  27  1   
 28  13  28  1   
 29  14  29  1   
 30  14  30  1   
 31  14  31  1   
@<TRIPOS>SUBSTRUCTURE
  1 ****   5 GROUP 4 **** **** 0

# MOE 2024.06 (io_trps.svl 2023.06)
