@<TRIPOS>MOLECULE
NONAME
30 30 1 0 0 
SMALL
USER_CHARGES


@<TRIPOS>ATOM
  1 O       -3.4500     1.5170     0.7150 O.co2 1 <1>  -0.9000 
  2 C       -4.3850     1.0480     0.0550 C.2   1 <1>   0.9060 
  3 O       -4.3410    -0.1110    -0.3870 O.co2 1 <1>  -0.9000 
  4 C       -5.6590     1.8800    -0.1970 C.3   1 <1>  -0.1060 
  5 C       -6.8160     1.0740     0.4530 C.3   1 <1>   0.3440 
  6 C       -5.8670     2.1020    -1.7190 C.3   1 <1>  -0.2400 
  7 C       -5.5580     3.2870     0.4520 C.3   1 <1>  -0.2400 
  8 O       -6.9400    -0.1540    -0.1790 O.3   1 <1>  -0.6800 
  9 C       -8.1850     1.7700     0.4620 C.ar  1 <1>  -0.1440 
 10 C       -9.0480     1.7060    -0.6240 C.ar  1 <1>  -0.1500 
 11 C       -8.5850     2.4840     1.5830 C.ar  1 <1>  -0.1500 
 12 C      -10.2750     2.3460    -0.5940 C.ar  1 <1>  -0.1500 
 13 C       -9.8120     3.1250     1.6160 C.ar  1 <1>  -0.1500 
 14 C      -10.6640     3.0620     0.5260 C.ar  1 <1>  -0.1440 
 15 C      -12.0110     3.7610     0.5610 C.3   1 <1>  -0.0970 
 16 H       -6.5370     0.8570     1.4700 H     1 <1>   0.0800 
 17 H       -5.9620     1.1590    -2.2270 H     1 <1>   0.0800 
 18 H       -5.0160     2.6140    -2.1310 H     1 <1>   0.0800 
 19 H       -6.7470     2.6880    -1.9070 H     1 <1>   0.0800 
 20 H       -5.4320     3.1950     1.5160 H     1 <1>   0.0800 
 21 H       -6.4350     3.8750     0.2510 H     1 <1>   0.0800 
 22 H       -4.7000     3.8070     0.0630 H     1 <1>   0.0800 
 23 H       -5.9970    -0.4460    -0.3600 H     1 <1>   0.4000 
 24 H       -8.7560     1.1460    -1.4950 H     1 <1>   0.1500 
 25 H       -7.9330     2.5430     2.4360 H     1 <1>   0.1500 
 26 H      -10.9240     2.2780    -1.4480 H     1 <1>   0.1500 
 27 H      -10.0980     3.6720     2.4960 H     1 <1>   0.1500 
 28 H      -12.7570     3.0920     0.9480 H     1 <1>   0.0800 
 29 H      -12.2990     4.0690    -0.4280 H     1 <1>   0.0800 
 30 H      -11.9650     4.6330     1.1880 H     1 <1>   0.0800 
@<TRIPOS>BOND
  1   1   2  ar  
  2   2   3  ar  
  3   2   4  1   
  4   4   5  1   
  5   4   6  1   
  6   4   7  1   
  7   5   8  1   
  8   5   9  1   
  9   5  16  1   
 10   6  17  1   
 11   6  18  1   
 12   6  19  1   
 13   7  20  1   
 14   7  21  1   
 15   7  22  1   
 16   8  23  1   
 17   9  10  ar  
 18   9  11  ar  
 19  10  12  ar  
 20  10  24  1   
 21  11  13  ar  
 22  11  25  1   
 23  12  14  ar  
 24  12  26  1   
 25  13  14  ar  
 26  13  27  1   
 27  14  15  1   
 28  15  28  1   
 29  15  29  1   
 30  15  30  1   
@<TRIPOS>SUBSTRUCTURE
  1 ****   9 GROUP 4 **** **** 0

# MOE 2024.06 (io_trps.svl 2023.06)
