@<TRIPOS>MOLECULE
NONAME
45 45 1 0 0 
SMALL
USER_CHARGES


@<TRIPOS>ATOM
  1 CL      -2.7950     1.2270    -2.2450 Cl    1 <1>  -0.1770 
  2 C       -2.1220     1.8440    -0.7590 C.ar  1 <1>   0.1770 
  3 C       -2.3650     3.1590    -0.3960 C.ar  1 <1>  -0.1440 
  4 C       -1.3890     0.9920     0.0480 C.ar  1 <1>  -0.1500 
  5 C       -1.8710     3.5930     0.8220 C.ar  1 <1>   0.1770 
  6 C       -3.1320     4.1010    -1.3010 C.3   1 <1>   0.4870 
  7 C       -0.8930     1.4530     1.2570 C.ar  1 <1>  -0.1500 
  8 CL      -2.2080     5.2240     1.3440 Cl    1 <1>  -0.1770 
  9 C       -1.1390     2.7600     1.6480 C.ar  1 <1>  -0.1500 
 10 N       -4.5090     4.3400    -0.7590 N.4   1 <1>  -0.9590 
 11 C       -5.3790     3.1010    -0.7730 C.3   1 <1>   0.3430 
 12 C       -5.1270     5.4600    -1.5260 C.3   1 <1>   0.3430 
 13 C       -5.2940     2.2300     0.5150 C.3   1 <1>   0.3430 
 14 C       -6.2720     6.0560    -0.7170 C.3   1 <1>  -0.2400 
 15 N       -6.0690     0.9320     0.4630 N.4   1 <1>  -0.9590 
 16 C       -5.4480    -0.0600    -0.4660 C.3   1 <1>   0.3430 
 17 C       -7.5390     1.0810     0.2140 C.3   1 <1>   0.3430 
 18 C       -5.8710    -1.4700    -0.0720 C.3   1 <1>  -0.2400 
 19 C       -8.1820     1.8900     1.3350 C.3   1 <1>  -0.2400 
 20 H       -1.1980    -0.0220    -0.2650 H     1 <1>   0.1500 
 21 H       -3.1880     3.6990    -2.3000 H     1 <1>   0.0800 
 22 H       -2.5940     5.0350    -1.3540 H     1 <1>   0.0800 
 23 H       -0.3130     0.8000     1.8910 H     1 <1>   0.1500 
 24 H       -0.7590     3.1290     2.5870 H     1 <1>   0.1500 
 25 H       -4.3810     4.7010     0.2010 H     1 <1>   0.4500 
 26 H       -5.1130     2.4980    -1.6260 H     1 <1>   0.0800 
 27 H       -6.4070     3.3990    -0.8950 H     1 <1>   0.0800 
 28 H       -5.4840     5.1140    -2.4850 H     1 <1>   0.0800 
 29 H       -4.3940     6.2340    -1.7010 H     1 <1>   0.0800 
 30 H       -5.6590     2.8150     1.3430 H     1 <1>   0.0800 
 31 H       -4.2620     1.9970     0.7150 H     1 <1>   0.0800 
 32 H       -7.0770     5.3590    -0.5790 H     1 <1>   0.0800 
 33 H       -6.6690     6.9030    -1.2500 H     1 <1>   0.0800 
 34 H       -5.9260     6.4100     0.2380 H     1 <1>   0.0800 
 35 H       -5.9950     0.5010     1.4000 H     1 <1>   0.4500 
 36 H       -4.3730     0.0000    -0.3990 H     1 <1>   0.0800 
 37 H       -5.7360     0.1400    -1.4870 H     1 <1>   0.0800 
 38 H       -8.0040     0.1080     0.1880 H     1 <1>   0.0800 
 39 H       -7.7190     1.5560    -0.7370 H     1 <1>   0.0800 
 40 H       -5.6050    -1.6830     0.9480 H     1 <1>   0.0800 
 41 H       -5.3550    -2.1770    -0.6980 H     1 <1>   0.0800 
 42 H       -6.9250    -1.6260    -0.2140 H     1 <1>   0.0800 
 43 H       -7.9880     1.4400     2.2930 H     1 <1>   0.0800 
 44 H       -9.2490     1.8960     1.1910 H     1 <1>   0.0800 
 45 H       -7.8530     2.9120     1.3370 H     1 <1>   0.0800 
@<TRIPOS>BOND
  1   1   2  1   
  2   2   3  ar  
  3   2   4  ar  
  4   3   5  ar  
  5   3   6  1   
  6   4   7  ar  
  7   4  20  1   
  8   5   8  1   
  9   5   9  ar  
 10   6  10  1   
 11   6  21  1   
 12   6  22  1   
 13   7   9  ar  
 14   7  23  1   
 15   9  24  1   
 16  10  11  1   
 17  10  12  1   
 18  10  25  1   
 19  11  13  1   
 20  11  26  1   
 21  11  27  1   
 22  12  14  1   
 23  12  28  1   
 24  12  29  1   
 25  13  15  1   
 26  13  30  1   
 27  13  31  1   
 28  14  32  1   
 29  14  33  1   
 30  14  34  1   
 31  15  16  1   
 32  15  17  1   
 33  15  35  1   
 34  16  18  1   
 35  16  36  1   
 36  16  37  1   
 37  17  19  1   
 38  17  38  1   
 39  17  39  1   
 40  18  40  1   
 41  18  41  1   
 42  18  42  1   
 43  19  43  1   
 44  19  44  1   
 45  19  45  1   
@<TRIPOS>SUBSTRUCTURE
  1 ****  13 GROUP 4 **** **** 0

# MOE 2024.06 (io_trps.svl 2023.06)
