@<TRIPOS>MOLECULE
NONAME
46 48 1 0 0 
SMALL
USER_CHARGES


@<TRIPOS>ATOM
  1 O       -5.4840    -2.3870    -0.3990 O.2   1 <1>  -0.5700 
  2 C       -5.0270    -1.3160    -0.0590 C.2   1 <1>   0.7800 
  3 O       -3.7130    -1.1910     0.1220 O.3   1 <1>  -0.4300 
  4 N       -5.7570    -0.2030     0.1610 N.am  1 <1>  -0.7300 
  5 C       -2.8700    -2.3020    -0.0920 C.3   1 <1>   0.1200 
  6 C       -7.2120    -0.0230     0.0440 C.3   1 <1>   0.3000 
  7 C       -1.4290    -1.8880     0.2210 C.3   1 <1>   0.3430 
  8 C       -7.6830    -0.2940    -1.3980 C.3   1 <1>  -0.1600 
  9 C       -7.5300     1.4410     0.4040 C.3   1 <1>  -0.1600 
 10 C       -7.9600    -0.9490     1.0210 C.3   1 <1>  -0.1600 
 11 N       -0.4400    -2.9880    -0.0490 N.4   1 <1>  -0.9590 
 12 C       -9.2010    -0.0510    -1.5100 C.3   1 <1>  -0.0800 
 13 C       -9.0450     1.7010     0.3010 C.3   1 <1>  -0.0800 
 14 C       -9.4790    -0.7090     0.9170 C.3   1 <1>  -0.0800 
 15 C       -0.6330    -4.1630     0.8620 C.3   1 <1>   0.2630 
 16 C        0.9580    -2.4670     0.0690 C.3   1 <1>   0.2630 
 17 C       -9.5100     1.4120    -1.1390 C.3   1 <1>  -0.1600 
 18 C       -9.9360    -0.9870    -0.5290 C.3   1 <1>  -0.1600 
 19 C       -9.7850     0.7590     1.2700 C.3   1 <1>  -0.1600 
 20 H       -5.2540     0.6340     0.4400 H     1 <1>   0.3700 
 21 H       -2.9730    -2.6000    -1.1220 H     1 <1>   0.0800 
 22 H       -3.2000    -3.0940     0.5580 H     1 <1>   0.0800 
 23 H       -1.3680    -1.5910     1.2550 H     1 <1>   0.0800 
 24 H       -1.1860    -1.0340    -0.3920 H     1 <1>   0.0800 
 25 H       -7.4740    -1.3130    -1.6700 H     1 <1>   0.0800 
 26 H       -7.1630     0.3510    -2.0830 H     1 <1>   0.0800 
 27 H       -7.0130     2.1040    -0.2670 H     1 <1>   0.0800 
 28 H       -7.2040     1.6500     1.4070 H     1 <1>   0.0800 
 29 H       -7.6330    -0.7620     2.0280 H     1 <1>   0.0800 
 30 H       -7.7550    -1.9780     0.7860 H     1 <1>   0.0800 
 31 H       -0.5760    -3.3070    -1.0220 H     1 <1>   0.4500 
 32 H       -9.5290    -0.2500    -2.5160 H     1 <1>   0.0800 
 33 H       -9.2600     2.7250     0.5540 H     1 <1>   0.0800 
 34 H       -9.9990    -1.3630     1.5950 H     1 <1>   0.0800 
 35 H       -0.5200    -3.8620     1.8920 H     1 <1>   0.0800 
 36 H        0.0970    -4.9270     0.6460 H     1 <1>   0.0800 
 37 H       -1.6160    -4.5860     0.7320 H     1 <1>   0.0800 
 38 H        1.1460    -2.1190     1.0720 H     1 <1>   0.0800 
 39 H        1.1120    -1.6480    -0.6150 H     1 <1>   0.0800 
 40 H        1.6680    -3.2440    -0.1650 H     1 <1>   0.0800 
 41 H       -9.0110     2.0740    -1.8250 H     1 <1>   0.0800 
 42 H      -10.5670     1.5920    -1.2240 H     1 <1>   0.0800 
 43 H       -9.7330    -2.0130    -0.7830 H     1 <1>   0.0800 
 44 H      -10.9980    -0.8360    -0.6090 H     1 <1>   0.0800 
 45 H      -10.8450     0.9340     1.2090 H     1 <1>   0.0800 
 46 H       -9.4800     0.9620     2.2820 H     1 <1>   0.0800 
@<TRIPOS>BOND
  1   1   2  2   
  2   2   3  1   
  3   2   4  am  
  4   3   5  1   
  5   4   6  1   
  6   4  20  1   
  7   5   7  1   
  8   5  21  1   
  9   5  22  1   
 10   6   8  1   
 11   6   9  1   
 12   6  10  1   
 13   7  11  1   
 14   7  23  1   
 15   7  24  1   
 16   8  12  1   
 17   8  25  1   
 18   8  26  1   
 19   9  13  1   
 20   9  27  1   
 21   9  28  1   
 22  10  14  1   
 23  10  29  1   
 24  10  30  1   
 25  11  15  1   
 26  11  16  1   
 27  11  31  1   
 28  12  17  1   
 29  12  18  1   
 30  12  32  1   
 31  13  17  1   
 32  13  19  1   
 33  13  33  1   
 34  14  18  1   
 35  14  19  1   
 36  14  34  1   
 37  15  35  1   
 38  15  36  1   
 39  15  37  1   
 40  16  38  1   
 41  16  39  1   
 42  16  40  1   
 43  17  41  1   
 44  17  42  1   
 45  18  43  1   
 46  18  44  1   
 47  19  45  1   
 48  19  46  1   
@<TRIPOS>SUBSTRUCTURE
  1 ****   4 GROUP 4 **** **** 0

# MOE 2024.06 (io_trps.svl 2023.06)
