@<TRIPOS>MOLECULE
NONAME
43 43 1 0 0 
SMALL
USER_CHARGES


@<TRIPOS>ATOM
  1 O       -2.2610    -1.9260    -0.9100 O.2   1 <1>  -0.5700 
  2 C       -1.8500    -1.5460     0.1700 C.2   1 <1>   0.7800 
  3 O       -0.7200    -2.0190     0.6940 O.3   1 <1>  -0.4300 
  4 N       -2.4940    -0.6250     0.9160 N.am  1 <1>  -0.7300 
  5 C        0.1770    -2.9350     0.1090 C.3   1 <1>   0.2800 
  6 C       -3.5380     0.2820     0.4240 C.3   1 <1>   0.2200 
  7 C       -0.5100    -4.2890    -0.1030 C.3   1 <1>  -0.2400 
  8 C        1.3040    -3.0940     1.1310 C.3   1 <1>  -0.2400 
  9 C        0.7500    -2.3570    -1.1900 C.3   1 <1>  -0.2400 
 10 C       -3.6220     1.4710     1.3820 C.3   1 <1>  -0.2660 
 11 C       -4.8700    -0.4820     0.3410 C.3   1 <1>  -0.1600 
 12 C       -2.2960     2.1630     1.5080 C.2   1 <1>   0.9060 
 13 C       -5.9700     0.3150    -0.3760 C.3   1 <1>  -0.0170 
 14 O       -2.1230     3.2250     0.9070 O.co2 1 <1>  -0.9000 
 15 O       -1.4270     1.6280     2.2070 O.co2 1 <1>  -0.9000 
 16 C       -7.2340    -0.5200    -0.5220 C.ar  1 <1>  -0.1440 
 17 C       -7.3280    -1.4670    -1.5290 C.ar  1 <1>  -0.1500 
 18 C       -8.3000    -0.3440     0.3470 C.ar  1 <1>  -0.1500 
 19 C       -8.4760    -2.2280    -1.6700 C.ar  1 <1>  -0.1500 
 20 C       -9.4500    -1.1030     0.2070 C.ar  1 <1>  -0.1500 
 21 C       -9.5380    -2.0460    -0.8020 C.ar  1 <1>  -0.1500 
 22 H       -1.8970    -0.1470     1.6160 H     1 <1>   0.3700 
 23 H       -3.2520     0.6310    -0.5550 H     1 <1>   0.0800 
 24 H       -1.2630    -4.2250    -0.8660 H     1 <1>   0.0800 
 25 H       -0.9630    -4.6230     0.8130 H     1 <1>   0.0800 
 26 H        0.2110    -5.0210    -0.4160 H     1 <1>   0.0800 
 27 H        0.9130    -3.4730     2.0580 H     1 <1>   0.0800 
 28 H        1.7730    -2.1430     1.3130 H     1 <1>   0.0800 
 29 H        2.0480    -3.7790     0.7670 H     1 <1>   0.0800 
 30 H       -0.0040    -2.2970    -1.9530 H     1 <1>   0.0800 
 31 H        1.5380    -2.9880    -1.5580 H     1 <1>   0.0800 
 32 H        1.1500    -1.3750    -1.0130 H     1 <1>   0.0800 
 33 H       -3.9300     1.1480     2.3570 H     1 <1>   0.0800 
 34 H       -4.3260     2.1940     1.0230 H     1 <1>   0.0800 
 35 H       -5.2010    -0.7400     1.3310 H     1 <1>   0.0800 
 36 H       -4.7140    -1.3950    -0.2040 H     1 <1>   0.0800 
 37 H       -5.6240     0.6060    -1.3520 H     1 <1>   0.0800 
 38 H       -6.1970     1.2120     0.1710 H     1 <1>   0.0800 
 39 H       -6.5030    -1.6160    -2.2040 H     1 <1>   0.1500 
 40 H       -8.2380     0.3850     1.1360 H     1 <1>   0.1500 
 41 H       -8.5410    -2.9620    -2.4540 H     1 <1>   0.1500 
 42 H      -10.2750    -0.9610     0.8830 H     1 <1>   0.1500 
 43 H      -10.4300    -2.6360    -0.9110 H     1 <1>   0.1500 
@<TRIPOS>BOND
  1   1   2  2   
  2   2   3  1   
  3   2   4  am  
  4   3   5  1   
  5   4   6  1   
  6   4  22  1   
  7   5   7  1   
  8   5   8  1   
  9   5   9  1   
 10   6  10  1   
 11   6  11  1   
 12   6  23  1   
 13   7  24  1   
 14   7  25  1   
 15   7  26  1   
 16   8  27  1   
 17   8  28  1   
 18   8  29  1   
 19   9  30  1   
 20   9  31  1   
 21   9  32  1   
 22  10  12  1   
 23  10  33  1   
 24  10  34  1   
 25  11  13  1   
 26  11  35  1   
 27  11  36  1   
 28  12  14  ar  
 29  12  15  ar  
 30  13  16  1   
 31  13  37  1   
 32  13  38  1   
 33  16  17  ar  
 34  16  18  ar  
 35  17  19  ar  
 36  17  39  1   
 37  18  20  ar  
 38  18  40  1   
 39  19  21  ar  
 40  19  41  1   
 41  20  21  ar  
 42  20  42  1   
 43  21  43  1   
@<TRIPOS>SUBSTRUCTURE
  1 ****  11 GROUP 4 **** **** 0

# MOE 2024.06 (io_trps.svl 2023.06)
