@<TRIPOS>MOLECULE
NONAME
32 33 1 0 0 
SMALL
USER_CHARGES


@<TRIPOS>ATOM
  1 BR      -1.8070     0.8240     3.4270 Br    1 <1>  -0.1110 
  2 C       -2.3780     1.4060     1.6860 C.ar  1 <1>   0.1110 
  3 C       -3.4450     0.7600     1.0900 C.ar  1 <1>  -0.1500 
  4 C       -1.7100     2.4510     1.0780 C.ar  1 <1>  -0.1500 
  5 C       -3.8670     1.1810    -0.1640 C.ar  1 <1>  -0.1430 
  6 C       -2.1290     2.8600    -0.1750 C.ar  1 <1>  -0.1500 
  7 C       -3.1990     2.2280    -0.7920 C.ar  1 <1>  -0.1500 
  8 C       -5.0450     0.5080    -0.8420 C.3   1 <1>   0.4870 
  9 N       -6.2990     0.9430    -0.1670 N.4   1 <1>  -0.9590 
 10 C       -7.4730     0.1360    -0.6480 C.3   1 <1>   0.3430 
 11 C       -6.5270     2.4110    -0.3230 C.3   1 <1>   0.3430 
 12 C       -8.7860     0.5420     0.0480 C.3   1 <1>   0.2000 
 13 C       -7.7880     2.8280     0.4410 C.3   1 <1>  -0.1600 
 14 O       -9.8210    -0.0910    -0.6060 O.3   1 <1>  -0.6800 
 15 C       -9.0300     2.0530    -0.0280 C.3   1 <1>  -0.1600 
 16 H       -3.9160    -0.0540     1.6120 H     1 <1>   0.1500 
 17 H       -0.8820     2.9280     1.5740 H     1 <1>   0.1500 
 18 H       -1.6180     3.6700    -0.6700 H     1 <1>   0.1500 
 19 H       -3.4980     2.5660    -1.7710 H     1 <1>   0.1500 
 20 H       -4.9330    -0.5620    -0.7640 H     1 <1>   0.0800 
 21 H       -5.0720     0.7730    -1.8860 H     1 <1>   0.0800 
 22 H       -6.1660     0.7670     0.8370 H     1 <1>   0.4500 
 23 H       -7.2990    -0.9120    -0.4700 H     1 <1>   0.0800 
 24 H       -7.5980     0.2870    -1.7070 H     1 <1>   0.0800 
 25 H       -6.6450     2.6540    -1.3670 H     1 <1>   0.0800 
 26 H       -5.6810     2.9610     0.0590 H     1 <1>   0.0800 
 27 H       -8.7830     0.2030     1.0700 H     1 <1>   0.0800 
 28 H       -7.9520     3.8810     0.2910 H     1 <1>   0.0800 
 29 H       -7.6330     2.6780     1.4960 H     1 <1>   0.0800 
 30 H      -10.6860     0.1270    -0.1990 H     1 <1>   0.4000 
 31 H       -9.8720     2.3200     0.5880 H     1 <1>   0.0800 
 32 H       -9.2500     2.3310    -1.0450 H     1 <1>   0.0800 
@<TRIPOS>BOND
  1   1   2  1   
  2   2   3  ar  
  3   2   4  ar  
  4   3   5  ar  
  5   3  16  1   
  6   4   6  ar  
  7   4  17  1   
  8   5   7  ar  
  9   5   8  1   
 10   6   7  ar  
 11   6  18  1   
 12   7  19  1   
 13   8   9  1   
 14   8  20  1   
 15   8  21  1   
 16   9  10  1   
 17   9  11  1   
 18   9  22  1   
 19  10  12  1   
 20  10  23  1   
 21  10  24  1   
 22  11  13  1   
 23  11  25  1   
 24  11  26  1   
 25  12  14  1   
 26  12  15  1   
 27  12  27  1   
 28  13  15  1   
 29  13  28  1   
 30  13  29  1   
 31  14  30  1   
 32  15  31  1   
 33  15  32  1   
@<TRIPOS>SUBSTRUCTURE
  1 ****   9 GROUP 4 **** **** 0

# MOE 2024.06 (io_trps.svl 2023.06)
