@<TRIPOS>MOLECULE
NONAME
39 39 1 0 0 
SMALL
USER_CHARGES


@<TRIPOS>ATOM
  1 CL      -0.1160     0.7690     0.9800 Cl    1 <1>  -0.1770 
  2 C        0.7320     2.2160     0.4810 C.ar  1 <1>   0.1770 
  3 C        0.0860     3.4430     0.4940 C.ar  1 <1>   0.0830 
  4 C        2.0470     2.0900     0.0760 C.ar  1 <1>  -0.1500 
  5 O       -1.2060     3.4670     0.9220 O.3   1 <1>  -0.3630 
  6 C        0.7920     4.5820     0.0870 C.ar  1 <1>   0.0830 
  7 C        2.7530     3.2150    -0.3250 C.ar  1 <1>  -0.1440 
  8 C       -2.1880     4.1640     0.1610 C.3   1 <1>   0.1810 
  9 O        0.1620     5.7900     0.1210 O.3   1 <1>  -0.3630 
 10 C        2.1200     4.4530    -0.3210 C.ar  1 <1>  -0.1500 
 11 C        4.2000     3.0910    -0.7510 C.3   1 <1>   0.4870 
 12 C       -3.5340     3.4500     0.2150 C.2   1 <1>   0.5690 
 13 C        0.7500     6.9790    -0.3620 C.3   1 <1>   0.0400 
 14 N        5.0180     3.1720     0.4790 N.4   1 <1>  -0.9060 
 15 O       -4.5100     3.9900    -0.2400 O.2   1 <1>  -0.5700 
 16 N       -3.6350     2.2180     0.7550 N.am  1 <1>  -0.8000 
 17 C        6.4640     3.0370     0.2680 C.3   1 <1>   0.4230 
 18 C        7.1050     2.8410     1.6340 C.3   1 <1>  -0.2400 
 19 C        6.9990     4.2990    -0.4040 C.3   1 <1>  -0.2400 
 20 H        2.4910     1.1090     0.0800 H     1 <1>   0.1500 
 21 H       -1.8640     4.2240    -0.8610 H     1 <1>   0.0800 
 22 H       -2.2880     5.1530     0.5680 H     1 <1>   0.0800 
 23 H        2.6680     5.3210    -0.6380 H     1 <1>   0.1500 
 24 H        4.4540     3.8890    -1.4290 H     1 <1>   0.0800 
 25 H        4.3580     2.1470    -1.2480 H     1 <1>   0.0800 
 26 H        0.0270     7.7700    -0.2640 H     1 <1>   0.0800 
 27 H        1.0070     6.8490    -1.3980 H     1 <1>   0.0800 
 28 H        1.6170     7.2090     0.2310 H     1 <1>   0.0800 
 29 H        4.7010     2.4400     1.1230 H     1 <1>   0.4500 
 30 H        4.8240     4.0610     0.9500 H     1 <1>   0.4500 
 31 H       -4.5360     1.7420     0.7980 H     1 <1>   0.3700 
 32 H       -2.8280     1.7430     1.1670 H     1 <1>   0.3700 
 33 H        6.6730     2.1760    -0.3490 H     1 <1>   0.0800 
 34 H        6.9220     3.6830     2.2790 H     1 <1>   0.0800 
 35 H        8.1710     2.7370     1.5210 H     1 <1>   0.0800 
 36 H        6.7410     1.9430     2.1030 H     1 <1>   0.0800 
 37 H        6.7840     5.1760     0.1810 H     1 <1>   0.0800 
 38 H        6.5970     4.4180    -1.3940 H     1 <1>   0.0800 
 39 H        8.0680     4.2240    -0.5030 H     1 <1>   0.0800 
@<TRIPOS>BOND
  1   1   2  1   
  2   2   3  ar  
  3   2   4  ar  
  4   3   5  1   
  5   3   6  ar  
  6   4   7  ar  
  7   4  20  1   
  8   5   8  1   
  9   6   9  1   
 10   6  10  ar  
 11   7  10  ar  
 12   7  11  1   
 13   8  12  1   
 14   8  21  1   
 15   8  22  1   
 16   9  13  1   
 17  10  23  1   
 18  11  14  1   
 19  11  24  1   
 20  11  25  1   
 21  12  15  2   
 22  12  16  am  
 23  13  26  1   
 24  13  27  1   
 25  13  28  1   
 26  14  17  1   
 27  14  29  1   
 28  14  30  1   
 29  16  31  1   
 30  16  32  1   
 31  17  18  1   
 32  17  19  1   
 33  17  33  1   
 34  18  34  1   
 35  18  35  1   
 36  18  36  1   
 37  19  37  1   
 38  19  38  1   
 39  19  39  1   
@<TRIPOS>SUBSTRUCTURE
  1 ****   6 GROUP 4 **** **** 0

# MOE 2024.06 (io_trps.svl 2023.06)
