@<TRIPOS>MOLECULE
NONAME
28 29 1 0 0 
SMALL
USER_CHARGES


@<TRIPOS>ATOM
  1 CL       0.1590    -0.3830     0.0370 Cl    1 <1>  -0.1770 
  2 C        1.5740     0.6390     0.1710 C.ar  1 <1>   0.1770 
  3 C        1.4810     1.8820     0.8120 C.ar  1 <1>   0.1770 
  4 C        2.7660     0.2020    -0.3590 C.ar  1 <1>  -0.1500 
  5 CL      -0.0480     2.4130     1.4770 Cl    1 <1>  -0.1770 
  6 C        2.5790     2.7030     0.9300 C.ar  1 <1>  -0.1500 
  7 C        3.8830     1.0270    -0.2440 C.ar  1 <1>   0.2270 
  8 C        3.7910     2.2550     0.3910 C.ar  1 <1>  -0.1520 
  9 N        5.1490     0.8150    -0.6850 N.2   1 <1>  -0.5650 
 10 N        5.0400     2.7920     0.3270 N.pl3 1 <1>   0.0480 
 11 C        5.7960     1.8690    -0.3340 C.2   1 <1>   0.0060 
 12 C        5.4480     4.1090     0.8620 C.3   1 <1>   0.0960 
 13 C        7.2700     2.0590    -0.6350 C.3   1 <1>  -0.0600 
 14 C        5.0940     5.2210    -0.1310 C.3   1 <1>  -0.1600 
 15 C        5.5210     6.5840     0.4100 C.3   1 <1>   0.1200 
 16 O        5.0920     7.5520    -0.4740 O.3   1 <1>  -0.6800 
 17 H        2.8570    -0.7460    -0.8530 H     1 <1>   0.1500 
 18 H        2.5040     3.6560     1.4200 H     1 <1>   0.1500 
 19 H        6.5060     4.0990     1.0500 H     1 <1>   0.0800 
 20 H        4.9400     4.2700     1.7970 H     1 <1>   0.0800 
 21 H        7.6360     1.2180    -1.1960 H     1 <1>   0.0800 
 22 H        7.8290     2.1280     0.2800 H     1 <1>   0.0800 
 23 H        7.4180     2.9490    -1.2170 H     1 <1>   0.0800 
 24 H        4.0290     5.2260    -0.2900 H     1 <1>   0.0800 
 25 H        5.5920     5.0350    -1.0670 H     1 <1>   0.0800 
 26 H        6.5910     6.6590     0.5050 H     1 <1>   0.0800 
 27 H        5.0600     6.7860     1.3630 H     1 <1>   0.0800 
 28 H        5.5020     7.4350    -1.3530 H     1 <1>   0.4000 
@<TRIPOS>BOND
  1   1   2  1   
  2   2   3  ar  
  3   2   4  ar  
  4   3   5  1   
  5   3   6  ar  
  6   4   7  ar  
  7   4  17  1   
  8   6   8  ar  
  9   6  18  1   
 10   7   8  ar  
 11   7   9  1   
 12   8  10  1   
 13   9  11  2   
 14  10  11  1   
 15  10  12  1   
 16  11  13  1   
 17  12  14  1   
 18  12  19  1   
 19  12  20  1   
 20  13  21  1   
 21  13  22  1   
 22  13  23  1   
 23  14  15  1   
 24  14  24  1   
 25  14  25  1   
 26  15  16  1   
 27  15  26  1   
 28  15  27  1   
 29  16  28  1   
@<TRIPOS>SUBSTRUCTURE
  1 ****   8 GROUP 4 **** **** 0

# MOE 2024.06 (io_trps.svl 2023.06)
