@<TRIPOS>MOLECULE
NONAME
43 46 1 0 0 
SMALL
USER_CHARGES


@<TRIPOS>ATOM
  1 O       -1.0720    -0.7360     1.3440 O.2   1 <1>  -0.5700 
  2 C       -0.9980    -1.8110     0.7780 C.2   1 <1>   0.5440 
  3 N       -1.8570    -2.2070    -0.2230 N.am  1 <1>  -0.4770 
  4 C       -0.0740    -2.8780     1.0520 C.ar  1 <1>   0.0860 
  5 C       -1.5570    -3.5240    -0.5750 C.ar  1 <1>   0.1170 
  6 C       -2.9950    -1.3930    -0.7330 C.3   1 <1>   0.2810 
  7 C       -0.4670    -3.9060     0.2000 C.ar  1 <1>   0.0000 
  8 C        0.9990    -3.1000     1.8870 C.ar  1 <1>  -0.1500 
  9 C       -2.0970    -4.4310    -1.4560 C.ar  1 <1>  -0.1500 
 10 C       -4.3310    -2.1260    -0.5090 C.2   1 <1>   0.5690 
 11 C       -2.7090    -1.0000    -2.1900 C.3   1 <1>  -0.2400 
 12 C        0.1390    -5.1580     0.1370 C.ar  1 <1>   0.0000 
 13 C        1.6510    -4.3430     1.8530 C.ar  1 <1>  -0.1500 
 14 C       -1.5190    -5.7080    -1.5520 C.ar  1 <1>  -0.1500 
 15 O       -5.0250    -2.4180    -1.4570 O.2   1 <1>  -0.5700 
 16 N       -4.6720    -2.4420     0.7750 N.am  1 <1>  -0.7300 
 17 C       -0.4320    -6.0640    -0.7820 C.ar  1 <1>  -0.1500 
 18 C        1.2350    -5.3470     1.0030 C.ar  1 <1>  -0.1500 
 19 C       -5.8190    -3.2430     1.2570 C.3   1 <1>   0.2200 
 20 C       -5.7010    -4.7020     0.8040 C.3   1 <1>  -0.1600 
 21 C       -7.1680    -2.7280     0.7390 C.3   1 <1>  -0.1600 
 22 C       -7.1110    -5.1190     0.3910 C.3   1 <1>  -0.1600 
 23 C       -7.7360    -3.8370    -0.1470 C.3   1 <1>  -0.1600 
 24 H       -3.0440    -0.4850    -0.1590 H     1 <1>   0.0800 
 25 H        1.3320    -2.3270     2.5580 H     1 <1>   0.1500 
 26 H       -2.9490    -4.1790    -2.0620 H     1 <1>   0.1500 
 27 H       -2.6640    -1.8710    -2.8180 H     1 <1>   0.0800 
 28 H       -1.7790    -0.4640    -2.2530 H     1 <1>   0.0800 
 29 H       -3.4960    -0.3640    -2.5530 H     1 <1>   0.0800 
 30 H        2.4910    -4.5040     2.5090 H     1 <1>   0.1500 
 31 H       -1.9450    -6.4130    -2.2450 H     1 <1>   0.1500 
 32 H       -3.9890    -2.2210     1.5020 H     1 <1>   0.3700 
 33 H        0.0010    -7.0450    -0.8680 H     1 <1>   0.1500 
 34 H        1.7420    -6.2960     0.9880 H     1 <1>   0.1500 
 35 H       -5.8350    -3.2080     2.3330 H     1 <1>   0.0800 
 36 H       -5.3210    -5.3310     1.5900 H     1 <1>   0.0800 
 37 H       -5.0550    -4.7780    -0.0540 H     1 <1>   0.0800 
 38 H       -7.0800    -1.8010     0.2000 H     1 <1>   0.0800 
 39 H       -7.8260    -2.5810     1.5760 H     1 <1>   0.0800 
 40 H       -7.6600    -5.4520     1.2560 H     1 <1>   0.0800 
 41 H       -7.1000    -5.9030    -0.3470 H     1 <1>   0.0800 
 42 H       -7.4070    -3.6820    -1.1620 H     1 <1>   0.0800 
 43 H       -8.8120    -3.8660    -0.1260 H     1 <1>   0.0800 
@<TRIPOS>BOND
  1   1   2  2   
  2   2   3  am  
  3   2   4  1   
  4   3   5  1   
  5   3   6  1   
  6   4   7  ar  
  7   4   8  ar  
  8   5   7  ar  
  9   5   9  ar  
 10   6  10  1   
 11   6  11  1   
 12   6  24  1   
 13   7  12  ar  
 14   8  13  ar  
 15   8  25  1   
 16   9  14  ar  
 17   9  26  1   
 18  10  15  2   
 19  10  16  am  
 20  11  27  1   
 21  11  28  1   
 22  11  29  1   
 23  12  17  ar  
 24  12  18  ar  
 25  13  18  ar  
 26  13  30  1   
 27  14  17  ar  
 28  14  31  1   
 29  16  19  1   
 30  16  32  1   
 31  17  33  1   
 32  18  34  1   
 33  19  20  1   
 34  19  21  1   
 35  19  35  1   
 36  20  22  1   
 37  20  36  1   
 38  20  37  1   
 39  21  23  1   
 40  21  38  1   
 41  21  39  1   
 42  22  23  1   
 43  22  40  1   
 44  22  41  1   
 45  23  42  1   
 46  23  43  1   
@<TRIPOS>SUBSTRUCTURE
  1 ****   5 GROUP 4 **** **** 0

# MOE 2024.06 (io_trps.svl 2023.06)
