@<TRIPOS>MOLECULE
NONAME
47 49 1 0 0 
SMALL
USER_CHARGES


@<TRIPOS>ATOM
  1 S       -0.0790     0.5260     1.1560 S.3   1 <1>  -0.0800 
  2 C        0.5340     2.0480     0.5150 C.2   1 <1>   0.1040 
  3 C       -1.5820     0.6990     0.2820 C.2   1 <1>  -0.1400 
  4 N        1.8280     2.4490     0.8380 N.am  1 <1>  -0.4940 
  5 C       -0.3980     2.6360    -0.3020 C.2   1 <1>  -0.0860 
  6 C       -1.5980     1.8400    -0.4180 C.2   1 <1>  -0.1810 
  7 C       -2.6440    -0.3670     0.3790 C.3   1 <1>   0.5230 
  8 C        2.6590     2.0640     1.8570 C.2   1 <1>   0.5690 
  9 C       -0.2150     3.8950    -0.9740 C.2   1 <1>   0.7160 
 10 C       -2.8220     2.2010    -1.2480 C.3   1 <1>   0.0210 
 11 N       -3.5940    -0.1600    -0.7660 N.4   1 <1>  -0.9590 
 12 O        2.3130     1.3910     2.7920 O.2   1 <1>  -0.5700 
 13 C        4.0910     2.5360     1.8140 C.3   1 <1>  -0.1790 
 14 O       -0.7250     4.1090    -2.0580 O.2   1 <1>  -0.5700 
 15 N        0.5420     4.8560    -0.3600 N.am  1 <1>  -0.5470 
 16 C       -4.0120     1.2840    -0.9000 C.3   1 <1>   0.3430 
 17 C       -4.7700    -1.0750    -0.6730 C.3   1 <1>   0.2630 
 18 C        1.3380     5.8950    -0.8650 C.ar  1 <1>   0.1170 
 19 C        2.4660     6.2710    -0.1290 C.ar  1 <1>   0.0830 
 20 C        1.0520     6.5650    -2.0480 C.ar  1 <1>  -0.1500 
 21 O        2.7160     5.5860     1.0280 O.3   1 <1>  -0.3630 
 22 C        3.2860     7.2980    -0.5830 C.ar  1 <1>  -0.1500 
 23 C        1.8710     7.5870    -2.4960 C.ar  1 <1>  -0.1500 
 24 C        3.5120     6.1680     2.0390 C.3   1 <1>   0.0400 
 25 C        2.9860     7.9540    -1.7650 C.ar  1 <1>  -0.1500 
 26 H        2.2460     3.1510     0.2220 H     1 <1>   0.3700 
 27 H       -3.1560    -0.2800     1.3240 H     1 <1>   0.0800 
 28 H       -2.1890    -1.3420     0.3150 H     1 <1>   0.0800 
 29 H       -2.5860     2.1140    -2.2940 H     1 <1>   0.0800 
 30 H       -3.1060     3.2230    -1.0620 H     1 <1>   0.0800 
 31 H       -3.0510    -0.3860    -1.6110 H     1 <1>   0.4500 
 32 H        4.2600     3.1980     0.9860 H     1 <1>   0.0800 
 33 H        4.7380     1.6840     1.7220 H     1 <1>   0.0800 
 34 H        4.3220     3.0480     2.7290 H     1 <1>   0.0800 
 35 H        0.7490     4.6550     0.6210 H     1 <1>   0.3700 
 36 H       -4.7640     1.3830    -1.6660 H     1 <1>   0.0800 
 37 H       -4.4410     1.6150     0.0320 H     1 <1>   0.0800 
 38 H       -5.3470    -0.8590     0.2120 H     1 <1>   0.0800 
 39 H       -4.4440    -2.1020    -0.6300 H     1 <1>   0.0800 
 40 H       -5.4060    -0.9560    -1.5350 H     1 <1>   0.0800 
 41 H        0.1860     6.2990    -2.6270 H     1 <1>   0.1500 
 42 H        4.1610     7.5980    -0.0400 H     1 <1>   0.1500 
 43 H        1.6360     8.0970    -3.4150 H     1 <1>   0.1500 
 44 H        3.4290     5.5620     2.9240 H     1 <1>   0.0800 
 45 H        3.1500     7.1610     2.2430 H     1 <1>   0.0800 
 46 H        4.5360     6.1930     1.7100 H     1 <1>   0.0800 
 47 H        3.6210     8.7490    -2.1180 H     1 <1>   0.1500 
@<TRIPOS>BOND
  1   1   2  1   
  2   1   3  1   
  3   2   4  1   
  4   2   5  2   
  5   3   6  2   
  6   3   7  1   
  7   4   8  am  
  8   4  26  1   
  9   5   6  1   
 10   5   9  1   
 11   6  10  1   
 12   7  11  1   
 13   7  27  1   
 14   7  28  1   
 15   8  12  2   
 16   8  13  1   
 17   9  14  2   
 18   9  15  am  
 19  10  16  1   
 20  10  29  1   
 21  10  30  1   
 22  11  16  1   
 23  11  17  1   
 24  11  31  1   
 25  13  32  1   
 26  13  33  1   
 27  13  34  1   
 28  15  18  1   
 29  15  35  1   
 30  16  36  1   
 31  16  37  1   
 32  17  38  1   
 33  17  39  1   
 34  17  40  1   
 35  18  19  ar  
 36  18  20  ar  
 37  19  21  1   
 38  19  22  ar  
 39  20  23  ar  
 40  20  41  1   
 41  21  24  1   
 42  22  25  ar  
 43  22  42  1   
 44  23  25  ar  
 45  23  43  1   
 46  24  44  1   
 47  24  45  1   
 48  24  46  1   
 49  25  47  1   
@<TRIPOS>SUBSTRUCTURE
  1 ****   5 GROUP 4 **** **** 0

# MOE 2024.06 (io_trps.svl 2023.06)
