@<TRIPOS>MOLECULE
NONAME
53 55 1 0 0 
SMALL
USER_CHARGES


@<TRIPOS>ATOM
  1 O        1.2520     3.1430    -1.3650 O.2   1 <1>  -0.5700 
  2 C        1.1610     2.2060    -0.6180 C.2   1 <1>   0.5690 
  3 N       -0.0480     1.7180    -0.2920 N.am  1 <1>  -0.8000 
  4 C        2.4290     1.5770    -0.0440 C.3   1 <1>  -0.0190 
  5 C        3.2020     2.5980     0.8120 C.3   1 <1>  -0.1600 
  6 C        3.3300     1.0410    -1.1730 C.3   1 <1>  -0.1600 
  7 C        4.5380     2.0460     1.3040 C.3   1 <1>   0.3430 
  8 C        4.6650     0.5160    -0.6490 C.3   1 <1>   0.3430 
  9 N        5.3410     1.5800     0.1410 N.4   1 <1>  -0.9590 
 10 C        6.7480     1.2260     0.5080 C.3   1 <1>   0.3430 
 11 C        7.6000     2.5030     0.6750 C.3   1 <1>   0.2000 
 12 O        7.1820     3.4490    -0.2630 O.3   1 <1>  -0.6800 
 13 C        9.1000     2.2450     0.4870 C.3   1 <1>   0.1200 
 14 O        9.7710     3.4870     0.5000 O.3   1 <1>  -0.3630 
 15 C       11.1140     3.5690     0.3460 C.ar  1 <1>   0.0820 
 16 C       11.6750     4.8340     0.3960 C.ar  1 <1>  -0.1500 
 17 C       11.9410     2.4670     0.1420 C.ar  1 <1>  -0.1500 
 18 C       13.0390     5.0030     0.2460 C.ar  1 <1>  -0.1500 
 19 C       13.3040     2.6460    -0.0080 C.ar  1 <1>  -0.1500 
 20 C       13.8790     3.9130     0.0410 C.ar  1 <1>   0.0000 
 21 C       15.3030     4.0910    -0.1190 C.ar  1 <1>   0.0000 
 22 C       15.8160     4.8750    -1.1490 C.ar  1 <1>  -0.1500 
 23 C       16.2040     3.4830     0.7510 C.ar  1 <1>  -0.1500 
 24 C       17.1790     5.0470    -1.3060 C.ar  1 <1>  -0.1500 
 25 C       17.5690     3.6510     0.5990 C.ar  1 <1>  -0.1500 
 26 C       18.0590     4.4340    -0.4310 C.ar  1 <1>  -0.1500 
 27 H       -0.8780     2.1610    -0.6930 H     1 <1>   0.3700 
 28 H       -0.2230     0.9300     0.3300 H     1 <1>   0.3700 
 29 H        2.1420     0.7520     0.5840 H     1 <1>   0.0800 
 30 H        2.6020     2.8810     1.6590 H     1 <1>   0.0800 
 31 H        3.3850     3.4920     0.2390 H     1 <1>   0.0800 
 32 H        3.5200     1.8220    -1.8910 H     1 <1>   0.0800 
 33 H        2.8190     0.2500    -1.6930 H     1 <1>   0.0800 
 34 H        4.3650     1.2270     1.9840 H     1 <1>   0.0800 
 35 H        5.0690     2.8230     1.8310 H     1 <1>   0.0800 
 36 H        5.2840     0.2250    -1.4820 H     1 <1>   0.0800 
 37 H        4.4970    -0.3490    -0.0290 H     1 <1>   0.0800 
 38 H        5.4640     2.4110    -0.4730 H     1 <1>   0.4500 
 39 H        7.1830     0.6410    -0.2850 H     1 <1>   0.0800 
 40 H        6.7740     0.6350     1.4090 H     1 <1>   0.0800 
 41 H        7.4390     2.9200     1.6540 H     1 <1>   0.0800 
 42 H        7.8610     4.1620    -0.3130 H     1 <1>   0.4000 
 43 H        9.2900     1.7670    -0.4590 H     1 <1>   0.0800 
 44 H        9.4890     1.6420     1.2890 H     1 <1>   0.0800 
 45 H       11.0410     5.6880     0.5550 H     1 <1>   0.1500 
 46 H       11.5510     1.4690     0.0950 H     1 <1>   0.1500 
 47 H       13.4640     5.9900     0.2910 H     1 <1>   0.1500 
 48 H       13.9410     1.7940    -0.1690 H     1 <1>   0.1500 
 49 H       15.1360     5.3500    -1.8340 H     1 <1>   0.1500 
 50 H       15.8280     2.8780     1.5560 H     1 <1>   0.1500 
 51 H       17.5560     5.6560    -2.1090 H     1 <1>   0.1500 
 52 H       18.2500     3.1740     1.2820 H     1 <1>   0.1500 
 53 H       19.1210     4.5670    -0.5510 H     1 <1>   0.1500 
@<TRIPOS>BOND
  1   1   2  2   
  2   2   3  am  
  3   2   4  1   
  4   3  27  1   
  5   3  28  1   
  6   4   5  1   
  7   4   6  1   
  8   4  29  1   
  9   5   7  1   
 10   5  30  1   
 11   5  31  1   
 12   6   8  1   
 13   6  32  1   
 14   6  33  1   
 15   7   9  1   
 16   7  34  1   
 17   7  35  1   
 18   8   9  1   
 19   8  36  1   
 20   8  37  1   
 21   9  10  1   
 22   9  38  1   
 23  10  11  1   
 24  10  39  1   
 25  10  40  1   
 26  11  12  1   
 27  11  13  1   
 28  11  41  1   
 29  12  42  1   
 30  13  14  1   
 31  13  43  1   
 32  13  44  1   
 33  14  15  1   
 34  15  16  ar  
 35  15  17  ar  
 36  16  18  ar  
 37  16  45  1   
 38  17  19  ar  
 39  17  46  1   
 40  18  20  ar  
 41  18  47  1   
 42  19  20  ar  
 43  19  48  1   
 44  20  21  1   
 45  21  22  ar  
 46  21  23  ar  
 47  22  24  ar  
 48  22  49  1   
 49  23  25  ar  
 50  23  50  1   
 51  24  26  ar  
 52  24  51  1   
 53  25  26  ar  
 54  25  52  1   
 55  26  53  1   
@<TRIPOS>SUBSTRUCTURE
  1 ****  14 GROUP 4 **** **** 0

# MOE 2024.06 (io_trps.svl 2023.06)
