@<TRIPOS>MOLECULE
NONAME
50 53 1 0 0 
SMALL
USER_CHARGES


@<TRIPOS>ATOM
  1 CL      -2.3440     2.3810     1.8910 Cl    1 <1>  -0.1770 
  2 C       -1.7820     3.1660     0.4270 C.ar  1 <1>   0.1770 
  3 C       -2.4790     2.9570    -0.7620 C.ar  1 <1>   0.1170 
  4 C       -0.6660     3.9780     0.4940 C.ar  1 <1>  -0.1500 
  5 N       -3.6000     2.1070    -0.7630 N.am  1 <1>  -0.5470 
  6 C       -2.0120     3.6010    -1.9030 C.ar  1 <1>  -0.1500 
  7 C       -0.2200     4.6100    -0.6550 C.ar  1 <1>  -0.1500 
  8 C       -4.7230     2.1100    -1.5460 C.2   1 <1>   0.5690 
  9 C       -0.8950     4.4190    -1.8500 C.ar  1 <1>  -0.1500 
 10 O       -4.8750     2.8530    -2.4840 O.2   1 <1>  -0.5700 
 11 C       -5.8480     1.1300    -1.1860 C.3   1 <1>   0.1710 
 12 N       -6.8940     1.6810    -0.2700 N.3   1 <1>  -0.8100 
 13 C       -8.0310     0.7490    -0.0870 C.3   1 <1>   0.1100 
 14 C       -6.3810     2.1740     1.0340 C.3   1 <1>   0.1100 
 15 C       -9.1630     1.3660     0.7720 C.3   1 <1>   0.3430 
 16 C       -7.5000     2.8120     1.8970 C.3   1 <1>   0.3430 
 17 N       -8.8170     2.7680     1.1860 N.4   1 <1>  -0.9590 
 18 C       -9.9150     3.4940     1.8740 C.3   1 <1>   0.4860 
 19 C      -11.1340     3.5000     0.9710 C.ar  1 <1>  -0.1430 
 20 C      -11.1150     4.2330    -0.2130 C.ar  1 <1>  -0.1500 
 21 C      -12.2670     2.7630     1.3190 C.ar  1 <1>  -0.1500 
 22 C      -12.2330     4.1920    -1.0200 C.ar  1 <1>   0.0830 
 23 C      -13.3830     2.7380     0.4920 C.ar  1 <1>  -0.1500 
 24 O      -12.4280     4.8040    -2.1910 O.3   1 <1>  -0.3630 
 25 C      -13.3350     3.4650    -0.6800 C.ar  1 <1>   0.0830 
 26 C      -13.7430     4.4530    -2.6230 C.3   1 <1>   0.4000 
 27 O      -14.2740     3.5860    -1.6230 O.3   1 <1>  -0.3620 
 28 H       -0.1550     4.1160     1.4300 H     1 <1>   0.1500 
 29 H       -3.6070     1.4530     0.0190 H     1 <1>   0.3700 
 30 H       -2.5180     3.4650    -2.8430 H     1 <1>   0.1500 
 31 H        0.6470     5.2470    -0.6210 H     1 <1>   0.1500 
 32 H       -0.5500     4.9100    -2.7440 H     1 <1>   0.1500 
 33 H       -5.4160     0.2460    -0.7530 H     1 <1>   0.0800 
 34 H       -6.3180     0.8420    -2.1100 H     1 <1>   0.0800 
 35 H       -7.6900    -0.1620     0.3760 H     1 <1>   0.0800 
 36 H       -8.4370     0.4900    -1.0510 H     1 <1>   0.0800 
 37 H       -5.6250     2.9220     0.8660 H     1 <1>   0.0800 
 38 H       -5.9260     1.3660     1.5810 H     1 <1>   0.0800 
 39 H       -9.3280     0.7520     1.6410 H     1 <1>   0.0800 
 40 H      -10.0730     1.3670     0.1930 H     1 <1>   0.0800 
 41 H       -7.2310     3.8330     2.1110 H     1 <1>   0.0800 
 42 H       -7.5670     2.2860     2.8350 H     1 <1>   0.0800 
 43 H       -8.6340     3.2330     0.2820 H     1 <1>   0.4500 
 44 H       -9.6170     4.5090     2.0780 H     1 <1>   0.0800 
 45 H      -10.1520     3.0110     2.8080 H     1 <1>   0.0800 
 46 H      -10.2720     4.8260    -0.5220 H     1 <1>   0.1500 
 47 H      -12.2990     2.2000     2.2380 H     1 <1>   0.1500 
 48 H      -14.2670     2.1780     0.7420 H     1 <1>   0.1500 
 49 H      -13.6890     3.9330    -3.5630 H     1 <1>   0.0800 
 50 H      -14.3490     5.3390    -2.6920 H     1 <1>   0.0800 
@<TRIPOS>BOND
  1   1   2  1   
  2   2   3  ar  
  3   2   4  ar  
  4   3   5  1   
  5   3   6  ar  
  6   4   7  ar  
  7   4  28  1   
  8   5   8  am  
  9   5  29  1   
 10   6   9  ar  
 11   6  30  1   
 12   7   9  ar  
 13   7  31  1   
 14   8  10  2   
 15   8  11  1   
 16   9  32  1   
 17  11  12  1   
 18  11  33  1   
 19  11  34  1   
 20  12  13  1   
 21  12  14  1   
 22  13  15  1   
 23  13  35  1   
 24  13  36  1   
 25  14  16  1   
 26  14  37  1   
 27  14  38  1   
 28  15  17  1   
 29  15  39  1   
 30  15  40  1   
 31  16  17  1   
 32  16  41  1   
 33  16  42  1   
 34  17  18  1   
 35  17  43  1   
 36  18  19  1   
 37  18  44  1   
 38  18  45  1   
 39  19  20  ar  
 40  19  21  ar  
 41  20  22  ar  
 42  20  46  1   
 43  21  23  ar  
 44  21  47  1   
 45  22  24  1   
 46  22  25  ar  
 47  23  25  ar  
 48  23  48  1   
 49  24  26  1   
 50  25  27  1   
 51  26  27  1   
 52  26  49  1   
 53  26  50  1   
@<TRIPOS>SUBSTRUCTURE
  1 ****  12 GROUP 4 **** **** 0

# MOE 2024.06 (io_trps.svl 2023.06)
