@<TRIPOS>MOLECULE
NONAME
50 53 1 0 0 
SMALL
USER_CHARGES


@<TRIPOS>ATOM
  1 CL      -0.0460     0.5510     2.5690 Cl    1 <1>  -0.1770 
  2 C       -1.3210     1.3360     1.6640 C.ar  1 <1>   0.1770 
  3 C       -2.1570     0.6000     0.8360 C.ar  1 <1>   0.0830 
  4 C       -1.4580     2.7020     1.8110 C.ar  1 <1>  -0.1500 
  5 O       -1.9290    -0.7420     0.7500 O.3   1 <1>  -0.3630 
  6 C       -3.1630     1.2730     0.1280 C.ar  1 <1>   0.0830 
  7 C       -2.4490     3.3720     1.1100 C.ar  1 <1>  -0.1440 
  8 C       -3.0080    -1.6470     0.8430 C.3   1 <1>   0.0400 
  9 O       -3.9720     0.5650    -0.7100 O.3   1 <1>  -0.3630 
 10 C       -3.2980     2.6540     0.2780 C.ar  1 <1>  -0.1500 
 11 C       -2.5850     4.8720     1.2420 C.3   1 <1>   0.4860 
 12 C       -5.0940     1.1250    -1.3570 C.3   1 <1>   0.0400 
 13 N       -1.6430     5.4650     0.2680 N.4   1 <1>  -0.9060 
 14 C       -1.5830     6.9320     0.2030 C.3   1 <1>   0.5030 
 15 C       -2.9510     7.5190    -0.1980 C.3   1 <1>  -0.1600 
 16 C       -0.5420     7.2980    -0.8720 C.3   1 <1>  -0.1600 
 17 C       -1.1400     7.5230     1.5570 C.3   1 <1>  -0.1600 
 18 C       -2.8460     9.0520    -0.3160 C.3   1 <1>  -0.0800 
 19 C       -0.4240     8.8280    -0.9960 C.3   1 <1>  -0.0800 
 20 C       -1.0290     9.0560     1.4450 C.3   1 <1>  -0.0800 
 21 C       -1.7960     9.4090    -1.3850 C.3   1 <1>  -0.1600 
 22 C       -2.3990     9.6340     1.0400 C.3   1 <1>  -0.1600 
 23 C        0.0060     9.4130     0.3620 C.3   1 <1>  -0.1600 
 24 H       -0.7830     3.2130     2.4760 H     1 <1>   0.1500 
 25 H       -2.6230    -2.5900     1.1860 H     1 <1>   0.0800 
 26 H       -3.4460    -1.7700    -0.1310 H     1 <1>   0.0800 
 27 H       -3.7320    -1.2680     1.5420 H     1 <1>   0.0800 
 28 H       -4.0680     3.1770    -0.2580 H     1 <1>   0.1500 
 29 H       -2.3380     5.1770     2.2460 H     1 <1>   0.0800 
 30 H       -3.5970     5.1720     1.0240 H     1 <1>   0.0800 
 31 H       -5.5910     0.3400    -1.8990 H     1 <1>   0.0800 
 32 H       -4.7630     1.8830    -2.0440 H     1 <1>   0.0800 
 33 H       -5.7600     1.5320    -0.6160 H     1 <1>   0.0800 
 34 H       -1.8750     5.1070    -0.6620 H     1 <1>   0.4500 
 35 H       -0.7050     5.1120     0.4760 H     1 <1>   0.4500 
 36 H       -3.7000     7.2920     0.5390 H     1 <1>   0.0800 
 37 H       -3.2690     7.1190    -1.1450 H     1 <1>   0.0800 
 38 H       -0.8300     6.8950    -1.8270 H     1 <1>   0.0800 
 39 H        0.4230     6.8980    -0.6120 H     1 <1>   0.0800 
 40 H       -1.8530     7.2960     2.3290 H     1 <1>   0.0800 
 41 H       -0.1830     7.1240     1.8460 H     1 <1>   0.0800 
 42 H       -3.8010     9.4690    -0.5920 H     1 <1>   0.0800 
 43 H        0.3050     9.0840    -1.7490 H     1 <1>   0.0800 
 44 H       -0.7240     9.4750     2.3900 H     1 <1>   0.0800 
 45 H       -2.1010     9.0290    -2.3450 H     1 <1>   0.0800 
 46 H       -1.7230    10.4800    -1.4760 H     1 <1>   0.0800 
 47 H       -3.1330     9.4150     1.7970 H     1 <1>   0.0800 
 48 H       -2.3300    10.7070     0.9660 H     1 <1>   0.0800 
 49 H        0.0930    10.4840     0.2830 H     1 <1>   0.0800 
 50 H        0.9760     9.0340     0.6380 H     1 <1>   0.0800 
@<TRIPOS>BOND
  1   1   2  1   
  2   2   3  ar  
  3   2   4  ar  
  4   3   5  1   
  5   3   6  ar  
  6   4   7  ar  
  7   4  24  1   
  8   5   8  1   
  9   6   9  1   
 10   6  10  ar  
 11   7  10  ar  
 12   7  11  1   
 13   8  25  1   
 14   8  26  1   
 15   8  27  1   
 16   9  12  1   
 17  10  28  1   
 18  11  13  1   
 19  11  29  1   
 20  11  30  1   
 21  12  31  1   
 22  12  32  1   
 23  12  33  1   
 24  13  14  1   
 25  13  34  1   
 26  13  35  1   
 27  14  15  1   
 28  14  16  1   
 29  14  17  1   
 30  15  18  1   
 31  15  36  1   
 32  15  37  1   
 33  16  19  1   
 34  16  38  1   
 35  16  39  1   
 36  17  20  1   
 37  17  40  1   
 38  17  41  1   
 39  18  21  1   
 40  18  22  1   
 41  18  42  1   
 42  19  21  1   
 43  19  23  1   
 44  19  43  1   
 45  20  22  1   
 46  20  23  1   
 47  20  44  1   
 48  21  45  1   
 49  21  46  1   
 50  22  47  1   
 51  22  48  1   
 52  23  49  1   
 53  23  50  1   
@<TRIPOS>SUBSTRUCTURE
  1 ****  13 GROUP 4 **** **** 0

# MOE 2024.06 (io_trps.svl 2023.06)
