@<TRIPOS>MOLECULE
NONAME
44 46 1 0 0 
SMALL
USER_CHARGES


@<TRIPOS>ATOM
  1 O       -0.7080    -0.4190     1.1760 O.2   1 <1>  -0.5700 
  2 C       -0.5910    -1.3300     0.3890 C.2   1 <1>   0.4950 
  3 C        0.6820    -1.7070    -0.1320 C.2   1 <1>  -0.1360 
  4 C       -1.8370    -2.0760    -0.1150 C.3   1 <1>  -0.0190 
  5 C        1.8910    -1.1970     0.2160 C.2   1 <1>  -0.1500 
  6 C       -3.1950    -1.5140     0.3930 C.3   1 <1>  -0.0800 
  7 C       -1.7940    -3.5990     0.1790 C.3   1 <1>  -0.0800 
  8 C        3.1540    -1.5850    -0.3140 C.2   1 <1>  -0.1500 
  9 C       -3.3920    -1.8000     1.8990 C.3   1 <1>  -0.1600 
 10 C       -4.3370    -2.2080    -0.3790 C.3   1 <1>  -0.1600 
 11 C       -1.9730    -3.8570     1.6890 C.3   1 <1>  -0.1600 
 12 C       -2.9400    -4.2910    -0.5880 C.3   1 <1>  -0.1600 
 13 C        4.3960    -1.0620    -0.1290 C.2   1 <1>  -0.0500 
 14 C       -3.3330    -3.3140     2.1640 C.3   1 <1>  -0.0800 
 15 C       -4.2990    -3.7300    -0.1290 C.3   1 <1>  -0.0800 
 16 N        4.8000     0.0520     0.5830 N.pl3 1 <1>  -0.8380 
 17 C       -4.4640    -4.0020     1.3770 C.3   1 <1>  -0.1600 
 18 C        6.2390     0.2710     0.8830 C.3   1 <1>   0.1290 
 19 C        3.9060     1.1880     0.9330 C.3   1 <1>   0.1290 
 20 H        0.6530    -2.4730    -0.8830 H     1 <1>   0.1500 
 21 H       -1.8240    -1.9470    -1.1820 H     1 <1>   0.0800 
 22 H        1.9120    -0.4360     0.9740 H     1 <1>   0.1500 
 23 H       -3.2370    -0.4520     0.2180 H     1 <1>   0.0800 
 24 H       -0.8600    -4.0240    -0.1450 H     1 <1>   0.0800 
 25 H        3.1010    -2.4450    -0.9550 H     1 <1>   0.1500 
 26 H       -2.6380    -1.3030     2.4820 H     1 <1>   0.0800 
 27 H       -4.3430    -1.4120     2.2190 H     1 <1>   0.0800 
 28 H       -5.2850    -1.8120    -0.0580 H     1 <1>   0.0800 
 29 H       -4.2440    -2.0090    -1.4320 H     1 <1>   0.0800 
 30 H       -1.9180    -4.9140     1.8860 H     1 <1>   0.0800 
 31 H       -1.1810    -3.3830     2.2430 H     1 <1>   0.0800 
 32 H       -2.8220    -4.1360    -1.6460 H     1 <1>   0.0800 
 33 H       -2.9090    -5.3520    -0.4100 H     1 <1>   0.0800 
 34 H        5.2080    -1.5900    -0.6030 H     1 <1>   0.1500 
 35 H       -3.4550    -3.5030     3.2170 H     1 <1>   0.0800 
 36 H       -5.0950    -4.2090    -0.6740 H     1 <1>   0.0800 
 37 H       -5.4180    -3.6310     1.7110 H     1 <1>   0.0800 
 38 H       -4.4450    -5.0620     1.5620 H     1 <1>   0.0800 
 39 H        6.6160     1.0860     0.2890 H     1 <1>   0.0800 
 40 H        6.8070    -0.6150     0.6610 H     1 <1>   0.0800 
 41 H        6.3600     0.5050     1.9270 H     1 <1>   0.0800 
 42 H        4.4580     2.1110     0.9340 H     1 <1>   0.0800 
 43 H        3.4840     1.0300     1.9090 H     1 <1>   0.0800 
 44 H        3.1160     1.2720     0.2080 H     1 <1>   0.0800 
@<TRIPOS>BOND
  1   1   2  2   
  2   2   3  1   
  3   2   4  1   
  4   3   5  2   
  5   3  20  1   
  6   4   6  1   
  7   4   7  1   
  8   4  21  1   
  9   5   8  1   
 10   5  22  1   
 11   6   9  1   
 12   6  10  1   
 13   6  23  1   
 14   7  11  1   
 15   7  12  1   
 16   7  24  1   
 17   8  13  2   
 18   8  25  1   
 19   9  14  1   
 20   9  26  1   
 21   9  27  1   
 22  10  15  1   
 23  10  28  1   
 24  10  29  1   
 25  11  14  1   
 26  11  30  1   
 27  11  31  1   
 28  12  15  1   
 29  12  32  1   
 30  12  33  1   
 31  13  16  1   
 32  13  34  1   
 33  14  17  1   
 34  14  35  1   
 35  15  17  1   
 36  15  36  1   
 37  16  18  1   
 38  16  19  1   
 39  17  37  1   
 40  17  38  1   
 41  18  39  1   
 42  18  40  1   
 43  18  41  1   
 44  19  42  1   
 45  19  43  1   
 46  19  44  1   
@<TRIPOS>SUBSTRUCTURE
  1 ****   2 GROUP 4 **** **** 0

# MOE 2024.06 (io_trps.svl 2023.06)
