@<TRIPOS>MOLECULE
NONAME
42 44 1 0 0 
SMALL
USER_CHARGES


@<TRIPOS>ATOM
  1 S        0.5340    -1.2180    -1.4560 S.o2  1 <1>   1.4470 
  2 O        1.4580    -1.9240    -2.3190 O.2   1 <1>  -0.6500 
  3 O       -0.0980    -0.0210    -1.9700 O.2   1 <1>  -0.6500 
  4 N        1.4130    -0.7400    -0.0880 N.am  1 <1>  -0.8490 
  5 C       -0.7190    -2.3440    -0.7590 C.ar  1 <1>  -0.0090 
  6 C        0.6180     0.0940     0.8340 C.3   1 <1>   0.1960 
  7 C        2.6310    -0.0100    -0.4670 C.3   1 <1>   0.1960 
  8 C       -0.4900    -3.6910    -0.4580 C.ar  1 <1>  -0.1440 
  9 C       -1.9690    -1.8210    -0.4530 C.ar  1 <1>  -0.1500 
 10 C        1.4570     0.5360     2.0460 C.3   1 <1>   0.1200 
 11 C        3.4230     0.4300     0.7770 C.3   1 <1>   0.1200 
 12 C       -1.4960    -4.4600     0.1100 C.ar  1 <1>  -0.1500 
 13 C        0.8540    -4.3580    -0.7220 C.3   1 <1>  -0.0960 
 14 C       -2.9740    -2.5690     0.1410 C.ar  1 <1>   0.1170 
 15 O        2.6210     1.1960     1.6300 O.3   1 <1>  -0.5600 
 16 C       -2.7250    -3.9060     0.4090 C.ar  1 <1>  -0.1500 
 17 N       -4.1980    -1.9690     0.4760 N.am  1 <1>  -0.4770 
 18 C       -4.3730    -0.7550     1.0720 C.2   1 <1>   0.5690 
 19 C       -5.4900    -2.5730     0.0980 C.3   1 <1>   0.1400 
 20 O       -3.5020    -0.0210     1.4750 O.2   1 <1>  -0.5700 
 21 C       -5.8310    -0.4040     1.1800 C.3   1 <1>  -0.0990 
 22 C       -6.5490    -1.7020     0.7850 C.3   1 <1>  -0.1600 
 23 H       -0.2330    -0.4590     1.1910 H     1 <1>   0.0800 
 24 H        0.2540     0.9730     0.3270 H     1 <1>   0.0800 
 25 H        2.3750     0.8590    -1.0510 H     1 <1>   0.0800 
 26 H        3.2580    -0.6440    -1.0720 H     1 <1>   0.0800 
 27 H       -2.1690    -0.7860    -0.6700 H     1 <1>   0.1500 
 28 H        1.7380    -0.3170     2.6400 H     1 <1>   0.0800 
 29 H        0.8940     1.2160     2.6590 H     1 <1>   0.0800 
 30 H        4.2650     1.0340     0.4880 H     1 <1>   0.0800 
 31 H        3.7800    -0.4290     1.3180 H     1 <1>   0.0800 
 32 H       -1.3230    -5.4980     0.3340 H     1 <1>   0.1500 
 33 H        1.0100    -4.4670    -1.7810 H     1 <1>   0.0800 
 34 H        0.9000    -5.3340    -0.2730 H     1 <1>   0.0800 
 35 H        1.6540    -3.7680    -0.3110 H     1 <1>   0.0800 
 36 H       -3.4840    -4.5120     0.8670 H     1 <1>   0.1500 
 37 H       -5.5520    -3.5950     0.4310 H     1 <1>   0.0800 
 38 H       -5.5960    -2.5330    -0.9730 H     1 <1>   0.0800 
 39 H       -6.0490     0.3890     0.4880 H     1 <1>   0.0800 
 40 H       -6.0750    -0.0970     2.1810 H     1 <1>   0.0800 
 41 H       -6.8960    -2.2070     1.6700 H     1 <1>   0.0800 
 42 H       -7.3900    -1.5190     0.1400 H     1 <1>   0.0800 
@<TRIPOS>BOND
  1   1   2  2   
  2   1   3  2   
  3   1   4  am  
  4   1   5  1   
  5   4   6  1   
  6   4   7  1   
  7   5   8  ar  
  8   5   9  ar  
  9   6  10  1   
 10   6  23  1   
 11   6  24  1   
 12   7  11  1   
 13   7  25  1   
 14   7  26  1   
 15   8  12  ar  
 16   8  13  1   
 17   9  14  ar  
 18   9  27  1   
 19  10  15  1   
 20  10  28  1   
 21  10  29  1   
 22  11  15  1   
 23  11  30  1   
 24  11  31  1   
 25  12  16  ar  
 26  12  32  1   
 27  13  33  1   
 28  13  34  1   
 29  13  35  1   
 30  14  16  ar  
 31  14  17  1   
 32  16  36  1   
 33  17  18  am  
 34  17  19  1   
 35  18  20  2   
 36  18  21  1   
 37  19  22  1   
 38  19  37  1   
 39  19  38  1   
 40  21  22  1   
 41  21  39  1   
 42  21  40  1   
 43  22  41  1   
 44  22  42  1   
@<TRIPOS>SUBSTRUCTURE
  1 ****   9 GROUP 4 **** **** 0

# MOE 2024.06 (io_trps.svl 2023.06)
