@<TRIPOS>MOLECULE
NONAME
32 32 1 0 0 
SMALL
USER_CHARGES


@<TRIPOS>ATOM
  1 S        0.0350    -0.3520    -0.3630 S.o2  1 <1>   1.3330 
  2 O        1.0300    -0.8050    -1.3040 O.2   1 <1>  -0.6500 
  3 O        0.1460    -0.6550     1.0420 O.2   1 <1>  -0.6500 
  4 N       -0.0300     1.3680    -0.5260 N.am  1 <1>  -0.6930 
  5 C       -1.5640    -0.8530    -0.9630 C.3   1 <1>  -0.1350 
  6 C       -1.0670     2.0960     0.0400 C.ar  1 <1>   0.1990 
  7 C        1.3060     2.0380    -0.5920 C.3   1 <1>   0.2570 
  8 C       -1.9600     2.7720    -0.7810 C.ar  1 <1>  -0.1500 
  9 C       -1.2420     2.1680     1.4170 C.ar  1 <1>  -0.1500 
 10 C        2.1590     1.8760     0.6680 C.2   1 <1>   0.6590 
 11 C       -3.0090     3.4940    -0.2430 C.ar  1 <1>  -0.1500 
 12 C       -2.2900     2.8900     1.9570 C.ar  1 <1>  -0.1500 
 13 O        2.1180     2.6740     1.5710 O.2   1 <1>  -0.5700 
 14 O        2.9540     0.8130     0.7080 O.3   1 <1>  -0.4300 
 15 C       -3.1820     3.5550     1.1310 C.ar  1 <1>  -0.1430 
 16 C        3.7100     0.4880     1.8540 C.3   1 <1>   0.0400 
 17 C       -4.3290     4.3490     1.7280 C.3   1 <1>  -0.0970 
 18 H       -1.6430    -1.9220    -0.9470 H     1 <1>   0.0800 
 19 H       -1.7050    -0.5110    -1.9690 H     1 <1>   0.0800 
 20 H       -2.3380    -0.4420    -0.3450 H     1 <1>   0.0800 
 21 H        1.1590     3.0900    -0.7580 H     1 <1>   0.0800 
 22 H        1.8560     1.6470    -1.4290 H     1 <1>   0.0800 
 23 H       -1.8270     2.7280    -1.8460 H     1 <1>   0.1500 
 24 H       -0.5520     1.6590     2.0670 H     1 <1>   0.1500 
 25 H       -3.6900     4.0120    -0.8960 H     1 <1>   0.1500 
 26 H       -2.4060     2.9340     3.0270 H     1 <1>   0.1500 
 27 H        4.2700    -0.4060     1.6490 H     1 <1>   0.0800 
 28 H        3.0330     0.3200     2.6750 H     1 <1>   0.0800 
 29 H        4.3740     1.3040     2.0790 H     1 <1>   0.0800 
 30 H       -4.0040     5.3510     1.9430 H     1 <1>   0.0800 
 31 H       -4.6680     3.8900     2.6390 H     1 <1>   0.0800 
 32 H       -5.1560     4.3920     1.0420 H     1 <1>   0.0800 
@<TRIPOS>BOND
  1   1   2  2   
  2   1   3  2   
  3   1   4  am  
  4   1   5  1   
  5   4   6  1   
  6   4   7  1   
  7   5  18  1   
  8   5  19  1   
  9   5  20  1   
 10   6   8  ar  
 11   6   9  ar  
 12   7  10  1   
 13   7  21  1   
 14   7  22  1   
 15   8  11  ar  
 16   8  23  1   
 17   9  12  ar  
 18   9  24  1   
 19  10  13  2   
 20  10  14  1   
 21  11  15  ar  
 22  11  25  1   
 23  12  15  ar  
 24  12  26  1   
 25  14  16  1   
 26  15  17  1   
 27  16  27  1   
 28  16  28  1   
 29  16  29  1   
 30  17  30  1   
 31  17  31  1   
 32  17  32  1   
@<TRIPOS>SUBSTRUCTURE
  1 ****   6 GROUP 4 **** **** 0

# MOE 2024.06 (io_trps.svl 2023.06)
