@<TRIPOS>MOLECULE
NONAME
33 35 1 0 0 
SMALL
USER_CHARGES


@<TRIPOS>ATOM
  1 O       -0.2070    -1.6940    -2.1040 O.2   1 <1>  -0.5700 
  2 C       -0.5270    -1.8670    -0.9530 C.2   1 <1>   0.5690 
  3 N        0.3260    -1.6740     0.0860 N.am  1 <1>  -0.5790 
  4 C       -1.9410    -2.3060    -0.6490 C.3   1 <1>  -0.0990 
  5 C        1.7250    -1.2410    -0.0290 C.3   1 <1>   0.0490 
  6 C       -2.8730    -1.0960    -0.5210 C.3   1 <1>   0.0210 
  7 C        2.7090    -1.7770     0.9560 C.3   1 <1>  -0.2000 
  8 C        2.2710    -0.3450     1.0330 C.3   1 <1>  -0.2000 
  9 C       -4.2860    -1.4890    -0.1210 C.2   1 <1>  -0.1810 
 10 C       -5.2970    -0.5420     0.1630 C.ar  1 <1>   0.0000 
 11 C       -4.8300    -2.7220     0.0340 C.2   1 <1>  -0.3020 
 12 C       -6.4390    -1.2660     0.4890 C.ar  1 <1>  -0.1520 
 13 C       -5.3450     0.8570     0.1710 C.ar  1 <1>  -0.1500 
 14 N       -6.1390    -2.6010     0.4050 N.pl3 1 <1>   0.0330 
 15 C       -7.6300    -0.6200     0.8270 C.ar  1 <1>  -0.1500 
 16 C       -6.5190     1.4940     0.5040 C.ar  1 <1>  -0.1500 
 17 C       -7.6620     0.7550     0.8330 C.ar  1 <1>  -0.1500 
 18 H        0.0020    -1.8290     1.0400 H     1 <1>   0.3700 
 19 H       -1.9520    -2.8750     0.2620 H     1 <1>   0.0800 
 20 H       -2.2850    -2.9400    -1.4470 H     1 <1>   0.0800 
 21 H        2.0430    -1.0900    -1.0490 H     1 <1>   0.1000 
 22 H       -2.9080    -0.5720    -1.4600 H     1 <1>   0.0800 
 23 H       -2.4820    -0.4220     0.2210 H     1 <1>   0.0800 
 24 H        3.7100    -1.9860     0.6210 H     1 <1>   0.1000 
 25 H        2.3710    -2.4710     1.7060 H     1 <1>   0.1000 
 26 H        1.6270    -0.0350     1.8360 H     1 <1>   0.1000 
 27 H        2.9760     0.4170     0.7490 H     1 <1>   0.1000 
 28 H       -4.3730    -3.6860    -0.0970 H     1 <1>   0.1500 
 29 H       -4.4640     1.4140    -0.0850 H     1 <1>   0.1500 
 30 H       -6.7970    -3.3650     0.5860 H     1 <1>   0.2700 
 31 H       -8.5030    -1.1950     1.0780 H     1 <1>   0.1500 
 32 H       -6.5690     2.5680     0.5140 H     1 <1>   0.1500 
 33 H       -8.5670     1.2780     1.0890 H     1 <1>   0.1500 
@<TRIPOS>BOND
  1   1   2  2   
  2   2   3  am  
  3   2   4  1   
  4   3   5  1   
  5   3  18  1   
  6   4   6  1   
  7   4  19  1   
  8   4  20  1   
  9   5   7  1   
 10   5   8  1   
 11   5  21  1   
 12   6   9  1   
 13   6  22  1   
 14   6  23  1   
 15   7   8  1   
 16   7  24  1   
 17   7  25  1   
 18   8  26  1   
 19   8  27  1   
 20   9  10  1   
 21   9  11  2   
 22  10  12  ar  
 23  10  13  ar  
 24  11  14  1   
 25  11  28  1   
 26  12  14  1   
 27  12  15  ar  
 28  13  16  ar  
 29  13  29  1   
 30  14  30  1   
 31  15  17  ar  
 32  15  31  1   
 33  16  17  ar  
 34  16  32  1   
 35  17  33  1   
@<TRIPOS>SUBSTRUCTURE
  1 ****   6 GROUP 4 **** **** 0

# MOE 2024.06 (io_trps.svl 2023.06)
