@<TRIPOS>MOLECULE
NONAME
33 34 1 0 0 
SMALL
USER_CHARGES


@<TRIPOS>ATOM
  1 CL      -0.5040     3.2790    -2.5350 Cl    1 <1>  -0.1770 
  2 C       -1.4890     2.5940    -1.2610 C.ar  1 <1>   0.1770 
  3 C       -1.1700     2.8310     0.0740 C.ar  1 <1>   0.0830 
  4 C       -2.5860     1.8340    -1.6160 C.ar  1 <1>  -0.1500 
  5 O       -0.0780     3.5840     0.3580 O.3   1 <1>  -0.3630 
  6 C       -1.9760     2.2860     1.0720 C.ar  1 <1>  -0.1500 
  7 C       -3.3740     1.3060    -0.6100 C.ar  1 <1>   0.1770 
  8 C       -0.0840     4.4470     1.4880 C.3   1 <1>   0.1810 
  9 C       -3.0810     1.5240     0.7260 C.ar  1 <1>  -0.1500 
 10 CL      -4.7670     0.3450    -1.0330 Cl    1 <1>  -0.1770 
 11 C        1.1000     5.4120     1.4660 C.2   1 <1>   0.5690 
 12 O        1.8480     5.3670     2.4170 O.2   1 <1>  -0.5700 
 13 N        1.2920     6.3090     0.4380 N.am  1 <1>  -0.6600 
 14 C        2.4750     7.2150     0.4180 C.3   1 <1>   0.1400 
 15 C        0.4320     6.4120    -0.7770 C.3   1 <1>   0.1400 
 16 C        2.0180     8.6670     0.2470 C.3   1 <1>  -0.1600 
 17 C       -0.0390     7.8580    -0.9630 C.3   1 <1>  -0.1600 
 18 C        1.1400     8.8390    -1.0000 C.3   1 <1>  -0.1600 
 19 H       -2.8230     1.6570    -2.6480 H     1 <1>   0.1500 
 20 H       -1.7500     2.4370     2.1110 H     1 <1>   0.1500 
 21 H       -0.0240     3.8420     2.3730 H     1 <1>   0.0800 
 22 H       -1.0010     5.0060     1.4900 H     1 <1>   0.0800 
 23 H       -3.7140     1.0950     1.4830 H     1 <1>   0.1500 
 24 H        3.1150     6.9330    -0.4010 H     1 <1>   0.0800 
 25 H        3.0430     7.1230     1.3290 H     1 <1>   0.0800 
 26 H       -0.4290     5.7740    -0.7070 H     1 <1>   0.0800 
 27 H        1.0040     6.1000    -1.6350 H     1 <1>   0.0800 
 28 H        2.8810     9.3040     0.1740 H     1 <1>   0.0800 
 29 H        1.4680     8.9600     1.1250 H     1 <1>   0.0800 
 30 H       -0.6990     8.1150    -0.1530 H     1 <1>   0.0800 
 31 H       -0.5990     7.9330    -1.8780 H     1 <1>   0.0800 
 32 H        1.7320     8.6540    -1.8810 H     1 <1>   0.0800 
 33 H        0.7730     9.8500    -1.0510 H     1 <1>   0.0800 
@<TRIPOS>BOND
  1   1   2  1   
  2   2   3  ar  
  3   2   4  ar  
  4   3   5  1   
  5   3   6  ar  
  6   4   7  ar  
  7   4  19  1   
  8   5   8  1   
  9   6   9  ar  
 10   6  20  1   
 11   7   9  ar  
 12   7  10  1   
 13   8  11  1   
 14   8  21  1   
 15   8  22  1   
 16   9  23  1   
 17  11  12  2   
 18  11  13  am  
 19  13  14  1   
 20  13  15  1   
 21  14  16  1   
 22  14  24  1   
 23  14  25  1   
 24  15  17  1   
 25  15  26  1   
 26  15  27  1   
 27  16  18  1   
 28  16  28  1   
 29  16  29  1   
 30  17  18  1   
 31  17  30  1   
 32  17  31  1   
 33  18  32  1   
 34  18  33  1   
@<TRIPOS>SUBSTRUCTURE
  1 ****   5 GROUP 4 **** **** 0

# MOE 2024.06 (io_trps.svl 2023.06)
