@<TRIPOS>MOLECULE
NONAME
56 58 1 0 0 
SMALL
USER_CHARGES


@<TRIPOS>ATOM
  1 O       -0.5760    -0.6000     0.9420 O.3   1 <1>  -0.3630 
  2 C       -1.8260    -1.1190     0.8120 C.ar  1 <1>   0.0830 
  3 C       -0.0680    -0.1440     2.1770 C.3   1 <1>   0.0400 
  4 C       -2.1850    -1.6880    -0.4110 C.ar  1 <1>  -0.1440 
  5 C       -2.7380    -1.1020     1.8600 C.ar  1 <1>  -0.1500 
  6 C       -3.4490    -2.2580    -0.5720 C.ar  1 <1>  -0.1430 
  7 C       -1.1660    -1.6870    -1.5580 C.3   1 <1>  -0.0960 
  8 C       -3.9950    -1.6410     1.6920 C.ar  1 <1>  -0.1500 
  9 C       -4.3630    -2.2100     0.4830 C.ar  1 <1>  -0.1440 
 10 C       -3.8010    -2.9370    -1.9000 C.3   1 <1>  -0.0970 
 11 C       -5.7790    -2.7420     0.3680 C.3   1 <1>   0.4860 
 12 N       -6.5540    -1.8100    -0.4930 N.4   1 <1>  -0.9590 
 13 C       -6.6450    -0.4280     0.1110 C.3   1 <1>   0.3430 
 14 C       -7.9190    -2.3460    -0.8380 C.3   1 <1>   0.3430 
 15 C       -7.4180     0.5630    -0.7830 C.3   1 <1>   0.2090 
 16 C       -8.7110    -1.3970    -1.7620 C.3   1 <1>   0.2090 
 17 N       -8.7220    -0.0010    -1.2400 N.pl3 1 <1>  -0.8380 
 18 C       -9.8790     0.4310    -0.5910 C.ar  1 <1>   0.1000 
 19 C      -10.7900     1.2640    -1.2390 C.ar  1 <1>  -0.1430 
 20 C      -10.1420     0.0310     0.7160 C.ar  1 <1>  -0.1500 
 21 C      -11.9340     1.6760    -0.5780 C.ar  1 <1>  -0.1500 
 22 C      -10.5430     1.7300    -2.6680 C.3   1 <1>  -0.0970 
 23 C      -11.2850     0.4440     1.3760 C.ar  1 <1>  -0.1430 
 24 C      -12.1820     1.2690     0.7220 C.ar  1 <1>  -0.1500 
 25 C      -11.5740     0.0090     2.8020 C.3   1 <1>  -0.0970 
 26 H        0.9530     0.1560     2.0260 H     1 <1>   0.0800 
 27 H       -0.1100    -0.9480     2.8910 H     1 <1>   0.0800 
 28 H       -0.6500     0.6980     2.5060 H     1 <1>   0.0800 
 29 H       -2.4850    -0.6730     2.8110 H     1 <1>   0.1500 
 30 H       -0.4410    -0.9020    -1.4460 H     1 <1>   0.0800 
 31 H       -1.6420    -1.5290    -2.5070 H     1 <1>   0.0800 
 32 H       -0.6430    -2.6260    -1.5770 H     1 <1>   0.0800 
 33 H       -4.6800    -1.6110     2.5230 H     1 <1>   0.1500 
 34 H       -2.9800    -3.5510    -2.2260 H     1 <1>   0.0800 
 35 H       -3.9890    -2.1950    -2.6550 H     1 <1>   0.0800 
 36 H       -4.6520    -3.5860    -1.8300 H     1 <1>   0.0800 
 37 H       -6.2290    -2.8080     1.3450 H     1 <1>   0.0800 
 38 H       -5.7600    -3.7290    -0.0630 H     1 <1>   0.0800 
 39 H       -6.0110    -1.7030    -1.3580 H     1 <1>   0.4500 
 40 H       -5.6550    -0.0360     0.2840 H     1 <1>   0.0800 
 41 H       -7.1470    -0.4830     1.0620 H     1 <1>   0.0800 
 42 H       -8.4900    -2.4820     0.0650 H     1 <1>   0.0800 
 43 H       -7.8290    -3.3050    -1.3200 H     1 <1>   0.0800 
 44 H       -6.8240     0.8150    -1.6440 H     1 <1>   0.0800 
 45 H       -7.5950     1.4740    -0.2350 H     1 <1>   0.0800 
 46 H       -9.7250    -1.7510    -1.8520 H     1 <1>   0.0800 
 47 H       -8.2790    -1.3990    -2.7470 H     1 <1>   0.0800 
 48 H       -9.4460    -0.6080     1.2190 H     1 <1>   0.1500 
 49 H      -12.6440     2.3180    -1.0680 H     1 <1>   0.1500 
 50 H      -10.4990     0.8800    -3.3240 H     1 <1>   0.0800 
 51 H       -9.6080     2.2570    -2.7210 H     1 <1>   0.0800 
 52 H      -11.3250     2.3850    -3.0050 H     1 <1>   0.0800 
 53 H      -13.0770     1.6000     1.2190 H     1 <1>   0.1500 
 54 H      -10.7880    -0.6160     3.1850 H     1 <1>   0.0800 
 55 H      -12.4970    -0.5420     2.8350 H     1 <1>   0.0800 
 56 H      -11.6640     0.8730     3.4360 H     1 <1>   0.0800 
@<TRIPOS>BOND
  1   1   2  1   
  2   1   3  1   
  3   2   4  ar  
  4   2   5  ar  
  5   3  26  1   
  6   3  27  1   
  7   3  28  1   
  8   4   6  ar  
  9   4   7  1   
 10   5   8  ar  
 11   5  29  1   
 12   6   9  ar  
 13   6  10  1   
 14   7  30  1   
 15   7  31  1   
 16   7  32  1   
 17   8   9  ar  
 18   8  33  1   
 19   9  11  1   
 20  10  34  1   
 21  10  35  1   
 22  10  36  1   
 23  11  12  1   
 24  11  37  1   
 25  11  38  1   
 26  12  13  1   
 27  12  14  1   
 28  12  39  1   
 29  13  15  1   
 30  13  40  1   
 31  13  41  1   
 32  14  16  1   
 33  14  42  1   
 34  14  43  1   
 35  15  17  1   
 36  15  44  1   
 37  15  45  1   
 38  16  17  1   
 39  16  46  1   
 40  16  47  1   
 41  17  18  1   
 42  18  19  ar  
 43  18  20  ar  
 44  19  21  ar  
 45  19  22  1   
 46  20  23  ar  
 47  20  48  1   
 48  21  24  ar  
 49  21  49  1   
 50  22  50  1   
 51  22  51  1   
 52  22  52  1   
 53  23  24  ar  
 54  23  25  1   
 55  24  53  1   
 56  25  54  1   
 57  25  55  1   
 58  25  56  1   
@<TRIPOS>SUBSTRUCTURE
  1 ****  13 GROUP 4 **** **** 0

# MOE 2024.06 (io_trps.svl 2023.06)
