@<TRIPOS>MOLECULE
NONAME
45 48 1 0 0 
SMALL
USER_CHARGES


@<TRIPOS>ATOM
  1 F       -0.3290    -0.3810    -0.4420 F     1 <1>  -0.3400 
  2 C       -1.5420    -0.6150     0.0450 C.3   1 <1>   1.1580 
  3 F       -1.3460    -1.1620     1.2370 F     1 <1>  -0.3400 
  4 F       -2.0630    -1.5490    -0.7390 F     1 <1>  -0.3400 
  5 C       -2.3650     0.6530     0.0900 C.2   1 <1>  -0.1690 
  6 N       -3.6420     0.5260     0.5690 N.pl3 1 <1>   0.6010 
  7 C       -1.9570     1.8950    -0.2960 C.2   1 <1>  -0.1360 
  8 N       -4.2700    -0.5710     1.0310 N.2   1 <1>  -0.7070 
  9 C       -4.4570     1.6320     0.6300 C.2   1 <1>  -0.0260 
 10 C       -2.8270     3.0240    -0.1990 C.2   1 <1>   0.3490 
 11 C       -5.4470    -0.1490     1.3820 C.2   1 <1>   0.1390 
 12 N       -4.0500     2.8810     0.2400 N.2   1 <1>  -0.5760 
 13 C       -5.6560     1.2090     1.1590 C.2   1 <1>  -0.0860 
 14 C       -2.3650     4.3290    -0.6210 C.ar  1 <1>   0.0860 
 15 C       -6.8900     1.8670     1.4920 C.2   1 <1>   0.7160 
 16 C       -1.1620     4.8900    -0.1690 C.ar  1 <1>   0.0830 
 17 C       -3.1380     5.0760    -1.5120 C.ar  1 <1>  -0.1500 
 18 O       -7.5460     1.4260     2.4220 O.2   1 <1>  -0.5700 
 19 N       -7.4110     2.9390     0.7990 N.am  1 <1>  -0.6600 
 20 O       -0.4220     4.1770     0.7180 O.3   1 <1>  -0.3620 
 21 C       -0.7600     6.1460    -0.6190 C.ar  1 <1>  -0.1500 
 22 C       -2.7380     6.3220    -1.9530 C.ar  1 <1>  -0.1500 
 23 C       -8.7080     3.5560     1.1580 C.3   1 <1>   0.1400 
 24 C       -6.9550     3.4160    -0.5220 C.3   1 <1>   0.1400 
 25 C        0.7190     4.7080     1.3570 C.3   1 <1>   0.0400 
 26 C       -1.5440     6.8580    -1.5070 C.ar  1 <1>  -0.1500 
 27 C       -9.0040     4.5470     0.0370 C.3   1 <1>  -0.1600 
 28 C       -8.1930     4.0400    -1.1520 C.3   1 <1>  -0.1600 
 29 H       -0.9690     2.0740    -0.6850 H     1 <1>   0.1500 
 30 H       -6.1970    -0.7950     1.8110 H     1 <1>   0.1500 
 31 H       -4.0700     4.6670    -1.8610 H     1 <1>   0.1500 
 32 H        0.1600     6.5910    -0.2900 H     1 <1>   0.1500 
 33 H       -3.3530     6.8770    -2.6410 H     1 <1>   0.1500 
 34 H       -8.6420     4.0450     2.1160 H     1 <1>   0.0800 
 35 H       -9.4650     2.7910     1.1970 H     1 <1>   0.0800 
 36 H       -6.5620     2.6120    -1.1200 H     1 <1>   0.0800 
 37 H       -6.2010     4.1700    -0.3770 H     1 <1>   0.0800 
 38 H        1.0830     3.9750     2.0560 H     1 <1>   0.0800 
 39 H        0.4410     5.6040     1.8820 H     1 <1>   0.0800 
 40 H        1.4730     4.9120     0.6180 H     1 <1>   0.0800 
 41 H       -1.2300     7.8290    -1.8510 H     1 <1>   0.1500 
 42 H       -8.6510     5.5200     0.3320 H     1 <1>   0.0800 
 43 H      -10.0560     4.6060    -0.1760 H     1 <1>   0.0800 
 44 H       -8.7440     3.2770    -1.6730 H     1 <1>   0.0800 
 45 H       -7.9390     4.8250    -1.8420 H     1 <1>   0.0800 
@<TRIPOS>BOND
  1   1   2  1   
  2   2   3  1   
  3   2   4  1   
  4   2   5  1   
  5   5   6  1   
  6   5   7  2   
  7   6   8  1   
  8   6   9  1   
  9   7  10  1   
 10   7  29  1   
 11   8  11  2   
 12   9  12  1   
 13   9  13  2   
 14  10  12  2   
 15  10  14  1   
 16  11  13  1   
 17  11  30  1   
 18  13  15  1   
 19  14  16  ar  
 20  14  17  ar  
 21  15  18  2   
 22  15  19  am  
 23  16  20  1   
 24  16  21  ar  
 25  17  22  ar  
 26  17  31  1   
 27  19  23  1   
 28  19  24  1   
 29  20  25  1   
 30  21  26  ar  
 31  21  32  1   
 32  22  26  ar  
 33  22  33  1   
 34  23  27  1   
 35  23  34  1   
 36  23  35  1   
 37  24  28  1   
 38  24  36  1   
 39  24  37  1   
 40  25  38  1   
 41  25  39  1   
 42  25  40  1   
 43  26  41  1   
 44  27  28  1   
 45  27  42  1   
 46  27  43  1   
 47  28  44  1   
 48  28  45  1   
@<TRIPOS>SUBSTRUCTURE
  1 ****  12 GROUP 4 **** **** 0

# MOE 2024.06 (io_trps.svl 2023.06)
