@<TRIPOS>MOLECULE
NONAME
48 50 1 0 0 
SMALL
USER_CHARGES


@<TRIPOS>ATOM
  1 CL      -0.7080    -1.4690    -2.6390 Cl    1 <1>  -0.1770 
  2 C       -2.1490    -2.0170    -1.8250 C.ar  1 <1>   0.1770 
  3 C       -2.5950    -3.3100    -2.0250 C.ar  1 <1>  -0.1500 
  4 C       -2.8270    -1.1520    -0.9870 C.ar  1 <1>  -0.1500 
  5 C       -3.7410    -3.7360    -1.3790 C.ar  1 <1>  -0.1500 
  6 C       -3.9720    -1.5890    -0.3450 C.ar  1 <1>  -0.1500 
  7 C       -4.4570    -2.8850    -0.5360 C.ar  1 <1>   0.0530 
  8 C       -5.6580    -3.3460     0.1160 C.2   1 <1>   0.1330 
  9 N       -5.7470    -4.4340     0.8330 N.2   1 <1>  -0.3380 
 10 N       -6.8520    -2.7220     0.0600 N.pl3 1 <1>   0.0480 
 11 N       -6.9980    -4.5320     1.2770 N.2   1 <1>  -0.3380 
 12 C       -7.6200    -3.5130     0.8010 C.2   1 <1>   0.2430 
 13 C       -7.2460    -1.5040    -0.6810 C.3   1 <1>   0.0160 
 14 S       -9.3620    -3.1680     1.0750 S.3   1 <1>  -0.2860 
 15 C       -9.9640    -4.5690     2.1430 C.3   1 <1>   0.1310 
 16 C      -11.0980    -5.3210     1.4570 C.2   1 <1>   0.5690 
 17 O      -12.2060    -4.8770     1.6480 O.2   1 <1>  -0.5700 
 18 N      -10.8560    -6.4440     0.6890 N.am  1 <1>  -0.6600 
 19 C       -9.5160    -6.6780     0.0620 C.3   1 <1>   0.2200 
 20 C      -11.9130    -7.3200     0.0970 C.3   1 <1>   0.2200 
 21 C       -9.6410    -7.0990    -1.4200 C.3   1 <1>  -0.1600 
 22 C       -8.7430    -7.7180     0.8720 C.3   1 <1>  -0.2400 
 23 C      -12.1710    -6.8640    -1.3480 C.3   1 <1>  -0.1600 
 24 C      -13.2010    -7.4550     0.9140 C.3   1 <1>  -0.2400 
 25 C      -10.8750    -6.4690    -2.0880 C.3   1 <1>  -0.1600 
 26 H       -2.0480    -3.9690    -2.6750 H     1 <1>   0.1500 
 27 H       -2.4550    -0.1530    -0.8410 H     1 <1>   0.1500 
 28 H       -4.0940    -4.7440    -1.5210 H     1 <1>   0.1500 
 29 H       -4.4920    -0.9230     0.3200 H     1 <1>   0.1500 
 30 H       -6.5740    -1.3430    -1.5040 H     1 <1>   0.0800 
 31 H       -7.2170    -0.6590    -0.0180 H     1 <1>   0.0800 
 32 H       -8.2440    -1.6230    -1.0640 H     1 <1>   0.0800 
 33 H      -10.3230    -4.1250     3.0520 H     1 <1>   0.0800 
 34 H       -9.1420    -5.2170     2.3710 H     1 <1>   0.0800 
 35 H       -8.9630    -5.7590     0.0680 H     1 <1>   0.0800 
 36 H      -11.5000    -8.3140     0.0540 H     1 <1>   0.0800 
 37 H       -9.7100    -8.1700    -1.4950 H     1 <1>   0.0800 
 38 H       -8.7490    -6.8030    -1.9430 H     1 <1>   0.0800 
 39 H       -9.2520    -8.6640     0.8670 H     1 <1>   0.0800 
 40 H       -8.6220    -7.3890     1.8880 H     1 <1>   0.0800 
 41 H       -7.7630    -7.8510     0.4490 H     1 <1>   0.0800 
 42 H      -12.8450    -6.0240    -1.3440 H     1 <1>   0.0800 
 43 H      -12.6580    -7.6660    -1.8740 H     1 <1>   0.0800 
 44 H      -13.8000    -6.5650     0.8490 H     1 <1>   0.0800 
 45 H      -12.9670    -7.6570     1.9430 H     1 <1>   0.0800 
 46 H      -13.7860    -8.2710     0.5300 H     1 <1>   0.0800 
 47 H      -10.9360    -6.7630    -3.1220 H     1 <1>   0.0800 
 48 H      -10.7710    -5.3980    -2.0540 H     1 <1>   0.0800 
@<TRIPOS>BOND
  1   1   2  1   
  2   2   3  ar  
  3   2   4  ar  
  4   3   5  ar  
  5   3  26  1   
  6   4   6  ar  
  7   4  27  1   
  8   5   7  ar  
  9   5  28  1   
 10   6   7  ar  
 11   6  29  1   
 12   7   8  1   
 13   8   9  2   
 14   8  10  1   
 15   9  11  1   
 16  10  12  1   
 17  10  13  1   
 18  11  12  2   
 19  12  14  1   
 20  13  30  1   
 21  13  31  1   
 22  13  32  1   
 23  14  15  1   
 24  15  16  1   
 25  15  33  1   
 26  15  34  1   
 27  16  17  2   
 28  16  18  am  
 29  18  19  1   
 30  18  20  1   
 31  19  21  1   
 32  19  22  1   
 33  19  35  1   
 34  20  23  1   
 35  20  24  1   
 36  20  36  1   
 37  21  25  1   
 38  21  37  1   
 39  21  38  1   
 40  22  39  1   
 41  22  40  1   
 42  22  41  1   
 43  23  25  1   
 44  23  42  1   
 45  23  43  1   
 46  24  44  1   
 47  24  45  1   
 48  24  46  1   
 49  25  47  1   
 50  25  48  1   
@<TRIPOS>SUBSTRUCTURE
  1 ****  12 GROUP 4 **** **** 0

# MOE 2024.06 (io_trps.svl 2023.06)
