@<TRIPOS>MOLECULE
NONAME
29 29 1 0 0 
SMALL
USER_CHARGES


@<TRIPOS>ATOM
  1 S       -0.6180    -1.0620    -1.0410 S.o2  1 <1>   1.3330 
  2 O       -1.8950    -0.6400    -0.5230 O.2   1 <1>  -0.6500 
  3 O       -0.5200    -1.8460    -2.2470 O.2   1 <1>  -0.6500 
  4 N        0.1430    -1.9660     0.2250 N.am  1 <1>  -0.6930 
  5 C        0.4290     0.3720    -1.1670 C.3   1 <1>  -0.1350 
  6 C        1.4680    -2.3710     0.1240 C.ar  1 <1>   0.1990 
  7 C       -0.7830    -2.8760     0.9720 C.3   1 <1>   0.2570 
  8 C        1.8850    -3.2630    -0.8620 C.ar  1 <1>  -0.1500 
  9 C        2.3990    -1.8760     1.0370 C.ar  1 <1>  -0.1500 
 10 C       -1.3260    -4.0360     0.1360 C.2   1 <1>   0.6590 
 11 C        3.2140    -3.6300    -0.9190 C.ar  1 <1>   0.1900 
 12 C        3.7340    -2.2480     0.9790 C.ar  1 <1>  -0.1500 
 13 O       -0.7520    -5.0960     0.0820 O.2   1 <1>  -0.5700 
 14 O       -2.4560    -3.8130    -0.5230 O.3   1 <1>  -0.4300 
 15 F        3.6010    -4.4630    -1.8520 F     1 <1>  -0.1900 
 16 C        4.1310    -3.1290    -0.0100 C.ar  1 <1>   0.1900 
 17 C       -3.0060    -4.7650    -1.4080 C.3   1 <1>   0.0400 
 18 F        5.3920    -3.4810    -0.0720 F     1 <1>  -0.1900 
 19 H        0.4660     0.8860    -0.2270 H     1 <1>   0.0800 
 20 H        0.0430     1.0420    -1.9100 H     1 <1>   0.0800 
 21 H        1.4230     0.0840    -1.4480 H     1 <1>   0.0800 
 22 H       -1.6140    -2.3090     1.3520 H     1 <1>   0.0800 
 23 H       -0.2590    -3.2920     1.8130 H     1 <1>   0.0800 
 24 H        1.1850    -3.6680    -1.5720 H     1 <1>   0.1500 
 25 H        2.0680    -1.1940     1.8000 H     1 <1>   0.1500 
 26 H        4.4540    -1.8670     1.6820 H     1 <1>   0.1500 
 27 H       -3.9140    -4.3620    -1.8180 H     1 <1>   0.0800 
 28 H       -3.2100    -5.6710    -0.8650 H     1 <1>   0.0800 
 29 H       -2.2970    -4.9520    -2.1960 H     1 <1>   0.0800 
@<TRIPOS>BOND
  1   1   2  2   
  2   1   3  2   
  3   1   4  am  
  4   1   5  1   
  5   4   6  1   
  6   4   7  1   
  7   5  19  1   
  8   5  20  1   
  9   5  21  1   
 10   6   8  ar  
 11   6   9  ar  
 12   7  10  1   
 13   7  22  1   
 14   7  23  1   
 15   8  11  ar  
 16   8  24  1   
 17   9  12  ar  
 18   9  25  1   
 19  10  13  2   
 20  10  14  1   
 21  11  15  1   
 22  11  16  ar  
 23  12  16  ar  
 24  12  26  1   
 25  14  17  1   
 26  16  18  1   
 27  17  27  1   
 28  17  28  1   
 29  17  29  1   
@<TRIPOS>SUBSTRUCTURE
  1 ****   6 GROUP 4 **** **** 0

# MOE 2024.06 (io_trps.svl 2023.06)
