@<TRIPOS>MOLECULE
NONAME
37 38 1 0 0 
SMALL
USER_CHARGES


@<TRIPOS>ATOM
  1 O        0.3730    -0.5340    -0.8330 O.3   1 <1>  -0.5600 
  2 C        1.5870     0.0230    -1.2490 C.3   1 <1>   0.1200 
  3 C        0.4560    -1.8570    -0.3870 C.3   1 <1>   0.1200 
  4 C        2.6010     0.0240    -0.0900 C.3   1 <1>   0.3430 
  5 C        1.4070    -1.9540     0.8220 C.3   1 <1>   0.3430 
  6 N        2.7420    -1.3450     0.5130 N.4   1 <1>  -0.9590 
  7 C        3.6630    -1.3580     1.6750 C.3   1 <1>   0.4860 
  8 C        5.0470    -0.9750     1.1900 C.ar  1 <1>  -0.1430 
  9 C        5.6990    -1.7560     0.2380 C.ar  1 <1>   0.0830 
 10 C        5.6660     0.1580     1.6940 C.ar  1 <1>  -0.1500 
 11 O        5.0400    -2.8530    -0.2270 O.3   1 <1>  -0.3630 
 12 C        6.9690    -1.3940    -0.2030 C.ar  1 <1>  -0.1500 
 13 C        6.9260     0.5140     1.2510 C.ar  1 <1>  -0.1500 
 14 C        5.7150    -3.8450    -0.9780 C.3   1 <1>   0.0400 
 15 C        7.5830    -0.2550     0.3050 C.ar  1 <1>   0.0830 
 16 O        8.8140     0.1730    -0.0690 O.3   1 <1>  -0.3630 
 17 C        9.6180    -0.5610    -0.9660 C.3   1 <1>   0.0400 
 18 H        1.3920     1.0310    -1.5720 H     1 <1>   0.0800 
 19 H        1.9590    -0.5390    -2.0890 H     1 <1>   0.0800 
 20 H        0.7940    -2.4770    -1.1990 H     1 <1>   0.0800 
 21 H       -0.5350    -2.1700    -0.1050 H     1 <1>   0.0800 
 22 H        2.2600     0.7200     0.6590 H     1 <1>   0.0800 
 23 H        3.5570     0.3680    -0.4510 H     1 <1>   0.0800 
 24 H        1.5280    -2.9890     1.0980 H     1 <1>   0.0800 
 25 H        0.9530    -1.4380     1.6510 H     1 <1>   0.0800 
 26 H        3.2250    -1.9370    -0.1840 H     1 <1>   0.4500 
 27 H        3.7060    -2.3480     2.1020 H     1 <1>   0.0800 
 28 H        3.3260    -0.6690     2.4310 H     1 <1>   0.0800 
 29 H        5.1850     0.7750     2.4350 H     1 <1>   0.1500 
 30 H        7.4770    -1.9840    -0.9370 H     1 <1>   0.1500 
 31 H        7.4160     1.3910     1.6370 H     1 <1>   0.1500 
 32 H        6.0110    -3.4310    -1.9260 H     1 <1>   0.0800 
 33 H        5.0410    -4.6680    -1.1380 H     1 <1>   0.0800 
 34 H        6.5730    -4.1830    -0.4240 H     1 <1>   0.0800 
 35 H       10.5510    -0.0390    -1.0800 H     1 <1>   0.0800 
 36 H        9.1170    -0.6240    -1.9150 H     1 <1>   0.0800 
 37 H        9.7970    -1.5390    -0.5560 H     1 <1>   0.0800 
@<TRIPOS>BOND
  1   1   2  1   
  2   1   3  1   
  3   2   4  1   
  4   2  18  1   
  5   2  19  1   
  6   3   5  1   
  7   3  20  1   
  8   3  21  1   
  9   4   6  1   
 10   4  22  1   
 11   4  23  1   
 12   5   6  1   
 13   5  24  1   
 14   5  25  1   
 15   6   7  1   
 16   6  26  1   
 17   7   8  1   
 18   7  27  1   
 19   7  28  1   
 20   8   9  ar  
 21   8  10  ar  
 22   9  11  1   
 23   9  12  ar  
 24  10  13  ar  
 25  10  29  1   
 26  11  14  1   
 27  12  15  ar  
 28  12  30  1   
 29  13  15  ar  
 30  13  31  1   
 31  14  32  1   
 32  14  33  1   
 33  14  34  1   
 34  15  16  1   
 35  16  17  1   
 36  17  35  1   
 37  17  36  1   
 38  17  37  1   
@<TRIPOS>SUBSTRUCTURE
  1 ****   8 GROUP 4 **** **** 0

# MOE 2024.06 (io_trps.svl 2023.06)
