@<TRIPOS>MOLECULE
NONAME
39 40 1 0 0 
SMALL
USER_CHARGES


@<TRIPOS>ATOM
  1 O        0.2250    -2.0170     2.2830 O.2   1 <1>  -0.5700 
  2 C       -0.0910    -1.8610     1.1240 C.2   1 <1>   0.6900 
  3 N       -1.3890    -2.0740     0.7970 N.am  1 <1>  -0.4900 
  4 N        0.8050    -1.4930     0.1850 N.am  1 <1>  -0.7300 
  5 C       -2.0520    -1.9820    -0.4010 C.2   1 <1>   0.5440 
  6 C        2.2330    -1.2120     0.3860 C.3   1 <1>   0.2200 
  7 O       -1.4660    -1.5790    -1.3860 O.2   1 <1>  -0.5700 
  8 C       -3.4540    -2.3510    -0.4710 C.ar  1 <1>   0.0860 
  9 C        2.4810     0.2580     0.0190 C.3   1 <1>  -0.1600 
 10 C        3.0250    -2.2270    -0.4440 C.3   1 <1>  -0.1600 
 11 C       -4.3120    -1.7170    -1.3720 C.ar  1 <1>  -0.1500 
 12 C       -4.0040    -3.3410     0.3470 C.ar  1 <1>  -0.1500 
 13 C        3.8550     0.7570     0.4910 C.3   1 <1>  -0.1600 
 14 C        4.5510    -2.0350    -0.4300 C.3   1 <1>  -0.1600 
 15 C       -5.6540    -2.0410    -1.4450 C.ar  1 <1>  -0.1500 
 16 C       -5.3470    -3.6690     0.2800 C.ar  1 <1>  -0.1500 
 17 C        5.0070     0.5140    -0.4960 C.3   1 <1>  -0.1600 
 18 C        4.9960    -0.8210    -1.2580 C.3   1 <1>  -0.1600 
 19 C       -6.1750    -3.0170    -0.6160 C.ar  1 <1>  -0.1500 
 20 H       -1.9350    -2.3150     1.6150 H     1 <1>   0.3700 
 21 H        0.4340    -1.3610    -0.7630 H     1 <1>   0.3700 
 22 H        2.4710    -1.3540     1.4280 H     1 <1>   0.0800 
 23 H        1.7350     0.8480     0.5230 H     1 <1>   0.0800 
 24 H        2.3640     0.4120    -1.0400 H     1 <1>   0.0800 
 25 H        2.6770    -2.2070    -1.4620 H     1 <1>   0.0800 
 26 H        2.8110    -3.2050    -0.0480 H     1 <1>   0.0800 
 27 H       -3.9140    -0.9580    -2.0250 H     1 <1>   0.1500 
 28 H       -3.3800    -3.8750     1.0420 H     1 <1>   0.1500 
 29 H        4.0920     0.3020     1.4370 H     1 <1>   0.0800 
 30 H        3.7930     1.8170     0.6680 H     1 <1>   0.0800 
 31 H        4.9910    -2.9130    -0.8700 H     1 <1>   0.0800 
 32 H        4.9190    -1.9660     0.5800 H     1 <1>   0.0800 
 33 H       -6.2940    -1.5350    -2.1480 H     1 <1>   0.1500 
 34 H       -5.7510    -4.4340     0.9210 H     1 <1>   0.1500 
 35 H        5.9310     0.5910     0.0520 H     1 <1>   0.0800 
 36 H        5.0110     1.3080    -1.2240 H     1 <1>   0.0800 
 37 H        4.3670    -0.7300    -2.1270 H     1 <1>   0.0800 
 38 H        5.9950    -0.9990    -1.6190 H     1 <1>   0.0800 
 39 H       -7.2200    -3.2710    -0.6700 H     1 <1>   0.1500 
@<TRIPOS>BOND
  1   1   2  2   
  2   2   3  am  
  3   2   4  am  
  4   3   5  am  
  5   3  20  1   
  6   4   6  1   
  7   4  21  1   
  8   5   7  2   
  9   5   8  1   
 10   6   9  1   
 11   6  10  1   
 12   6  22  1   
 13   8  11  ar  
 14   8  12  ar  
 15   9  13  1   
 16   9  23  1   
 17   9  24  1   
 18  10  14  1   
 19  10  25  1   
 20  10  26  1   
 21  11  15  ar  
 22  11  27  1   
 23  12  16  ar  
 24  12  28  1   
 25  13  17  1   
 26  13  29  1   
 27  13  30  1   
 28  14  18  1   
 29  14  31  1   
 30  14  32  1   
 31  15  19  ar  
 32  15  33  1   
 33  16  19  ar  
 34  16  34  1   
 35  17  18  1   
 36  17  35  1   
 37  17  36  1   
 38  18  37  1   
 39  18  38  1   
 40  19  39  1   
@<TRIPOS>SUBSTRUCTURE
  1 ****   4 GROUP 4 **** **** 0

# MOE 2024.06 (io_trps.svl 2023.06)
