@<TRIPOS>MOLECULE
NONAME
37 37 1 0 0 
SMALL
USER_CHARGES


@<TRIPOS>ATOM
  1 F       -0.3080     2.2530     2.2360 F     1 <1>  -0.1900 
  2 C        0.5080     2.5120     1.2490 C.ar  1 <1>   0.1900 
  3 C        0.0100     2.9400     0.0130 C.ar  1 <1>   0.0860 
  4 C        1.8550     2.3330     1.5060 C.ar  1 <1>  -0.1500 
  5 C       -1.4010     3.1420    -0.2820 C.2   1 <1>   0.5440 
  6 C        0.9740     3.1770    -0.9730 C.ar  1 <1>  -0.1500 
  7 C        2.7730     2.5820     0.5040 C.ar  1 <1>  -0.1500 
  8 O       -1.7710     3.1640    -1.4390 O.2   1 <1>  -0.5700 
  9 N       -2.3200     3.3310     0.7160 N.am  1 <1>  -0.7300 
 10 C        2.3270     3.0030    -0.7370 C.ar  1 <1>  -0.1500 
 11 C       -3.7980     3.5170     0.6500 C.3   1 <1>   0.2200 
 12 C       -4.4680     2.1150     0.5160 C.3   1 <1>  -0.0800 
 13 C       -4.2100     4.6430    -0.3470 C.3   1 <1>  -0.0800 
 14 C       -4.6890     1.6280    -0.9260 C.3   1 <1>  -0.2400 
 15 C       -5.7790     2.0030     1.3120 C.3   1 <1>  -0.2400 
 16 C       -3.4190     5.9430    -0.1010 C.3   1 <1>  -0.2400 
 17 C       -5.7060     4.9960    -0.2750 C.3   1 <1>  -0.2400 
 18 H        2.1780     2.0020     2.4770 H     1 <1>   0.1500 
 19 H        0.6510     3.5040    -1.9470 H     1 <1>   0.1500 
 20 H        3.8270     2.4470     0.6840 H     1 <1>   0.1500 
 21 H       -1.9760     3.2180     1.6710 H     1 <1>   0.3700 
 22 H        3.0370     3.1970    -1.5240 H     1 <1>   0.1500 
 23 H       -4.0740     3.8860     1.6230 H     1 <1>   0.0800 
 24 H       -3.7980     1.4090     0.9770 H     1 <1>   0.0800 
 25 H       -4.0040     4.3140    -1.3510 H     1 <1>   0.0800 
 26 H       -5.3840     2.2540    -1.4530 H     1 <1>   0.0800 
 27 H       -5.0720     0.6240    -0.9240 H     1 <1>   0.0800 
 28 H       -3.7600     1.6230    -1.4670 H     1 <1>   0.0800 
 29 H       -6.5560     2.6120     0.8930 H     1 <1>   0.0800 
 30 H       -5.6240     2.2980     2.3350 H     1 <1>   0.0800 
 31 H       -6.1210     0.9820     1.3110 H     1 <1>   0.0800 
 32 H       -3.5640     6.2900     0.9060 H     1 <1>   0.0800 
 33 H       -3.7370     6.7120    -0.7820 H     1 <1>   0.0800 
 34 H       -2.3680     5.7860    -0.2630 H     1 <1>   0.0800 
 35 H       -5.9940     5.2290     0.7340 H     1 <1>   0.0800 
 36 H       -6.3090     4.1850    -0.6350 H     1 <1>   0.0800 
 37 H       -5.9200     5.8470    -0.8970 H     1 <1>   0.0800 
@<TRIPOS>BOND
  1   1   2  1   
  2   2   3  ar  
  3   2   4  ar  
  4   3   5  1   
  5   3   6  ar  
  6   4   7  ar  
  7   4  18  1   
  8   5   8  2   
  9   5   9  am  
 10   6  10  ar  
 11   6  19  1   
 12   7  10  ar  
 13   7  20  1   
 14   9  11  1   
 15   9  21  1   
 16  10  22  1   
 17  11  12  1   
 18  11  13  1   
 19  11  23  1   
 20  12  14  1   
 21  12  15  1   
 22  12  24  1   
 23  13  16  1   
 24  13  17  1   
 25  13  25  1   
 26  14  26  1   
 27  14  27  1   
 28  14  28  1   
 29  15  29  1   
 30  15  30  1   
 31  15  31  1   
 32  16  32  1   
 33  16  33  1   
 34  16  34  1   
 35  17  35  1   
 36  17  36  1   
 37  17  37  1   
@<TRIPOS>SUBSTRUCTURE
  1 ****   5 GROUP 4 **** **** 0

# MOE 2024.06 (io_trps.svl 2023.06)
