@<TRIPOS>MOLECULE
NONAME
47 47 1 0 0 
SMALL
USER_CHARGES


@<TRIPOS>ATOM
  1 O       -0.4430    -0.0690     0.2790 O.2   1 <1>  -0.5700 
  2 C       -0.3250    -1.2600     0.0660 C.2   1 <1>   0.5440 
  3 N        0.9170    -1.8040    -0.1490 N.am  1 <1>  -0.7300 
  4 C       -1.5020    -2.1060     0.0170 C.ar  1 <1>   0.0860 
  5 C        2.2630    -1.1950    -0.1220 C.3   1 <1>   0.3000 
  6 C       -2.7330    -1.5990    -0.4040 C.ar  1 <1>  -0.1500 
  7 C       -1.4660    -3.4550     0.3830 C.ar  1 <1>  -0.1500 
  8 C        3.2310    -2.3750    -0.4220 C.3   1 <1>  -0.1600 
  9 C        2.4820    -0.5690     1.2570 C.3   1 <1>  -0.2400 
 10 C        2.3070    -0.1260    -1.2230 C.3   1 <1>  -0.2400 
 11 C       -3.8630    -2.3920    -0.4650 C.ar  1 <1>  -0.1500 
 12 C       -2.5940    -4.2500     0.3240 C.ar  1 <1>  -0.1500 
 13 C        4.7750    -2.3270    -0.2080 C.3   1 <1>   0.0000 
 14 C       -3.8120    -3.7310    -0.0950 C.ar  1 <1>   0.1170 
 15 C        5.3740    -3.5440    -0.9360 C.3   1 <1>  -0.2400 
 16 C        5.1620    -2.4680     1.2760 C.3   1 <1>  -0.2400 
 17 C        5.4450    -1.0740    -0.7860 C.3   1 <1>  -0.2400 
 18 N       -4.9360    -4.5550    -0.1490 N.am  1 <1>  -0.5470 
 19 C       -6.2000    -4.3770     0.3160 C.2   1 <1>   0.5690 
 20 O       -7.0340    -5.2210     0.1180 O.2   1 <1>  -0.5700 
 21 C       -6.5820    -3.1450     1.1040 C.3   1 <1>  -0.1790 
 22 H        0.9420    -2.7700    -0.4650 H     1 <1>   0.3700 
 23 H       -2.7930    -0.5620    -0.6890 H     1 <1>   0.1500 
 24 H       -0.5420    -3.8820     0.7300 H     1 <1>   0.1500 
 25 H        3.0670    -2.6310    -1.4540 H     1 <1>   0.0800 
 26 H        2.8880    -3.2180     0.1510 H     1 <1>   0.0800 
 27 H        2.4620    -1.3250     2.0200 H     1 <1>   0.0800 
 28 H        1.7250     0.1610     1.4740 H     1 <1>   0.0800 
 29 H        3.4230    -0.0570     1.2920 H     1 <1>   0.0800 
 30 H        2.1320    -0.5660    -2.1870 H     1 <1>   0.0800 
 31 H        3.2520     0.3760    -1.2440 H     1 <1>   0.0800 
 32 H        1.5620     0.6280    -1.0490 H     1 <1>   0.0800 
 33 H       -4.7890    -1.9700    -0.8090 H     1 <1>   0.1500 
 34 H       -2.5360    -5.2840     0.6150 H     1 <1>   0.1500 
 35 H        5.1790    -3.4900    -1.9930 H     1 <1>   0.0800 
 36 H        4.9510    -4.4580    -0.5600 H     1 <1>   0.0800 
 37 H        6.4400    -3.5870    -0.7990 H     1 <1>   0.0800 
 38 H        4.6800    -3.3220     1.7160 H     1 <1>   0.0800 
 39 H        4.8990    -1.5990     1.8440 H     1 <1>   0.0800 
 40 H        6.2250    -2.5990     1.3740 H     1 <1>   0.0800 
 41 H        5.1720    -0.9420    -1.8180 H     1 <1>   0.0800 
 42 H        6.5150    -1.1610    -0.7310 H     1 <1>   0.0800 
 43 H        5.1660    -0.1970    -0.2330 H     1 <1>   0.0800 
 44 H       -4.8080    -5.4800    -0.5600 H     1 <1>   0.3700 
 45 H       -5.7720    -2.8390     1.7390 H     1 <1>   0.0800 
 46 H       -7.4360    -3.3640     1.7170 H     1 <1>   0.0800 
 47 H       -6.8350    -2.3490     0.4300 H     1 <1>   0.0800 
@<TRIPOS>BOND
  1   1   2  2   
  2   2   3  am  
  3   2   4  1   
  4   3   5  1   
  5   3  22  1   
  6   4   6  ar  
  7   4   7  ar  
  8   5   8  1   
  9   5   9  1   
 10   5  10  1   
 11   6  11  ar  
 12   6  23  1   
 13   7  12  ar  
 14   7  24  1   
 15   8  13  1   
 16   8  25  1   
 17   8  26  1   
 18   9  27  1   
 19   9  28  1   
 20   9  29  1   
 21  10  30  1   
 22  10  31  1   
 23  10  32  1   
 24  11  14  ar  
 25  11  33  1   
 26  12  14  ar  
 27  12  34  1   
 28  13  15  1   
 29  13  16  1   
 30  13  17  1   
 31  14  18  1   
 32  15  35  1   
 33  15  36  1   
 34  15  37  1   
 35  16  38  1   
 36  16  39  1   
 37  16  40  1   
 38  17  41  1   
 39  17  42  1   
 40  17  43  1   
 41  18  19  am  
 42  18  44  1   
 43  19  20  2   
 44  19  21  1   
 45  21  45  1   
 46  21  46  1   
 47  21  47  1   
@<TRIPOS>SUBSTRUCTURE
  1 ****   4 GROUP 4 **** **** 0

# MOE 2024.06 (io_trps.svl 2023.06)
