@<TRIPOS>MOLECULE
NONAME
32 34 1 0 0 
SMALL
USER_CHARGES


@<TRIPOS>ATOM
  1 O        0.7890    -1.1250    -0.1200 O.2   1 <1>  -0.5700 
  2 C       -0.0670    -1.9900    -0.0980 C.2   1 <1>   0.7800 
  3 O       -1.1320    -1.9360     0.7030 O.3   1 <1>  -0.2330 
  4 N       -0.0720    -3.1350    -0.8370 N.am  1 <1>  -0.4770 
  5 C       -1.8300    -3.0720     0.4970 C.ar  1 <1>   0.0830 
  6 C       -1.1920    -3.8400    -0.4520 C.ar  1 <1>   0.1170 
  7 C        0.9710    -3.5580    -1.8090 C.3   1 <1>   0.2010 
  8 C       -3.0040    -3.4800     1.1020 C.ar  1 <1>  -0.1500 
  9 C       -1.7150    -5.0690    -0.8250 C.ar  1 <1>  -0.1500 
 10 C        1.7190    -4.8160    -1.3740 C.2   1 <1>   0.5690 
 11 C       -3.5330    -4.7070     0.7280 C.ar  1 <1>  -0.1500 
 12 C       -2.8920    -5.4940    -0.2260 C.ar  1 <1>  -0.1500 
 13 O        1.4540    -5.8510    -1.9430 O.2   1 <1>  -0.5700 
 14 N        2.6680    -4.7680    -0.3880 N.am  1 <1>  -0.6600 
 15 C        3.0760    -3.5710     0.3850 C.3   1 <1>   0.1400 
 16 C        3.4560    -5.9520     0.0120 C.3   1 <1>   0.1400 
 17 C        4.0890    -4.0860     1.4030 C.3   1 <1>  -0.1600 
 18 C        4.6250    -5.3840     0.8050 C.3   1 <1>  -0.1600 
 19 H        1.6780    -2.7610    -1.9480 H     1 <1>   0.0800 
 20 H        0.5000    -3.7500    -2.7560 H     1 <1>   0.0800 
 21 H       -3.4820    -2.8600     1.8390 H     1 <1>   0.1500 
 22 H       -1.2130    -5.6760    -1.5580 H     1 <1>   0.1500 
 23 H       -4.4460    -5.0560     1.1800 H     1 <1>   0.1500 
 24 H       -3.3150    -6.4450    -0.5020 H     1 <1>   0.1500 
 25 H        2.2330    -3.1240     0.8820 H     1 <1>   0.0800 
 26 H        3.5350    -2.8550    -0.2750 H     1 <1>   0.0800 
 27 H        3.7870    -6.5060    -0.8500 H     1 <1>   0.0800 
 28 H        2.8450    -6.5840     0.6350 H     1 <1>   0.0800 
 29 H        3.5770    -4.2950     2.3270 H     1 <1>   0.0800 
 30 H        4.8660    -3.3680     1.5910 H     1 <1>   0.0800 
 31 H        5.4340    -5.1690     0.1280 H     1 <1>   0.0800 
 32 H        4.9700    -6.0720     1.5570 H     1 <1>   0.0800 
@<TRIPOS>BOND
  1   1   2  2   
  2   2   3  1   
  3   2   4  am  
  4   3   5  1   
  5   4   6  1   
  6   4   7  1   
  7   5   6  ar  
  8   5   8  ar  
  9   6   9  ar  
 10   7  10  1   
 11   7  19  1   
 12   7  20  1   
 13   8  11  ar  
 14   8  21  1   
 15   9  12  ar  
 16   9  22  1   
 17  10  13  2   
 18  10  14  am  
 19  11  12  ar  
 20  11  23  1   
 21  12  24  1   
 22  14  15  1   
 23  14  16  1   
 24  15  17  1   
 25  15  25  1   
 26  15  26  1   
 27  16  18  1   
 28  16  27  1   
 29  16  28  1   
 30  17  18  1   
 31  17  29  1   
 32  17  30  1   
 33  18  31  1   
 34  18  32  1   
@<TRIPOS>SUBSTRUCTURE
  1 ****   4 GROUP 4 **** **** 0

# MOE 2024.06 (io_trps.svl 2023.06)
