@<TRIPOS>MOLECULE
NONAME
50 51 1 0 0 
SMALL
USER_CHARGES


@<TRIPOS>ATOM
  1 S        0.4000    -0.3400     0.0990 S.o2  1 <1>   1.4470 
  2 O       -0.4270    -0.4500     1.2790 O.2   1 <1>  -0.6500 
  3 O        0.6340    -1.4990    -0.7310 O.2   1 <1>  -0.6500 
  4 N       -0.3390     0.7420    -0.9480 N.am  1 <1>  -0.9140 
  5 C        1.9640     0.4820     0.5070 C.ar  1 <1>  -0.0090 
  6 C       -1.7510     0.5180    -1.1060 C.3   1 <1>   0.2760 
  7 C        3.1880    -0.1470     0.2990 C.ar  1 <1>  -0.1500 
  8 C        1.9740     1.7630     1.0450 C.ar  1 <1>  -0.1500 
  9 C       -2.0860     0.7530    -2.5740 C.3   1 <1>  -0.2400 
 10 C       -2.5020     1.5100    -0.2230 C.3   1 <1>  -0.2400 
 11 C        4.3900     0.4700     0.6080 C.ar  1 <1>  -0.1430 
 12 C        3.1620     2.3980     1.3600 C.ar  1 <1>  -0.1500 
 13 C        4.3690     1.7560     1.1350 C.ar  1 <1>   0.0830 
 14 C        5.7000    -0.2620     0.3580 C.3   1 <1>  -0.0970 
 15 O        5.5180     2.3880     1.4530 O.3   1 <1>  -0.3630 
 16 C        5.9470     3.4200     0.5740 C.3   1 <1>   0.1810 
 17 C        6.8400     2.8820    -0.5440 C.2   1 <1>   0.5690 
 18 O        6.4060     2.9500    -1.6720 O.2   1 <1>  -0.5700 
 19 N        8.0930     2.3710    -0.2840 N.am  1 <1>  -0.6600 
 20 C        8.6840     2.2120     1.0760 C.3   1 <1>   0.1400 
 21 C        8.9870     1.9140    -1.3850 C.3   1 <1>   0.1400 
 22 C       10.0000     2.9910     1.1580 C.3   1 <1>  -0.1600 
 23 C       10.3100     2.6860    -1.3270 C.3   1 <1>  -0.1600 
 24 C       10.9760     2.5690     0.0510 C.3   1 <1>  -0.1600 
 25 H        0.0790     0.4980    -1.8420 H     1 <1>   0.4200 
 26 H       -2.0170    -0.4950    -0.8400 H     1 <1>   0.0800 
 27 H        3.1950    -1.1410    -0.1160 H     1 <1>   0.1500 
 28 H        1.0370     2.2660     1.2200 H     1 <1>   0.1500 
 29 H       -1.8180     1.7520    -2.8700 H     1 <1>   0.0800 
 30 H       -3.1410     0.6240    -2.7300 H     1 <1>   0.0800 
 31 H       -1.5690     0.0420    -3.1940 H     1 <1>   0.0800 
 32 H       -2.2340     2.5200    -0.4760 H     1 <1>   0.0800 
 33 H       -2.2760     1.3360     0.8140 H     1 <1>   0.0800 
 34 H       -3.5610     1.3910    -0.3560 H     1 <1>   0.0800 
 35 H        3.1530     3.3860     1.7830 H     1 <1>   0.1500 
 36 H        5.5390    -1.3230     0.2970 H     1 <1>   0.0800 
 37 H        6.3940    -0.0710     1.1550 H     1 <1>   0.0800 
 38 H        6.1320     0.0750    -0.5680 H     1 <1>   0.0800 
 39 H        6.4930     4.1390     1.1520 H     1 <1>   0.0800 
 40 H        5.0850     3.9010     0.1490 H     1 <1>   0.0800 
 41 H        8.8710     1.1660     1.2510 H     1 <1>   0.0800 
 42 H        8.0140     2.5580     1.8410 H     1 <1>   0.0800 
 43 H        8.5230     2.0690    -2.3440 H     1 <1>   0.0800 
 44 H        9.1710     0.8600    -1.2710 H     1 <1>   0.0800 
 45 H       10.4520     2.8240     2.1200 H     1 <1>   0.0800 
 46 H        9.7880     4.0430     1.0740 H     1 <1>   0.0800 
 47 H       10.1140     3.7200    -1.5520 H     1 <1>   0.0800 
 48 H       10.9740     2.3070    -2.0840 H     1 <1>   0.0800 
 49 H       11.2820     1.5500     0.2140 H     1 <1>   0.0800 
 50 H       11.8560     3.1890     0.0830 H     1 <1>   0.0800 
@<TRIPOS>BOND
  1   1   2  2   
  2   1   3  2   
  3   1   4  am  
  4   1   5  1   
  5   4   6  1   
  6   4  25  1   
  7   5   7  ar  
  8   5   8  ar  
  9   6   9  1   
 10   6  10  1   
 11   6  26  1   
 12   7  11  ar  
 13   7  27  1   
 14   8  12  ar  
 15   8  28  1   
 16   9  29  1   
 17   9  30  1   
 18   9  31  1   
 19  10  32  1   
 20  10  33  1   
 21  10  34  1   
 22  11  13  ar  
 23  11  14  1   
 24  12  13  ar  
 25  12  35  1   
 26  13  15  1   
 27  14  36  1   
 28  14  37  1   
 29  14  38  1   
 30  15  16  1   
 31  16  17  1   
 32  16  39  1   
 33  16  40  1   
 34  17  18  2   
 35  17  19  am  
 36  19  20  1   
 37  19  21  1   
 38  20  22  1   
 39  20  41  1   
 40  20  42  1   
 41  21  23  1   
 42  21  43  1   
 43  21  44  1   
 44  22  24  1   
 45  22  45  1   
 46  22  46  1   
 47  23  24  1   
 48  23  47  1   
 49  23  48  1   
 50  24  49  1   
 51  24  50  1   
@<TRIPOS>SUBSTRUCTURE
  1 ****  11 GROUP 4 **** **** 0

# MOE 2024.06 (io_trps.svl 2023.06)
