@<TRIPOS>MOLECULE
NONAME
49 50 1 0 0 
SMALL
USER_CHARGES


@<TRIPOS>ATOM
  1 O       -0.2230    -3.8540     0.8330 O.3   1 <1>  -0.5600 
  2 C       -0.2940    -3.1040    -0.3490 C.3   1 <1>   0.2000 
  3 C       -0.7080    -5.1720     0.8110 C.3   1 <1>   0.2000 
  4 C       -1.7640    -2.9690    -0.8270 C.3   1 <1>   0.3430 
  5 C        0.6440    -3.7130    -1.4000 C.3   1 <1>  -0.2400 
  6 C       -1.9650    -5.3230    -0.0870 C.3   1 <1>   0.3430 
  7 C       -1.0130    -5.5280     2.2650 C.3   1 <1>  -0.2400 
  8 N       -2.6730    -4.0160    -0.2430 N.4   1 <1>  -0.9590 
  9 C       -4.0230    -4.0950    -0.8790 C.3   1 <1>   0.3430 
 10 C       -4.9130    -2.9280    -0.4010 C.3   1 <1>   0.2000 
 11 O       -4.6300    -2.6630     0.9400 O.3   1 <1>  -0.6800 
 12 C       -6.4100    -3.2260    -0.5450 C.3   1 <1>   0.1200 
 13 O       -7.1310    -2.1760     0.0630 O.3   1 <1>  -0.3630 
 14 C       -8.4880    -2.1690     0.0810 C.ar  1 <1>   0.0820 
 15 C       -9.2760    -3.1910    -0.4420 C.ar  1 <1>  -0.1500 
 16 C       -9.0960    -1.0670     0.6590 C.ar  1 <1>  -0.1500 
 17 C      -10.6570    -3.1050    -0.3840 C.ar  1 <1>  -0.1430 
 18 C      -10.4760    -0.9730     0.7210 C.ar  1 <1>  -0.1430 
 19 C      -11.2500    -1.9950     0.1960 C.ar  1 <1>  -0.1500 
 20 C      -11.5270    -4.2120    -0.9520 C.3   1 <1>  -0.0970 
 21 C      -11.1440     0.2350     1.3510 C.3   1 <1>  -0.0970 
 22 H        0.0760    -2.1200    -0.1100 H     1 <1>   0.0800 
 23 H        0.0780    -5.8140     0.4500 H     1 <1>   0.0800 
 24 H       -1.7790    -3.0220    -1.9030 H     1 <1>   0.0800 
 25 H       -2.1260    -1.9930    -0.5480 H     1 <1>   0.0800 
 26 H        0.3020    -4.6710    -1.7440 H     1 <1>   0.0800 
 27 H        1.6330    -3.8150    -0.9880 H     1 <1>   0.0800 
 28 H        0.7100    -3.0580    -2.2510 H     1 <1>   0.0800 
 29 H       -2.6210    -6.0590     0.3470 H     1 <1>   0.0800 
 30 H       -1.6590    -5.6860    -1.0540 H     1 <1>   0.0800 
 31 H       -1.7750    -4.8830     2.6650 H     1 <1>   0.0800 
 32 H       -0.1210    -5.4240     2.8590 H     1 <1>   0.0800 
 33 H       -1.3470    -6.5480     2.3420 H     1 <1>   0.0800 
 34 H       -2.8710    -3.6760     0.7200 H     1 <1>   0.4500 
 35 H       -4.4980    -5.0150    -0.5830 H     1 <1>   0.0800 
 36 H       -3.9440    -4.0930    -1.9530 H     1 <1>   0.0800 
 37 H       -4.6800    -2.0410    -0.9660 H     1 <1>   0.0800 
 38 H       -5.3550    -2.1000     1.3040 H     1 <1>   0.4000 
 39 H       -6.6660    -4.1450    -0.0470 H     1 <1>   0.0800 
 40 H       -6.6940    -3.2760    -1.5820 H     1 <1>   0.0800 
 41 H       -8.8370    -4.0570    -0.8960 H     1 <1>   0.1500 
 42 H       -8.4800    -0.2820     1.0580 H     1 <1>   0.1500 
 43 H      -12.3230    -1.9240     0.2400 H     1 <1>   0.1500 
 44 H      -10.9830    -5.1380    -1.0000 H     1 <1>   0.0800 
 45 H      -11.8520    -3.9470    -1.9420 H     1 <1>   0.0800 
 46 H      -12.3930    -4.3610    -0.3310 H     1 <1>   0.0800 
 47 H      -10.4360     0.8120     1.9190 H     1 <1>   0.0800 
 48 H      -11.9310    -0.0810     2.0110 H     1 <1>   0.0800 
 49 H      -11.5630     0.8610     0.5840 H     1 <1>   0.0800 
@<TRIPOS>BOND
  1   1   2  1   
  2   1   3  1   
  3   2   4  1   
  4   2   5  1   
  5   2  22  1   
  6   3   6  1   
  7   3   7  1   
  8   3  23  1   
  9   4   8  1   
 10   4  24  1   
 11   4  25  1   
 12   5  26  1   
 13   5  27  1   
 14   5  28  1   
 15   6   8  1   
 16   6  29  1   
 17   6  30  1   
 18   7  31  1   
 19   7  32  1   
 20   7  33  1   
 21   8   9  1   
 22   8  34  1   
 23   9  10  1   
 24   9  35  1   
 25   9  36  1   
 26  10  11  1   
 27  10  12  1   
 28  10  37  1   
 29  11  38  1   
 30  12  13  1   
 31  12  39  1   
 32  12  40  1   
 33  13  14  1   
 34  14  15  ar  
 35  14  16  ar  
 36  15  17  ar  
 37  15  41  1   
 38  16  18  ar  
 39  16  42  1   
 40  17  19  ar  
 41  17  20  1   
 42  18  19  ar  
 43  18  21  1   
 44  19  43  1   
 45  20  44  1   
 46  20  45  1   
 47  20  46  1   
 48  21  47  1   
 49  21  48  1   
 50  21  49  1   
@<TRIPOS>SUBSTRUCTURE
  1 ****  10 GROUP 4 **** **** 0

# MOE 2024.06 (io_trps.svl 2023.06)
