@<TRIPOS>MOLECULE
NONAME
35 36 1 0 0 
SMALL
USER_CHARGES


@<TRIPOS>ATOM
  1 S        0.2370     0.1570     1.5850 S.o2  1 <1>   1.4470 
  2 O        0.8370     0.7730     2.7450 O.2   1 <1>  -0.6500 
  3 O        0.2150    -1.2820     1.4550 O.2   1 <1>  -0.6500 
  4 N        1.1460     0.7560     0.3100 N.am  1 <1>  -0.9140 
  5 C       -1.4140     0.8430     1.2840 C.ar  1 <1>  -0.0090 
  6 C        2.3580    -0.0100     0.0790 C.3   1 <1>   0.1960 
  7 C       -2.0420     0.6710     0.0550 C.ar  1 <1>  -0.1500 
  8 C       -2.0950     1.5470     2.2750 C.ar  1 <1>  -0.1500 
  9 C        3.2530     0.7070    -0.9440 C.3   1 <1>  -0.0800 
 10 C       -3.3040     1.1860    -0.1810 C.ar  1 <1>   0.0830 
 11 C       -3.3570     2.0730     2.0490 C.ar  1 <1>  -0.1500 
 12 C        4.4930    -0.1460    -1.2450 C.3   1 <1>  -0.2400 
 13 C        3.6950     2.0990    -0.4610 C.3   1 <1>  -0.2400 
 14 O       -3.8810     0.9780    -1.3910 O.3   1 <1>  -0.3630 
 15 C       -3.9630     1.9010     0.8190 C.ar  1 <1>   0.0830 
 16 C       -5.2720     1.2240    -1.4880 C.3   1 <1>   0.1200 
 17 O       -5.1910     2.4370     0.6090 O.3   1 <1>  -0.3630 
 18 C       -5.6390     2.5090    -0.7320 C.3   1 <1>   0.1200 
 19 H        1.4470     1.6680     0.6440 H     1 <1>   0.4200 
 20 H        2.0950    -0.9880    -0.2930 H     1 <1>   0.0800 
 21 H        2.8960    -0.1360     1.0060 H     1 <1>   0.0800 
 22 H       -1.5450     0.1260    -0.7290 H     1 <1>   0.1500 
 23 H       -1.6300     1.6870     3.2380 H     1 <1>   0.1500 
 24 H        2.6950     0.8160    -1.8590 H     1 <1>   0.0800 
 25 H       -3.8720     2.6180     2.8200 H     1 <1>   0.1500 
 26 H        5.0870    -0.2820    -0.3580 H     1 <1>   0.0800 
 27 H        5.1000     0.3290    -1.9950 H     1 <1>   0.0800 
 28 H        4.2000    -1.1140    -1.6140 H     1 <1>   0.0800 
 29 H        4.2060     2.0300     0.4840 H     1 <1>   0.0800 
 30 H        2.8490     2.7540    -0.3520 H     1 <1>   0.0800 
 31 H        4.3630     2.5450    -1.1770 H     1 <1>   0.0800 
 32 H       -5.7910     0.3820    -1.0660 H     1 <1>   0.0800 
 33 H       -5.5220     1.3080    -2.5300 H     1 <1>   0.0800 
 34 H       -6.7040     2.6540    -0.7180 H     1 <1>   0.0800 
 35 H       -5.1730     3.3610    -1.1950 H     1 <1>   0.0800 
@<TRIPOS>BOND
  1   1   2  2   
  2   1   3  2   
  3   1   4  am  
  4   1   5  1   
  5   4   6  1   
  6   4  19  1   
  7   5   7  ar  
  8   5   8  ar  
  9   6   9  1   
 10   6  20  1   
 11   6  21  1   
 12   7  10  ar  
 13   7  22  1   
 14   8  11  ar  
 15   8  23  1   
 16   9  12  1   
 17   9  13  1   
 18   9  24  1   
 19  10  14  1   
 20  10  15  ar  
 21  11  15  ar  
 22  11  25  1   
 23  12  26  1   
 24  12  27  1   
 25  12  28  1   
 26  13  29  1   
 27  13  30  1   
 28  13  31  1   
 29  14  16  1   
 30  15  17  1   
 31  16  18  1   
 32  16  32  1   
 33  16  33  1   
 34  17  18  1   
 35  18  34  1   
 36  18  35  1   
@<TRIPOS>SUBSTRUCTURE
  1 ****   5 GROUP 4 **** **** 0

# MOE 2024.06 (io_trps.svl 2023.06)
