@<TRIPOS>MOLECULE
NONAME
57 59 1 0 0 
SMALL
USER_CHARGES


@<TRIPOS>ATOM
  1 O        3.4100     0.8340     0.8970 O.co2 1 <1>  -0.9000 
  2 C        3.6220    -0.1720     1.5810 C.2   1 <1>   0.9060 
  3 O        4.1540    -0.1000     2.6950 O.co2 1 <1>  -0.9000 
  4 C        3.2400    -1.5520     1.0780 C.3   1 <1>  -0.1860 
  5 C        4.4620    -2.4280     0.7200 C.3   1 <1>  -0.0190 
  6 C        2.2370    -1.5230    -0.0850 C.3   1 <1>  -0.0220 
  7 C        5.2930    -1.9150    -0.4790 C.2   1 <1>   0.5690 
  8 C        3.9680    -3.8790     0.5200 C.3   1 <1>  -0.0220 
  9 C        1.8980    -2.9330    -0.5700 C.2   1 <1>  -0.2760 
 10 O        5.1220    -2.4350    -1.5620 O.2   1 <1>  -0.5700 
 11 N        6.2560    -0.9400    -0.3450 N.am  1 <1>  -0.6600 
 12 C        2.6660    -3.9970    -0.2810 C.2   1 <1>  -0.2760 
 13 C        0.6250    -2.9260    -1.4070 C.3   1 <1>  -0.1020 
 14 C        6.9070    -0.3270    -1.5420 C.3   1 <1>   0.1400 
 15 C        6.6640    -0.2410     0.9190 C.3   1 <1>   0.1400 
 16 C        2.4040    -5.4430    -0.6850 C.3   1 <1>  -0.1020 
 17 C        8.4360    -0.3190    -1.3960 C.3   1 <1>   0.2090 
 18 C        8.1950    -0.1510     1.0610 C.3   1 <1>   0.2090 
 19 N        8.8640     0.4030    -0.1600 N.pl3 1 <1>  -0.8380 
 20 C       10.2410     0.6320    -0.0410 C.ar  1 <1>   0.1000 
 21 C       11.2070    -0.3810     0.1040 C.ar  1 <1>   0.0820 
 22 C       10.6690     1.9510    -0.0760 C.ar  1 <1>  -0.1500 
 23 O       10.8010    -1.6840     0.1420 O.3   1 <1>  -0.3620 
 24 C       12.5520    -0.0470     0.2130 C.ar  1 <1>  -0.1500 
 25 C       12.0100     2.2780     0.0260 C.ar  1 <1>  -0.1500 
 26 C       11.6160    -2.6890    -0.4100 C.3   1 <1>   0.1200 
 27 C       12.9530     1.2780     0.1710 C.ar  1 <1>  -0.1500 
 28 C       10.7610    -3.9410    -0.5800 C.3   1 <1>  -0.2400 
 29 H        2.7430    -2.0170     1.9070 H     1 <1>   0.0800 
 30 H        5.1120    -2.4570     1.5720 H     1 <1>   0.0800 
 31 H        2.6420    -0.9520    -0.9030 H     1 <1>   0.0800 
 32 H        1.3480    -1.0220     0.2560 H     1 <1>   0.0800 
 33 H        3.7990    -4.3170     1.4870 H     1 <1>   0.0800 
 34 H        4.7460    -4.4460     0.0410 H     1 <1>   0.0800 
 35 H       -0.2120    -2.6490    -0.7930 H     1 <1>   0.0800 
 36 H        0.4170    -3.8750    -1.8570 H     1 <1>   0.0800 
 37 H        0.7240    -2.2050    -2.1990 H     1 <1>   0.0800 
 38 H        6.5570     0.6850    -1.6460 H     1 <1>   0.0800 
 39 H        6.6430    -0.8600    -2.4370 H     1 <1>   0.0800 
 40 H        6.2900    -0.7500     1.7840 H     1 <1>   0.0800 
 41 H        6.2450     0.7510     0.9220 H     1 <1>   0.0800 
 42 H        3.1660    -5.7680    -1.3710 H     1 <1>   0.0800 
 43 H        1.4500    -5.5750    -1.1550 H     1 <1>   0.0800 
 44 H        2.4290    -6.0740     0.1840 H     1 <1>   0.0800 
 45 H        8.8730     0.1620    -2.2530 H     1 <1>   0.0800 
 46 H        8.7860    -1.3350    -1.3650 H     1 <1>   0.0800 
 47 H        8.5790    -1.1360     1.2630 H     1 <1>   0.0800 
 48 H        8.4300     0.4730     1.9050 H     1 <1>   0.0800 
 49 H        9.9280     2.7220    -0.1860 H     1 <1>   0.1500 
 50 H       13.3000    -0.8060     0.3400 H     1 <1>   0.1500 
 51 H       12.3140     3.3090    -0.0060 H     1 <1>   0.1500 
 52 H       12.4340    -2.8750     0.2630 H     1 <1>   0.0800 
 53 H       11.9850    -2.3460    -1.3620 H     1 <1>   0.0800 
 54 H       13.9960     1.5300     0.2550 H     1 <1>   0.1500 
 55 H       10.3840    -4.2620     0.3740 H     1 <1>   0.0800 
 56 H       11.3530    -4.7330    -1.0020 H     1 <1>   0.0800 
 57 H        9.9360    -3.7380    -1.2400 H     1 <1>   0.0800 
@<TRIPOS>BOND
  1   1   2  ar  
  2   2   3  ar  
  3   2   4  1   
  4   4   5  1   
  5   4   6  1   
  6   4  29  1   
  7   5   7  1   
  8   5   8  1   
  9   5  30  1   
 10   6   9  1   
 11   6  31  1   
 12   6  32  1   
 13   7  10  2   
 14   7  11  am  
 15   8  12  1   
 16   8  33  1   
 17   8  34  1   
 18   9  12  2   
 19   9  13  1   
 20  11  14  1   
 21  11  15  1   
 22  12  16  1   
 23  13  35  1   
 24  13  36  1   
 25  13  37  1   
 26  14  17  1   
 27  14  38  1   
 28  14  39  1   
 29  15  18  1   
 30  15  40  1   
 31  15  41  1   
 32  16  42  1   
 33  16  43  1   
 34  16  44  1   
 35  17  19  1   
 36  17  45  1   
 37  17  46  1   
 38  18  19  1   
 39  18  47  1   
 40  18  48  1   
 41  19  20  1   
 42  20  21  ar  
 43  20  22  ar  
 44  21  23  1   
 45  21  24  ar  
 46  22  25  ar  
 47  22  49  1   
 48  23  26  1   
 49  24  27  ar  
 50  24  50  1   
 51  25  27  ar  
 52  25  51  1   
 53  26  28  1   
 54  26  52  1   
 55  26  53  1   
 56  27  54  1   
 57  28  55  1   
 58  28  56  1   
 59  28  57  1   
@<TRIPOS>SUBSTRUCTURE
  1 ****  11 GROUP 4 **** **** 0

# MOE 2024.06 (io_trps.svl 2023.06)
