@<TRIPOS>MOLECULE
NONAME
40 41 1 0 0 
SMALL
USER_CHARGES


@<TRIPOS>ATOM
  1 F       -1.1650     0.4500     0.5070 F     1 <1>  -0.1900 
  2 C       -1.1670     1.6200     1.0990 C.ar  1 <1>   0.1900 
  3 C       -2.1720     2.5320     0.7770 C.ar  1 <1>   0.1170 
  4 C       -0.1680     1.8860     2.0150 C.ar  1 <1>  -0.1500 
  5 N       -3.1580     2.1870    -0.1670 N.am  1 <1>  -0.5470 
  6 C       -2.1260     3.7680     1.4190 C.ar  1 <1>  -0.1500 
  7 C       -0.1550     3.1200     2.6440 C.ar  1 <1>  -0.1500 
  8 C       -4.4330     2.6320    -0.3190 C.2   1 <1>   0.6900 
  9 C       -1.1330     4.0560     2.3420 C.ar  1 <1>  -0.1500 
 10 O       -4.9320     3.4450     0.4320 O.2   1 <1>  -0.5700 
 11 N       -5.1860     2.1010    -1.3140 N.am  1 <1>  -0.7300 
 12 C       -6.5250     2.6070    -1.7470 C.3   1 <1>   0.1400 
 13 C       -7.6700     2.0890    -0.8490 C.3   1 <1>   0.3430 
 14 N       -7.5460     2.5890     0.5510 N.4   1 <1>  -0.9590 
 15 C       -7.9900     1.5910     1.5600 C.3   1 <1>   0.3430 
 16 C       -8.1700     3.9280     0.7460 C.3   1 <1>   0.3430 
 17 C       -7.6330     2.0880     2.9620 C.3   1 <1>  -0.1600 
 18 C       -7.8250     4.4590     2.1380 C.3   1 <1>  -0.1600 
 19 C       -8.2280     3.4740     3.2430 C.3   1 <1>  -0.1600 
 20 H        0.5810     1.1460     2.2310 H     1 <1>   0.1500 
 21 H       -2.9150     1.3660    -0.7180 H     1 <1>   0.3700 
 22 H       -2.8640     4.5170     1.1980 H     1 <1>   0.1500 
 23 H        0.6110     3.3530     3.3640 H     1 <1>   0.1500 
 24 H       -1.1190     5.0160     2.8280 H     1 <1>   0.1500 
 25 H       -4.6950     1.5360    -2.0100 H     1 <1>   0.3700 
 26 H       -6.7030     2.2840    -2.7580 H     1 <1>   0.0800 
 27 H       -6.5200     3.6840    -1.7460 H     1 <1>   0.0800 
 28 H       -7.6370     1.0120    -0.8560 H     1 <1>   0.0800 
 29 H       -8.6190     2.3920    -1.2600 H     1 <1>   0.0800 
 30 H       -6.5270     2.7490     0.7100 H     1 <1>   0.4500 
 31 H       -7.5030     0.6460     1.3830 H     1 <1>   0.0800 
 32 H       -9.0560     1.4480     1.4880 H     1 <1>   0.0800 
 33 H       -9.2400     3.8520     0.6430 H     1 <1>   0.0800 
 34 H       -7.7990     4.6180     0.0040 H     1 <1>   0.0800 
 35 H       -6.5610     2.1240     3.0610 H     1 <1>   0.0800 
 36 H       -8.0000     1.3860     3.6900 H     1 <1>   0.0800 
 37 H       -8.3280     5.3970     2.2930 H     1 <1>   0.0800 
 38 H       -6.7660     4.6510     2.1890 H     1 <1>   0.0800 
 39 H       -7.8790     3.8340     4.1970 H     1 <1>   0.0800 
 40 H       -9.3020     3.4030     3.2900 H     1 <1>   0.0800 
@<TRIPOS>BOND
  1   1   2  1   
  2   2   3  ar  
  3   2   4  ar  
  4   3   5  1   
  5   3   6  ar  
  6   4   7  ar  
  7   4  20  1   
  8   5   8  am  
  9   5  21  1   
 10   6   9  ar  
 11   6  22  1   
 12   7   9  ar  
 13   7  23  1   
 14   8  10  2   
 15   8  11  am  
 16   9  24  1   
 17  11  12  1   
 18  11  25  1   
 19  12  13  1   
 20  12  26  1   
 21  12  27  1   
 22  13  14  1   
 23  13  28  1   
 24  13  29  1   
 25  14  15  1   
 26  14  16  1   
 27  14  30  1   
 28  15  17  1   
 29  15  31  1   
 30  15  32  1   
 31  16  18  1   
 32  16  33  1   
 33  16  34  1   
 34  17  19  1   
 35  17  35  1   
 36  17  36  1   
 37  18  19  1   
 38  18  37  1   
 39  18  38  1   
 40  19  39  1   
 41  19  40  1   
@<TRIPOS>SUBSTRUCTURE
  1 ****  10 GROUP 4 **** **** 0

# MOE 2024.06 (io_trps.svl 2023.06)
