@<TRIPOS>MOLECULE
NONAME
34 35 1 0 0 
SMALL
USER_CHARGES


@<TRIPOS>ATOM
  1 O       -1.1040    -1.7540    -2.1940 O.2   1 <1>  -0.5700 
  2 C       -0.6550    -1.9520    -1.0780 C.2   1 <1>   0.6900 
  3 N        0.5200    -2.6580    -0.9540 N.am  1 <1>  -0.4770 
  4 N       -1.3430    -1.5020     0.0270 N.am  1 <1>  -0.6600 
  5 C        1.6640    -2.3520    -0.2180 C.ar  1 <1>   0.1170 
  6 C        0.8240    -3.7830    -1.8690 C.3   1 <1>   0.1400 
  7 C       -1.2860    -2.1890     1.3470 C.3   1 <1>   0.1400 
  8 C       -2.2820    -0.3570    -0.0910 C.3   1 <1>   0.1400 
  9 C        2.6520    -3.2910    -0.4160 C.ar  1 <1>  -0.1440 
 10 C        1.9030    -1.2640     0.6100 C.ar  1 <1>  -0.1500 
 11 C        2.1770    -4.3390    -1.3930 C.3   1 <1>  -0.0160 
 12 C       -1.9460    -3.5640     1.2570 C.3   1 <1>  -0.2400 
 13 C       -3.7250    -0.8490    -0.1650 C.3   1 <1>  -0.2400 
 14 C        3.8750    -3.1930     0.2200 C.ar  1 <1>  -0.1500 
 15 C        3.1250    -1.1530     1.2540 C.ar  1 <1>  -0.1500 
 16 C        4.1070    -2.1170     1.0630 C.ar  1 <1>  -0.1500 
 17 H        0.8990    -3.4060    -2.8740 H     1 <1>   0.0800 
 18 H        0.0480    -4.5260    -1.8160 H     1 <1>   0.0800 
 19 H       -1.7900    -1.5940     2.0880 H     1 <1>   0.0800 
 20 H       -0.2640    -2.3060     1.6600 H     1 <1>   0.0800 
 21 H       -2.0520     0.2030    -0.9830 H     1 <1>   0.0800 
 22 H       -2.1550     0.3020     0.7510 H     1 <1>   0.0800 
 23 H        1.1440    -0.5160     0.7420 H     1 <1>   0.1500 
 24 H        2.8590    -4.4530    -2.2170 H     1 <1>   0.0800 
 25 H        2.0440    -5.2830    -0.8960 H     1 <1>   0.0800 
 26 H       -2.9650    -3.4760     0.9280 H     1 <1>   0.0800 
 27 H       -1.9370    -4.0320     2.2240 H     1 <1>   0.0800 
 28 H       -1.4060    -4.1930     0.5720 H     1 <1>   0.0800 
 29 H       -3.8320    -1.5440    -0.9790 H     1 <1>   0.0800 
 30 H       -4.3810    -0.0160    -0.3390 H     1 <1>   0.0800 
 31 H       -4.0140    -1.3220     0.7550 H     1 <1>   0.0800 
 32 H        4.6370    -3.9360     0.0620 H     1 <1>   0.1500 
 33 H        3.3160    -0.3160     1.9020 H     1 <1>   0.1500 
 34 H        5.0530    -2.0250     1.5680 H     1 <1>   0.1500 
@<TRIPOS>BOND
  1   1   2  2   
  2   2   3  am  
  3   2   4  am  
  4   3   5  1   
  5   3   6  1   
  6   4   7  1   
  7   4   8  1   
  8   5   9  ar  
  9   5  10  ar  
 10   6  11  1   
 11   6  17  1   
 12   6  18  1   
 13   7  12  1   
 14   7  19  1   
 15   7  20  1   
 16   8  13  1   
 17   8  21  1   
 18   8  22  1   
 19   9  11  1   
 20   9  14  ar  
 21  10  15  ar  
 22  10  23  1   
 23  11  24  1   
 24  11  25  1   
 25  12  26  1   
 26  12  27  1   
 27  12  28  1   
 28  13  29  1   
 29  13  30  1   
 30  13  31  1   
 31  14  16  ar  
 32  14  32  1   
 33  15  16  ar  
 34  15  33  1   
 35  16  34  1   
@<TRIPOS>SUBSTRUCTURE
  1 ****   3 GROUP 4 **** **** 0

# MOE 2024.06 (io_trps.svl 2023.06)
