@<TRIPOS>MOLECULE
NONAME
34 37 1 0 0 
SMALL
USER_CHARGES


@<TRIPOS>ATOM
  1 O       -0.0970     0.4730    -0.2270 O.2   1 <1>  -0.5700 
  2 C        0.9340    -0.1650    -0.1970 C.2   1 <1>   0.5690 
  3 N        2.0780     0.5470    -0.1650 N.am  1 <1>  -0.5060 
  4 C        0.8450    -1.7210    -0.2140 C.3   1 <1>   0.0610 
  5 C        3.4080     0.1890    -0.1580 C.2   1 <1>   0.8140 
  6 C        1.8140    -2.3720    -1.2410 C.3   1 <1>  -0.1600 
  7 C        1.1320    -2.3070     1.1920 C.3   1 <1>  -0.1600 
  8 C       -0.5930    -2.1720    -0.6080 C.3   1 <1>  -0.1600 
  9 N        4.2020     0.5680    -1.0880 N.2   1 <1>  -0.6190 
 10 N        3.9860    -0.4920     0.7670 N.2   1 <1>  -0.6190 
 11 C        1.6860    -3.9060    -1.2400 C.3   1 <1>  -0.0800 
 12 C        1.0100    -3.8440     1.1930 C.3   1 <1>  -0.0800 
 13 C       -0.7400    -3.7040    -0.6120 C.3   1 <1>  -0.0800 
 14 N        5.3520     0.0850    -0.7560 N.2   1 <1>  -0.2500 
 15 N        5.2210    -0.5590     0.3690 N.2   1 <1>  -0.2500 
 16 C        2.0040    -4.4300     0.1730 C.3   1 <1>  -0.1600 
 17 C        0.2510    -4.3020    -1.6240 C.3   1 <1>  -0.1600 
 18 C       -0.4210    -4.2420     0.7950 C.3   1 <1>  -0.1600 
 19 H        1.9830     1.5350    -0.3350 H     1 <1>   0.3700 
 20 H        2.8350    -2.1370    -1.0090 H     1 <1>   0.0800 
 21 H        1.6140    -1.9870    -2.2250 H     1 <1>   0.0800 
 22 H        2.1220    -2.0420     1.5110 H     1 <1>   0.0800 
 23 H        0.4450    -1.8870     1.9050 H     1 <1>   0.0800 
 24 H       -0.8340    -1.7860    -1.5830 H     1 <1>   0.0800 
 25 H       -1.3050    -1.7570     0.0850 H     1 <1>   0.0800 
 26 H        2.3840    -4.3240    -1.9460 H     1 <1>   0.0800 
 27 H        1.2350    -4.2210     2.1760 H     1 <1>   0.0800 
 28 H       -1.7460    -3.9730    -0.8850 H     1 <1>   0.0800 
 29 H        3.0080    -4.1490     0.4450 H     1 <1>   0.0800 
 30 H        1.9500    -5.5040     0.1850 H     1 <1>   0.0800 
 31 H        0.1600    -5.3730    -1.6370 H     1 <1>   0.0800 
 32 H        0.0270    -3.9400    -2.6120 H     1 <1>   0.0800 
 33 H       -1.1220    -3.8400     1.5060 H     1 <1>   0.0800 
 34 H       -0.5190    -5.3130     0.8070 H     1 <1>   0.0800 
@<TRIPOS>BOND
  1   1   2  2   
  2   2   3  am  
  3   2   4  1   
  4   3   5  1   
  5   3  19  1   
  6   4   6  1   
  7   4   7  1   
  8   4   8  1   
  9   5   9  1   
 10   5  10  2   
 11   6  11  1   
 12   6  20  1   
 13   6  21  1   
 14   7  12  1   
 15   7  22  1   
 16   7  23  1   
 17   8  13  1   
 18   8  24  1   
 19   8  25  1   
 20   9  14  1   
 21  10  15  1   
 22  11  16  1   
 23  11  17  1   
 24  11  26  1   
 25  12  16  1   
 26  12  18  1   
 27  12  27  1   
 28  13  17  1   
 29  13  18  1   
 30  13  28  1   
 31  14  15  2   
 32  16  29  1   
 33  16  30  1   
 34  17  31  1   
 35  17  32  1   
 36  18  33  1   
 37  18  34  1   
@<TRIPOS>SUBSTRUCTURE
  1 ****   4 GROUP 4 **** **** 0

# MOE 2024.06 (io_trps.svl 2023.06)
