@<TRIPOS>MOLECULE
NONAME
46 48 1 0 0 
SMALL
USER_CHARGES


@<TRIPOS>ATOM
  1 CL       0.2000     0.5290    -1.3420 Cl    1 <1>  -0.1770 
  2 C        1.7950     1.1670    -1.0090 C.ar  1 <1>   0.1770 
  3 C        2.8100     0.3250    -0.5740 C.ar  1 <1>  -0.1440 
  4 C        2.0080     2.5200    -1.1910 C.ar  1 <1>  -0.1500 
  5 C        4.0620     0.8670    -0.3200 C.ar  1 <1>  -0.1500 
  6 C        2.5590    -1.1640    -0.3790 C.3   1 <1>  -0.0960 
  7 C        3.2590     3.0510    -0.9350 C.ar  1 <1>  -0.1500 
  8 C        4.2900     2.2320    -0.4990 C.ar  1 <1>   0.0830 
  9 O        5.4850     2.8330    -0.2700 O.3   1 <1>  -0.3630 
 10 C        6.5910     2.1130     0.2300 C.3   1 <1>   0.1200 
 11 C        7.7670     3.0850     0.3940 C.3   1 <1>   0.2000 
 12 O        7.9580     3.7730    -0.8050 O.3   1 <1>  -0.6800 
 13 C        9.0830     2.3740     0.7770 C.3   1 <1>   0.3430 
 14 N       10.2620     3.2060     0.3890 N.4   1 <1>  -0.9590 
 15 C       11.4930     2.4090     0.1380 C.3   1 <1>   0.4860 
 16 C       10.5290     4.3450     1.3120 C.3   1 <1>   0.3430 
 17 C       12.6420     3.3070    -0.2950 C.ar  1 <1>  -0.1430 
 18 C       11.4590     5.3520     0.6350 C.3   1 <1>  -0.0170 
 19 C       12.6360     4.6780    -0.0540 C.ar  1 <1>  -0.1430 
 20 C       13.7280     2.7320    -0.9400 C.ar  1 <1>  -0.1500 
 21 C       13.7120     5.4530    -0.4580 C.ar  1 <1>  -0.1500 
 22 C       14.7990     3.5110    -1.3400 C.ar  1 <1>  -0.1500 
 23 C       14.7910     4.8720    -1.0980 C.ar  1 <1>  -0.1500 
 24 H        1.2010     3.1460    -1.5290 H     1 <1>   0.1500 
 25 H        4.8430     0.2140     0.0150 H     1 <1>   0.1500 
 26 H        2.2490    -1.6080    -1.3080 H     1 <1>   0.0800 
 27 H        1.7820    -1.3120     0.3500 H     1 <1>   0.0800 
 28 H        3.4450    -1.6680    -0.0390 H     1 <1>   0.0800 
 29 H        3.4380     4.1020    -1.0720 H     1 <1>   0.1500 
 30 H        6.8350     1.3340    -0.4730 H     1 <1>   0.0800 
 31 H        6.3150     1.6820     1.1770 H     1 <1>   0.0800 
 32 H        7.5140     3.8090     1.1500 H     1 <1>   0.0800 
 33 H        7.0750     4.0240    -1.1660 H     1 <1>   0.4000 
 34 H        9.1200     1.4380     0.2430 H     1 <1>   0.0800 
 35 H        9.0980     2.1540     1.8320 H     1 <1>   0.0800 
 36 H        9.9830     3.6300    -0.5170 H     1 <1>   0.4500 
 37 H       11.3050     1.6810    -0.6340 H     1 <1>   0.0800 
 38 H       11.7810     1.8870     1.0360 H     1 <1>   0.0800 
 39 H       10.9940     3.9790     2.2130 H     1 <1>   0.0800 
 40 H        9.6080     4.8390     1.5760 H     1 <1>   0.0800 
 41 H       11.8180     6.0470     1.3740 H     1 <1>   0.0800 
 42 H       10.9010     5.9130    -0.0940 H     1 <1>   0.0800 
 43 H       13.7580     1.6740    -1.1380 H     1 <1>   0.1500 
 44 H       13.7200     6.5150    -0.2800 H     1 <1>   0.1500 
 45 H       15.6400     3.0610    -1.8390 H     1 <1>   0.1500 
 46 H       15.6250     5.4780    -1.4090 H     1 <1>   0.1500 
@<TRIPOS>BOND
  1   1   2  1   
  2   2   3  ar  
  3   2   4  ar  
  4   3   5  ar  
  5   3   6  1   
  6   4   7  ar  
  7   4  24  1   
  8   5   8  ar  
  9   5  25  1   
 10   6  26  1   
 11   6  27  1   
 12   6  28  1   
 13   7   8  ar  
 14   7  29  1   
 15   8   9  1   
 16   9  10  1   
 17  10  11  1   
 18  10  30  1   
 19  10  31  1   
 20  11  12  1   
 21  11  13  1   
 22  11  32  1   
 23  12  33  1   
 24  13  14  1   
 25  13  34  1   
 26  13  35  1   
 27  14  15  1   
 28  14  16  1   
 29  14  36  1   
 30  15  17  1   
 31  15  37  1   
 32  15  38  1   
 33  16  18  1   
 34  16  39  1   
 35  16  40  1   
 36  17  19  ar  
 37  17  20  ar  
 38  18  19  1   
 39  18  41  1   
 40  18  42  1   
 41  19  21  ar  
 42  20  22  ar  
 43  20  43  1   
 44  21  23  ar  
 45  21  44  1   
 46  22  23  ar  
 47  22  45  1   
 48  23  46  1   
@<TRIPOS>SUBSTRUCTURE
  1 ****  11 GROUP 4 **** **** 0

# MOE 2024.06 (io_trps.svl 2023.06)
