@<TRIPOS>MOLECULE
NONAME
46 48 1 0 0 
SMALL
USER_CHARGES


@<TRIPOS>ATOM
  1 F       -0.1090    -0.6840    -0.4990 F     1 <1>  -0.1900 
  2 C        1.0950    -1.1530    -0.2970 C.ar  1 <1>   0.1900 
  3 C        1.7140    -0.9040     0.9130 C.ar  1 <1>  -0.1500 
  4 C        1.7040    -1.8810    -1.3020 C.ar  1 <1>  -0.1500 
  5 C        2.9880    -1.4050     1.1180 C.ar  1 <1>  -0.1500 
  6 C        2.9780    -2.3750    -1.0820 C.ar  1 <1>  -0.1500 
  7 C        3.6300    -2.1420     0.1280 C.ar  1 <1>   0.1000 
  8 N        4.9090    -2.6300     0.3670 N.pl3 1 <1>  -0.8380 
  9 C        6.0150    -1.9960    -0.4080 C.3   1 <1>   0.2090 
 10 C        5.0350    -4.1080     0.5250 C.3   1 <1>   0.2090 
 11 C        7.3900    -2.3930     0.1700 C.3   1 <1>   0.3430 
 12 C        6.4190    -4.4800     1.0990 C.3   1 <1>   0.3430 
 13 N        7.5630    -3.8900     0.3070 N.4   1 <1>  -0.9590 
 14 C        8.8700    -4.2750     0.9210 C.3   1 <1>   0.3430 
 15 C       10.0680    -3.9150     0.0250 C.3   1 <1>  -0.0800 
 16 C       11.1040    -5.0540     0.0680 C.3   1 <1>  -0.1600 
 17 C       10.7310    -2.5910     0.4600 C.3   1 <1>  -0.1600 
 18 C       12.3240    -4.7350    -0.8060 C.3   1 <1>  -0.1600 
 19 C       11.9490    -2.2640    -0.4150 C.3   1 <1>  -0.1600 
 20 C       12.9690    -3.4070    -0.3930 C.3   1 <1>  -0.1600 
 21 H        1.2070    -0.3340     1.6700 H     1 <1>   0.1500 
 22 H        1.1870    -2.0520    -2.2290 H     1 <1>   0.1500 
 23 H        3.4940    -1.2280     2.0490 H     1 <1>   0.1500 
 24 H        3.4670    -2.9430    -1.8510 H     1 <1>   0.1500 
 25 H        5.9050    -0.9250    -0.3640 H     1 <1>   0.0800 
 26 H        5.9510    -2.2920    -1.4400 H     1 <1>   0.0800 
 27 H        4.8900    -4.5890    -0.4270 H     1 <1>   0.0800 
 28 H        4.2650    -4.4570     1.1930 H     1 <1>   0.0800 
 29 H        7.4920    -1.9300     1.1370 H     1 <1>   0.0800 
 30 H        8.1580    -1.9940    -0.4710 H     1 <1>   0.0800 
 31 H        6.5070    -5.5530     1.1270 H     1 <1>   0.0800 
 32 H        6.4620    -4.1190     2.1140 H     1 <1>   0.0800 
 33 H        7.5240    -4.2920    -0.6380 H     1 <1>   0.4500 
 34 H        8.8760    -5.3420     1.0760 H     1 <1>   0.0800 
 35 H        8.9850    -3.8060     1.8860 H     1 <1>   0.0800 
 36 H        9.7380    -3.8250    -0.9960 H     1 <1>   0.0800 
 37 H       10.6610    -5.9720    -0.2810 H     1 <1>   0.0800 
 38 H       11.4360    -5.2110     1.0810 H     1 <1>   0.0800 
 39 H       11.0560    -2.6690     1.4840 H     1 <1>   0.0800 
 40 H       10.0420    -1.7700     0.4000 H     1 <1>   0.0800 
 41 H       12.0270    -4.6800    -1.8400 H     1 <1>   0.0800 
 42 H       13.0490    -5.5270    -0.7170 H     1 <1>   0.0800 
 43 H       12.4190    -1.3620    -0.0590 H     1 <1>   0.0800 
 44 H       11.6320    -2.0890    -1.4290 H     1 <1>   0.0800 
 45 H       13.7820    -3.1780    -1.0620 H     1 <1>   0.0800 
 46 H       13.3800    -3.5020     0.5980 H     1 <1>   0.0800 
@<TRIPOS>BOND
  1   1   2  1   
  2   2   3  ar  
  3   2   4  ar  
  4   3   5  ar  
  5   3  21  1   
  6   4   6  ar  
  7   4  22  1   
  8   5   7  ar  
  9   5  23  1   
 10   6   7  ar  
 11   6  24  1   
 12   7   8  1   
 13   8   9  1   
 14   8  10  1   
 15   9  11  1   
 16   9  25  1   
 17   9  26  1   
 18  10  12  1   
 19  10  27  1   
 20  10  28  1   
 21  11  13  1   
 22  11  29  1   
 23  11  30  1   
 24  12  13  1   
 25  12  31  1   
 26  12  32  1   
 27  13  14  1   
 28  13  33  1   
 29  14  15  1   
 30  14  34  1   
 31  14  35  1   
 32  15  16  1   
 33  15  17  1   
 34  15  36  1   
 35  16  18  1   
 36  16  37  1   
 37  16  38  1   
 38  17  19  1   
 39  17  39  1   
 40  17  40  1   
 41  18  20  1   
 42  18  41  1   
 43  18  42  1   
 44  19  20  1   
 45  19  43  1   
 46  19  44  1   
 47  20  45  1   
 48  20  46  1   
@<TRIPOS>SUBSTRUCTURE
  1 ****  11 GROUP 4 **** **** 0

# MOE 2024.06 (io_trps.svl 2023.06)
