@<TRIPOS>MOLECULE
NONAME
41 42 1 0 0 
SMALL
USER_CHARGES


@<TRIPOS>ATOM
  1 CL      -1.5340    -0.0240    -3.0000 Cl    1 <1>  -0.1770 
  2 C       -2.8750    -0.6960    -2.1030 C.ar  1 <1>   0.1770 
  3 C       -4.1100    -0.8490    -2.7060 C.ar  1 <1>   0.1600 
  4 C       -2.6980    -1.0730    -0.7910 C.ar  1 <1>  -0.1500 
  5 N       -5.1810    -1.3480    -2.1020 N.ar  1 <1>  -0.6200 
  6 C       -3.8040    -1.5940    -0.1540 C.ar  1 <1>  -0.1500 
  7 C       -5.0170    -1.7140    -0.8370 C.ar  1 <1>   0.4270 
  8 N       -6.1700    -2.2230    -0.2790 N.am  1 <1>  -0.5470 
  9 C       -6.4850    -2.7140     0.9550 C.2   1 <1>   0.5690 
 10 O       -5.6950    -2.7870     1.8640 O.2   1 <1>  -0.5700 
 11 C       -7.9080    -3.1970     1.2020 C.3   1 <1>   0.1810 
 12 O       -8.7140    -3.0460     0.0410 O.3   1 <1>  -0.3630 
 13 C      -10.0180    -3.4150     0.0430 C.ar  1 <1>   0.0830 
 14 C      -10.6710    -3.9590     1.1430 C.ar  1 <1>  -0.1500 
 15 C      -10.7230    -3.2300    -1.1320 C.ar  1 <1>  -0.1500 
 16 C      -12.0080    -4.3080     1.0560 C.ar  1 <1>  -0.1500 
 17 C      -12.0580    -3.5810    -1.2120 C.ar  1 <1>  -0.1500 
 18 C      -12.7300    -4.1270    -0.1220 C.ar  1 <1>  -0.1430 
 19 C      -14.2220    -4.5030    -0.2630 C.3   1 <1>   0.1430 
 20 C      -15.0350    -3.2500    -0.6200 C.3   1 <1>  -0.2400 
 21 C      -14.8220    -5.0930     1.0240 C.3   1 <1>  -0.2400 
 22 C      -14.3850    -5.5510    -1.3730 C.3   1 <1>  -0.2400 
 23 H       -4.2170    -0.5440    -3.7330 H     1 <1>   0.1500 
 24 H       -1.7470    -0.9640    -0.3000 H     1 <1>   0.1500 
 25 H       -3.7220    -1.9040     0.8690 H     1 <1>   0.1500 
 26 H       -6.9430    -2.2240    -0.9440 H     1 <1>   0.3700 
 27 H       -8.3440    -2.6210     1.9970 H     1 <1>   0.0800 
 28 H       -7.8870    -4.2380     1.4690 H     1 <1>   0.0800 
 29 H      -10.1650    -4.1210     2.0750 H     1 <1>   0.1500 
 30 H      -10.2230    -2.8100    -1.9850 H     1 <1>   0.1500 
 31 H      -12.4680    -4.7250     1.9320 H     1 <1>   0.1500 
 32 H      -12.5710    -3.4220    -2.1420 H     1 <1>   0.1500 
 33 H      -14.8990    -2.4960     0.1350 H     1 <1>   0.0800 
 34 H      -16.0830    -3.4830    -0.6870 H     1 <1>   0.0800 
 35 H      -14.7250    -2.8410    -1.5640 H     1 <1>   0.0800 
 36 H      -14.7590    -4.3850     1.8310 H     1 <1>   0.0800 
 37 H      -14.3050    -5.9930     1.3050 H     1 <1>   0.0800 
 38 H      -15.8590    -5.3390     0.8790 H     1 <1>   0.0800 
 39 H      -14.0690    -5.1640    -2.3230 H     1 <1>   0.0800 
 40 H      -15.4130    -5.8540    -1.4620 H     1 <1>   0.0800 
 41 H      -13.7910    -6.4190    -1.1490 H     1 <1>   0.0800 
@<TRIPOS>BOND
  1   1   2  1   
  2   2   3  ar  
  3   2   4  ar  
  4   3   5  ar  
  5   3  23  1   
  6   4   6  ar  
  7   4  24  1   
  8   5   7  ar  
  9   6   7  ar  
 10   6  25  1   
 11   7   8  1   
 12   8   9  am  
 13   8  26  1   
 14   9  10  2   
 15   9  11  1   
 16  11  12  1   
 17  11  27  1   
 18  11  28  1   
 19  12  13  1   
 20  13  14  ar  
 21  13  15  ar  
 22  14  16  ar  
 23  14  29  1   
 24  15  17  ar  
 25  15  30  1   
 26  16  18  ar  
 27  16  31  1   
 28  17  18  ar  
 29  17  32  1   
 30  18  19  1   
 31  19  20  1   
 32  19  21  1   
 33  19  22  1   
 34  20  33  1   
 35  20  34  1   
 36  20  35  1   
 37  21  36  1   
 38  21  37  1   
 39  21  38  1   
 40  22  39  1   
 41  22  40  1   
 42  22  41  1   
@<TRIPOS>SUBSTRUCTURE
  1 ****  12 GROUP 4 **** **** 0

# MOE 2024.06 (io_trps.svl 2023.06)
