@<TRIPOS>MOLECULE
NONAME
43 46 1 0 0 
SMALL
USER_CHARGES


@<TRIPOS>ATOM
  1 O        1.8550     0.7340    -0.4560 O.co2 1 <1>  -0.9000 
  2 C        1.2690     1.7810    -0.7590 C.2   1 <1>   0.9060 
  3 O        1.0510     2.0980    -1.9300 O.co2 1 <1>  -0.9000 
  4 C        0.8300     2.6940     0.3770 C.3   1 <1>  -0.1860 
  5 C       -0.8560     2.7100     0.7060 C.3   1 <1>  -0.0190 
  6 C        1.2960     4.2710     0.1890 C.3   1 <1>   0.0580 
  7 C       -1.7120     1.7870    -0.1870 C.2   1 <1>   0.5690 
  8 C       -1.3030     4.3160     0.7220 C.3   1 <1>   0.0580 
  9 C        0.7230     5.7660     0.4110 C.2   1 <1>  -0.2880 
 10 C       -0.0100     4.1740     0.4430 C.3   1 <1>  -0.1600 
 11 O       -2.5390     2.2840    -0.9200 O.2   1 <1>  -0.5700 
 12 N       -1.6010     0.4190    -0.1050 N.am  1 <1>  -0.6600 
 13 C       -0.6380     5.7910     0.6910 C.2   1 <1>  -0.2880 
 14 C       -0.7380    -0.3220     0.8790 C.3   1 <1>   0.1400 
 15 C       -2.1190    -0.4180    -1.2360 C.3   1 <1>   0.1400 
 16 C       -0.1920    -1.6440     0.3130 C.3   1 <1>   0.2090 
 17 C       -2.4480    -1.8620    -0.8150 C.3   1 <1>   0.2090 
 18 N       -1.3270    -2.5460    -0.0920 N.pl3 1 <1>  -0.8380 
 19 C       -1.4160    -3.8710     0.2750 C.ar  1 <1>   0.7200 
 20 N       -2.5310    -4.5180    -0.0730 N.ar  1 <1>  -0.6200 
 21 N       -0.3920    -4.3960     0.9470 N.ar  1 <1>  -0.6200 
 22 C       -2.6080    -5.7780     0.2760 C.ar  1 <1>   0.1600 
 23 C       -0.4960    -5.6580     1.2810 C.ar  1 <1>   0.1600 
 24 C       -1.6020    -6.4080     0.9650 C.ar  1 <1>  -0.1500 
 25 H        1.3360     2.3060     1.2480 H     1 <1>   0.0800 
 26 H       -1.0020     2.3340     1.7060 H     1 <1>   0.0800 
 27 H        1.6570     4.3110    -0.8310 H     1 <1>   0.0800 
 28 H       -2.0320     4.4110    -0.0680 H     1 <1>   0.0800 
 29 H        1.4090     6.5900     0.3220 H     1 <1>   0.1500 
 30 H       -0.2430     4.2020    -0.7000 H     1 <1>   0.0800 
 31 H        0.2280     4.1980     1.6370 H     1 <1>   0.0800 
 32 H       -1.2720     6.6410     0.8740 H     1 <1>   0.1500 
 33 H       -1.3230    -0.5450     1.7520 H     1 <1>   0.0800 
 34 H        0.0940     0.2780     1.1900 H     1 <1>   0.0800 
 35 H       -1.3710    -0.4380    -2.0100 H     1 <1>   0.0800 
 36 H       -3.0030     0.0320    -1.6510 H     1 <1>   0.0800 
 37 H        0.4290    -2.1050     1.0590 H     1 <1>   0.0800 
 38 H        0.4300    -1.4340    -0.5410 H     1 <1>   0.0800 
 39 H       -2.6970    -2.4300    -1.6950 H     1 <1>   0.0800 
 40 H       -3.3140    -1.8470    -0.1760 H     1 <1>   0.0800 
 41 H       -3.4970    -6.3220     0.0050 H     1 <1>   0.1500 
 42 H        0.3210    -6.1050     1.8210 H     1 <1>   0.1500 
 43 H       -1.6760    -7.4410     1.2450 H     1 <1>   0.1500 
@<TRIPOS>BOND
  1   1   2  ar  
  2   2   3  ar  
  3   2   4  1   
  4   4   5  1   
  5   4   6  1   
  6   4  25  1   
  7   5   7  1   
  8   5   8  1   
  9   5  26  1   
 10   6   9  1   
 11   6  10  1   
 12   6  27  1   
 13   7  11  2   
 14   7  12  am  
 15   8  10  1   
 16   8  13  1   
 17   8  28  1   
 18   9  13  2   
 19   9  29  1   
 20  10  30  1   
 21  10  31  1   
 22  12  14  1   
 23  12  15  1   
 24  13  32  1   
 25  14  16  1   
 26  14  33  1   
 27  14  34  1   
 28  15  17  1   
 29  15  35  1   
 30  15  36  1   
 31  16  18  1   
 32  16  37  1   
 33  16  38  1   
 34  17  18  1   
 35  17  39  1   
 36  17  40  1   
 37  18  19  1   
 38  19  20  ar  
 39  19  21  ar  
 40  20  22  ar  
 41  21  23  ar  
 42  22  24  ar  
 43  22  41  1   
 44  23  24  ar  
 45  23  42  1   
 46  24  43  1   
@<TRIPOS>SUBSTRUCTURE
  1 ****  14 GROUP 4 **** **** 0

# MOE 2024.06 (io_trps.svl 2023.06)
