@<TRIPOS>MOLECULE
NONAME
54 57 1 0 0 
SMALL
USER_CHARGES


@<TRIPOS>ATOM
  1 O       -2.9510    -0.9770    -2.9180 O.2   1 <1>  -0.5700 
  2 C       -3.4790    -1.4470    -1.9290 C.2   1 <1>   0.7060 
  3 O       -4.4610    -0.7480    -1.3690 O.3   1 <1>  -0.2330 
  4 C       -3.1090    -2.6970    -1.3320 C.2   1 <1>  -0.1240 
  5 C       -5.1760    -1.1930    -0.3160 C.ar  1 <1>   0.0820 
  6 C       -3.7640    -3.1730    -0.2390 C.2   1 <1>  -0.1670 
  7 C       -1.9360    -3.4270    -1.9930 C.3   1 <1>  -0.0220 
  8 C       -4.9000    -2.4360     0.2820 C.ar  1 <1>   0.0280 
  9 C       -6.2030    -0.3710     0.1180 C.ar  1 <1>  -0.1500 
 10 C       -3.3040    -4.4680     0.4400 C.3   1 <1>  -0.0220 
 11 C       -1.8060    -4.8800    -1.5330 C.3   1 <1>  -0.1600 
 12 C       -5.7850    -2.8310     1.3110 C.ar  1 <1>   0.0820 
 13 C       -7.0200    -0.7600     1.1570 C.ar  1 <1>  -0.1430 
 14 C       -1.9240    -4.9540    -0.0130 C.3   1 <1>  -0.1600 
 15 O       -5.6620    -4.0360     1.9090 O.3   1 <1>  -0.3630 
 16 C       -6.8010    -1.9900     1.7470 C.ar  1 <1>  -0.1500 
 17 C       -8.1470     0.1320     1.6450 C.3   1 <1>  -0.0970 
 18 C       -6.7670    -4.9310     1.9630 C.3   1 <1>   0.1810 
 19 C       -6.9310    -5.7260     0.6670 C.2   1 <1>   0.5690 
 20 O       -6.2450    -6.7020     0.4840 O.2   1 <1>  -0.5700 
 21 N       -7.8510    -5.3790    -0.2730 N.am  1 <1>  -0.5470 
 22 C       -8.7220    -4.2820    -0.3030 C.ar  1 <1>   0.1170 
 23 C       -9.8530    -4.2380     0.5190 C.ar  1 <1>  -0.1430 
 24 C       -8.4630    -3.2240    -1.1760 C.ar  1 <1>  -0.1430 
 25 C      -10.6740    -3.1230     0.4950 C.ar  1 <1>  -0.1500 
 26 C      -10.2420    -5.3940     1.4360 C.3   1 <1>  -0.0970 
 27 C       -9.2990    -2.1210    -1.1860 C.ar  1 <1>  -0.1500 
 28 C       -7.2800    -3.2470    -2.1390 C.3   1 <1>  -0.0970 
 29 C      -10.3980    -2.0650    -0.3500 C.ar  1 <1>  -0.1500 
 30 H       -1.0300    -2.8940    -1.7610 H     1 <1>   0.0800 
 31 H       -2.0550    -3.4170    -3.0630 H     1 <1>   0.0800 
 32 H       -6.3560     0.5750    -0.3710 H     1 <1>   0.1500 
 33 H       -4.0250    -5.2390     0.2360 H     1 <1>   0.0800 
 34 H       -3.2570    -4.3230     1.5050 H     1 <1>   0.0800 
 35 H       -0.8580    -5.2790    -1.8520 H     1 <1>   0.0800 
 36 H       -2.5870    -5.4710    -1.9800 H     1 <1>   0.0800 
 37 H       -1.7740    -5.9660     0.3210 H     1 <1>   0.0800 
 38 H       -1.1630    -4.3380     0.4360 H     1 <1>   0.0800 
 39 H       -7.4330    -2.2890     2.5620 H     1 <1>   0.1500 
 40 H       -7.8510     0.6290     2.5510 H     1 <1>   0.0800 
 41 H       -9.0250    -0.4570     1.8400 H     1 <1>   0.0800 
 42 H       -8.3930     0.8730     0.9060 H     1 <1>   0.0800 
 43 H       -7.6600    -4.3880     2.1940 H     1 <1>   0.0800 
 44 H       -6.5720    -5.6210     2.7620 H     1 <1>   0.0800 
 45 H       -7.7880    -5.9310    -1.1270 H     1 <1>   0.3700 
 46 H      -11.5420    -3.0730     1.1300 H     1 <1>   0.1500 
 47 H       -9.7750    -5.2840     2.3970 H     1 <1>   0.0800 
 48 H       -9.9550    -6.3380     1.0110 H     1 <1>   0.0800 
 49 H      -11.3080    -5.4140     1.5780 H     1 <1>   0.0800 
 50 H       -9.1000    -1.2960    -1.8480 H     1 <1>   0.1500 
 51 H       -7.5300    -3.8290    -3.0070 H     1 <1>   0.0800 
 52 H       -7.0260    -2.2510    -2.4550 H     1 <1>   0.0800 
 53 H       -6.4110    -3.6760    -1.6760 H     1 <1>   0.0800 
 54 H      -11.0410    -1.2030    -0.3640 H     1 <1>   0.1500 
@<TRIPOS>BOND
  1   1   2  2   
  2   2   3  1   
  3   2   4  1   
  4   3   5  1   
  5   4   6  2   
  6   4   7  1   
  7   5   8  ar  
  8   5   9  ar  
  9   6   8  1   
 10   6  10  1   
 11   7  11  1   
 12   7  30  1   
 13   7  31  1   
 14   8  12  ar  
 15   9  13  ar  
 16   9  32  1   
 17  10  14  1   
 18  10  33  1   
 19  10  34  1   
 20  11  14  1   
 21  11  35  1   
 22  11  36  1   
 23  12  15  1   
 24  12  16  ar  
 25  13  16  ar  
 26  13  17  1   
 27  14  37  1   
 28  14  38  1   
 29  15  18  1   
 30  16  39  1   
 31  17  40  1   
 32  17  41  1   
 33  17  42  1   
 34  18  19  1   
 35  18  43  1   
 36  18  44  1   
 37  19  20  2   
 38  19  21  am  
 39  21  22  1   
 40  21  45  1   
 41  22  23  ar  
 42  22  24  ar  
 43  23  25  ar  
 44  23  26  1   
 45  24  27  ar  
 46  24  28  1   
 47  25  29  ar  
 48  25  46  1   
 49  26  47  1   
 50  26  48  1   
 51  26  49  1   
 52  27  29  ar  
 53  27  50  1   
 54  28  51  1   
 55  28  52  1   
 56  28  53  1   
 57  29  54  1   
@<TRIPOS>SUBSTRUCTURE
  1 ****  12 GROUP 4 **** **** 0

# MOE 2024.06 (io_trps.svl 2023.06)
