@<TRIPOS>MOLECULE
NONAME
25 25 1 0 0 
SMALL
USER_CHARGES


@<TRIPOS>ATOM
  1 F       -0.0430    -0.5600     0.4050 F     1 <1>  -0.3400 
  2 C        0.7930    -1.5640     0.6410 C.3   1 <1>   1.1640 
  3 F        0.7990    -1.7420     1.9560 F     1 <1>  -0.3400 
  4 F        0.2310    -2.6470     0.1210 F     1 <1>  -0.3400 
  5 C        2.1930    -1.3250     0.0900 C.ar  1 <1>  -0.1440 
  6 C        3.1580    -2.2970     0.2980 C.ar  1 <1>   0.1600 
  7 C        2.5490    -0.1820    -0.6130 C.ar  1 <1>  -0.1500 
  8 N        4.4110    -2.2290    -0.1180 N.ar  1 <1>  -0.6200 
  9 C        3.8490    -0.1000    -1.0520 C.ar  1 <1>  -0.1500 
 10 C        4.7380    -1.1350    -0.7800 C.ar  1 <1>   0.4100 
 11 N        6.0380    -1.1020    -1.1870 N.pl3 1 <1>  -0.8690 
 12 C        6.9120     0.0300    -0.8260 C.3   1 <1>   0.2090 
 13 C        7.9230    -0.4460     0.2160 C.3   1 <1>  -0.1600 
 14 C        8.8570     0.6890     0.6540 C.3   1 <1>  -0.2400 
 15 H        2.8900    -3.1900     0.8400 H     1 <1>   0.1500 
 16 H        1.8480     0.6110    -0.8150 H     1 <1>   0.1500 
 17 H        4.1920     0.7490    -1.6120 H     1 <1>   0.1500 
 18 H        6.4760    -2.0030    -0.9840 H     1 <1>   0.4000 
 19 H        6.3290     0.8410    -0.4250 H     1 <1>   0.0800 
 20 H        7.4230     0.3760    -1.7090 H     1 <1>   0.0800 
 21 H        8.5120    -1.2460    -0.1970 H     1 <1>   0.0800 
 22 H        7.3930    -0.8170     1.0770 H     1 <1>   0.0800 
 23 H        9.4110     1.0680    -0.1870 H     1 <1>   0.0800 
 24 H        9.5560     0.3260     1.3870 H     1 <1>   0.0800 
 25 H        8.2920     1.4940     1.0910 H     1 <1>   0.0800 
@<TRIPOS>BOND
  1   1   2  1   
  2   2   3  1   
  3   2   4  1   
  4   2   5  1   
  5   5   6  ar  
  6   5   7  ar  
  7   6   8  ar  
  8   6  15  1   
  9   7   9  ar  
 10   7  16  1   
 11   8  10  ar  
 12   9  10  ar  
 13   9  17  1   
 14  10  11  1   
 15  11  12  1   
 16  11  18  1   
 17  12  13  1   
 18  12  19  1   
 19  12  20  1   
 20  13  14  1   
 21  13  21  1   
 22  13  22  1   
 23  14  23  1   
 24  14  24  1   
 25  14  25  1   
@<TRIPOS>SUBSTRUCTURE
  1 ****  10 GROUP 4 **** **** 0

# MOE 2024.06 (io_trps.svl 2023.06)
