@<TRIPOS>MOLECULE
NONAME
43 44 1 0 0 
SMALL
USER_CHARGES


@<TRIPOS>ATOM
  1 CL      -0.6480     0.6570    -0.7690 Cl    1 <1>  -0.1770 
  2 C       -2.0950    -0.2790    -0.4790 C.ar  1 <1>   0.1770 
  3 C       -3.3410     0.3140    -0.5760 C.ar  1 <1>   0.1600 
  4 C       -1.9910    -1.6130    -0.1530 C.ar  1 <1>  -0.1500 
  5 N       -4.4890    -0.3200    -0.3720 N.ar  1 <1>  -0.6200 
  6 C       -3.1770    -2.2800     0.0610 C.ar  1 <1>  -0.1500 
  7 C       -4.3960    -1.6060    -0.0590 C.ar  1 <1>   0.4270 
  8 N       -5.6280    -2.1900     0.1360 N.am  1 <1>  -0.5470 
  9 C       -6.0310    -3.4660     0.4100 C.2   1 <1>   0.5690 
 10 O       -5.2650    -4.3880     0.5330 O.2   1 <1>  -0.5700 
 11 C       -7.5160    -3.7450     0.5820 C.3   1 <1>   0.1310 
 12 S       -8.5600    -2.4500    -0.2510 S.3   1 <1>  -0.2860 
 13 C      -10.2280    -2.9700     0.1620 C.2   1 <1>   0.2430 
 14 N      -10.4870    -3.9940     0.8920 N.2   1 <1>  -0.3380 
 15 N      -11.3140    -2.3240    -0.2610 N.pl3 1 <1>   0.0480 
 16 N      -11.8190    -4.0500     0.9730 N.2   1 <1>  -0.3380 
 17 C      -12.2960    -3.0580     0.2900 C.2   1 <1>   0.0060 
 18 C      -11.3870    -1.1180    -1.1160 C.3   1 <1>   0.0960 
 19 C      -13.7850    -2.7550     0.1160 C.3   1 <1>   0.1000 
 20 C      -11.3630     0.1540    -0.2580 C.3   1 <1>  -0.1600 
 21 C      -14.5990    -3.1820     1.3450 C.3   1 <1>  -0.2400 
 22 C      -14.3180    -3.4570    -1.1370 C.3   1 <1>  -0.2400 
 23 C      -11.4680     1.4110    -1.1280 C.3   1 <1>  -0.2400 
 24 H       -3.3880     1.3580    -0.8320 H     1 <1>   0.1500 
 25 H       -1.0330    -2.0960    -0.0710 H     1 <1>   0.1500 
 26 H       -3.1540    -3.3210     0.3190 H     1 <1>   0.1500 
 27 H       -6.3780    -1.5130     0.0030 H     1 <1>   0.3700 
 28 H       -7.7790    -3.7460     1.6230 H     1 <1>   0.0800 
 29 H       -7.7750    -4.6910     0.1430 H     1 <1>   0.0800 
 30 H      -12.2900    -1.1560    -1.6980 H     1 <1>   0.0800 
 31 H      -10.5530    -1.1210    -1.7940 H     1 <1>   0.0800 
 32 H      -13.9150    -1.6940    -0.0010 H     1 <1>   0.0800 
 33 H      -10.4440     0.1910     0.3020 H     1 <1>   0.0800 
 34 H      -12.1840     0.1390     0.4380 H     1 <1>   0.0800 
 35 H      -14.5370    -4.2470     1.4860 H     1 <1>   0.0800 
 36 H      -15.6320    -2.9090     1.2280 H     1 <1>   0.0800 
 37 H      -14.2120    -2.7010     2.2260 H     1 <1>   0.0800 
 38 H      -14.2060    -4.5230    -1.0370 H     1 <1>   0.0800 
 39 H      -13.7740    -3.1390    -2.0070 H     1 <1>   0.0800 
 40 H      -15.3600    -3.2320    -1.2800 H     1 <1>   0.0800 
 41 H      -10.6440     1.4630    -1.8190 H     1 <1>   0.0800 
 42 H      -11.4460     2.2890    -0.5070 H     1 <1>   0.0800 
 43 H      -12.3890     1.4120    -1.6850 H     1 <1>   0.0800 
@<TRIPOS>BOND
  1   1   2  1   
  2   2   3  ar  
  3   2   4  ar  
  4   3   5  ar  
  5   3  24  1   
  6   4   6  ar  
  7   4  25  1   
  8   5   7  ar  
  9   6   7  ar  
 10   6  26  1   
 11   7   8  1   
 12   8   9  am  
 13   8  27  1   
 14   9  10  2   
 15   9  11  1   
 16  11  12  1   
 17  11  28  1   
 18  11  29  1   
 19  12  13  1   
 20  13  14  2   
 21  13  15  1   
 22  14  16  1   
 23  15  17  1   
 24  15  18  1   
 25  16  17  2   
 26  17  19  1   
 27  18  20  1   
 28  18  30  1   
 29  18  31  1   
 30  19  21  1   
 31  19  22  1   
 32  19  32  1   
 33  20  23  1   
 34  20  33  1   
 35  20  34  1   
 36  21  35  1   
 37  21  36  1   
 38  21  37  1   
 39  22  38  1   
 40  22  39  1   
 41  22  40  1   
 42  23  41  1   
 43  23  42  1   
 44  23  43  1   
@<TRIPOS>SUBSTRUCTURE
  1 ****  12 GROUP 4 **** **** 0

# MOE 2024.06 (io_trps.svl 2023.06)
