@<TRIPOS>MOLECULE
NONAME
37 38 1 0 0 
SMALL
USER_CHARGES


@<TRIPOS>ATOM
  1 CL       0.5090    -0.7810     1.9380 Cl    1 <1>  -0.1770 
  2 C       -0.5200    -1.7680     0.9170 C.ar  1 <1>   0.1770 
  3 C        0.0530    -2.7710     0.1360 C.ar  1 <1>   0.1170 
  4 C       -1.8790    -1.5150     0.9150 C.ar  1 <1>  -0.1500 
  5 N        1.4460    -2.9690     0.1860 N.am  1 <1>  -0.5470 
  6 C       -0.8020    -3.5180    -0.6700 C.ar  1 <1>  -0.1500 
  7 C       -2.7080    -2.2770     0.1100 C.ar  1 <1>  -0.1500 
  8 C        2.2590    -3.9860    -0.2270 C.2   1 <1>   0.6900 
  9 C       -2.1660    -3.2760    -0.6820 C.ar  1 <1>  -0.1500 
 10 O        1.7970    -5.0130    -0.6860 O.2   1 <1>  -0.5700 
 11 N        3.6160    -3.8370    -0.0900 N.am  1 <1>  -0.6600 
 12 C        4.5100    -5.0180    -0.2970 C.3   1 <1>   0.1400 
 13 C        4.2790    -2.5170     0.1460 C.3   1 <1>   0.1400 
 14 C        5.8230    -4.8500     0.4830 C.3   1 <1>  -0.0800 
 15 C        5.6710    -2.4770    -0.5040 C.3   1 <1>  -0.0800 
 16 C        6.5920    -3.5860     0.0450 C.3   1 <1>  -0.1600 
 17 C        6.7080    -6.0960     0.3540 C.3   1 <1>  -0.2400 
 18 C        6.3230    -1.0990    -0.3340 C.3   1 <1>  -0.2400 
 19 H       -2.2810    -0.7340     1.5340 H     1 <1>   0.1500 
 20 H        1.9440    -2.2820     0.7420 H     1 <1>   0.3700 
 21 H       -0.4070    -4.2960    -1.2980 H     1 <1>   0.1500 
 22 H       -3.7700    -2.0940     0.0970 H     1 <1>   0.1500 
 23 H       -2.8060    -3.8700    -1.3110 H     1 <1>   0.1500 
 24 H        4.7150    -5.1210    -1.3490 H     1 <1>   0.0800 
 25 H        4.0070    -5.9100     0.0350 H     1 <1>   0.0800 
 26 H        4.3710    -2.3560     1.2070 H     1 <1>   0.0800 
 27 H        3.6780    -1.7280    -0.2730 H     1 <1>   0.0800 
 28 H        5.5580    -4.7450     1.5220 H     1 <1>   0.0800 
 29 H        5.5310    -2.6440    -1.5590 H     1 <1>   0.0800 
 30 H        7.3070    -3.8320    -0.7210 H     1 <1>   0.0800 
 31 H        7.1460    -3.2240     0.8940 H     1 <1>   0.0800 
 32 H        6.9760    -6.2670    -0.6740 H     1 <1>   0.0800 
 33 H        6.1860    -6.9630     0.7200 H     1 <1>   0.0800 
 34 H        7.6090    -5.9750     0.9300 H     1 <1>   0.0800 
 35 H        6.4610    -0.8670     0.7080 H     1 <1>   0.0800 
 36 H        5.7070    -0.3360    -0.7770 H     1 <1>   0.0800 
 37 H        7.2830    -1.0800    -0.8200 H     1 <1>   0.0800 
@<TRIPOS>BOND
  1   1   2  1   
  2   2   3  ar  
  3   2   4  ar  
  4   3   5  1   
  5   3   6  ar  
  6   4   7  ar  
  7   4  19  1   
  8   5   8  am  
  9   5  20  1   
 10   6   9  ar  
 11   6  21  1   
 12   7   9  ar  
 13   7  22  1   
 14   8  10  2   
 15   8  11  am  
 16   9  23  1   
 17  11  12  1   
 18  11  13  1   
 19  12  14  1   
 20  12  24  1   
 21  12  25  1   
 22  13  15  1   
 23  13  26  1   
 24  13  27  1   
 25  14  16  1   
 26  14  17  1   
 27  14  28  1   
 28  15  16  1   
 29  15  18  1   
 30  15  29  1   
 31  16  30  1   
 32  16  31  1   
 33  17  32  1   
 34  17  33  1   
 35  17  34  1   
 36  18  35  1   
 37  18  36  1   
 38  18  37  1   
@<TRIPOS>SUBSTRUCTURE
  1 ****   8 GROUP 4 **** **** 0

# MOE 2024.06 (io_trps.svl 2023.06)
