@<TRIPOS>MOLECULE
NONAME
33 33 1 0 0 
SMALL
USER_CHARGES


@<TRIPOS>ATOM
  1 S       -0.3670    -0.0550     0.2040 S.o2  1 <1>   1.3330 
  2 O       -1.3030     0.5220     1.1340 O.2   1 <1>  -0.6500 
  3 O        0.1300    -1.3970     0.3580 O.2   1 <1>  -0.6500 
  4 N        1.0540     0.9070     0.2040 N.am  1 <1>  -0.7570 
  5 C       -0.9580     0.1420    -1.4630 C.3   1 <1>  -0.1350 
  6 C        1.2250     2.2800     0.3750 C.ar  1 <1>   0.1990 
  7 C        2.5070     2.8100     0.6220 C.ar  1 <1>   0.0860 
  8 C        0.1400     3.1540     0.3070 C.ar  1 <1>  -0.1500 
  9 C        3.6830     1.9720     0.6920 C.2   1 <1>   0.5440 
 10 C        2.6380     4.1870     0.8090 C.ar  1 <1>  -0.1500 
 11 C        0.2960     4.5130     0.4820 C.ar  1 <1>  -0.1500 
 12 O        4.4860     2.1100     1.5940 O.2   1 <1>  -0.5700 
 13 N        3.9180     1.0140    -0.2570 N.am  1 <1>  -0.7300 
 14 C        1.5520     5.0340     0.7370 C.ar  1 <1>  -0.1500 
 15 C        5.0050     0.0300    -0.2400 C.3   1 <1>   0.2200 
 16 C        5.8320     0.2120    -1.5070 C.3   1 <1>  -0.2400 
 17 C        4.3780    -1.3590    -0.1790 C.3   1 <1>  -0.2400 
 18 H        1.8470     0.3120     0.4500 H     1 <1>   0.4200 
 19 H       -1.8400    -0.4500    -1.6100 H     1 <1>   0.0800 
 20 H       -0.2100    -0.1790    -2.1610 H     1 <1>   0.0800 
 21 H       -1.1980     1.1680    -1.6570 H     1 <1>   0.0800 
 22 H       -0.8490     2.7780     0.1250 H     1 <1>   0.1500 
 23 H        3.6160     4.5900     1.0160 H     1 <1>   0.1500 
 24 H       -0.5560     5.1700     0.4300 H     1 <1>   0.1500 
 25 H        3.3440     1.0050    -1.1000 H     1 <1>   0.3700 
 26 H        1.6780     6.0940     0.8830 H     1 <1>   0.1500 
 27 H        5.6310     0.1820     0.6260 H     1 <1>   0.0800 
 28 H        5.2320     0.0570    -2.3850 H     1 <1>   0.0800 
 29 H        6.6430    -0.4940    -1.5170 H     1 <1>   0.0800 
 30 H        6.2510     1.2030    -1.5290 H     1 <1>   0.0800 
 31 H        3.7460    -1.5360    -1.0300 H     1 <1>   0.0800 
 32 H        3.8020    -1.4630     0.7230 H     1 <1>   0.0800 
 33 H        5.1510    -2.1060    -0.1670 H     1 <1>   0.0800 
@<TRIPOS>BOND
  1   1   2  2   
  2   1   3  2   
  3   1   4  am  
  4   1   5  1   
  5   4   6  1   
  6   4  18  1   
  7   5  19  1   
  8   5  20  1   
  9   5  21  1   
 10   6   7  ar  
 11   6   8  ar  
 12   7   9  1   
 13   7  10  ar  
 14   8  11  ar  
 15   8  22  1   
 16   9  12  2   
 17   9  13  am  
 18  10  14  ar  
 19  10  23  1   
 20  11  14  ar  
 21  11  24  1   
 22  13  15  1   
 23  13  25  1   
 24  14  26  1   
 25  15  16  1   
 26  15  17  1   
 27  15  27  1   
 28  16  28  1   
 29  16  29  1   
 30  16  30  1   
 31  17  31  1   
 32  17  32  1   
 33  17  33  1   
@<TRIPOS>SUBSTRUCTURE
  1 ****   6 GROUP 4 **** **** 0

# MOE 2024.06 (io_trps.svl 2023.06)
