@<TRIPOS>MOLECULE
NONAME
57 61 1 0 0 
SMALL
USER_CHARGES


@<TRIPOS>ATOM
  1 N        0.2250     0.5540     0.0390 N.pl3 1 <1>  -0.8380 
  2 C       -0.9390    -0.2000    -0.0900 C.ar  1 <1>   0.1000 
  3 C        1.4000     0.0810    -0.7440 C.3   1 <1>   0.2090 
  4 C        0.5370     1.0480     1.4080 C.3   1 <1>   0.2090 
  5 C       -2.0470     0.3070    -0.7690 C.ar  1 <1>  -0.1440 
  6 C       -1.0110    -1.4770     0.4610 C.ar  1 <1>  -0.1500 
  7 C        2.5140     1.1460    -0.7490 C.3   1 <1>   0.3430 
  8 C        1.6730     2.0910     1.3680 C.3   1 <1>   0.3430 
  9 C       -3.1920    -0.4620    -0.8840 C.ar  1 <1>  -0.1500 
 10 C       -2.0140     1.6970    -1.3880 C.3   1 <1>  -0.0970 
 11 C       -2.1560    -2.2440     0.3460 C.ar  1 <1>  -0.1440 
 12 N        2.9010     1.5940     0.6400 N.4   1 <1>  -0.9590 
 13 C       -3.2480    -1.7300    -0.3310 C.ar  1 <1>  -0.1500 
 14 C       -2.2320    -3.6360     0.9470 C.3   1 <1>  -0.0970 
 15 C        4.0020     2.6080     0.7520 C.3   1 <1>   0.4230 
 16 C        3.9780     3.7870    -0.2540 C.3   1 <1>  -0.0800 
 17 C        5.4080     1.9740     0.7790 C.3   1 <1>  -0.0800 
 18 C        4.5180     3.4210    -1.6600 C.3   1 <1>  -0.1600 
 19 C        4.9250     4.8610     0.3280 C.3   1 <1>  -0.1600 
 20 C        5.9140     1.5880    -0.6300 C.3   1 <1>  -0.1600 
 21 C        6.3610     3.0430     1.3560 C.3   1 <1>  -0.1600 
 22 C        5.9330     2.8260    -1.5480 C.3   1 <1>  -0.0800 
 23 C        6.3580     4.2960     0.4550 C.3   1 <1>  -0.0800 
 24 C        6.8630     3.8910    -0.9410 C.3   1 <1>  -0.1600 
 25 H        1.0890    -0.1170    -1.7560 H     1 <1>   0.0800 
 26 H        1.7710    -0.8390    -0.3260 H     1 <1>   0.0800 
 27 H        0.8170     0.2210     2.0380 H     1 <1>   0.0800 
 28 H       -0.3470     1.4970     1.8280 H     1 <1>   0.0800 
 29 H       -0.1600    -1.8680     0.9820 H     1 <1>   0.1500 
 30 H        2.1510     1.9930    -1.3070 H     1 <1>   0.0800 
 31 H        3.3670     0.7500    -1.2670 H     1 <1>   0.0800 
 32 H        1.9300     2.3620     2.3780 H     1 <1>   0.0800 
 33 H        1.2980     2.9720     0.8760 H     1 <1>   0.0800 
 34 H       -4.0530    -0.0820    -1.4050 H     1 <1>   0.1500 
 35 H       -1.8330     2.4300    -0.6230 H     1 <1>   0.0800 
 36 H       -2.9460     1.9290    -1.8710 H     1 <1>   0.0800 
 37 H       -1.2270     1.7510    -2.1170 H     1 <1>   0.0800 
 38 H        3.2230     0.7570     1.1380 H     1 <1>   0.4500 
 39 H       -4.1470    -2.3130    -0.4290 H     1 <1>   0.1500 
 40 H       -1.3160    -3.8920     1.4470 H     1 <1>   0.0800 
 41 H       -2.4130    -4.3580     0.1710 H     1 <1>   0.0800 
 42 H       -3.0350    -3.6820     1.6590 H     1 <1>   0.0800 
 43 H        3.8840     3.0580     1.7240 H     1 <1>   0.0800 
 44 H        2.9870     4.2010    -0.3270 H     1 <1>   0.0800 
 45 H        5.4210     1.1170     1.4290 H     1 <1>   0.0800 
 46 H        4.5610     4.3110    -2.2660 H     1 <1>   0.0800 
 47 H        3.8800     2.7400    -2.1840 H     1 <1>   0.0800 
 48 H        4.5770     5.1850     1.2940 H     1 <1>   0.0800 
 49 H        4.9360     5.7280    -0.3120 H     1 <1>   0.0800 
 50 H        5.3130     0.8120    -1.0610 H     1 <1>   0.0800 
 51 H        6.9150     1.1950    -0.5520 H     1 <1>   0.0800 
 52 H        7.3610     2.6480     1.4220 H     1 <1>   0.0800 
 53 H        6.0600     3.3140     2.3540 H     1 <1>   0.0800 
 54 H        6.2940     2.5520    -2.5260 H     1 <1>   0.0800 
 55 H        7.0120     5.0460     0.8700 H     1 <1>   0.0800 
 56 H        6.8990     4.7560    -1.5820 H     1 <1>   0.0800 
 57 H        7.8660     3.5050    -0.8700 H     1 <1>   0.0800 
@<TRIPOS>BOND
  1   1   2  1   
  2   1   3  1   
  3   1   4  1   
  4   2   5  ar  
  5   2   6  ar  
  6   3   7  1   
  7   3  25  1   
  8   3  26  1   
  9   4   8  1   
 10   4  27  1   
 11   4  28  1   
 12   5   9  ar  
 13   5  10  1   
 14   6  11  ar  
 15   6  29  1   
 16   7  12  1   
 17   7  30  1   
 18   7  31  1   
 19   8  12  1   
 20   8  32  1   
 21   8  33  1   
 22   9  13  ar  
 23   9  34  1   
 24  10  35  1   
 25  10  36  1   
 26  10  37  1   
 27  11  13  ar  
 28  11  14  1   
 29  12  15  1   
 30  12  38  1   
 31  13  39  1   
 32  14  40  1   
 33  14  41  1   
 34  14  42  1   
 35  15  16  1   
 36  15  17  1   
 37  15  43  1   
 38  16  18  1   
 39  16  19  1   
 40  16  44  1   
 41  17  20  1   
 42  17  21  1   
 43  17  45  1   
 44  18  22  1   
 45  18  46  1   
 46  18  47  1   
 47  19  23  1   
 48  19  48  1   
 49  19  49  1   
 50  20  22  1   
 51  20  50  1   
 52  20  51  1   
 53  21  23  1   
 54  21  52  1   
 55  21  53  1   
 56  22  24  1   
 57  22  54  1   
 58  23  24  1   
 59  23  55  1   
 60  24  56  1   
 61  24  57  1   
@<TRIPOS>SUBSTRUCTURE
  1 ****   7 GROUP 4 **** **** 0

# MOE 2024.06 (io_trps.svl 2023.06)
