@<TRIPOS>MOLECULE
NONAME
45 46 1 0 0 
SMALL
USER_CHARGES


@<TRIPOS>ATOM
  1 CL      -3.2950     0.5280    -1.2930 Cl    1 <1>  -0.1770 
  2 C       -1.9760     1.5850    -0.8450 C.ar  1 <1>   0.1770 
  3 C       -1.9210     2.1460     0.4240 C.ar  1 <1>  -0.1440 
  4 C       -1.0000     1.8340    -1.7960 C.ar  1 <1>  -0.1500 
  5 C       -0.8340     2.9640     0.6940 C.ar  1 <1>   0.1900 
  6 C       -2.9950     1.8750     1.4700 C.3   1 <1>   0.2540 
  7 C        0.0700     2.6610    -1.4930 C.ar  1 <1>  -0.1500 
  8 F       -0.7280     3.5200     1.8720 F     1 <1>  -0.1900 
  9 C        0.1560     3.2320    -0.2340 C.ar  1 <1>  -0.1500 
 10 N       -4.2670     2.5310     1.1000 N.3   1 <1>  -0.8100 
 11 C       -4.1480     4.0090     1.1940 C.3   1 <1>   0.2530 
 12 C       -5.3940     2.0030     1.9160 C.3   1 <1>   0.1100 
 13 C       -5.0940     4.6750     0.2090 C.ar  1 <1>  -0.1430 
 14 C       -6.7440     2.1280     1.1820 C.3   1 <1>   0.3430 
 15 C       -4.8590     4.5510    -1.1520 C.ar  1 <1>  -0.1500 
 16 C       -6.1720     5.4290     0.6480 C.ar  1 <1>  -0.1500 
 17 N       -6.5450     1.8230    -0.2600 N.4   1 <1>  -0.9590 
 18 C       -5.6960     5.1670    -2.0660 C.ar  1 <1>  -0.1500 
 19 C       -7.0120     6.0440    -0.2660 C.ar  1 <1>  -0.1500 
 20 C       -7.5410     2.5160    -1.1240 C.3   1 <1>   0.2630 
 21 C       -6.4520     0.3650    -0.5520 C.3   1 <1>   0.2630 
 22 C       -6.7740     5.9130    -1.6230 C.ar  1 <1>  -0.1500 
 23 H       -1.0770     1.3810    -2.7690 H     1 <1>   0.1500 
 24 H       -2.6800     2.2060     2.4460 H     1 <1>   0.0800 
 25 H       -3.1380     0.8090     1.5230 H     1 <1>   0.0800 
 26 H        0.8310     2.8570    -2.2300 H     1 <1>   0.1500 
 27 H        0.9770     3.8760     0.0260 H     1 <1>   0.1500 
 28 H       -3.1530     4.3290     0.9390 H     1 <1>   0.0800 
 29 H       -4.3390     4.3430     2.2000 H     1 <1>   0.0800 
 30 H       -5.4430     2.5020     2.8700 H     1 <1>   0.0800 
 31 H       -5.2360     0.9570     2.1130 H     1 <1>   0.0800 
 32 H       -7.0920     3.1420     1.2880 H     1 <1>   0.0800 
 33 H       -7.4790     1.4730     1.6190 H     1 <1>   0.0800 
 34 H       -4.0140     3.9800    -1.5010 H     1 <1>   0.1500 
 35 H       -6.3580     5.5560     1.7010 H     1 <1>   0.1500 
 36 H       -5.6040     2.2450    -0.4300 H     1 <1>   0.4500 
 37 H       -5.5010     5.0760    -3.1220 H     1 <1>   0.1500 
 38 H       -7.8430     6.6360     0.0780 H     1 <1>   0.1500 
 39 H       -8.5280     2.1180    -0.9560 H     1 <1>   0.0800 
 40 H       -7.2840     2.3890    -2.1630 H     1 <1>   0.0800 
 41 H       -7.5500     3.5710    -0.9030 H     1 <1>   0.0800 
 42 H       -7.3870    -0.1240    -0.3300 H     1 <1>   0.0800 
 43 H       -5.6720    -0.0820     0.0430 H     1 <1>   0.0800 
 44 H       -6.2150     0.2100    -1.5910 H     1 <1>   0.0800 
 45 H       -7.4200     6.4020    -2.3330 H     1 <1>   0.1500 
@<TRIPOS>BOND
  1   1   2  1   
  2   2   3  ar  
  3   2   4  ar  
  4   3   5  ar  
  5   3   6  1   
  6   4   7  ar  
  7   4  23  1   
  8   5   8  1   
  9   5   9  ar  
 10   6  10  1   
 11   6  24  1   
 12   6  25  1   
 13   7   9  ar  
 14   7  26  1   
 15   9  27  1   
 16  10  11  1   
 17  10  12  1   
 18  11  13  1   
 19  11  28  1   
 20  11  29  1   
 21  12  14  1   
 22  12  30  1   
 23  12  31  1   
 24  13  15  ar  
 25  13  16  ar  
 26  14  17  1   
 27  14  32  1   
 28  14  33  1   
 29  15  18  ar  
 30  15  34  1   
 31  16  19  ar  
 32  16  35  1   
 33  17  20  1   
 34  17  21  1   
 35  17  36  1   
 36  18  22  ar  
 37  18  37  1   
 38  19  22  ar  
 39  19  38  1   
 40  20  39  1   
 41  20  40  1   
 42  20  41  1   
 43  21  42  1   
 44  21  43  1   
 45  21  44  1   
 46  22  45  1   
@<TRIPOS>SUBSTRUCTURE
  1 ****  10 GROUP 4 **** **** 0

# MOE 2024.06 (io_trps.svl 2023.06)
