@<TRIPOS>MOLECULE
NONAME
49 52 1 0 0 
SMALL
USER_CHARGES


@<TRIPOS>ATOM
  1 F       -0.5080    -0.1770    -0.0240 F     1 <1>  -0.3400 
  2 C       -1.7830    -0.2880     0.3360 C.3   1 <1>   1.0200 
  3 F       -1.8450    -1.3960     1.0640 F     1 <1>  -0.3400 
  4 F       -2.4490    -0.5260    -0.7890 F     1 <1>  -0.3400 
  5 C       -2.2550     0.9760     1.0700 C.3   1 <1>   0.1760 
  6 N       -3.7150     0.9220     1.3070 N.pl3 1 <1>   0.3140 
  7 C       -1.8630     2.2830     0.3180 C.3   1 <1>  -0.1600 
  8 N       -4.3870    -0.1350     1.8220 N.2   1 <1>  -0.7070 
  9 C       -4.5180     2.0010     1.1870 C.2   1 <1>  -0.0680 
 10 C       -2.6160     3.5220     0.8220 C.3   1 <1>   0.4330 
 11 C       -5.5980     0.2940     1.9750 C.2   1 <1>   0.1390 
 12 N       -4.0580     3.2340     0.7470 N.pl3 1 <1>  -0.8530 
 13 C       -5.7690     1.6310     1.5940 C.2   1 <1>  -0.0860 
 14 C       -2.2760     4.7500    -0.0150 C.ar  1 <1>  -0.1430 
 15 C       -6.9740     2.3990     1.6510 C.2   1 <1>   0.7160 
 16 C       -2.8040     4.9200    -1.2890 C.ar  1 <1>  -0.1500 
 17 C       -1.4180     5.7170     0.4900 C.ar  1 <1>  -0.1500 
 18 O       -6.9520     3.6180     1.6990 O.2   1 <1>  -0.5700 
 19 N       -8.1900     1.7720     1.6330 N.am  1 <1>  -0.7300 
 20 C       -2.4780     6.0330    -2.0440 C.ar  1 <1>  -0.1500 
 21 C       -1.0910     6.8310    -0.2640 C.ar  1 <1>  -0.1500 
 22 C       -9.5050     2.4740     1.6240 C.3   1 <1>   0.1400 
 23 C       -1.6200     6.9900    -1.5320 C.ar  1 <1>  -0.1500 
 24 C       -9.7640     3.1980     0.2930 C.3   1 <1>   0.2000 
 25 O      -11.0940     3.5950     0.2390 O.3   1 <1>  -0.5600 
 26 C       -9.5900     2.3450    -0.9570 C.3   1 <1>  -0.1600 
 27 C      -11.4570     3.8540    -1.0790 C.3   1 <1>   0.1200 
 28 C      -10.5440     2.9910    -1.9480 C.3   1 <1>  -0.1600 
 29 H       -1.7880     0.9820     2.0350 H     1 <1>   0.0800 
 30 H       -2.0710     2.1690    -0.7310 H     1 <1>   0.0800 
 31 H       -0.8060     2.4550     0.4140 H     1 <1>   0.0800 
 32 H       -2.3610     3.7090     1.8520 H     1 <1>   0.0800 
 33 H       -6.3880    -0.3210     2.3710 H     1 <1>   0.1500 
 34 H       -4.6650     4.0530     0.9190 H     1 <1>   0.4000 
 35 H       -3.4760     4.1820    -1.6950 H     1 <1>   0.1500 
 36 H       -0.9970     5.6130     1.4750 H     1 <1>   0.1500 
 37 H       -8.2170     0.7830     1.3890 H     1 <1>   0.3700 
 38 H       -2.8950     6.1540    -3.0290 H     1 <1>   0.1500 
 39 H       -0.4250     7.5770     0.1350 H     1 <1>   0.1500 
 40 H       -9.5240     3.1980     2.4210 H     1 <1>   0.0800 
 41 H      -10.2860     1.7540     1.7940 H     1 <1>   0.0800 
 42 H       -1.3670     7.8560    -2.1190 H     1 <1>   0.1500 
 43 H       -9.1590     4.0870     0.2310 H     1 <1>   0.0800 
 44 H       -9.8960     1.3330    -0.7550 H     1 <1>   0.0800 
 45 H       -8.5700     2.3500    -1.2990 H     1 <1>   0.0800 
 46 H      -11.3020     4.9020    -1.2690 H     1 <1>   0.0800 
 47 H      -12.4970     3.6040    -1.2030 H     1 <1>   0.0800 
 48 H      -11.1090     2.2550    -2.4920 H     1 <1>   0.0800 
 49 H      -10.0150     3.6150    -2.6470 H     1 <1>   0.0800 
@<TRIPOS>BOND
  1   1   2  1   
  2   2   3  1   
  3   2   4  1   
  4   2   5  1   
  5   5   6  1   
  6   5   7  1   
  7   5  29  1   
  8   6   8  1   
  9   6   9  1   
 10   7  10  1   
 11   7  30  1   
 12   7  31  1   
 13   8  11  2   
 14   9  12  1   
 15   9  13  2   
 16  10  12  1   
 17  10  14  1   
 18  10  32  1   
 19  11  13  1   
 20  11  33  1   
 21  12  34  1   
 22  13  15  1   
 23  14  16  ar  
 24  14  17  ar  
 25  15  18  2   
 26  15  19  am  
 27  16  20  ar  
 28  16  35  1   
 29  17  21  ar  
 30  17  36  1   
 31  19  22  1   
 32  19  37  1   
 33  20  23  ar  
 34  20  38  1   
 35  21  23  ar  
 36  21  39  1   
 37  22  24  1   
 38  22  40  1   
 39  22  41  1   
 40  23  42  1   
 41  24  25  1   
 42  24  26  1   
 43  24  43  1   
 44  25  27  1   
 45  26  28  1   
 46  26  44  1   
 47  26  45  1   
 48  27  28  1   
 49  27  46  1   
 50  27  47  1   
 51  28  48  1   
 52  28  49  1   
@<TRIPOS>SUBSTRUCTURE
  1 ****  12 GROUP 4 **** **** 0

# MOE 2024.06 (io_trps.svl 2023.06)
