@<TRIPOS>MOLECULE
NONAME
51 53 1 0 0 
SMALL
USER_CHARGES


@<TRIPOS>ATOM
  1 O        0.0620     1.8170    -2.7290 O.2   1 <1>  -0.5700 
  2 C        0.0630     2.6360    -1.8280 C.2   1 <1>   0.5440 
  3 N       -1.1450     3.1490    -1.3970 N.am  1 <1>  -0.6600 
  4 C        1.3270     3.0390    -1.2560 C.ar  1 <1>   0.0860 
  5 C       -2.4540     2.6380    -1.9030 C.3   1 <1>   0.1400 
  6 C       -1.2890     4.1460    -0.2910 C.3   1 <1>   0.1400 
  7 C        1.7020     2.7020     0.0520 C.ar  1 <1>   0.0820 
  8 C        2.2270     3.7920    -2.0090 C.ar  1 <1>  -0.1500 
  9 C       -3.2830     2.0410    -0.7540 C.3   1 <1>   0.1400 
 10 C       -2.1060     3.5510     0.8650 C.3   1 <1>   0.1400 
 11 O        0.9000     1.9600     0.8400 O.3   1 <1>  -0.3630 
 12 C        2.9040     3.1380     0.5830 C.ar  1 <1>  -0.1500 
 13 C        3.4340     4.2170    -1.4860 C.ar  1 <1>  -0.1500 
 14 N       -3.4170     3.0140     0.3760 N.am  1 <1>  -0.6600 
 15 C        0.8440     0.5770     0.5780 C.3   1 <1>   0.1200 
 16 C        3.7780     3.8940    -0.1760 C.ar  1 <1>   0.0820 
 17 C       -4.6140     3.6210     0.7060 C.2   1 <1>   0.7150 
 18 C       -0.1360    -0.0530     1.5630 C.3   1 <1>  -0.2400 
 19 O        4.9340     4.2740     0.4150 O.3   1 <1>  -0.3620 
 20 O       -4.5780     4.7390     1.1900 O.2   1 <1>  -0.5700 
 21 C       -5.8820     2.9510     0.4980 C.2   1 <1>   0.0550 
 22 C        5.9130     5.0170    -0.2720 C.3   1 <1>   0.1200 
 23 O       -6.9600     3.6250     0.1050 O.3   1 <1>  -0.2800 
 24 C       -6.2290     1.6400     0.6390 C.2   1 <1>  -0.1500 
 25 C        7.0800     5.2550     0.6810 C.3   1 <1>  -0.2400 
 26 C       -7.9680     2.7910    -0.0070 C.2   1 <1>  -0.0100 
 27 C       -7.5810     1.5380     0.3100 C.2   1 <1>  -0.1500 
 28 H       -2.3060     1.8870    -2.6590 H     1 <1>   0.0800 
 29 H       -2.9980     3.4500    -2.3510 H     1 <1>   0.0800 
 30 H       -1.7970     5.0180    -0.6660 H     1 <1>   0.0800 
 31 H       -0.3300     4.4620     0.0770 H     1 <1>   0.0800 
 32 H        1.9650     4.0410    -3.0230 H     1 <1>   0.1500 
 33 H       -2.7980     1.1490    -0.3970 H     1 <1>   0.0800 
 34 H       -4.2480     1.7640    -1.1390 H     1 <1>   0.0800 
 35 H       -2.2600     4.3060     1.6170 H     1 <1>   0.0800 
 36 H       -1.5470     2.7540     1.3200 H     1 <1>   0.0800 
 37 H        3.1650     2.8840     1.5940 H     1 <1>   0.1500 
 38 H        4.0920     4.7960    -2.1070 H     1 <1>   0.1500 
 39 H        1.8320     0.1690     0.7030 H     1 <1>   0.0800 
 40 H        0.5150     0.4220    -0.4360 H     1 <1>   0.0800 
 41 H        0.1900     0.1230     2.5720 H     1 <1>   0.0800 
 42 H       -0.1830    -1.1140     1.3980 H     1 <1>   0.0800 
 43 H       -1.1190     0.3590     1.4230 H     1 <1>   0.0800 
 44 H        5.4780     5.9510    -0.5820 H     1 <1>   0.0800 
 45 H        6.2320     4.4490    -1.1300 H     1 <1>   0.0800 
 46 H       -5.6010     0.8250     0.9520 H     1 <1>   0.1500 
 47 H        6.7470     5.8080     1.5410 H     1 <1>   0.0800 
 48 H        7.8480     5.8210     0.1850 H     1 <1>   0.0800 
 49 H        7.4960     4.3160     0.9970 H     1 <1>   0.0800 
 50 H       -8.9270     3.1710    -0.3160 H     1 <1>   0.1500 
 51 H       -8.1690     0.6370     0.3190 H     1 <1>   0.1500 
@<TRIPOS>BOND
  1   1   2  2   
  2   2   3  am  
  3   2   4  1   
  4   3   5  1   
  5   3   6  1   
  6   4   7  ar  
  7   4   8  ar  
  8   5   9  1   
  9   5  28  1   
 10   5  29  1   
 11   6  10  1   
 12   6  30  1   
 13   6  31  1   
 14   7  11  1   
 15   7  12  ar  
 16   8  13  ar  
 17   8  32  1   
 18   9  14  1   
 19   9  33  1   
 20   9  34  1   
 21  10  14  1   
 22  10  35  1   
 23  10  36  1   
 24  11  15  1   
 25  12  16  ar  
 26  12  37  1   
 27  13  16  ar  
 28  13  38  1   
 29  14  17  am  
 30  15  18  1   
 31  15  39  1   
 32  15  40  1   
 33  16  19  1   
 34  17  20  2   
 35  17  21  1   
 36  18  41  1   
 37  18  42  1   
 38  18  43  1   
 39  19  22  1   
 40  21  23  1   
 41  21  24  2   
 42  22  25  1   
 43  22  44  1   
 44  22  45  1   
 45  23  26  1   
 46  24  27  1   
 47  24  46  1   
 48  25  47  1   
 49  25  48  1   
 50  25  49  1   
 51  26  27  2   
 52  26  50  1   
 53  27  51  1   
@<TRIPOS>SUBSTRUCTURE
  1 ****   6 GROUP 4 **** **** 0

# MOE 2024.06 (io_trps.svl 2023.06)
