@<TRIPOS>MOLECULE
NONAME
45 46 1 0 0 
SMALL
USER_CHARGES


@<TRIPOS>ATOM
  1 O       -0.1490    -0.6110     0.5230 O.3   1 <1>  -0.3630 
  2 C       -1.3710    -1.1900     0.6030 C.ar  1 <1>   0.0830 
  3 C        0.7810    -0.9790    -0.4710 C.3   1 <1>   0.1200 
  4 C       -2.1690    -0.8110     1.6690 C.ar  1 <1>  -0.1500 
  5 C       -1.8510    -2.1230    -0.3110 C.ar  1 <1>  -0.1500 
  6 C        2.0610    -0.1740    -0.2480 C.3   1 <1>  -0.1600 
  7 C       -3.4330    -1.3470     1.8280 C.ar  1 <1>  -0.1500 
  8 C       -3.1170    -2.6600    -0.1540 C.ar  1 <1>  -0.1500 
  9 C        3.1260    -0.5220    -1.2960 C.3   1 <1>  -0.1600 
 10 C       -3.9190    -2.2690     0.9110 C.ar  1 <1>  -0.1430 
 11 C        4.4060     0.2860    -1.0690 C.3   1 <1>  -0.2400 
 12 C       -5.3160    -2.8350     1.0700 C.3   1 <1>   0.4860 
 13 N       -6.2060    -2.1870     0.0650 N.4   1 <1>  -0.9590 
 14 C       -6.3150    -0.7130     0.3020 C.3   1 <1>   0.3430 
 15 C       -7.5360    -2.8620     0.0040 C.3   1 <1>   0.3430 
 16 C       -7.1430    -0.0680    -0.8050 C.3   1 <1>  -0.1600 
 17 C       -8.3800    -2.2470    -1.1100 C.3   1 <1>  -0.1600 
 18 C       -8.5080    -0.7410    -0.9010 C.3   1 <1>   0.2000 
 19 O       -9.1890    -0.2060    -1.9650 O.3   1 <1>  -0.6800 
 20 H        0.3560    -0.7560    -1.4340 H     1 <1>   0.0800 
 21 H        0.9750    -2.0330    -0.3810 H     1 <1>   0.0800 
 22 H       -1.7830    -0.0950     2.3740 H     1 <1>   0.1500 
 23 H       -1.2510    -2.4410    -1.1430 H     1 <1>   0.1500 
 24 H        2.4430    -0.3880     0.7350 H     1 <1>   0.0800 
 25 H        1.8300     0.8760    -0.3070 H     1 <1>   0.0800 
 26 H       -4.0230    -1.0350     2.6730 H     1 <1>   0.1500 
 27 H       -3.4610    -3.3860    -0.8710 H     1 <1>   0.1500 
 28 H        2.7470    -0.3120    -2.2830 H     1 <1>   0.0800 
 29 H        3.3580    -1.5720    -1.2430 H     1 <1>   0.0800 
 30 H        4.2030     1.3410    -1.1380 H     1 <1>   0.0800 
 31 H        5.1410     0.0300    -1.8110 H     1 <1>   0.0800 
 32 H        4.8160     0.0760    -0.0960 H     1 <1>   0.0800 
 33 H       -5.6790    -2.6500     2.0680 H     1 <1>   0.0800 
 34 H       -5.2860    -3.9010     0.9090 H     1 <1>   0.0800 
 35 H       -5.7380    -2.3030    -0.8420 H     1 <1>   0.4500 
 36 H       -5.3330    -0.2650     0.3160 H     1 <1>   0.0800 
 37 H       -6.7830    -0.5290     1.2560 H     1 <1>   0.0800 
 38 H       -8.0490    -2.7450     0.9460 H     1 <1>   0.0800 
 39 H       -7.4100    -3.9170    -0.1850 H     1 <1>   0.0800 
 40 H       -6.6120    -0.1450    -1.7370 H     1 <1>   0.0800 
 41 H       -7.2760     0.9760    -0.5770 H     1 <1>   0.0800 
 42 H       -9.3590    -2.6910    -1.0930 H     1 <1>   0.0800 
 43 H       -7.9270    -2.4620    -2.0610 H     1 <1>   0.0800 
 44 H       -9.0890    -0.5350    -0.0150 H     1 <1>   0.0800 
 45 H       -8.7150    -0.3330    -2.8090 H     1 <1>   0.4000 
@<TRIPOS>BOND
  1   1   2  1   
  2   1   3  1   
  3   2   4  ar  
  4   2   5  ar  
  5   3   6  1   
  6   3  20  1   
  7   3  21  1   
  8   4   7  ar  
  9   4  22  1   
 10   5   8  ar  
 11   5  23  1   
 12   6   9  1   
 13   6  24  1   
 14   6  25  1   
 15   7  10  ar  
 16   7  26  1   
 17   8  10  ar  
 18   8  27  1   
 19   9  11  1   
 20   9  28  1   
 21   9  29  1   
 22  10  12  1   
 23  11  30  1   
 24  11  31  1   
 25  11  32  1   
 26  12  13  1   
 27  12  33  1   
 28  12  34  1   
 29  13  14  1   
 30  13  15  1   
 31  13  35  1   
 32  14  16  1   
 33  14  36  1   
 34  14  37  1   
 35  15  17  1   
 36  15  38  1   
 37  15  39  1   
 38  16  18  1   
 39  16  40  1   
 40  16  41  1   
 41  17  18  1   
 42  17  42  1   
 43  17  43  1   
 44  18  19  1   
 45  18  44  1   
 46  19  45  1   
@<TRIPOS>SUBSTRUCTURE
  1 ****   8 GROUP 4 **** **** 0

# MOE 2024.06 (io_trps.svl 2023.06)
