@<TRIPOS>MOLECULE
NONAME
53 55 1 0 0 
SMALL
USER_CHARGES


@<TRIPOS>ATOM
  1 CL      -1.3340    -1.5640    -0.5050 Cl    1 <1>  -0.1770 
  2 C        0.2400    -2.0620     0.0620 C.ar  1 <1>   0.1770 
  3 C        0.4080    -3.2010     0.8350 C.ar  1 <1>  -0.0090 
  4 C        1.3140    -1.2670    -0.2940 C.ar  1 <1>  -0.1500 
  5 S       -0.9890    -4.2510     1.2940 S.o2  1 <1>   1.4470 
  6 C        1.6990    -3.5100     1.2470 C.ar  1 <1>  -0.1500 
  7 C        2.5870    -1.6040     0.1230 C.ar  1 <1>  -0.1500 
  8 O       -1.9800    -3.4520     1.9790 O.2   1 <1>  -0.6500 
  9 O       -0.4830    -5.4400     1.9480 O.2   1 <1>  -0.6500 
 10 N       -1.6140    -4.7440    -0.2060 N.am  1 <1>  -0.8490 
 11 C        2.8100    -2.7390     0.9030 C.ar  1 <1>   0.0860 
 12 C       -0.9690    -5.9550    -0.7210 C.3   1 <1>   0.1960 
 13 C       -3.0740    -4.8760    -0.1890 C.3   1 <1>   0.1960 
 14 C        4.1420    -3.1140     1.3440 C.2   1 <1>   0.5440 
 15 C       -1.4170    -6.2240    -2.1600 C.3   1 <1>  -0.1600 
 16 C       -3.6020    -5.1290    -1.6060 C.3   1 <1>  -0.1600 
 17 O        4.3050    -3.7380     2.3740 O.2   1 <1>  -0.5700 
 18 N        5.2600    -2.8490     0.5880 N.am  1 <1>  -0.6600 
 19 C       -2.9420    -6.3540    -2.2490 C.3   1 <1>  -0.1600 
 20 C        6.5800    -2.7560     1.2780 C.3   1 <1>   0.1400 
 21 C        5.3590    -3.4410    -0.7750 C.3   1 <1>   0.1400 
 22 C        7.2110    -4.1570     1.3850 C.3   1 <1>   0.3430 
 23 C        6.0090    -4.8400    -0.6930 C.3   1 <1>   0.3430 
 24 N        7.3330    -4.8270     0.0370 N.4   1 <1>  -0.9590 
 25 C        7.8920    -6.1940     0.2030 C.3   1 <1>   0.3430 
 26 C        8.3700    -6.7240    -1.1440 C.3   1 <1>  -0.2400 
 27 H        1.1440    -0.3880    -0.8920 H     1 <1>   0.1500 
 28 H        1.8540    -4.3820     1.8640 H     1 <1>   0.1500 
 29 H        3.4170    -0.9750    -0.1510 H     1 <1>   0.1500 
 30 H       -1.2210    -6.7980    -0.0970 H     1 <1>   0.0800 
 31 H        0.1010    -5.8320    -0.7030 H     1 <1>   0.0800 
 32 H       -3.5210    -3.9660     0.1780 H     1 <1>   0.0800 
 33 H       -3.3610    -5.6820     0.4670 H     1 <1>   0.0800 
 34 H       -0.9560    -7.1280    -2.5160 H     1 <1>   0.0800 
 35 H       -1.0840    -5.4140    -2.7850 H     1 <1>   0.0800 
 36 H       -3.4070    -4.2550    -2.2040 H     1 <1>   0.0800 
 37 H       -4.6670    -5.2680    -1.5690 H     1 <1>   0.0800 
 38 H       -3.2570    -7.2430    -1.7300 H     1 <1>   0.0800 
 39 H       -3.2460    -6.4390    -3.2780 H     1 <1>   0.0800 
 40 H        6.4430    -2.3510     2.2670 H     1 <1>   0.0800 
 41 H        7.2310    -2.0910     0.7380 H     1 <1>   0.0800 
 42 H        5.9440    -2.7960    -1.4080 H     1 <1>   0.0800 
 43 H        4.3790    -3.5300    -1.2130 H     1 <1>   0.0800 
 44 H        6.5860    -4.7530     2.0320 H     1 <1>   0.0800 
 45 H        8.1810    -4.0750     1.8460 H     1 <1>   0.0800 
 46 H        6.1440    -5.2220    -1.6910 H     1 <1>   0.0800 
 47 H        5.3270    -5.4970    -0.1780 H     1 <1>   0.0800 
 48 H        8.0010    -4.2800    -0.5220 H     1 <1>   0.4500 
 49 H        7.1490    -6.8540     0.6210 H     1 <1>   0.0800 
 50 H        8.7310    -6.1620     0.8810 H     1 <1>   0.0800 
 51 H        7.5520    -6.8690    -1.8250 H     1 <1>   0.0800 
 52 H        8.8400    -7.6800    -0.9960 H     1 <1>   0.0800 
 53 H        9.0980    -6.0640    -1.5810 H     1 <1>   0.0800 
@<TRIPOS>BOND
  1   1   2  1   
  2   2   3  ar  
  3   2   4  ar  
  4   3   5  1   
  5   3   6  ar  
  6   4   7  ar  
  7   4  27  1   
  8   5   8  2   
  9   5   9  2   
 10   5  10  am  
 11   6  11  ar  
 12   6  28  1   
 13   7  11  ar  
 14   7  29  1   
 15  10  12  1   
 16  10  13  1   
 17  11  14  1   
 18  12  15  1   
 19  12  30  1   
 20  12  31  1   
 21  13  16  1   
 22  13  32  1   
 23  13  33  1   
 24  14  17  2   
 25  14  18  am  
 26  15  19  1   
 27  15  34  1   
 28  15  35  1   
 29  16  19  1   
 30  16  36  1   
 31  16  37  1   
 32  18  20  1   
 33  18  21  1   
 34  19  38  1   
 35  19  39  1   
 36  20  22  1   
 37  20  40  1   
 38  20  41  1   
 39  21  23  1   
 40  21  42  1   
 41  21  43  1   
 42  22  24  1   
 43  22  44  1   
 44  22  45  1   
 45  23  24  1   
 46  23  46  1   
 47  23  47  1   
 48  24  25  1   
 49  24  48  1   
 50  25  26  1   
 51  25  49  1   
 52  25  50  1   
 53  26  51  1   
 54  26  52  1   
 55  26  53  1   
@<TRIPOS>SUBSTRUCTURE
  1 ****   6 GROUP 4 **** **** 0

# MOE 2024.06 (io_trps.svl 2023.06)
