@<TRIPOS>MOLECULE
NONAME
45 46 1 0 0 
SMALL
USER_CHARGES


@<TRIPOS>ATOM
  1 O       -0.5390     1.1720    -1.5780 O.2   1 <1>  -0.5700 
  2 C       -0.9510     1.7950    -0.6160 C.2   1 <1>   0.5440 
  3 N       -0.0460     2.4280     0.2170 N.am  1 <1>  -0.6600 
  4 C       -2.3810     1.8550    -0.3840 C.ar  1 <1>   0.0860 
  5 C        1.4140     2.1710     0.0670 C.3   1 <1>   0.1400 
  6 C       -0.4740     3.4100     1.2570 C.3   1 <1>   0.1400 
  7 C       -3.2440     2.3350    -1.3690 C.ar  1 <1>  -0.1500 
  8 C       -2.9490     1.4350     0.8190 C.ar  1 <1>  -0.1500 
  9 C        2.0250     3.1460    -0.9460 C.3   1 <1>  -0.1600 
 10 C        0.4840     4.5950     1.4440 C.3   1 <1>  -0.1600 
 11 C       -4.6090     2.4150    -1.1620 C.ar  1 <1>  -0.1500 
 12 C       -4.3120     1.5120     1.0360 C.ar  1 <1>  -0.1500 
 13 C        2.2340     4.5730    -0.4190 C.3   1 <1>  -0.1600 
 14 C        0.9650     5.2400     0.1340 C.3   1 <1>  -0.1600 
 15 C       -5.1530     2.0050     0.0520 C.ar  1 <1>   0.0830 
 16 O       -6.4730     2.0520     0.3410 O.3   1 <1>  -0.3630 
 17 C       -7.4220     2.5050    -0.5960 C.3   1 <1>   0.1200 
 18 C       -8.8080     2.4140     0.0440 C.3   1 <1>  -0.1600 
 19 C       -9.8990     2.8940    -0.9210 C.3   1 <1>  -0.1600 
 20 C      -11.2840     2.8000    -0.2750 C.3   1 <1>  -0.2400 
 21 H        1.5550     1.1650    -0.2890 H     1 <1>   0.0800 
 22 H        1.9080     2.2480     1.0200 H     1 <1>   0.0800 
 23 H       -0.5860     2.8950     2.1950 H     1 <1>   0.0800 
 24 H       -1.4360     3.8100     0.9850 H     1 <1>   0.0800 
 25 H       -2.8230     2.6470    -2.3100 H     1 <1>   0.1500 
 26 H       -2.3070     1.0400     1.5870 H     1 <1>   0.1500 
 27 H        1.4070     3.1650    -1.8270 H     1 <1>   0.0800 
 28 H        2.9830     2.7580    -1.2430 H     1 <1>   0.0800 
 29 H        1.3240     4.2950     2.0440 H     1 <1>   0.0800 
 30 H       -0.0440     5.3400     2.0130 H     1 <1>   0.0800 
 31 H       -5.2290     2.7950    -1.9520 H     1 <1>   0.1500 
 32 H       -4.7370     1.1870     1.9690 H     1 <1>   0.1500 
 33 H        2.6090     5.1760    -1.2280 H     1 <1>   0.0800 
 34 H        2.9920     4.5630     0.3450 H     1 <1>   0.0800 
 35 H        1.1980     6.2720     0.3320 H     1 <1>   0.0800 
 36 H        0.1820     5.2210    -0.6050 H     1 <1>   0.0800 
 37 H       -7.3650     1.8770    -1.4680 H     1 <1>   0.0800 
 38 H       -7.1880     3.5240    -0.8510 H     1 <1>   0.0800 
 39 H       -8.8230     3.0220     0.9330 H     1 <1>   0.0800 
 40 H       -8.9980     1.3920     0.3220 H     1 <1>   0.0800 
 41 H       -9.8850     2.2910    -1.8140 H     1 <1>   0.0800 
 42 H       -9.7100     3.9160    -1.2040 H     1 <1>   0.0800 
 43 H      -11.5040     1.7820    -0.0030 H     1 <1>   0.0800 
 44 H      -12.0360     3.1390    -0.9650 H     1 <1>   0.0800 
 45 H      -11.3290     3.4120     0.6080 H     1 <1>   0.0800 
@<TRIPOS>BOND
  1   1   2  2   
  2   2   3  am  
  3   2   4  1   
  4   3   5  1   
  5   3   6  1   
  6   4   7  ar  
  7   4   8  ar  
  8   5   9  1   
  9   5  21  1   
 10   5  22  1   
 11   6  10  1   
 12   6  23  1   
 13   6  24  1   
 14   7  11  ar  
 15   7  25  1   
 16   8  12  ar  
 17   8  26  1   
 18   9  13  1   
 19   9  27  1   
 20   9  28  1   
 21  10  14  1   
 22  10  29  1   
 23  10  30  1   
 24  11  15  ar  
 25  11  31  1   
 26  12  15  ar  
 27  12  32  1   
 28  13  14  1   
 29  13  33  1   
 30  13  34  1   
 31  14  35  1   
 32  14  36  1   
 33  15  16  1   
 34  16  17  1   
 35  17  18  1   
 36  17  37  1   
 37  17  38  1   
 38  18  19  1   
 39  18  39  1   
 40  18  40  1   
 41  19  20  1   
 42  19  41  1   
 43  19  42  1   
 44  20  43  1   
 45  20  44  1   
 46  20  45  1   
@<TRIPOS>SUBSTRUCTURE
  1 ****   4 GROUP 4 **** **** 0

# MOE 2024.06 (io_trps.svl 2023.06)
