@<TRIPOS>MOLECULE
NONAME
51 53 1 0 0 
SMALL
USER_CHARGES


@<TRIPOS>ATOM
  1 S       -0.3680    -0.0810     1.6060 S.o2  1 <1>   1.4470 
  2 O        0.0280     0.8910     2.6040 O.2   1 <1>  -0.6500 
  3 O       -0.3580    -1.4870     1.9490 O.2   1 <1>  -0.6500 
  4 N        0.6650     0.1280     0.2790 N.am  1 <1>  -0.8490 
  5 C       -2.0020     0.3530     0.9500 C.ar  1 <1>  -0.0090 
  6 C        0.8100     1.5410    -0.0860 C.3   1 <1>   0.1960 
  7 C        1.9730    -0.4880     0.5220 C.3   1 <1>   0.1960 
  8 C       -2.9070     1.0820     1.7130 C.ar  1 <1>  -0.1500 
  9 C       -2.3920    -0.0380    -0.3250 C.ar  1 <1>  -0.1500 
 10 C        1.6190     1.6760    -1.3790 C.3   1 <1>  -0.1600 
 11 C        2.8350    -0.4230    -0.7430 C.3   1 <1>  -0.1600 
 12 C       -4.1600     1.4310     1.2200 C.ar  1 <1>   0.0820 
 13 C       -3.6310     0.3070    -0.8310 C.ar  1 <1>  -0.1500 
 14 C        2.9970     1.0180    -1.2420 C.3   1 <1>  -0.1600 
 15 O       -5.0660     2.1340     1.9590 O.3   1 <1>  -0.3630 
 16 C       -4.5240     1.0520    -0.0780 C.ar  1 <1>   0.1170 
 17 C       -4.8540     2.4080     3.3270 C.3   1 <1>   0.0400 
 18 N       -5.7560     1.3970    -0.6540 N.am  1 <1>  -0.5470 
 19 C       -6.2270     2.6210    -1.0140 C.2   1 <1>   0.5690 
 20 O       -7.2980     2.6990    -1.5620 O.2   1 <1>  -0.5700 
 21 C       -5.4400     3.9020    -0.7600 C.3   1 <1>   0.0440 
 22 C       -4.0150     3.8860    -1.3110 C.ar  1 <1>  -0.1440 
 23 C       -2.9430     4.2020    -0.4900 C.ar  1 <1>  -0.1500 
 24 C       -3.7790     3.5640    -2.6390 C.ar  1 <1>  -0.1500 
 25 C       -1.6520     4.1990    -0.9890 C.ar  1 <1>  -0.1500 
 26 C       -2.4880     3.5540    -3.1380 C.ar  1 <1>  -0.1500 
 27 C       -1.4240     3.8730    -2.3140 C.ar  1 <1>  -0.1500 
 28 H        1.3000     2.0790     0.7100 H     1 <1>   0.0800 
 29 H       -0.1630     1.9770    -0.2390 H     1 <1>   0.0800 
 30 H        1.8430    -1.5230     0.7960 H     1 <1>   0.0800 
 31 H        2.4680     0.0150     1.3370 H     1 <1>   0.0800 
 32 H       -2.6020     1.3720     2.7010 H     1 <1>   0.1500 
 33 H       -1.7110    -0.6140    -0.9300 H     1 <1>   0.1500 
 34 H        1.7390     2.7170    -1.6180 H     1 <1>   0.0800 
 35 H        1.0700     1.2130    -2.1800 H     1 <1>   0.0800 
 36 H        2.3700    -1.0220    -1.5070 H     1 <1>   0.0800 
 37 H        3.8020    -0.8460    -0.5380 H     1 <1>   0.0800 
 38 H       -3.9020     0.0070    -1.8280 H     1 <1>   0.1500 
 39 H        3.5910     1.5750    -0.5370 H     1 <1>   0.0800 
 40 H        3.5060     1.0250    -2.1900 H     1 <1>   0.0800 
 41 H       -4.7070     1.4800     3.8510 H     1 <1>   0.0800 
 42 H       -5.7280     2.9060     3.7070 H     1 <1>   0.0800 
 43 H       -3.9960     3.0490     3.4280 H     1 <1>   0.0800 
 44 H       -6.3790     0.6330    -0.9130 H     1 <1>   0.3700 
 45 H       -5.4300     4.0850     0.2970 H     1 <1>   0.0800 
 46 H       -5.9680     4.7180    -1.2160 H     1 <1>   0.0800 
 47 H       -3.1080     4.4520     0.5440 H     1 <1>   0.1500 
 48 H       -4.6010     3.3200    -3.2900 H     1 <1>   0.1500 
 49 H       -0.8290     4.4540    -0.3460 H     1 <1>   0.1500 
 50 H       -2.3140     3.3010    -4.1700 H     1 <1>   0.1500 
 51 H       -0.4220     3.8710    -2.7070 H     1 <1>   0.1500 
@<TRIPOS>BOND
  1   1   2  2   
  2   1   3  2   
  3   1   4  am  
  4   1   5  1   
  5   4   6  1   
  6   4   7  1   
  7   5   8  ar  
  8   5   9  ar  
  9   6  10  1   
 10   6  28  1   
 11   6  29  1   
 12   7  11  1   
 13   7  30  1   
 14   7  31  1   
 15   8  12  ar  
 16   8  32  1   
 17   9  13  ar  
 18   9  33  1   
 19  10  14  1   
 20  10  34  1   
 21  10  35  1   
 22  11  14  1   
 23  11  36  1   
 24  11  37  1   
 25  12  15  1   
 26  12  16  ar  
 27  13  16  ar  
 28  13  38  1   
 29  14  39  1   
 30  14  40  1   
 31  15  17  1   
 32  16  18  1   
 33  17  41  1   
 34  17  42  1   
 35  17  43  1   
 36  18  19  am  
 37  18  44  1   
 38  19  20  2   
 39  19  21  1   
 40  21  22  1   
 41  21  45  1   
 42  21  46  1   
 43  22  23  ar  
 44  22  24  ar  
 45  23  25  ar  
 46  23  47  1   
 47  24  26  ar  
 48  24  48  1   
 49  25  27  ar  
 50  25  49  1   
 51  26  27  ar  
 52  26  50  1   
 53  27  51  1   
@<TRIPOS>SUBSTRUCTURE
  1 ****   5 GROUP 4 **** **** 0

# MOE 2024.06 (io_trps.svl 2023.06)
