@<TRIPOS>MOLECULE
NONAME
43 45 1 0 0 
SMALL
USER_CHARGES


@<TRIPOS>ATOM
  1 CL      -0.3280    -1.7570    -1.3340 Cl    1 <1>  -0.1770 
  2 C       -1.8850    -2.3090    -0.7780 C.ar  1 <1>   0.1770 
  3 C       -2.0720    -2.5820     0.5640 C.ar  1 <1>  -0.1500 
  4 C       -2.9140    -2.4700    -1.6870 C.ar  1 <1>  -0.1500 
  5 C       -3.3120    -3.0150     0.9990 C.ar  1 <1>  -0.1500 
  6 C       -4.1490    -2.9050    -1.2410 C.ar  1 <1>  -0.1500 
  7 C       -4.3740    -3.1750     0.1100 C.ar  1 <1>   0.0530 
  8 C       -5.6620    -3.6080     0.5880 C.2   1 <1>   0.1330 
  9 N       -5.9050    -4.7650     1.1400 N.2   1 <1>  -0.3380 
 10 N       -6.7830    -2.8610     0.5440 N.pl3 1 <1>   0.0480 
 11 N       -7.1940    -4.7990     1.4710 N.2   1 <1>  -0.3380 
 12 C       -7.6790    -3.6660     1.1050 C.2   1 <1>   0.2430 
 13 C       -6.9620    -1.4730     0.0590 C.3   1 <1>   0.0960 
 14 S       -9.3990    -3.1880     1.3200 S.3   1 <1>  -0.2860 
 15 C       -6.5600    -0.4670     1.1420 C.3   1 <1>  -0.2400 
 16 C      -10.2140    -4.6540     2.1270 C.3   1 <1>   0.1310 
 17 C      -11.3200    -5.1980     1.2320 C.2   1 <1>   0.5690 
 18 O      -12.4570    -4.9500     1.5610 O.2   1 <1>  -0.5700 
 19 N      -11.0480    -5.9400     0.1070 N.am  1 <1>  -0.6600 
 20 C      -12.1340    -6.3400    -0.8390 C.3   1 <1>   0.1400 
 21 C       -9.6860    -6.3630    -0.3460 C.3   1 <1>   0.1400 
 22 C      -11.9850    -7.8090    -1.2630 C.3   1 <1>   0.1200 
 23 C       -9.6840    -7.8250    -0.8230 C.3   1 <1>   0.1200 
 24 O      -10.6990    -8.0490    -1.7600 O.3   1 <1>  -0.5600 
 25 H       -1.2560    -2.4570     1.2530 H     1 <1>   0.1500 
 26 H       -2.7400    -2.2610    -2.7280 H     1 <1>   0.1500 
 27 H       -3.4670    -3.2380     2.0410 H     1 <1>   0.1500 
 28 H       -4.9490    -3.0470    -1.9470 H     1 <1>   0.1500 
 29 H       -7.9920    -1.3240    -0.2140 H     1 <1>   0.0800 
 30 H       -6.3610    -1.3250    -0.8200 H     1 <1>   0.0800 
 31 H       -7.1680    -0.5990     2.0200 H     1 <1>   0.0800 
 32 H       -6.7030     0.5350     0.7780 H     1 <1>   0.0800 
 33 H       -5.5230    -0.5880     1.4040 H     1 <1>   0.0800 
 34 H      -10.6330    -4.2980     3.0490 H     1 <1>   0.0800 
 35 H       -9.4760    -5.4000     2.3410 H     1 <1>   0.0800 
 36 H      -12.0880    -5.7140    -1.7120 H     1 <1>   0.0800 
 37 H      -13.1010    -6.2030    -0.3860 H     1 <1>   0.0800 
 38 H       -8.9730    -6.2760     0.4490 H     1 <1>   0.0800 
 39 H       -9.3670    -5.7260    -1.1530 H     1 <1>   0.0800 
 40 H      -12.6870    -8.0420    -2.0430 H     1 <1>   0.0800 
 41 H      -12.1630    -8.4640    -0.4280 H     1 <1>   0.0800 
 42 H       -9.8290    -8.4930     0.0080 H     1 <1>   0.0800 
 43 H       -8.7450    -8.0590    -1.2930 H     1 <1>   0.0800 
@<TRIPOS>BOND
  1   1   2  1   
  2   2   3  ar  
  3   2   4  ar  
  4   3   5  ar  
  5   3  25  1   
  6   4   6  ar  
  7   4  26  1   
  8   5   7  ar  
  9   5  27  1   
 10   6   7  ar  
 11   6  28  1   
 12   7   8  1   
 13   8   9  2   
 14   8  10  1   
 15   9  11  1   
 16  10  12  1   
 17  10  13  1   
 18  11  12  2   
 19  12  14  1   
 20  13  15  1   
 21  13  29  1   
 22  13  30  1   
 23  14  16  1   
 24  15  31  1   
 25  15  32  1   
 26  15  33  1   
 27  16  17  1   
 28  16  34  1   
 29  16  35  1   
 30  17  18  2   
 31  17  19  am  
 32  19  20  1   
 33  19  21  1   
 34  20  22  1   
 35  20  36  1   
 36  20  37  1   
 37  21  23  1   
 38  21  38  1   
 39  21  39  1   
 40  22  24  1   
 41  22  40  1   
 42  22  41  1   
 43  23  24  1   
 44  23  42  1   
 45  23  43  1   
@<TRIPOS>SUBSTRUCTURE
  1 ****  12 GROUP 4 **** **** 0

# MOE 2024.06 (io_trps.svl 2023.06)
