@<TRIPOS>MOLECULE
NONAME
34 35 1 0 0 
SMALL
USER_CHARGES


@<TRIPOS>ATOM
  1 O       -0.7050     0.3860     0.2810 O.2   1 <1>  -0.5770 
  2 C       -1.9050     0.3040     0.1150 C.2   1 <1>   0.6840 
  3 N       -2.5860    -0.8460     0.5020 N.am  1 <1>  -0.4290 
  4 N       -2.5950     1.3560    -0.4730 N.am  1 <1>  -0.4450 
  5 C       -3.9440    -0.9950     0.2550 C.2   1 <1>   0.6970 
  6 C       -1.8230    -1.9560     1.1540 C.3   1 <1>   0.0480 
  7 C       -3.9470     1.1990    -0.7030 C.2   1 <1>   0.4170 
  8 C       -1.8830     2.6070    -0.8720 C.3   1 <1>   0.0480 
  9 O       -4.5240    -2.0280     0.5450 O.2   1 <1>  -0.5770 
 10 C       -4.6420     0.0920    -0.3640 C.2   1 <1>   0.2670 
 11 N       -4.7970     2.0800    -1.3000 N.pl3 1 <1>  -0.7060 
 12 N       -5.9740     0.3250    -0.7610 N.pl3 1 <1>  -0.7700 
 13 C       -6.0010     1.5270    -1.3230 C.cat 1 <1>   1.0670 
 14 C       -7.0550    -0.6850    -0.6080 C.3   1 <1>   0.4840 
 15 N       -7.0550     2.1130    -1.8440 N.pl3 1 <1>  -0.8420 
 16 C       -8.4100    -0.0020    -0.4400 C.2   1 <1>  -0.2870 
 17 C       -9.3550     0.0070    -1.3870 C.2   1 <1>  -0.3100 
 18 C       -8.6180     0.6580     0.9170 C.3   1 <1>  -0.1140 
 19 H       -1.0540    -1.5550     1.7930 H     1 <1>   0.0680 
 20 H       -1.3630    -2.5680     0.3980 H     1 <1>   0.0680 
 21 H       -2.4720    -2.5690     1.7550 H     1 <1>   0.0680 
 22 H       -0.9760     2.7250    -0.3020 H     1 <1>   0.0680 
 23 H       -2.5030     3.4660    -0.6900 H     1 <1>   0.0680 
 24 H       -1.6270     2.5600    -1.9170 H     1 <1>   0.0680 
 25 H       -4.5500     2.9910    -1.6710 H     1 <1>   0.4410 
 26 H       -6.8710    -1.3060     0.2520 H     1 <1>   0.0680 
 27 H       -7.0670    -1.3200    -1.4780 H     1 <1>   0.0680 
 28 H       -7.9660     1.6500    -1.7450 H     1 <1>   0.4410 
 29 H       -7.0700     3.0390    -2.2650 H     1 <1>   0.4410 
 30 H      -10.3230     0.4710    -1.2720 H     1 <1>   0.1380 
 31 H       -9.2630    -0.4620    -2.3550 H     1 <1>   0.1380 
 32 H       -7.8810     1.4210     1.0950 H     1 <1>   0.0680 
 33 H       -8.5460    -0.0760     1.7010 H     1 <1>   0.0680 
 34 H       -9.5930     1.1100     0.9760 H     1 <1>   0.0680 
@<TRIPOS>BOND
  1   1   2  2   
  2   2   3  am  
  3   2   4  am  
  4   3   5  am  
  5   3   6  1   
  6   4   7  1   
  7   4   8  1   
  8   5   9  2   
  9   5  10  1   
 10   6  19  1   
 11   6  20  1   
 12   6  21  1   
 13   7  10  2   
 14   7  11  1   
 15   8  22  1   
 16   8  23  1   
 17   8  24  1   
 18  10  12  1   
 19  11  13  ar  
 20  11  25  1   
 21  12  13  ar  
 22  12  14  1   
 23  13  15  ar  
 24  14  16  1   
 25  14  26  1   
 26  14  27  1   
 27  15  28  1   
 28  15  29  1   
 29  16  17  2   
 30  16  18  1   
 31  17  30  1   
 32  17  31  1   
 33  18  32  1   
 34  18  33  1   
 35  18  34  1   
@<TRIPOS>SUBSTRUCTURE
  1 ****  10 GROUP 4 **** **** 0

# MOE 2024.06 (io_trps.svl 2023.06)
