@<TRIPOS>MOLECULE
NONAME
51 53 1 0 0 
SMALL
USER_CHARGES


@<TRIPOS>ATOM
  1 S       -0.0490     0.7430     2.2360 S.o2  1 <1>   1.4470 
  2 O        1.2570     1.3380     2.4090 O.2   1 <1>  -0.6500 
  3 O       -1.1350     1.0960     3.1250 O.2   1 <1>  -0.6500 
  4 N        0.1460    -0.9800     2.3740 N.am  1 <1>  -0.6930 
  5 C       -0.5900     0.9050     0.5130 C.ar  1 <1>  -0.0090 
  6 C        1.1810    -1.6310     1.7240 C.ar  1 <1>   0.1990 
  7 C       -1.0280    -1.7520     2.8480 C.3   1 <1>   0.1160 
  8 C       -1.9240     1.1260     0.1900 C.ar  1 <1>  -0.1500 
  9 C        0.3160     0.7810    -0.5340 C.ar  1 <1>  -0.1500 
 10 C        2.5010    -1.4230     2.1050 C.ar  1 <1>  -0.1500 
 11 C        0.9370    -2.4960     0.6630 C.ar  1 <1>  -0.1500 
 12 C       -2.3390     1.2180    -1.1280 C.ar  1 <1>  -0.1500 
 13 C       -0.0920     0.8700    -1.8530 C.ar  1 <1>  -0.1500 
 14 C        3.5400    -2.0520     1.4480 C.ar  1 <1>  -0.1500 
 15 C        1.9780    -3.1260     0.0090 C.ar  1 <1>  -0.1500 
 16 C       -1.4240     1.0870    -2.1570 C.ar  1 <1>  -0.1430 
 17 C        3.3090    -2.9260     0.3830 C.ar  1 <1>   0.0860 
 18 C       -1.8730     1.1880    -3.6040 C.3   1 <1>  -0.0970 
 19 C        4.3900    -3.5930    -0.3170 C.2   1 <1>   0.5440 
 20 O        4.2480    -3.9770    -1.4620 O.2   1 <1>  -0.5700 
 21 N        5.5960    -3.8030     0.2910 N.am  1 <1>  -0.7300 
 22 C        6.7820    -4.4250    -0.3610 C.3   1 <1>   0.1400 
 23 C        7.3850    -3.5130    -1.4410 C.3   1 <1>   0.2000 
 24 O        8.6140    -4.0230    -1.8390 O.3   1 <1>  -0.5600 
 25 C        7.7100    -2.0950    -0.9870 C.3   1 <1>  -0.1600 
 26 C        9.3500    -3.0310    -2.4760 C.3   1 <1>   0.1200 
 27 C        8.8810    -1.7060    -1.8770 C.3   1 <1>  -0.1600 
 28 H       -1.8560    -1.6130     2.1760 H     1 <1>   0.0800 
 29 H       -1.3110    -1.4120     3.8300 H     1 <1>   0.0800 
 30 H       -0.7870    -2.8000     2.9050 H     1 <1>   0.0800 
 31 H       -2.6500     1.2310     0.9790 H     1 <1>   0.1500 
 32 H        1.3570     0.6100    -0.3130 H     1 <1>   0.1500 
 33 H        2.7060    -0.7540     2.9230 H     1 <1>   0.1500 
 34 H       -0.0740    -2.6660     0.3410 H     1 <1>   0.1500 
 35 H       -3.3780     1.3930    -1.3470 H     1 <1>   0.1500 
 36 H        0.6350     0.7700    -2.6420 H     1 <1>   0.1500 
 37 H        4.5470    -1.8490     1.7640 H     1 <1>   0.1500 
 38 H        1.7670    -3.7880    -0.8150 H     1 <1>   0.1500 
 39 H       -1.8000     2.2070    -3.9370 H     1 <1>   0.0800 
 40 H       -2.8930     0.8620    -3.7060 H     1 <1>   0.0800 
 41 H       -1.2560     0.5710    -4.2330 H     1 <1>   0.0800 
 42 H        5.7030    -3.5850     1.2820 H     1 <1>   0.3700 
 43 H        6.4860    -5.3540    -0.8180 H     1 <1>   0.0800 
 44 H        7.5280    -4.6280     0.3870 H     1 <1>   0.0800 
 45 H        6.7450    -3.4950    -2.3080 H     1 <1>   0.0800 
 46 H        8.0150    -2.1030     0.0440 H     1 <1>   0.0800 
 47 H        6.8640    -1.4420    -1.1050 H     1 <1>   0.0800 
 48 H        9.1360    -3.0810    -3.5300 H     1 <1>   0.0800 
 49 H       10.3970    -3.2120    -2.3010 H     1 <1>   0.0800 
 50 H        9.6670    -1.2390    -1.3120 H     1 <1>   0.0800 
 51 H        8.5700    -1.0420    -2.6640 H     1 <1>   0.0800 
@<TRIPOS>BOND
  1   1   2  2   
  2   1   3  2   
  3   1   4  am  
  4   1   5  1   
  5   4   6  1   
  6   4   7  1   
  7   5   8  ar  
  8   5   9  ar  
  9   6  10  ar  
 10   6  11  ar  
 11   7  28  1   
 12   7  29  1   
 13   7  30  1   
 14   8  12  ar  
 15   8  31  1   
 16   9  13  ar  
 17   9  32  1   
 18  10  14  ar  
 19  10  33  1   
 20  11  15  ar  
 21  11  34  1   
 22  12  16  ar  
 23  12  35  1   
 24  13  16  ar  
 25  13  36  1   
 26  14  17  ar  
 27  14  37  1   
 28  15  17  ar  
 29  15  38  1   
 30  16  18  1   
 31  17  19  1   
 32  18  39  1   
 33  18  40  1   
 34  18  41  1   
 35  19  20  2   
 36  19  21  am  
 37  21  22  1   
 38  21  42  1   
 39  22  23  1   
 40  22  43  1   
 41  22  44  1   
 42  23  24  1   
 43  23  25  1   
 44  23  45  1   
 45  24  26  1   
 46  25  27  1   
 47  25  46  1   
 48  25  47  1   
 49  26  27  1   
 50  26  48  1   
 51  26  49  1   
 52  27  50  1   
 53  27  51  1   
@<TRIPOS>SUBSTRUCTURE
  1 ****  17 GROUP 4 **** **** 0

# MOE 2024.06 (io_trps.svl 2023.06)
