@<TRIPOS>MOLECULE
NONAME
28 27 1 0 0 
SMALL
USER_CHARGES


@<TRIPOS>ATOM
  1 O        0.5330     0.3070    -0.0420 O.2   1 <1>  -0.5700 
  2 C        1.6980     0.0540    -0.2280 C.2   1 <1>   0.6590 
  3 O        2.5390     1.0770    -0.4060 O.3   1 <1>  -0.4300 
  4 C        2.2100    -1.4320    -0.2010 C.3   1 <1>   0.4790 
  5 C        3.8890     0.9880    -0.8090 C.3   1 <1>   0.1200 
  6 O        2.9370    -1.7670    -1.3380 O.3   1 <1>  -0.6800 
  7 C        3.1080    -1.7100     1.0080 C.2   1 <1>  -0.2880 
  8 C        1.0600    -2.4460    -0.1700 C.3   1 <1>  -0.2400 
  9 C        4.5130     2.3910    -0.8090 C.3   1 <1>  -0.0800 
 10 C        4.3760    -2.1470     1.0370 C.2   1 <1>  -0.3000 
 11 C        5.9570     2.3260    -1.3220 C.3   1 <1>  -0.2400 
 12 C        4.4890     3.0240     0.5900 C.3   1 <1>  -0.2400 
 13 H        3.9160     0.5660    -1.7990 H     1 <1>   0.0800 
 14 H        4.4160     0.3480    -0.1250 H     1 <1>   0.0800 
 15 H        3.2800    -2.6690    -1.2100 H     1 <1>   0.4000 
 16 H        2.5770    -1.5020     1.9220 H     1 <1>   0.1500 
 17 H        1.4340    -3.4530    -0.1350 H     1 <1>   0.0800 
 18 H        0.4350    -2.3210    -1.0370 H     1 <1>   0.0800 
 19 H        0.4530    -2.2810     0.7020 H     1 <1>   0.0800 
 20 H        3.9440     3.0100    -1.4830 H     1 <1>   0.0800 
 21 H        4.9250    -2.3150     1.9480 H     1 <1>   0.1500 
 22 H        4.9770    -2.3690     0.1710 H     1 <1>   0.1500 
 23 H        6.5620     1.7140    -0.6770 H     1 <1>   0.0800 
 24 H        6.3840     3.3120    -1.3590 H     1 <1>   0.0800 
 25 H        5.9820     1.9110    -2.3140 H     1 <1>   0.0800 
 26 H        5.0320     2.4170     1.2920 H     1 <1>   0.0800 
 27 H        3.4750     3.1250     0.9370 H     1 <1>   0.0800 
 28 H        4.9320     4.0040     0.5650 H     1 <1>   0.0800 
@<TRIPOS>BOND
  1   1   2  2   
  2   2   3  1   
  3   2   4  1   
  4   3   5  1   
  5   4   6  1   
  6   4   7  1   
  7   4   8  1   
  8   5   9  1   
  9   5  13  1   
 10   5  14  1   
 11   6  15  1   
 12   7  10  2   
 13   7  16  1   
 14   8  17  1   
 15   8  18  1   
 16   8  19  1   
 17   9  11  1   
 18   9  12  1   
 19   9  20  1   
 20  10  21  1   
 21  10  22  1   
 22  11  23  1   
 23  11  24  1   
 24  11  25  1   
 25  12  26  1   
 26  12  27  1   
 27  12  28  1   
@<TRIPOS>SUBSTRUCTURE
  1 ****   3 GROUP 4 **** **** 0

# MOE 2024.06 (io_trps.svl 2023.06)
