@<TRIPOS>MOLECULE
NONAME
41 40 1 0 0 
SMALL
USER_CHARGES


@<TRIPOS>ATOM
  1 O        1.0160     0.9620     1.8370 O.2   1 <1>  -0.5700 
  2 C        1.6390     1.1210     0.8100 C.2   1 <1>   0.7060 
  3 O        1.2670     2.1350     0.0210 O.3   1 <1>  -0.4300 
  4 C        2.7540     0.2990     0.4630 C.2   1 <1>   0.0290 
  5 C        1.6250     2.2090    -1.3440 C.3   1 <1>   0.0400 
  6 C        2.3870    -0.9920    -0.0130 C.2   1 <1>   0.4950 
  7 C        4.0410     0.7630     0.6030 C.2   1 <1>  -0.1500 
  8 O        1.5480    -1.1590    -0.8640 O.2   1 <1>  -0.5700 
  9 C        3.0430    -2.2370     0.5490 C.3   1 <1>  -0.1790 
 10 C        5.2550     0.1490     0.2280 C.2   1 <1>  -0.1500 
 11 C        6.5000     0.6470     0.4640 C.2   1 <1>  -0.0500 
 12 N        7.7350     0.1320     0.1370 N.pl3 1 <1>  -0.8380 
 13 C        8.0000    -1.1520    -0.5900 C.3   1 <1>   0.2890 
 14 C        8.9410     0.9180     0.5410 C.3   1 <1>   0.2890 
 15 C        7.4390    -1.1040    -2.0110 C.3   1 <1>  -0.2400 
 16 C        7.5120    -2.3530     0.2180 C.3   1 <1>  -0.2400 
 17 C        9.7290     1.3710    -0.6870 C.3   1 <1>  -0.2400 
 18 C        9.7990     0.1280     1.5280 C.3   1 <1>  -0.2400 
 19 H        1.1360     3.0660    -1.7720 H     1 <1>   0.0800 
 20 H        1.2930     1.3150    -1.8440 H     1 <1>   0.0800 
 21 H        2.6920     2.3190    -1.4290 H     1 <1>   0.0800 
 22 H        4.1570     1.7370     1.0500 H     1 <1>   0.1500 
 23 H        3.6610    -1.9980     1.3950 H     1 <1>   0.0800 
 24 H        3.6390    -2.7060    -0.2110 H     1 <1>   0.0800 
 25 H        2.2800    -2.9250     0.8640 H     1 <1>   0.0800 
 26 H        5.1660    -0.7800    -0.2910 H     1 <1>   0.1500 
 27 H        6.5330     1.5890     0.9880 H     1 <1>   0.1500 
 28 H        9.0630    -1.2760    -0.6950 H     1 <1>   0.0800 
 29 H        8.6130     1.8080     1.0510 H     1 <1>   0.0800 
 30 H        6.3690    -1.0830    -2.0230 H     1 <1>   0.0800 
 31 H        7.7620    -1.9740    -2.5530 H     1 <1>   0.0800 
 32 H        7.8120    -0.2330    -2.5160 H     1 <1>   0.0800 
 33 H        6.4450    -2.3810     0.2970 H     1 <1>   0.0800 
 34 H        7.9350    -2.3170     1.2050 H     1 <1>   0.0800 
 35 H        7.8360    -3.2600    -0.2560 H     1 <1>   0.0800 
 36 H       10.1850     0.5420    -1.1940 H     1 <1>   0.0800 
 37 H       10.5080     2.0470    -0.3850 H     1 <1>   0.0800 
 38 H        9.0750     1.8880    -1.3650 H     1 <1>   0.0800 
 39 H       10.2570    -0.7240     1.0620 H     1 <1>   0.0800 
 40 H        9.1910    -0.2000     2.3520 H     1 <1>   0.0800 
 41 H       10.5790     0.7580     1.9120 H     1 <1>   0.0800 
@<TRIPOS>BOND
  1   1   2  2   
  2   2   3  1   
  3   2   4  1   
  4   3   5  1   
  5   4   6  1   
  6   4   7  2   
  7   5  19  1   
  8   5  20  1   
  9   5  21  1   
 10   6   8  2   
 11   6   9  1   
 12   7  10  1   
 13   7  22  1   
 14   9  23  1   
 15   9  24  1   
 16   9  25  1   
 17  10  11  2   
 18  10  26  1   
 19  11  12  1   
 20  11  27  1   
 21  12  13  1   
 22  12  14  1   
 23  13  15  1   
 24  13  16  1   
 25  13  28  1   
 26  14  17  1   
 27  14  18  1   
 28  14  29  1   
 29  15  30  1   
 30  15  31  1   
 31  15  32  1   
 32  16  33  1   
 33  16  34  1   
 34  16  35  1   
 35  17  36  1   
 36  17  37  1   
 37  17  38  1   
 38  18  39  1   
 39  18  40  1   
 40  18  41  1   
@<TRIPOS>SUBSTRUCTURE
  1 ****  10 GROUP 4 **** **** 0

# MOE 2024.06 (io_trps.svl 2023.06)
