@<TRIPOS>MOLECULE
NONAME
43 42 1 0 0 
SMALL
USER_CHARGES


@<TRIPOS>ATOM
  1 O       -3.1600    -0.4370     0.7980 O.2   1 <1>  -0.5700 
  2 C       -2.5080     0.4390     0.3050 C.2   1 <1>   0.6590 
  3 O       -2.4060     1.6080     0.9210 O.3   1 <1>  -0.4300 
  4 C       -1.7200     0.1640    -0.9580 C.3   1 <1>  -0.1790 
  5 C       -2.4640     2.9060     0.3680 C.3   1 <1>   0.4800 
  6 C       -1.1760     3.1710    -0.3560 C.1   1 <1>  -0.2000 
  7 C       -2.5530     3.9040     1.5540 C.3   1 <1>  -0.1600 
  8 C       -3.6540     3.0460    -0.6180 C.3   1 <1>  -0.1600 
  9 C       -0.1330     3.3900    -0.8870 C.1   1 <1>  -0.2000 
 10 C       -3.3550     3.4560     2.7930 C.3   1 <1>  -0.2400 
 11 C       -5.0540     2.7040    -0.0790 C.3   1 <1>  -0.2400 
 12 C        1.2050     3.6640    -1.4770 C.3   1 <1>   0.5430 
 13 N        2.1270     4.0080    -0.3600 N.4   1 <1>  -0.9590 
 14 C        3.3760     4.6560    -0.8420 C.3   1 <1>   0.3430 
 15 C        2.4050     2.8170     0.4920 C.3   1 <1>   0.3430 
 16 C        3.0780     6.0840    -1.2850 C.3   1 <1>  -0.2400 
 17 C        2.8720     3.2740     1.8690 C.3   1 <1>  -0.2400 
 18 H       -0.6810     0.3660    -0.7860 H     1 <1>   0.0800 
 19 H       -2.0780     0.7550    -1.7770 H     1 <1>   0.0800 
 20 H       -1.8260    -0.8730    -1.2190 H     1 <1>   0.0800 
 21 H       -2.9570     4.8330     1.1940 H     1 <1>   0.0800 
 22 H       -1.5570     4.1230     1.8980 H     1 <1>   0.0800 
 23 H       -3.4730     2.4380    -1.4830 H     1 <1>   0.0800 
 24 H       -3.6780     4.0610    -0.9740 H     1 <1>   0.0800 
 25 H       -4.3690     3.2030     2.5480 H     1 <1>   0.0800 
 26 H       -3.3750     4.2460     3.5220 H     1 <1>   0.0800 
 27 H       -2.8980     2.5950     3.2490 H     1 <1>   0.0800 
 28 H       -5.0600     1.7490     0.4170 H     1 <1>   0.0800 
 29 H       -5.7570     2.6630    -0.8930 H     1 <1>   0.0800 
 30 H       -5.3940     3.4580     0.6060 H     1 <1>   0.0800 
 31 H        1.1200     4.4880    -2.1650 H     1 <1>   0.0800 
 32 H        1.5640     2.8010    -2.0120 H     1 <1>   0.0800 
 33 H        1.6160     4.6810     0.2240 H     1 <1>   0.4500 
 34 H        3.8030     4.0920    -1.6560 H     1 <1>   0.0800 
 35 H        4.1010     4.6910    -0.0440 H     1 <1>   0.0800 
 36 H        3.1530     2.1910     0.0320 H     1 <1>   0.0800 
 37 H        1.5060     2.2330     0.6150 H     1 <1>   0.0800 
 38 H        2.4350     6.1120    -2.1460 H     1 <1>   0.0800 
 39 H        4.0010     6.5650    -1.5560 H     1 <1>   0.0800 
 40 H        2.6370     6.6500    -0.4830 H     1 <1>   0.0800 
 41 H        3.8100     3.7950     1.8200 H     1 <1>   0.0800 
 42 H        3.0110     2.4100     2.4950 H     1 <1>   0.0800 
 43 H        2.1310     3.9000     2.3350 H     1 <1>   0.0800 
@<TRIPOS>BOND
  1   1   2  2   
  2   2   3  1   
  3   2   4  1   
  4   3   5  1   
  5   4  18  1   
  6   4  19  1   
  7   4  20  1   
  8   5   6  1   
  9   5   7  1   
 10   5   8  1   
 11   6   9  3   
 12   7  10  1   
 13   7  21  1   
 14   7  22  1   
 15   8  11  1   
 16   8  23  1   
 17   8  24  1   
 18   9  12  1   
 19  10  25  1   
 20  10  26  1   
 21  10  27  1   
 22  11  28  1   
 23  11  29  1   
 24  11  30  1   
 25  12  13  1   
 26  12  31  1   
 27  12  32  1   
 28  13  14  1   
 29  13  15  1   
 30  13  33  1   
 31  14  16  1   
 32  14  34  1   
 33  14  35  1   
 34  15  17  1   
 35  15  36  1   
 36  15  37  1   
 37  16  38  1   
 38  16  39  1   
 39  16  40  1   
 40  17  41  1   
 41  17  42  1   
 42  17  43  1   
@<TRIPOS>SUBSTRUCTURE
  1 ****   6 GROUP 4 **** **** 0

# MOE 2024.06 (io_trps.svl 2023.06)
