@<TRIPOS>MOLECULE
NONAME
29 30 1 0 0 
SMALL
USER_CHARGES


@<TRIPOS>ATOM
  1 O       -0.5430     0.0980    -0.8160 O.2   1 <1>  -0.5700 
  2 C       -1.5290     0.6170    -0.3460 C.2   1 <1>   0.5690 
  3 N       -2.6980    -0.0600     0.0020 N.am  1 <1>  -0.1150 
  4 C       -1.4850     2.1130    -0.0990 C.3   1 <1>  -0.0990 
  5 N       -3.8700     0.6210     0.3630 N.2   1 <1>  -0.5120 
  6 C       -2.7630    -1.4750     0.0000 C.ar  1 <1>   0.1170 
  7 C       -2.8600     2.7570    -0.3280 C.3   1 <1>  -0.0990 
  8 C       -3.9700     1.8750     0.2270 C.2   1 <1>   0.3280 
  9 C       -1.7880    -2.2480     0.6230 C.ar  1 <1>  -0.1500 
 10 C       -3.8210    -2.1330    -0.6210 C.ar  1 <1>  -0.1500 
 11 C       -5.2440     2.6060     0.5950 C.3   1 <1>  -0.1790 
 12 C       -1.8640    -3.6290     0.6220 C.ar  1 <1>  -0.1500 
 13 C       -3.9010    -3.5140    -0.6240 C.ar  1 <1>  -0.1500 
 14 C       -2.9210    -4.2710    -0.0030 C.ar  1 <1>  -0.1430 
 15 C       -3.0060    -5.7870    -0.0040 C.3   1 <1>  -0.0970 
 16 H       -0.7510     2.5660    -0.7400 H     1 <1>   0.0800 
 17 H       -1.1830     2.2640     0.9200 H     1 <1>   0.0800 
 18 H       -3.0280     2.8860    -1.3820 H     1 <1>   0.0800 
 19 H       -2.8800     3.7250     0.1410 H     1 <1>   0.0800 
 20 H       -0.9610    -1.7630     1.1090 H     1 <1>   0.1500 
 21 H       -4.5860    -1.5510    -1.1020 H     1 <1>   0.1500 
 22 H       -5.0470     3.3200     1.3740 H     1 <1>   0.0800 
 23 H       -5.9800     1.9070     0.9490 H     1 <1>   0.0800 
 24 H       -5.6370     3.1160    -0.2650 H     1 <1>   0.0800 
 25 H       -1.0960    -4.2020     1.1100 H     1 <1>   0.1500 
 26 H       -4.7300    -3.9950    -1.1110 H     1 <1>   0.1500 
 27 H       -2.0210    -6.2180     0.0130 H     1 <1>   0.0800 
 28 H       -3.5130    -6.1340    -0.8870 H     1 <1>   0.0800 
 29 H       -3.5470    -6.1200     0.8620 H     1 <1>   0.0800 
@<TRIPOS>BOND
  1   1   2  2   
  2   2   3  am  
  3   2   4  1   
  4   3   5  1   
  5   3   6  1   
  6   4   7  1   
  7   4  16  1   
  8   4  17  1   
  9   5   8  2   
 10   6   9  ar  
 11   6  10  ar  
 12   7   8  1   
 13   7  18  1   
 14   7  19  1   
 15   8  11  1   
 16   9  12  ar  
 17   9  20  1   
 18  10  13  ar  
 19  10  21  1   
 20  11  22  1   
 21  11  23  1   
 22  11  24  1   
 23  12  14  ar  
 24  12  25  1   
 25  13  14  ar  
 26  13  26  1   
 27  14  15  1   
 28  15  27  1   
 29  15  28  1   
 30  15  29  1   
@<TRIPOS>SUBSTRUCTURE
  1 ****   6 GROUP 4 **** **** 0

# MOE 2024.06 (io_trps.svl 2023.06)
