@<TRIPOS>MOLECULE
NONAME
44 46 1 0 0 
SMALL
USER_CHARGES


@<TRIPOS>ATOM
  1 S        0.8230    -1.1690    -1.4750 S.3   1 <1>  -0.2860 
  2 C       -0.9480    -0.8010    -1.4660 C.2   1 <1>   0.2420 
  3 C        1.2040    -2.1260     0.0810 C.3   1 <1>   0.1310 
  4 N       -1.4220     0.2050    -2.0870 N.2   1 <1>  -0.3380 
  5 N       -1.9020    -1.4960    -0.8510 N.pl3 1 <1>   0.5930 
  6 C        2.6830    -2.0780     0.4340 C.2   1 <1>   0.5690 
  7 N       -2.7290     0.1620    -1.8460 N.2   1 <1>   0.0000 
  8 N       -3.0300    -0.8470    -1.1070 N.2   1 <1>  -0.4180 
  9 C       -1.8380    -2.7130    -0.1220 C.ar  1 <1>  -0.0230 
 10 O        3.0240    -2.6080     1.4630 O.2   1 <1>  -0.5700 
 11 N        3.5600    -1.4510    -0.4000 N.am  1 <1>  -0.7300 
 12 C       -1.5870    -3.9150    -0.7770 C.ar  1 <1>  -0.1500 
 13 C       -2.0110    -2.7190     1.2580 C.ar  1 <1>  -0.1500 
 14 C        5.0210    -1.2880    -0.2320 C.3   1 <1>   0.2200 
 15 C       -1.4880    -5.0950    -0.0620 C.ar  1 <1>  -0.1500 
 16 C       -1.9100    -3.8990     1.9720 C.ar  1 <1>  -0.1500 
 17 C        5.6880    -2.6680    -0.1320 C.3   1 <1>  -0.1600 
 18 C        5.2870    -0.4070     0.9990 C.3   1 <1>  -0.1600 
 19 C       -1.6450    -5.0870     1.3130 C.ar  1 <1>  -0.1500 
 20 C        7.1370    -2.7240    -0.6460 C.3   1 <1>  -0.1600 
 21 C        6.7120     0.1580     1.0920 C.3   1 <1>  -0.1600 
 22 C        8.0220    -1.5050    -0.3420 C.3   1 <1>  -0.1600 
 23 C        7.8290    -0.8980     1.0550 C.3   1 <1>  -0.1600 
 24 H        0.9070    -3.1450    -0.0770 H     1 <1>   0.0800 
 25 H        0.6330    -1.6900     0.8790 H     1 <1>   0.0800 
 26 H        3.1800    -1.0090    -1.2410 H     1 <1>   0.3700 
 27 H       -1.4670    -3.9340    -1.8480 H     1 <1>   0.1500 
 28 H       -2.2260    -1.8010     1.7800 H     1 <1>   0.1500 
 29 H        5.3880    -0.7850    -1.1110 H     1 <1>   0.0800 
 30 H       -1.2900    -6.0230    -0.5720 H     1 <1>   0.1500 
 31 H       -2.0400    -3.8980     3.0410 H     1 <1>   0.1500 
 32 H        5.1170    -3.3830    -0.6970 H     1 <1>   0.0800 
 33 H        5.6680    -2.9920     0.8940 H     1 <1>   0.0800 
 34 H        5.0790    -0.9710     1.8910 H     1 <1>   0.0800 
 35 H        4.6070     0.4260     0.9790 H     1 <1>   0.0800 
 36 H       -1.5660    -6.0060     1.8700 H     1 <1>   0.1500 
 37 H        7.1200    -2.8640    -1.7130 H     1 <1>   0.0800 
 38 H        7.6000    -3.6000    -0.2240 H     1 <1>   0.0800 
 39 H        6.7910     0.6990     2.0200 H     1 <1>   0.0800 
 40 H        6.8660     0.8710     0.3000 H     1 <1>   0.0800 
 41 H        7.8600    -0.7470    -1.0890 H     1 <1>   0.0800 
 42 H        9.0480    -1.8170    -0.4400 H     1 <1>   0.0800 
 43 H        7.6500    -1.6680     1.7860 H     1 <1>   0.0800 
 44 H        8.7460    -0.4060     1.3300 H     1 <1>   0.0800 
@<TRIPOS>BOND
  1   1   2  1   
  2   1   3  1   
  3   2   4  2   
  4   2   5  1   
  5   3   6  1   
  6   3  24  1   
  7   3  25  1   
  8   4   7  1   
  9   5   8  1   
 10   5   9  1   
 11   6  10  2   
 12   6  11  am  
 13   7   8  2   
 14   9  12  ar  
 15   9  13  ar  
 16  11  14  1   
 17  11  26  1   
 18  12  15  ar  
 19  12  27  1   
 20  13  16  ar  
 21  13  28  1   
 22  14  17  1   
 23  14  18  1   
 24  14  29  1   
 25  15  19  ar  
 26  15  30  1   
 27  16  19  ar  
 28  16  31  1   
 29  17  20  1   
 30  17  32  1   
 31  17  33  1   
 32  18  21  1   
 33  18  34  1   
 34  18  35  1   
 35  19  36  1   
 36  20  22  1   
 37  20  37  1   
 38  20  38  1   
 39  21  23  1   
 40  21  39  1   
 41  21  40  1   
 42  22  23  1   
 43  22  41  1   
 44  22  42  1   
 45  23  43  1   
 46  23  44  1   
@<TRIPOS>SUBSTRUCTURE
  1 ****   3 GROUP 4 **** **** 0

# MOE 2024.06 (io_trps.svl 2023.06)
