@<TRIPOS>MOLECULE
NONAME
48 51 1 0 0 
SMALL
USER_CHARGES


@<TRIPOS>ATOM
  1 F       -1.3790     0.9410     3.5440 F     1 <1>  -0.1970 
  2 C       -1.7560     1.8650     2.7010 C.ar  1 <1>   0.1830 
  3 C       -1.9000     3.1620     3.1540 C.ar  1 <1>  -0.1580 
  4 C       -1.9980     1.5110     1.3880 C.ar  1 <1>  -0.1580 
  5 C       -2.3030     4.1370     2.2560 C.ar  1 <1>  -0.1580 
  6 C       -2.3990     2.4940     0.4990 C.ar  1 <1>  -0.1580 
  7 C       -2.5540     3.8070     0.9290 C.ar  1 <1>  -0.1510 
  8 C       -3.0040     4.8830    -0.0480 C.3   1 <1>   0.2770 
  9 N       -4.4820     5.0220     0.0390 N.am  1 <1>  -0.4260 
 10 C       -5.0230     5.9150     0.9530 C.2   1 <1>   0.6860 
 11 C       -5.2820     4.1500    -0.6790 C.2   1 <1>   0.6990 
 12 O       -4.3130     6.7340     1.5020 O.2   1 <1>  -0.5750 
 13 N       -6.3830     5.8850     1.2320 N.am  1 <1>  -0.4420 
 14 O       -4.8060     3.4300    -1.5410 O.2   1 <1>  -0.5750 
 15 C       -6.6870     4.1320    -0.3910 C.2   1 <1>   0.2700 
 16 C       -7.1670     4.9860     0.5350 C.2   1 <1>   0.4200 
 17 C       -6.9760     6.8120     2.2410 C.3   1 <1>   0.0520 
 18 N       -7.7920     3.3970    -0.8680 N.pl3 1 <1>  -0.7670 
 19 N       -8.5090     4.8000     0.6400 N.pl3 1 <1>  -0.7040 
 20 C       -8.8730     3.8230    -0.1930 C.cat 1 <1>   1.0690 
 21 C       -7.6710     2.4810    -2.0410 C.3   1 <1>   0.2670 
 22 N      -10.1430     3.3720    -0.2850 N.pl3 1 <1>  -0.5960 
 23 C      -10.5090     1.9710    -0.6750 C.3   1 <1>   0.1600 
 24 C      -11.3430     4.1850     0.1030 C.3   1 <1>   0.1600 
 25 C      -11.4590     1.3370     0.3560 C.3   1 <1>   0.1120 
 26 C      -12.2300     3.4250     1.1020 C.3   1 <1>   0.1120 
 27 O      -12.5520     2.1720     0.5850 O.3   1 <1>  -0.5650 
 28 H       -1.7000     3.4000     4.1830 H     1 <1>   0.1420 
 29 H       -1.8720     0.4910     1.0730 H     1 <1>   0.1420 
 30 H       -2.4180     5.1530     2.5960 H     1 <1>   0.1420 
 31 H       -2.5880     2.2300    -0.5280 H     1 <1>   0.1420 
 32 H       -2.7130     4.6180    -1.0500 H     1 <1>   0.0720 
 33 H       -2.5200     5.8160     0.1860 H     1 <1>   0.0720 
 34 H       -6.2210     7.1630     2.9250 H     1 <1>   0.0720 
 35 H       -7.7330     6.3080     2.8150 H     1 <1>   0.0720 
 36 H       -7.4070     7.6630     1.7430 H     1 <1>   0.0720 
 37 H       -9.1330     5.2750     1.2830 H     1 <1>   0.4440 
 38 H       -6.9820     2.8900    -2.7610 H     1 <1>   0.0720 
 39 H       -8.6200     2.3560    -2.5310 H     1 <1>   0.0720 
 40 H       -7.3020     1.5210    -1.7210 H     1 <1>   0.0720 
 41 H       -9.6350     1.3490    -0.7400 H     1 <1>   0.0720 
 42 H      -10.9940     1.9800    -1.6360 H     1 <1>   0.0720 
 43 H      -11.9260     4.3890    -0.7790 H     1 <1>   0.0720 
 44 H      -11.0590     5.1310     0.5270 H     1 <1>   0.0720 
 45 H      -10.9570     1.1600     1.2920 H     1 <1>   0.0720 
 46 H      -11.8370     0.3990    -0.0120 H     1 <1>   0.0720 
 47 H      -13.1520     3.9560     1.2630 H     1 <1>   0.0720 
 48 H      -11.7370     3.2940     2.0500 H     1 <1>   0.0720 
@<TRIPOS>BOND
  1   1   2  1   
  2   2   3  ar  
  3   2   4  ar  
  4   3   5  ar  
  5   3  28  1   
  6   4   6  ar  
  7   4  29  1   
  8   5   7  ar  
  9   5  30  1   
 10   6   7  ar  
 11   6  31  1   
 12   7   8  1   
 13   8   9  1   
 14   8  32  1   
 15   8  33  1   
 16   9  10  am  
 17   9  11  am  
 18  10  12  2   
 19  10  13  am  
 20  11  14  2   
 21  11  15  1   
 22  13  16  1   
 23  13  17  1   
 24  15  16  2   
 25  15  18  1   
 26  16  19  1   
 27  17  34  1   
 28  17  35  1   
 29  17  36  1   
 30  18  20  ar  
 31  18  21  1   
 32  19  20  ar  
 33  19  37  1   
 34  20  22  ar  
 35  21  38  1   
 36  21  39  1   
 37  21  40  1   
 38  22  23  1   
 39  22  24  1   
 40  23  25  1   
 41  23  41  1   
 42  23  42  1   
 43  24  26  1   
 44  24  43  1   
 45  24  44  1   
 46  25  27  1   
 47  25  45  1   
 48  25  46  1   
 49  26  27  1   
 50  26  47  1   
 51  26  48  1   
@<TRIPOS>SUBSTRUCTURE
  1 ****  15 GROUP 4 **** **** 0

# MOE 2024.06 (io_trps.svl 2023.06)
