@<TRIPOS>MOLECULE
NONAME
53 56 1 0 0 
SMALL
USER_CHARGES


@<TRIPOS>ATOM
  1 O        1.6130    -0.1210    -2.5510 O.2   1 <1>  -0.5700 
  2 C        2.1610    -0.6540    -1.6130 C.2   1 <1>   0.4950 
  3 C        2.8400     0.0480    -0.5730 C.2   1 <1>  -0.1240 
  4 C        2.1860    -2.1720    -1.6460 C.3   1 <1>  -0.0990 
  5 C        3.7340    -0.5840     0.2460 C.2   1 <1>  -0.0380 
  6 C        2.4660     1.5380    -0.5270 C.3   1 <1>   0.5710 
  7 C        2.5830    -2.8030    -0.3010 C.3   1 <1>   0.0000 
  8 N        4.6370    -0.0080     1.1090 N.pl3 1 <1>  -0.6000 
  9 C        3.8550    -2.1050     0.2200 C.3   1 <1>  -0.0220 
 10 N        3.0190     2.3030     0.6100 N.pl3 1 <1>  -0.8690 
 11 C        0.9530     1.7290    -0.3780 C.ar  1 <1>  -0.1430 
 12 C        2.8570    -4.3020    -0.4980 C.3   1 <1>  -0.2400 
 13 C        1.4340    -2.6560     0.7150 C.3   1 <1>  -0.2400 
 14 C        5.1840     1.2830     1.0210 C.ar  1 <1>   0.1000 
 15 C        4.3960     2.4090     0.7540 C.ar  1 <1>   0.1000 
 16 C        0.3040     1.3080     0.7770 C.ar  1 <1>  -0.1500 
 17 C        0.2060     2.3310    -1.3830 C.ar  1 <1>  -0.1500 
 18 C        6.5480     1.4470     1.2100 C.ar  1 <1>  -0.1500 
 19 C        4.9930     3.6590     0.6790 C.ar  1 <1>  -0.1500 
 20 C       -1.0600     1.4800     0.9290 C.ar  1 <1>  -0.1500 
 21 C       -1.1580     2.5060    -1.2340 C.ar  1 <1>  -0.1500 
 22 C        7.1340     2.6990     1.1310 C.ar  1 <1>  -0.1500 
 23 C        6.3570     3.8140     0.8640 C.ar  1 <1>  -0.1430 
 24 C       -1.8020     2.0850    -0.0820 C.ar  1 <1>   0.0830 
 25 C        6.9950     5.1880     0.7750 C.3   1 <1>  -0.0970 
 26 O       -3.1400     2.2950    -0.0150 O.3   1 <1>  -0.3630 
 27 C       -3.8910     1.8730     1.1010 C.3   1 <1>   0.0400 
 28 H        2.8900    -2.4600    -2.4060 H     1 <1>   0.0800 
 29 H        1.2180    -2.5280    -1.9490 H     1 <1>   0.0800 
 30 H        2.7990     2.0010    -1.4400 H     1 <1>   0.0800 
 31 H        5.1490    -0.6270     1.7400 H     1 <1>   0.4000 
 32 H        4.0630    -2.4690     1.2110 H     1 <1>   0.0800 
 33 H        4.6950    -2.3610    -0.4030 H     1 <1>   0.0800 
 34 H        2.5140     3.1860     0.6800 H     1 <1>   0.4000 
 35 H        3.6560    -4.4560    -1.2020 H     1 <1>   0.0800 
 36 H        1.9800    -4.8010    -0.8720 H     1 <1>   0.0800 
 37 H        3.1360    -4.7620     0.4340 H     1 <1>   0.0800 
 38 H        1.1950    -1.6230     0.8950 H     1 <1>   0.0800 
 39 H        1.7030    -3.1020     1.6570 H     1 <1>   0.0800 
 40 H        0.5450    -3.1430     0.3550 H     1 <1>   0.0800 
 41 H        0.8770     0.8470     1.5650 H     1 <1>   0.1500 
 42 H        0.6830     2.6550    -2.2910 H     1 <1>   0.1500 
 43 H        7.1620     0.5900     1.4150 H     1 <1>   0.1500 
 44 H        4.3810     4.5170     0.4780 H     1 <1>   0.1500 
 45 H       -1.5220     1.1420     1.8360 H     1 <1>   0.1500 
 46 H       -1.7340     2.9670    -2.0150 H     1 <1>   0.1500 
 47 H        8.1950     2.8000     1.2760 H     1 <1>   0.1500 
 48 H        6.2880     5.9500     1.0490 H     1 <1>   0.0800 
 49 H        7.3300     5.3690    -0.2300 H     1 <1>   0.0800 
 50 H        7.8380     5.2550     1.4400 H     1 <1>   0.0800 
 51 H       -4.9200     2.1320     0.9280 H     1 <1>   0.0800 
 52 H       -3.5280     2.3790     1.9770 H     1 <1>   0.0800 
 53 H       -3.7940     0.8060     1.2020 H     1 <1>   0.0800 
@<TRIPOS>BOND
  1   1   2  2   
  2   2   3  1   
  3   2   4  1   
  4   3   5  2   
  5   3   6  1   
  6   4   7  1   
  7   4  28  1   
  8   4  29  1   
  9   5   8  1   
 10   5   9  1   
 11   6  10  1   
 12   6  11  1   
 13   6  30  1   
 14   7   9  1   
 15   7  12  1   
 16   7  13  1   
 17   8  14  1   
 18   8  31  1   
 19   9  32  1   
 20   9  33  1   
 21  10  15  1   
 22  10  34  1   
 23  11  16  ar  
 24  11  17  ar  
 25  12  35  1   
 26  12  36  1   
 27  12  37  1   
 28  13  38  1   
 29  13  39  1   
 30  13  40  1   
 31  14  15  ar  
 32  14  18  ar  
 33  15  19  ar  
 34  16  20  ar  
 35  16  41  1   
 36  17  21  ar  
 37  17  42  1   
 38  18  22  ar  
 39  18  43  1   
 40  19  23  ar  
 41  19  44  1   
 42  20  24  ar  
 43  20  45  1   
 44  21  24  ar  
 45  21  46  1   
 46  22  23  ar  
 47  22  47  1   
 48  23  25  1   
 49  24  26  1   
 50  25  48  1   
 51  25  49  1   
 52  25  50  1   
 53  26  27  1   
 54  27  51  1   
 55  27  52  1   
 56  27  53  1   
@<TRIPOS>SUBSTRUCTURE
  1 ****   6 GROUP 4 **** **** 0

# MOE 2024.06 (io_trps.svl 2023.06)
