@<TRIPOS>MOLECULE
NONAME
33 34 1 0 0 
SMALL
USER_CHARGES


@<TRIPOS>ATOM
  1 F       -0.3950     0.2840    -0.4840 F     1 <1>  -0.1900 
  2 C       -1.5690     0.8180    -0.2740 C.ar  1 <1>   0.1900 
  3 C       -1.7060     1.7540     0.7330 C.ar  1 <1>  -0.1500 
  4 C       -2.6320     0.4280    -1.0650 C.ar  1 <1>  -0.1500 
  5 C       -2.9530     2.3140     0.9510 C.ar  1 <1>  -0.1500 
  6 C       -3.8730     0.9970    -0.8340 C.ar  1 <1>  -0.1500 
  7 C       -4.0490     1.9480     0.1720 C.ar  1 <1>   0.1170 
  8 N       -5.2940     2.5350     0.4480 N.am  1 <1>  -0.5470 
  9 C       -6.3830     2.7320    -0.3660 C.2   1 <1>   0.5690 
 10 O       -6.3700     2.4670    -1.5440 O.2   1 <1>  -0.5700 
 11 C       -7.6590     3.3280     0.2680 C.3   1 <1>   0.2810 
 12 N       -8.8950     2.4880     0.1790 N.am  1 <1>  -0.6600 
 13 C       -8.0630     4.6630    -0.3680 C.3   1 <1>  -0.1600 
 14 C       -9.0420     1.1680     0.5030 C.2   1 <1>   0.5690 
 15 C      -10.0340     3.2840    -0.3260 C.3   1 <1>   0.1400 
 16 C       -9.5790     4.7330    -0.2100 C.3   1 <1>  -0.1600 
 17 O      -10.1050     0.6070     0.4010 O.2   1 <1>  -0.5700 
 18 C       -7.8790     0.3570     1.0260 C.3   1 <1>  -0.1790 
 19 H       -0.8530     2.0320     1.3270 H     1 <1>   0.1500 
 20 H       -2.4900    -0.3020    -1.8410 H     1 <1>   0.1500 
 21 H       -3.0700     3.0460     1.7300 H     1 <1>   0.1500 
 22 H       -4.7050     0.6940    -1.4440 H     1 <1>   0.1500 
 23 H       -5.3810     2.8910     1.3980 H     1 <1>   0.3700 
 24 H       -7.4750     3.5010     1.3120 H     1 <1>   0.0800 
 25 H       -7.8170     4.6510    -1.4170 H     1 <1>   0.0800 
 26 H       -7.5630     5.4960     0.0940 H     1 <1>   0.0800 
 27 H      -10.9250     3.0960     0.2500 H     1 <1>   0.0800 
 28 H      -10.2110     3.0230    -1.3560 H     1 <1>   0.0800 
 29 H      -10.0420     5.3560    -0.9560 H     1 <1>   0.0800 
 30 H       -9.8350     5.1050     0.7670 H     1 <1>   0.0800 
 31 H       -7.3740     0.8860     1.8100 H     1 <1>   0.0800 
 32 H       -7.1990     0.1420     0.2240 H     1 <1>   0.0800 
 33 H       -8.2420    -0.5740     1.4220 H     1 <1>   0.0800 
@<TRIPOS>BOND
  1   1   2  1   
  2   2   3  ar  
  3   2   4  ar  
  4   3   5  ar  
  5   3  19  1   
  6   4   6  ar  
  7   4  20  1   
  8   5   7  ar  
  9   5  21  1   
 10   6   7  ar  
 11   6  22  1   
 12   7   8  1   
 13   8   9  am  
 14   8  23  1   
 15   9  10  2   
 16   9  11  1   
 17  11  12  1   
 18  11  13  1   
 19  11  24  1   
 20  12  14  am  
 21  12  15  1   
 22  13  16  1   
 23  13  25  1   
 24  13  26  1   
 25  14  17  2   
 26  14  18  1   
 27  15  16  1   
 28  15  27  1   
 29  15  28  1   
 30  16  29  1   
 31  16  30  1   
 32  18  31  1   
 33  18  32  1   
 34  18  33  1   
@<TRIPOS>SUBSTRUCTURE
  1 ****   9 GROUP 4 **** **** 0

# MOE 2024.06 (io_trps.svl 2023.06)
