@<TRIPOS>MOLECULE
NONAME
44 46 1 0 0 
SMALL
USER_CHARGES


@<TRIPOS>ATOM
  1 S        0.6740     0.2030    -0.1420 S.3   1 <1>  -0.3320 
  2 C        0.3740    -1.5540    -0.1040 C.ar  1 <1>   0.7220 
  3 C        2.4840     0.3620     0.2690 C.3   1 <1>   0.1310 
  4 N        1.4180    -2.3070     0.1840 N.ar  1 <1>  -0.6200 
  5 N       -0.8680    -1.9030    -0.3710 N.ar  1 <1>  -0.6200 
  6 C        2.9370     1.8140     0.2770 C.2   1 <1>   0.5690 
  7 C        1.1700    -3.5970     0.2030 C.ar  1 <1>   0.1660 
  8 C       -1.0930    -3.1960    -0.3430 C.ar  1 <1>   0.1660 
  9 O        4.0580     2.0480     0.6580 O.2   1 <1>  -0.5700 
 10 N        2.0560     2.7760    -0.1410 N.am  1 <1>  -0.5470 
 11 C       -0.0890    -4.1090    -0.0650 C.ar  1 <1>  -0.1430 
 12 C        2.3610    -4.4920     0.5220 C.3   1 <1>  -0.0170 
 13 C       -2.5220    -3.6150    -0.6380 C.3   1 <1>  -0.0970 
 14 C        2.1310     4.1740    -0.2540 C.ar  1 <1>   0.1170 
 15 C       -0.3590    -5.6150    -0.0420 C.3   1 <1>  -0.0170 
 16 C        1.9600    -5.9280     0.8820 C.3   1 <1>  -0.1600 
 17 C        0.9550     4.9020    -0.4570 C.ar  1 <1>  -0.1430 
 18 C        3.3380     4.8640    -0.1830 C.ar  1 <1>  -0.1500 
 19 C        0.9230    -6.4540    -0.1120 C.3   1 <1>  -0.1600 
 20 C        1.0070     6.2820    -0.5800 C.ar  1 <1>  -0.1500 
 21 C       -0.4000     4.2070    -0.5460 C.3   1 <1>  -0.0970 
 22 C        3.3820     6.2400    -0.3050 C.ar  1 <1>  -0.1500 
 23 C        2.2140     6.9520    -0.5040 C.ar  1 <1>  -0.1500 
 24 H        3.0310    -0.1930    -0.4710 H     1 <1>   0.0800 
 25 H        2.6320    -0.0780     1.2370 H     1 <1>   0.0800 
 26 H        1.1380     2.3980    -0.3790 H     1 <1>   0.3700 
 27 H        2.9180    -4.0660     1.3370 H     1 <1>   0.0800 
 28 H        3.0030    -4.5070    -0.3410 H     1 <1>   0.0800 
 29 H       -3.1900    -2.7860    -0.4880 H     1 <1>   0.0800 
 30 H       -2.8310    -4.4120     0.0120 H     1 <1>   0.0800 
 31 H       -2.6010    -3.9360    -1.6600 H     1 <1>   0.0800 
 32 H       -0.9900    -5.8920    -0.8680 H     1 <1>   0.0800 
 33 H       -0.8810    -5.8520     0.8680 H     1 <1>   0.0800 
 34 H        1.5460    -5.9450     1.8750 H     1 <1>   0.0800 
 35 H        2.8330    -6.5580     0.8730 H     1 <1>   0.0800 
 36 H        4.2580     4.3310    -0.0340 H     1 <1>   0.1500 
 37 H        1.3260    -6.4100    -1.1100 H     1 <1>   0.0800 
 38 H        0.6920    -7.4820     0.1080 H     1 <1>   0.0800 
 39 H        0.1060     6.8490    -0.7360 H     1 <1>   0.1500 
 40 H       -0.4200     3.5420    -1.3910 H     1 <1>   0.0800 
 41 H       -1.1940     4.9230    -0.6620 H     1 <1>   0.0800 
 42 H       -0.5860     3.6440     0.3520 H     1 <1>   0.0800 
 43 H        4.3250     6.7550    -0.2460 H     1 <1>   0.1500 
 44 H        2.2450     8.0230    -0.6000 H     1 <1>   0.1500 
@<TRIPOS>BOND
  1   1   2  1   
  2   1   3  1   
  3   2   4  ar  
  4   2   5  ar  
  5   3   6  1   
  6   3  24  1   
  7   3  25  1   
  8   4   7  ar  
  9   5   8  ar  
 10   6   9  2   
 11   6  10  am  
 12   7  11  ar  
 13   7  12  1   
 14   8  11  ar  
 15   8  13  1   
 16  10  14  1   
 17  10  26  1   
 18  11  15  1   
 19  12  16  1   
 20  12  27  1   
 21  12  28  1   
 22  13  29  1   
 23  13  30  1   
 24  13  31  1   
 25  14  17  ar  
 26  14  18  ar  
 27  15  19  1   
 28  15  32  1   
 29  15  33  1   
 30  16  19  1   
 31  16  34  1   
 32  16  35  1   
 33  17  20  ar  
 34  17  21  1   
 35  18  22  ar  
 36  18  36  1   
 37  19  37  1   
 38  19  38  1   
 39  20  23  ar  
 40  20  39  1   
 41  21  40  1   
 42  21  41  1   
 43  21  42  1   
 44  22  23  ar  
 45  22  43  1   
 46  23  44  1   
@<TRIPOS>SUBSTRUCTURE
  1 ****   1 GROUP 4 **** **** 0

# MOE 2024.06 (io_trps.svl 2023.06)
