@<TRIPOS>MOLECULE
NONAME
41 43 1 0 0 
SMALL
USER_CHARGES


@<TRIPOS>ATOM
  1 F        0.4520     1.1740    -0.4100 F     1 <1>  -0.1900 
  2 C        1.4900     0.4080    -0.1770 C.ar  1 <1>   0.1900 
  3 C        2.7600     0.9920    -0.1290 C.ar  1 <1>   0.1170 
  4 C        1.2650    -0.9420     0.0070 C.ar  1 <1>  -0.1500 
  5 N        2.8960     2.3800    -0.3310 N.am  1 <1>  -0.5470 
  6 C        3.8420     0.1430     0.1060 C.ar  1 <1>  -0.1500 
  7 C        2.3700    -1.7340     0.2430 C.ar  1 <1>   0.1900 
  8 C        3.9010     3.2480    -0.0270 C.2   1 <1>   0.6900 
  9 C        3.6530    -1.2180     0.2950 C.ar  1 <1>  -0.1500 
 10 F        2.1980    -3.0180     0.4220 F     1 <1>  -0.1900 
 11 O        4.8960     2.8990     0.5750 O.2   1 <1>  -0.5700 
 12 N        3.7460     4.5370    -0.4120 N.am  1 <1>  -0.7300 
 13 C        4.6900     5.6300    -0.1250 C.3   1 <1>   0.2200 
 14 C        3.9240     6.7750     0.5780 C.3   1 <1>  -0.0800 
 15 C        5.3760     6.0030    -1.4430 C.3   1 <1>  -0.2400 
 16 C        2.6520     7.4170    -0.2400 C.3   1 <1>  -0.0800 
 17 C        4.9020     8.0520     1.0580 C.3   1 <1>  -0.1600 
 18 C        3.3780     8.4320     0.2460 C.3   1 <1>  -0.1600 
 19 C        1.8540     8.8080    -0.5600 C.3   1 <1>  -0.1600 
 20 C        4.1130     9.4440     0.7180 C.3   1 <1>  -0.0800 
 21 C        2.8270    10.0770    -0.0690 C.3   1 <1>  -0.1600 
 22 H        0.2770    -1.3600    -0.0330 H     1 <1>   0.1500 
 23 H        2.0460     2.8340    -0.6510 H     1 <1>   0.3700 
 24 H        4.8420     0.5380     0.1410 H     1 <1>   0.1500 
 25 H        4.4880    -1.8710     0.4800 H     1 <1>   0.1500 
 26 H        2.9290     4.8120    -0.9490 H     1 <1>   0.3700 
 27 H        5.4470     5.2740     0.5550 H     1 <1>   0.0800 
 28 H        3.5360     6.3280     1.4850 H     1 <1>   0.0800 
 29 H        4.6710     6.3320    -2.1820 H     1 <1>   0.0800 
 30 H        5.9020     5.1460    -1.8240 H     1 <1>   0.0800 
 31 H        6.0960     6.7840    -1.2880 H     1 <1>   0.0800 
 32 H        2.7990     7.0450    -1.2410 H     1 <1>   0.0800 
 33 H        5.8500     8.0390     0.5470 H     1 <1>   0.0800 
 34 H        5.1130     7.9780     2.1130 H     1 <1>   0.0800 
 35 H        2.7870     8.3940     1.2650 H     1 <1>   0.0800 
 36 H        3.9740     8.4710    -0.7670 H     1 <1>   0.0800 
 37 H        0.9180     8.8300    -0.0220 H     1 <1>   0.0800 
 38 H        1.6260     8.8930    -1.6110 H     1 <1>   0.0800 
 39 H        3.9600     9.8420     1.7130 H     1 <1>   0.0800 
 40 H        2.2760    10.7510     0.5670 H     1 <1>   0.0800 
 41 H        3.1610    10.6420    -0.9270 H     1 <1>   0.0800 
@<TRIPOS>BOND
  1   1   2  1   
  2   2   3  ar  
  3   2   4  ar  
  4   3   5  1   
  5   3   6  ar  
  6   4   7  ar  
  7   4  22  1   
  8   5   8  am  
  9   5  23  1   
 10   6   9  ar  
 11   6  24  1   
 12   7   9  ar  
 13   7  10  1   
 14   8  11  2   
 15   8  12  am  
 16   9  25  1   
 17  12  13  1   
 18  12  26  1   
 19  13  14  1   
 20  13  15  1   
 21  13  27  1   
 22  14  16  1   
 23  14  17  1   
 24  14  28  1   
 25  15  29  1   
 26  15  30  1   
 27  15  31  1   
 28  16  18  1   
 29  16  19  1   
 30  16  32  1   
 31  17  20  1   
 32  17  33  1   
 33  17  34  1   
 34  18  20  1   
 35  18  35  1   
 36  18  36  1   
 37  19  21  1   
 38  19  37  1   
 39  19  38  1   
 40  20  21  1   
 41  20  39  1   
 42  21  40  1   
 43  21  41  1   
@<TRIPOS>SUBSTRUCTURE
  1 ****   8 GROUP 4 **** **** 0

# MOE 2024.06 (io_trps.svl 2023.06)
