@<TRIPOS>MOLECULE
NONAME
34 34 1 0 0 
SMALL
USER_CHARGES


@<TRIPOS>ATOM
  1 CL      -0.3310     0.5480     0.0280 Cl    1 <1>  -0.1770 
  2 C       -1.6860    -0.5580     0.0180 C.ar  1 <1>   0.1770 
  3 C       -1.4820    -1.9280     0.0030 C.ar  1 <1>   0.1770 
  4 C       -2.9680    -0.0420     0.0250 C.ar  1 <1>  -0.1500 
  5 CL       0.1350    -2.5950    -0.0050 Cl    1 <1>  -0.1770 
  6 C       -2.5610    -2.7940    -0.0040 C.ar  1 <1>  -0.1500 
  7 C       -4.0570    -0.9020     0.0170 C.ar  1 <1>   0.0830 
  8 C       -3.8500    -2.2830     0.0030 C.ar  1 <1>  -0.1500 
  9 O       -5.2840    -0.3230     0.0250 O.3   1 <1>  -0.3630 
 10 C       -6.4650    -1.0890     0.0180 C.3   1 <1>   0.1200 
 11 C       -7.6410    -0.1060     0.0290 C.3   1 <1>   0.3430 
 12 N       -8.9610    -0.8090     0.0240 N.4   1 <1>  -0.9060 
 13 C      -10.0960     0.1450     0.0340 C.3   1 <1>   0.3430 
 14 C      -11.4040    -0.6430     0.0280 C.3   1 <1>  -0.1600 
 15 C      -12.6110     0.3040     0.0380 C.3   1 <1>  -0.1600 
 16 C      -13.9240    -0.4830     0.0310 C.3   1 <1>  -0.2400 
 17 H       -3.1160     1.0220     0.0360 H     1 <1>   0.1500 
 18 H       -2.3860    -3.8560    -0.0150 H     1 <1>   0.1500 
 19 H       -4.6690    -2.9770    -0.0040 H     1 <1>   0.1500 
 20 H       -6.4670    -1.7060     0.9000 H     1 <1>   0.0800 
 21 H       -6.4690    -1.6880    -0.8760 H     1 <1>   0.0800 
 22 H       -7.5660     0.5290    -0.8390 H     1 <1>   0.0800 
 23 H       -7.5640     0.5110     0.9100 H     1 <1>   0.0800 
 24 H       -9.0420    -1.4230     0.8450 H     1 <1>   0.4500 
 25 H       -9.0440    -1.4060    -0.8100 H     1 <1>   0.4500 
 26 H      -10.0550     0.7830    -0.8350 H     1 <1>   0.0800 
 27 H      -10.0540     0.7650     0.9160 H     1 <1>   0.0800 
 28 H      -11.4540    -1.2750     0.8970 H     1 <1>   0.0800 
 29 H      -11.4550    -1.2580    -0.8550 H     1 <1>   0.0800 
 30 H      -12.5860     0.9460    -0.8280 H     1 <1>   0.0800 
 31 H      -12.5850     0.9280     0.9160 H     1 <1>   0.0800 
 32 H      -13.9970    -1.0970    -0.8500 H     1 <1>   0.0800 
 33 H      -14.7590     0.1960     0.0380 H     1 <1>   0.0800 
 34 H      -13.9960    -1.1140     0.9000 H     1 <1>   0.0800 
@<TRIPOS>BOND
  1   1   2  1   
  2   2   3  ar  
  3   2   4  ar  
  4   3   5  1   
  5   3   6  ar  
  6   4   7  ar  
  7   4  17  1   
  8   6   8  ar  
  9   6  18  1   
 10   7   8  ar  
 11   7   9  1   
 12   8  19  1   
 13   9  10  1   
 14  10  11  1   
 15  10  20  1   
 16  10  21  1   
 17  11  12  1   
 18  11  22  1   
 19  11  23  1   
 20  12  13  1   
 21  12  24  1   
 22  12  25  1   
 23  13  14  1   
 24  13  26  1   
 25  13  27  1   
 26  14  15  1   
 27  14  28  1   
 28  14  29  1   
 29  15  16  1   
 30  15  30  1   
 31  15  31  1   
 32  16  32  1   
 33  16  33  1   
 34  16  34  1   
@<TRIPOS>SUBSTRUCTURE
  1 ****  10 GROUP 4 **** **** 0

# MOE 2024.06 (io_trps.svl 2023.06)
