@<TRIPOS>MOLECULE
NONAME
44 45 1 0 0 
SMALL
USER_CHARGES


@<TRIPOS>ATOM
  1 CL      -0.3700    -0.0280     0.1470 Cl    1 <1>  -0.1770 
  2 C        1.0270     0.9260     0.5960 C.ar  1 <1>   0.1770 
  3 C        0.9080     2.2630     0.9940 C.ar  1 <1>   0.0860 
  4 C        2.2500     0.2810     0.5440 C.ar  1 <1>  -0.1500 
  5 C       -0.3480     2.9900     1.0540 C.2   1 <1>   0.5440 
  6 C        2.0930     2.9120     1.3520 C.ar  1 <1>  -0.1500 
  7 C        3.4030     0.9560     0.8970 C.ar  1 <1>  -0.1500 
  8 O       -0.5100     3.8740     1.8730 O.2   1 <1>  -0.5700 
  9 N       -1.3750     2.7480     0.1850 N.am  1 <1>  -0.7300 
 10 C        3.3200     2.2750     1.3040 C.ar  1 <1>  -0.1500 
 11 C       -2.6990     3.3720     0.2850 C.3   1 <1>   0.2200 
 12 C       -3.7550     2.4190    -0.2620 C.3   1 <1>  -0.1600 
 13 C       -2.7000     4.6620    -0.5260 C.3   1 <1>  -0.1600 
 14 C       -5.1570     3.0430    -0.2310 C.3   1 <1>   0.5030 
 15 C       -4.0650     5.3560    -0.4970 C.3   1 <1>   0.5030 
 16 N       -5.1530     4.4060    -0.7910 N.4   1 <1>  -0.9060 
 17 C       -5.7480     3.0600     1.1820 C.3   1 <1>  -0.2400 
 18 C       -6.0930     2.2350    -1.1260 C.3   1 <1>  -0.2400 
 19 C       -4.3270     6.0600     0.8380 C.3   1 <1>  -0.2400 
 20 C       -4.1270     6.4060    -1.6060 C.3   1 <1>  -0.2400 
 21 H        2.2980    -0.7480     0.2300 H     1 <1>   0.1500 
 22 H        2.0480     3.9390     1.6760 H     1 <1>   0.1500 
 23 H        4.3580     0.4590     0.8590 H     1 <1>   0.1500 
 24 H       -1.2830     1.9570    -0.4580 H     1 <1>   0.3700 
 25 H        4.2140     2.8060     1.5860 H     1 <1>   0.1500 
 26 H       -2.8980     3.5860     1.3230 H     1 <1>   0.0800 
 27 H       -3.7540     1.5140     0.3210 H     1 <1>   0.0800 
 28 H       -3.5000     2.1560    -1.2740 H     1 <1>   0.0800 
 29 H       -2.4240     4.4400    -1.5420 H     1 <1>   0.0800 
 30 H       -1.9540     5.3290    -0.1270 H     1 <1>   0.0800 
 31 H       -6.0360     4.8540    -0.5400 H     1 <1>   0.4500 
 32 H       -5.1660     4.2980    -1.8060 H     1 <1>   0.4500 
 33 H       -5.0830     3.4910     1.9020 H     1 <1>   0.0800 
 34 H       -5.9320     2.0500     1.5070 H     1 <1>   0.0800 
 35 H       -6.6870     3.5830     1.2070 H     1 <1>   0.0800 
 36 H       -5.7420     2.2110    -2.1430 H     1 <1>   0.0800 
 37 H       -7.0920     2.6360    -1.1090 H     1 <1>   0.0800 
 38 H       -6.1460     1.2180    -0.7790 H     1 <1>   0.0800 
 39 H       -4.1600     5.4200     1.6800 H     1 <1>   0.0800 
 40 H       -5.3240     6.4580     0.8830 H     1 <1>   0.0800 
 41 H       -3.6420     6.8840     0.9490 H     1 <1>   0.0800 
 42 H       -3.9750     5.9640    -2.5750 H     1 <1>   0.0800 
 43 H       -3.3500     7.1370    -1.4600 H     1 <1>   0.0800 
 44 H       -5.0690     6.9260    -1.5990 H     1 <1>   0.0800 
@<TRIPOS>BOND
  1   1   2  1   
  2   2   3  ar  
  3   2   4  ar  
  4   3   5  1   
  5   3   6  ar  
  6   4   7  ar  
  7   4  21  1   
  8   5   8  2   
  9   5   9  am  
 10   6  10  ar  
 11   6  22  1   
 12   7  10  ar  
 13   7  23  1   
 14   9  11  1   
 15   9  24  1   
 16  10  25  1   
 17  11  12  1   
 18  11  13  1   
 19  11  26  1   
 20  12  14  1   
 21  12  27  1   
 22  12  28  1   
 23  13  15  1   
 24  13  29  1   
 25  13  30  1   
 26  14  16  1   
 27  14  17  1   
 28  14  18  1   
 29  15  16  1   
 30  15  19  1   
 31  15  20  1   
 32  16  31  1   
 33  16  32  1   
 34  17  33  1   
 35  17  34  1   
 36  17  35  1   
 37  18  36  1   
 38  18  37  1   
 39  18  38  1   
 40  19  39  1   
 41  19  40  1   
 42  19  41  1   
 43  20  42  1   
 44  20  43  1   
 45  20  44  1   
@<TRIPOS>SUBSTRUCTURE
  1 ****   9 GROUP 4 **** **** 0

# MOE 2024.06 (io_trps.svl 2023.06)
