@<TRIPOS>MOLECULE
NONAME
26 28 1 0 0 
SMALL
USER_CHARGES


@<TRIPOS>ATOM
  1 S        0.2330    -0.1970    -0.0170 S.3   1 <1>  -0.2420 
  2 C        1.1800     1.2950    -0.0100 C.2   1 <1>   0.6510 
  3 C       -1.2940     0.7030    -0.0120 C.2   1 <1>  -0.0490 
  4 N        2.4710     1.3150    -0.0100 N.2   1 <1>  -0.6210 
  5 N        0.3280     2.3660    -0.0050 N.am  1 <1>  -0.2290 
  6 C       -1.0410     2.0190    -0.0060 C.2   1 <1>  -0.0410 
  7 C        3.0560     2.5500    -0.0040 C.2   1 <1>   0.0330 
  8 C        0.8880     3.6180     0.0010 C.2   1 <1>   0.6160 
  9 C        2.3040     3.6860     0.0010 C.2   1 <1>  -0.1360 
 10 C        4.5840     2.5050    -0.0050 C.3   1 <1>   0.2080 
 11 O        0.1800     4.6150     0.0060 O.2   1 <1>  -0.5700 
 12 S        5.3380     4.1950     0.0030 S.3   1 <1>  -0.3710 
 13 C        7.0760     3.8250     0.0000 C.2   1 <1>   0.7320 
 14 S        8.1340     5.2240     0.0060 S.3   1 <1>  -0.3710 
 15 N        7.6170     2.6920    -0.0050 N.2   1 <1>  -0.6960 
 16 C        9.6310     4.1750     0.0010 C.3   1 <1>   0.0700 
 17 C        9.0930     2.7250    -0.0050 C.3   1 <1>   0.0860 
 18 H       -2.2050     0.1290    -0.0150 H     1 <1>   0.1500 
 19 H       -1.7670     2.8170    -0.0020 H     1 <1>   0.1500 
 20 H        2.7160     4.6760     0.0060 H     1 <1>   0.1500 
 21 H        4.9460     2.0040    -0.8840 H     1 <1>   0.0800 
 22 H        4.9470     1.9960     0.8690 H     1 <1>   0.0800 
 23 H       10.1980     4.3950     0.8880 H     1 <1>   0.0800 
 24 H       10.1980     4.4040    -0.8840 H     1 <1>   0.0800 
 25 H        9.4550     2.2100    -0.8790 H     1 <1>   0.0800 
 26 H        9.4550     2.2020     0.8630 H     1 <1>   0.0800 
@<TRIPOS>BOND
  1   1   2  1   
  2   1   3  1   
  3   2   4  2   
  4   2   5  1   
  5   3   6  2   
  6   3  18  1   
  7   4   7  1   
  8   5   6  1   
  9   5   8  am  
 10   6  19  1   
 11   7   9  2   
 12   7  10  1   
 13   8   9  1   
 14   8  11  2   
 15   9  20  1   
 16  10  12  1   
 17  10  21  1   
 18  10  22  1   
 19  12  13  1   
 20  13  14  1   
 21  13  15  2   
 22  14  16  1   
 23  15  17  1   
 24  16  17  1   
 25  16  23  1   
 26  16  24  1   
 27  17  25  1   
 28  17  26  1   
@<TRIPOS>SUBSTRUCTURE
  1 ****   7 GROUP 4 **** **** 0

# MOE 2024.06 (io_trps.svl 2023.06)
