@<TRIPOS>MOLECULE
NONAME
28 29 1 0 0 
SMALL
USER_CHARGES


@<TRIPOS>ATOM
  1 BR       0.1720     0.4070     1.7130 Br    1 <1>  -0.1110 
  2 C        1.4500     1.3160     0.5950 C.ar  1 <1>   0.1110 
  3 C        2.5740     0.6460     0.1230 C.ar  1 <1>  -0.0090 
  4 C        1.1690     2.6390     0.2970 C.ar  1 <1>  -0.1500 
  5 S        2.8870    -1.0860     0.5510 S.o2  1 <1>   1.4470 
  6 C        3.4230     1.3710    -0.7120 C.ar  1 <1>  -0.1500 
  7 C        2.0370     3.3410    -0.5200 C.ar  1 <1>  -0.1500 
  8 O        2.8920    -1.2650     1.9870 O.2   1 <1>  -0.6500 
  9 O        2.0380    -1.9210    -0.2690 O.2   1 <1>  -0.6500 
 10 N        4.4830    -1.3550     0.0370 N.am  1 <1>  -0.8490 
 11 C        3.1530     2.6940    -1.0160 C.ar  1 <1>   0.1770 
 12 C        5.4880    -0.8930     1.0140 C.3   1 <1>   0.1960 
 13 C        4.7310    -2.7750    -0.2660 C.3   1 <1>   0.1960 
 14 CL       4.2520     3.5650    -2.0530 Cl    1 <1>  -0.1770 
 15 C        6.9150    -1.1480     0.4980 C.3   1 <1>   0.1200 
 16 C        6.1810    -3.0000    -0.7350 C.3   1 <1>   0.1200 
 17 O        7.0920    -2.5040     0.2050 O.3   1 <1>  -0.5600 
 18 H        0.2850     3.1070     0.6960 H     1 <1>   0.1500 
 19 H        4.2980     0.9150    -1.1390 H     1 <1>   0.1500 
 20 H        1.8540     4.3700    -0.7730 H     1 <1>   0.1500 
 21 H        5.3670    -1.4120     1.9510 H     1 <1>   0.0800 
 22 H        5.3610     0.1600     1.1980 H     1 <1>   0.0800 
 23 H        4.0650    -3.1020    -1.0470 H     1 <1>   0.0800 
 24 H        4.5420    -3.3780     0.6070 H     1 <1>   0.0800 
 25 H        7.6370    -0.8780     1.2490 H     1 <1>   0.0800 
 26 H        7.1060    -0.5740    -0.3920 H     1 <1>   0.0800 
 27 H        6.3530    -2.5050    -1.6750 H     1 <1>   0.0800 
 28 H        6.3730    -4.0510    -0.8570 H     1 <1>   0.0800 
@<TRIPOS>BOND
  1   1   2  1   
  2   2   3  ar  
  3   2   4  ar  
  4   3   5  1   
  5   3   6  ar  
  6   4   7  ar  
  7   4  18  1   
  8   5   8  2   
  9   5   9  2   
 10   5  10  am  
 11   6  11  ar  
 12   6  19  1   
 13   7  11  ar  
 14   7  20  1   
 15  10  12  1   
 16  10  13  1   
 17  11  14  1   
 18  12  15  1   
 19  12  21  1   
 20  12  22  1   
 21  13  16  1   
 22  13  23  1   
 23  13  24  1   
 24  15  17  1   
 25  15  25  1   
 26  15  26  1   
 27  16  17  1   
 28  16  27  1   
 29  16  28  1   
@<TRIPOS>SUBSTRUCTURE
  1 ****   3 GROUP 4 **** **** 0

# MOE 2024.06 (io_trps.svl 2023.06)
