@<TRIPOS>MOLECULE
NONAME
32 33 1 0 0 
SMALL
USER_CHARGES


@<TRIPOS>ATOM
  1 BR      -1.6200     0.6590    -1.7340 Br    1 <1>  -0.1110 
  2 C       -0.7240     2.1060    -0.8280 C.ar  1 <1>   0.1110 
  3 C       -1.2560     2.6120     0.3490 C.ar  1 <1>  -0.1440 
  4 C        0.4340     2.6030    -1.3940 C.ar  1 <1>  -0.1500 
  5 C       -0.5840     3.6540     0.9730 C.ar  1 <1>  -0.1500 
  6 C       -2.5320     2.0460     0.9380 C.3   1 <1>   0.4870 
  7 C        1.0870     3.6450    -0.7620 C.ar  1 <1>  -0.1500 
  8 C        0.5790     4.1660     0.4180 C.ar  1 <1>  -0.1500 
  9 N       -3.6830     2.4580     0.0870 N.4   1 <1>  -0.9590 
 10 C       -3.8540     3.9570     0.0620 C.3   1 <1>   0.3430 
 11 C       -4.9510     1.7520     0.4870 C.3   1 <1>   0.3430 
 12 C       -5.0330     4.3850    -0.8300 C.3   1 <1>   0.1400 
 13 C       -6.1520     2.1640    -0.3910 C.3   1 <1>   0.1400 
 14 N       -6.2750     3.6460    -0.4510 N.am  1 <1>  -0.6600 
 15 C       -7.4240     4.3060    -0.1090 C.2   1 <1>   0.5700 
 16 O       -7.4840     5.5070    -0.0240 O.2   1 <1>  -0.5700 
 17 H        0.8210     2.1850    -2.3080 H     1 <1>   0.1500 
 18 H       -0.9460     4.0780     1.8950 H     1 <1>   0.1500 
 19 H       -2.6640     2.4070     1.9450 H     1 <1>   0.0800 
 20 H       -2.4590     0.9700     0.9680 H     1 <1>   0.0800 
 21 H        1.9930     4.0490    -1.1830 H     1 <1>   0.1500 
 22 H        1.0980     4.9750     0.9060 H     1 <1>   0.1500 
 23 H       -3.4440     2.1660    -0.8710 H     1 <1>   0.4500 
 24 H       -2.9530     4.4260    -0.3030 H     1 <1>   0.0800 
 25 H       -4.0340     4.3210     1.0600 H     1 <1>   0.0800 
 26 H       -5.1860     1.9870     1.5120 H     1 <1>   0.0800 
 27 H       -4.8150     0.6850     0.4160 H     1 <1>   0.0800 
 28 H       -4.8020     4.1880    -1.8620 H     1 <1>   0.0800 
 29 H       -5.1800     5.4480    -0.7300 H     1 <1>   0.0800 
 30 H       -7.0550     1.7370     0.0130 H     1 <1>   0.0800 
 31 H       -6.0240     1.7780    -1.3880 H     1 <1>   0.0800 
 32 H       -8.3070     3.7300     0.1080 H     1 <1>   0.0600 
@<TRIPOS>BOND
  1   1   2  1   
  2   2   3  ar  
  3   2   4  ar  
  4   3   5  ar  
  5   3   6  1   
  6   4   7  ar  
  7   4  17  1   
  8   5   8  ar  
  9   5  18  1   
 10   6   9  1   
 11   6  19  1   
 12   6  20  1   
 13   7   8  ar  
 14   7  21  1   
 15   8  22  1   
 16   9  10  1   
 17   9  11  1   
 18   9  23  1   
 19  10  12  1   
 20  10  24  1   
 21  10  25  1   
 22  11  13  1   
 23  11  26  1   
 24  11  27  1   
 25  12  14  1   
 26  12  28  1   
 27  12  29  1   
 28  13  14  1   
 29  13  30  1   
 30  13  31  1   
 31  14  15  am  
 32  15  16  2   
 33  15  32  1   
@<TRIPOS>SUBSTRUCTURE
  1 ****   9 GROUP 4 **** **** 0

# MOE 2024.06 (io_trps.svl 2023.06)
