@<TRIPOS>MOLECULE
NONAME
45 47 1 0 0 
SMALL
USER_CHARGES


@<TRIPOS>ATOM
  1 O        1.3400    -3.8570     2.7970 O.2   1 <1>  -0.5700 
  2 C        0.5660    -3.4920     1.9180 C.2   1 <1>   0.7670 
  3 N       -0.7570    -3.4880     2.2270 N.2   1 <1>  -0.6610 
  4 C        1.0490    -3.0900     0.6260 C.2   1 <1>  -0.1240 
  5 C       -1.5720    -3.0980     1.3100 C.2   1 <1>   0.5500 
  6 C        0.1460    -2.6790    -0.2980 C.2   1 <1>  -0.0380 
  7 C        2.5560    -3.1480     0.3640 C.3   1 <1>  -0.0220 
  8 N       -1.1660    -2.7020     0.0790 N.pl3 1 <1>  -0.5500 
  9 N       -2.8900    -3.0920     1.6110 N.pl3 1 <1>  -0.5500 
 10 C        0.4100    -2.1840    -1.7110 C.3   1 <1>  -0.1020 
 11 C        3.2320    -1.8410     0.7980 C.3   1 <1>  -0.1600 
 12 C       -4.0280    -2.7600     0.9420 C.ar  1 <1>   0.7200 
 13 C        4.7380    -1.8680     0.5180 C.3   1 <1>  -0.2400 
 14 N       -5.1280    -2.8990     1.6110 N.ar  1 <1>  -0.6200 
 15 N       -3.9260    -2.3220    -0.3360 N.ar  1 <1>  -0.6200 
 16 C       -6.2760    -2.5820     0.9840 C.ar  1 <1>   0.3100 
 17 C       -5.0150    -2.0140    -0.9510 C.ar  1 <1>   0.1670 
 18 C       -6.2820    -2.1190    -0.3390 C.ar  1 <1>   0.0000 
 19 C       -7.4930    -2.7150     1.6650 C.ar  1 <1>  -0.1500 
 20 C       -4.8920    -1.5240    -2.3820 C.3   1 <1>  -0.0970 
 21 C       -7.5210    -1.8030    -0.9380 C.ar  1 <1>  -0.1500 
 22 C       -8.6840    -2.4030     1.0640 C.ar  1 <1>  -0.1500 
 23 C       -8.7020    -1.9410    -0.2550 C.ar  1 <1>  -0.1430 
 24 C      -10.0360    -1.6030    -0.8960 C.3   1 <1>  -0.0970 
 25 H        2.7480    -3.3300    -0.6770 H     1 <1>   0.0800 
 26 H        2.9890    -3.9740     0.9030 H     1 <1>   0.0800 
 27 H       -1.9300    -2.4150    -0.5470 H     1 <1>   0.4000 
 28 H       -3.0780    -3.4050     2.5560 H     1 <1>   0.4000 
 29 H        0.0340    -2.8970    -2.4220 H     1 <1>   0.0800 
 30 H        1.4550    -2.0300    -1.8970 H     1 <1>   0.0800 
 31 H       -0.0920    -1.2450    -1.8650 H     1 <1>   0.0800 
 32 H        3.0700    -1.6930     1.8530 H     1 <1>   0.0800 
 33 H        2.7850    -1.0140     0.2750 H     1 <1>   0.0800 
 34 H        5.2050    -2.6750     1.0550 H     1 <1>   0.0800 
 35 H        5.1860    -0.9430     0.8360 H     1 <1>   0.0800 
 36 H        4.9250    -1.9940    -0.5340 H     1 <1>   0.0800 
 37 H       -7.4640    -3.0720     2.6780 H     1 <1>   0.1500 
 38 H       -3.8620    -1.5050    -2.6880 H     1 <1>   0.0800 
 39 H       -5.2890    -0.5290    -2.4650 H     1 <1>   0.0800 
 40 H       -5.4310    -2.1800    -3.0420 H     1 <1>   0.0800 
 41 H       -7.5340    -1.4480    -1.9520 H     1 <1>   0.1500 
 42 H       -9.6110    -2.5110     1.6010 H     1 <1>   0.1500 
 43 H       -9.9050    -1.2610    -1.9070 H     1 <1>   0.0800 
 44 H      -10.5270    -0.8270    -0.3340 H     1 <1>   0.0800 
 45 H      -10.6680    -2.4730    -0.9090 H     1 <1>   0.0800 
@<TRIPOS>BOND
  1   1   2  2   
  2   2   3  1   
  3   2   4  1   
  4   3   5  2   
  5   4   6  2   
  6   4   7  1   
  7   5   8  1   
  8   5   9  1   
  9   6   8  1   
 10   6  10  1   
 11   7  11  1   
 12   7  25  1   
 13   7  26  1   
 14   8  27  1   
 15   9  12  1   
 16   9  28  1   
 17  10  29  1   
 18  10  30  1   
 19  10  31  1   
 20  11  13  1   
 21  11  32  1   
 22  11  33  1   
 23  12  14  ar  
 24  12  15  ar  
 25  13  34  1   
 26  13  35  1   
 27  13  36  1   
 28  14  16  ar  
 29  15  17  ar  
 30  16  18  ar  
 31  16  19  ar  
 32  17  18  ar  
 33  17  20  1   
 34  18  21  ar  
 35  19  22  ar  
 36  19  37  1   
 37  20  38  1   
 38  20  39  1   
 39  20  40  1   
 40  21  23  ar  
 41  21  41  1   
 42  22  23  ar  
 43  22  42  1   
 44  23  24  1   
 45  24  43  1   
 46  24  44  1   
 47  24  45  1   
@<TRIPOS>SUBSTRUCTURE
  1 ****  12 GROUP 4 **** **** 0

# MOE 2024.06 (io_trps.svl 2023.06)
