@<TRIPOS>MOLECULE
NONAME
49 51 1 0 0 
SMALL
USER_CHARGES


@<TRIPOS>ATOM
  1 F       -3.1200     4.9940    -3.4360 F     1 <1>  -0.1900 
  2 C       -3.9550     4.4840    -2.5660 C.ar  1 <1>   0.1900 
  3 C       -5.2710     4.9080    -2.5770 C.ar  1 <1>  -0.1500 
  4 C       -3.4900     3.5410    -1.6690 C.ar  1 <1>  -0.1500 
  5 C       -6.1480     4.3650    -1.6550 C.ar  1 <1>  -0.1500 
  6 C       -4.3800     3.0080    -0.7530 C.ar  1 <1>  -0.1500 
  7 C       -5.7110     3.4120    -0.7360 C.ar  1 <1>   0.1000 
  8 N       -6.5760     2.8540     0.1980 N.pl3 1 <1>  -0.8380 
  9 C       -7.0890     3.7860     1.2460 C.3   1 <1>   0.2090 
 10 C       -7.6770     2.0140    -0.3600 C.3   1 <1>   0.2090 
 11 C       -7.8640     3.0220     2.3380 C.3   1 <1>   0.1100 
 12 C       -8.4390     1.2830     0.7610 C.3   1 <1>   0.1100 
 13 N       -8.9770     2.2250     1.7760 N.3   1 <1>  -0.8100 
 14 C       -9.7220     1.5100     2.8510 C.3   1 <1>   0.1710 
 15 C      -11.0920     0.9740     2.4240 C.2   1 <1>   0.5690 
 16 O      -11.6110     0.1110     3.0890 O.2   1 <1>  -0.5700 
 17 N      -11.6510     1.5050     1.2930 N.am  1 <1>  -0.5470 
 18 C      -12.8610     1.2600     0.6260 C.ar  1 <1>   0.1170 
 19 C      -12.9830     1.4730    -0.7640 C.ar  1 <1>   0.0860 
 20 C      -13.9660     0.8090     1.3450 C.ar  1 <1>  -0.1500 
 21 C      -11.8840     1.9460    -1.5840 C.2   1 <1>   0.6340 
 22 C      -14.2240     1.2070    -1.3580 C.ar  1 <1>  -0.1500 
 23 C      -15.1750     0.5550     0.7320 C.ar  1 <1>  -0.1500 
 24 O      -10.8960     2.5090    -1.1530 O.2   1 <1>  -0.5700 
 25 O      -11.9620     1.7510    -2.9070 O.3   1 <1>  -0.4300 
 26 C      -15.3040     0.7550    -0.6290 C.ar  1 <1>  -0.1500 
 27 C      -10.9460     2.1790    -3.7930 C.3   1 <1>   0.0400 
 28 H       -5.5950     5.6440    -3.2900 H     1 <1>   0.1500 
 29 H       -2.4610     3.2350    -1.6890 H     1 <1>   0.1500 
 30 H       -7.1760     4.6750    -1.6400 H     1 <1>   0.1500 
 31 H       -4.0580     2.2720    -0.0390 H     1 <1>   0.1500 
 32 H       -7.7420     4.5120     0.7950 H     1 <1>   0.0800 
 33 H       -6.2600     4.3070     1.6910 H     1 <1>   0.0800 
 34 H       -7.2620     1.2920    -1.0410 H     1 <1>   0.0800 
 35 H       -8.3640     2.6350    -0.9080 H     1 <1>   0.0800 
 36 H       -8.2550     3.7360     3.0420 H     1 <1>   0.0800 
 37 H       -7.1770     2.3770     2.8590 H     1 <1>   0.0800 
 38 H       -7.7690     0.5830     1.2290 H     1 <1>   0.0800 
 39 H       -9.2440     0.7250     0.3150 H     1 <1>   0.0800 
 40 H       -9.8970     2.1860     3.6680 H     1 <1>   0.0800 
 41 H       -9.1310     0.6910     3.2240 H     1 <1>   0.0800 
 42 H      -10.9870     2.1260     0.7990 H     1 <1>   0.3700 
 43 H      -13.8850     0.6530     2.4060 H     1 <1>   0.1500 
 44 H      -14.3490     1.3580    -2.4160 H     1 <1>   0.1500 
 45 H      -16.0130     0.2040     1.3100 H     1 <1>   0.1500 
 46 H      -16.2460     0.5580    -1.1140 H     1 <1>   0.1500 
 47 H      -11.2340     1.9160    -4.7950 H     1 <1>   0.0800 
 48 H      -10.0250     1.6880    -3.5310 H     1 <1>   0.0800 
 49 H      -10.8360     3.2470    -3.7070 H     1 <1>   0.0800 
@<TRIPOS>BOND
  1   1   2  1   
  2   2   3  ar  
  3   2   4  ar  
  4   3   5  ar  
  5   3  28  1   
  6   4   6  ar  
  7   4  29  1   
  8   5   7  ar  
  9   5  30  1   
 10   6   7  ar  
 11   6  31  1   
 12   7   8  1   
 13   8   9  1   
 14   8  10  1   
 15   9  11  1   
 16   9  32  1   
 17   9  33  1   
 18  10  12  1   
 19  10  34  1   
 20  10  35  1   
 21  11  13  1   
 22  11  36  1   
 23  11  37  1   
 24  12  13  1   
 25  12  38  1   
 26  12  39  1   
 27  13  14  1   
 28  14  15  1   
 29  14  40  1   
 30  14  41  1   
 31  15  16  2   
 32  15  17  am  
 33  17  18  1   
 34  17  42  1   
 35  18  19  ar  
 36  18  20  ar  
 37  19  21  1   
 38  19  22  ar  
 39  20  23  ar  
 40  20  43  1   
 41  21  24  2   
 42  21  25  1   
 43  22  26  ar  
 44  22  44  1   
 45  23  26  ar  
 46  23  45  1   
 47  25  27  1   
 48  26  46  1   
 49  27  47  1   
 50  27  48  1   
 51  27  49  1   
@<TRIPOS>SUBSTRUCTURE
  1 ****  10 GROUP 4 **** **** 0

# MOE 2024.06 (io_trps.svl 2023.06)
