@<TRIPOS>MOLECULE
NONAME
44 47 1 0 0 
SMALL
USER_CHARGES


@<TRIPOS>ATOM
  1 O       -0.6740     1.4360     1.1130 O.2   1 <1>  -0.5700 
  2 C       -1.3370     0.6650     0.4680 C.2   1 <1>   0.5690 
  3 N       -0.7450    -0.1440    -0.4340 N.am  1 <1>  -0.8000 
  4 C       -2.8460     0.6150     0.6860 C.3   1 <1>   0.1810 
  5 O       -3.4640    -0.3480    -0.1580 O.3   1 <1>  -0.3630 
  6 C       -4.8050    -0.5500    -0.1210 C.ar  1 <1>   0.0830 
  7 C       -5.3180    -1.5070    -0.9770 C.ar  1 <1>  -0.1500 
  8 C       -5.6720     0.1410     0.7160 C.ar  1 <1>  -0.1500 
  9 C       -6.6750    -1.7760    -1.0030 C.ar  1 <1>  -0.1500 
 10 C       -7.0280    -0.1330     0.6850 C.ar  1 <1>  -0.1500 
 11 C       -7.5600    -1.0930    -0.1710 C.ar  1 <1>  -0.1430 
 12 C       -9.0840    -1.3580    -0.1640 C.3   1 <1>   0.1440 
 13 C       -9.5320    -1.8170     1.2450 C.3   1 <1>  -0.1600 
 14 C       -9.5180    -2.4540    -1.1720 C.3   1 <1>  -0.1600 
 15 C       -9.8450    -0.0610    -0.5300 C.3   1 <1>  -0.1600 
 16 C      -11.0560    -2.0390     1.3000 C.3   1 <1>  -0.0800 
 17 C      -11.0400    -2.6870    -1.1340 C.3   1 <1>  -0.0800 
 18 C      -11.3700    -0.2770    -0.4810 C.3   1 <1>  -0.0800 
 19 C      -11.4470    -3.1260     0.2840 C.3   1 <1>  -0.1600 
 20 C      -11.7720    -0.7240     0.9370 C.3   1 <1>  -0.1600 
 21 C      -11.7590    -1.3740    -1.4880 C.3   1 <1>  -0.1600 
 22 H        0.2640    -0.1090    -0.5770 H     1 <1>   0.3700 
 23 H       -1.2830    -0.8070    -0.9940 H     1 <1>   0.3700 
 24 H       -3.2650     1.5790     0.4650 H     1 <1>   0.0800 
 25 H       -3.0460     0.3510     1.7080 H     1 <1>   0.0800 
 26 H       -4.6500    -2.0430    -1.6250 H     1 <1>   0.1500 
 27 H       -5.3200     0.8920     1.3970 H     1 <1>   0.1500 
 28 H       -7.0150    -2.5290    -1.6880 H     1 <1>   0.1500 
 29 H       -7.6730     0.4190     1.3440 H     1 <1>   0.1500 
 30 H       -9.0220    -2.7280     1.5020 H     1 <1>   0.0800 
 31 H       -9.2650    -1.0810     1.9810 H     1 <1>   0.0800 
 32 H       -9.0190    -3.3780    -0.9400 H     1 <1>   0.0800 
 33 H       -9.2360    -2.1630    -2.1690 H     1 <1>   0.0800 
 34 H       -9.5550     0.2570    -1.5160 H     1 <1>   0.0800 
 35 H       -9.5880     0.7290     0.1500 H     1 <1>   0.0800 
 36 H      -11.3420    -2.3480     2.2900 H     1 <1>   0.0800 
 37 H      -11.3090    -3.4520    -1.8430 H     1 <1>   0.0800 
 38 H      -11.8750     0.6400    -0.7310 H     1 <1>   0.0800 
 39 H      -12.5090    -3.2970     0.3220 H     1 <1>   0.0800 
 40 H      -10.9580    -4.0520     0.5340 H     1 <1>   0.0800 
 41 H      -11.5130     0.0410     1.6480 H     1 <1>   0.0800 
 42 H      -12.8380    -0.8660     0.9850 H     1 <1>   0.0800 
 43 H      -11.4910    -1.0670    -2.4840 H     1 <1>   0.0800 
 44 H      -12.8250    -1.5250    -1.4690 H     1 <1>   0.0800 
@<TRIPOS>BOND
  1   1   2  2   
  2   2   3  am  
  3   2   4  1   
  4   3  22  1   
  5   3  23  1   
  6   4   5  1   
  7   4  24  1   
  8   4  25  1   
  9   5   6  1   
 10   6   7  ar  
 11   6   8  ar  
 12   7   9  ar  
 13   7  26  1   
 14   8  10  ar  
 15   8  27  1   
 16   9  11  ar  
 17   9  28  1   
 18  10  11  ar  
 19  10  29  1   
 20  11  12  1   
 21  12  13  1   
 22  12  14  1   
 23  12  15  1   
 24  13  16  1   
 25  13  30  1   
 26  13  31  1   
 27  14  17  1   
 28  14  32  1   
 29  14  33  1   
 30  15  18  1   
 31  15  34  1   
 32  15  35  1   
 33  16  19  1   
 34  16  20  1   
 35  16  36  1   
 36  17  19  1   
 37  17  21  1   
 38  17  37  1   
 39  18  20  1   
 40  18  21  1   
 41  18  38  1   
 42  19  39  1   
 43  19  40  1   
 44  20  41  1   
 45  20  42  1   
 46  21  43  1   
 47  21  44  1   
@<TRIPOS>SUBSTRUCTURE
  1 ****  11 GROUP 4 **** **** 0

# MOE 2024.06 (io_trps.svl 2023.06)
