@<TRIPOS>MOLECULE
NONAME
36 36 1 0 0 
SMALL
USER_CHARGES


@<TRIPOS>ATOM
  1 CL       0.1540     0.5140     1.1910 Cl    1 <1>  -0.1770 
  2 C       -0.8280     1.9140     0.8160 C.ar  1 <1>   0.1770 
  3 C       -0.2250     3.1320     0.5320 C.ar  1 <1>   0.0820 
  4 C       -2.2000     1.7660     0.7970 C.ar  1 <1>  -0.1500 
  5 O        1.1270     3.2240     0.5390 O.3   1 <1>  -0.3630 
  6 C       -1.0500     4.2250     0.2530 C.ar  1 <1>   0.0830 
  7 C       -3.0360     2.8400     0.4880 C.ar  1 <1>   0.0860 
  8 C        1.7600     3.4260    -0.7030 C.3   1 <1>   0.1200 
  9 O       -0.5640     5.4650     0.0000 O.3   1 <1>  -0.3620 
 10 C       -2.4250     4.0690     0.2240 C.ar  1 <1>  -0.1500 
 11 C       -4.4780     2.6740     0.4520 C.2   1 <1>   0.5440 
 12 C        3.2650     3.4690    -0.4630 C.3   1 <1>  -0.2400 
 13 C        0.1240     6.1080     1.0490 C.3   1 <1>   0.1200 
 14 O       -5.0130     1.7870     1.0880 O.2   1 <1>  -0.5700 
 15 N       -5.2620     3.4990    -0.3080 N.am  1 <1>  -0.7300 
 16 C        0.4160     7.5400     0.6120 C.3   1 <1>  -0.2400 
 17 C       -6.7330     3.4340    -0.3910 C.3   1 <1>   0.1400 
 18 C       -7.2780     4.8550    -0.4730 C.3   1 <1>  -0.2400 
 19 H       -2.6300     0.8060     1.0220 H     1 <1>   0.1500 
 20 H        1.4140     4.3530    -1.1270 H     1 <1>   0.0800 
 21 H        1.4980     2.6090    -1.3530 H     1 <1>   0.0800 
 22 H       -3.0260     4.9310     0.0040 H     1 <1>   0.1500 
 23 H        3.5110     4.2820     0.1960 H     1 <1>   0.0800 
 24 H        3.7790     3.6150    -1.3960 H     1 <1>   0.0800 
 25 H        3.5960     2.5420    -0.0300 H     1 <1>   0.0800 
 26 H        1.0400     5.5800     1.2460 H     1 <1>   0.0800 
 27 H       -0.4990     6.0930     1.9270 H     1 <1>   0.0800 
 28 H       -4.8190     4.1660    -0.9400 H     1 <1>   0.3700 
 29 H        1.0300     7.5390    -0.2700 H     1 <1>   0.0800 
 30 H        0.9400     8.0580     1.3950 H     1 <1>   0.0800 
 31 H       -0.5030     8.0610     0.4120 H     1 <1>   0.0800 
 32 H       -7.1300     2.9370     0.4790 H     1 <1>   0.0800 
 33 H       -7.0170     2.8730    -1.2660 H     1 <1>   0.0800 
 34 H       -6.9940     5.4120     0.4020 H     1 <1>   0.0800 
 35 H       -8.3510     4.8250    -0.5220 H     1 <1>   0.0800 
 36 H       -6.9110     5.3510    -1.3540 H     1 <1>   0.0800 
@<TRIPOS>BOND
  1   1   2  1   
  2   2   3  ar  
  3   2   4  ar  
  4   3   5  1   
  5   3   6  ar  
  6   4   7  ar  
  7   4  19  1   
  8   5   8  1   
  9   6   9  1   
 10   6  10  ar  
 11   7  10  ar  
 12   7  11  1   
 13   8  12  1   
 14   8  20  1   
 15   8  21  1   
 16   9  13  1   
 17  10  22  1   
 18  11  14  2   
 19  11  15  am  
 20  12  23  1   
 21  12  24  1   
 22  12  25  1   
 23  13  16  1   
 24  13  26  1   
 25  13  27  1   
 26  15  17  1   
 27  15  28  1   
 28  16  29  1   
 29  16  30  1   
 30  16  31  1   
 31  17  18  1   
 32  17  32  1   
 33  17  33  1   
 34  18  34  1   
 35  18  35  1   
 36  18  36  1   
@<TRIPOS>SUBSTRUCTURE
  1 ****  10 GROUP 4 **** **** 0

# MOE 2024.06 (io_trps.svl 2023.06)
