@<TRIPOS>MOLECULE
NONAME
41 43 1 0 0 
SMALL
USER_CHARGES


@<TRIPOS>ATOM
  1 O        0.3750    -0.0840     0.3390 O.2   1 <1>  -0.5700 
  2 C        1.0310     0.8750    -0.0250 C.2   1 <1>   0.6900 
  3 N        2.3920     0.7700    -0.1930 N.am  1 <1>  -0.4770 
  4 N        0.4290     2.0730    -0.2220 N.am  1 <1>  -0.7300 
  5 C        3.2910     1.7120    -0.7010 C.ar  1 <1>   0.1170 
  6 C        3.1530    -0.2460     0.5750 C.3   1 <1>   0.2200 
  7 C       -1.0010     2.3630    -0.0530 C.3   1 <1>   0.2200 
  8 C        4.5420     1.5590    -0.1460 C.ar  1 <1>  -0.1430 
  9 C        3.0800     2.6980    -1.6560 C.ar  1 <1>  -0.1500 
 10 C        4.5350     0.3970     0.8180 C.3   1 <1>  -0.0160 
 11 C        3.2570    -1.5280    -0.2560 C.3   1 <1>  -0.2400 
 12 C       -1.5160     3.0580    -1.3170 C.3   1 <1>  -0.1600 
 13 C       -1.1840     3.2490     1.1840 C.3   1 <1>  -0.1600 
 14 C        5.5910     2.3890    -0.4890 C.ar  1 <1>  -0.1500 
 15 C        4.1230     3.5390    -2.0090 C.ar  1 <1>  -0.1500 
 16 C       -2.9830     3.4850    -1.1570 C.3   1 <1>  -0.1600 
 17 C       -2.6500     3.6770     1.3490 C.3   1 <1>  -0.1600 
 18 C        5.3730     3.3890    -1.4250 C.ar  1 <1>  -0.1500 
 19 C       -3.1710     4.3710     0.0830 C.3   1 <1>  -0.1600 
 20 H        1.0400     2.8740    -0.3550 H     1 <1>   0.3700 
 21 H        2.6620    -0.4480     1.5130 H     1 <1>   0.0800 
 22 H       -1.5440     1.4430     0.0890 H     1 <1>   0.0800 
 23 H        2.1200     2.7980    -2.1290 H     1 <1>   0.1500 
 24 H        5.3410    -0.2870     0.6260 H     1 <1>   0.0800 
 25 H        4.6020     0.7560     1.8280 H     1 <1>   0.0800 
 26 H        3.7350    -1.3290    -1.1980 H     1 <1>   0.0800 
 27 H        2.2740    -1.9260    -0.4360 H     1 <1>   0.0800 
 28 H        3.8270    -2.2680     0.2750 H     1 <1>   0.0800 
 29 H       -1.4310     2.3840    -2.1510 H     1 <1>   0.0800 
 30 H       -0.9180     3.9300    -1.5180 H     1 <1>   0.0800 
 31 H       -0.5710     4.1280     1.0920 H     1 <1>   0.0800 
 32 H       -0.8720     2.7030     2.0570 H     1 <1>   0.0800 
 33 H        6.5620     2.2620    -0.0420 H     1 <1>   0.1500 
 34 H        3.9660     4.3090    -2.7450 H     1 <1>   0.1500 
 35 H       -3.6000     2.6080    -1.0640 H     1 <1>   0.0800 
 36 H       -3.3010     4.0200    -2.0350 H     1 <1>   0.0800 
 37 H       -2.7390     4.3430     2.1900 H     1 <1>   0.0800 
 38 H       -3.2520     2.8070     1.5520 H     1 <1>   0.0800 
 39 H        6.1780     4.0470    -1.7040 H     1 <1>   0.1500 
 40 H       -4.2150     4.6040     0.2040 H     1 <1>   0.0800 
 41 H       -2.6420     5.2980    -0.0580 H     1 <1>   0.0800 
@<TRIPOS>BOND
  1   1   2  2   
  2   2   3  am  
  3   2   4  am  
  4   3   5  1   
  5   3   6  1   
  6   4   7  1   
  7   4  20  1   
  8   5   8  ar  
  9   5   9  ar  
 10   6  10  1   
 11   6  11  1   
 12   6  21  1   
 13   7  12  1   
 14   7  13  1   
 15   7  22  1   
 16   8  10  1   
 17   8  14  ar  
 18   9  15  ar  
 19   9  23  1   
 20  10  24  1   
 21  10  25  1   
 22  11  26  1   
 23  11  27  1   
 24  11  28  1   
 25  12  16  1   
 26  12  29  1   
 27  12  30  1   
 28  13  17  1   
 29  13  31  1   
 30  13  32  1   
 31  14  18  ar  
 32  14  33  1   
 33  15  18  ar  
 34  15  34  1   
 35  16  19  1   
 36  16  35  1   
 37  16  36  1   
 38  17  19  1   
 39  17  37  1   
 40  17  38  1   
 41  18  39  1   
 42  19  40  1   
 43  19  41  1   
@<TRIPOS>SUBSTRUCTURE
  1 ****   4 GROUP 4 **** **** 0

# MOE 2024.06 (io_trps.svl 2023.06)
