@<TRIPOS>MOLECULE
NONAME
50 52 1 0 0 
SMALL
USER_CHARGES


@<TRIPOS>ATOM
  1 S        0.1330    -0.2040    -0.6660 S.o2  1 <1>   1.5760 
  2 O        0.5830     0.8140     0.2570 O.2   1 <1>  -0.6500 
  3 O       -0.2450     0.1470    -2.0170 O.2   1 <1>  -0.6500 
  4 N        1.3090    -1.4080    -0.7310 N.am  1 <1>  -0.8490 
  5 N       -1.1380    -1.0650     0.0340 N.am  1 <1>  -0.8490 
  6 C        1.7700    -1.7880     0.6210 C.3   1 <1>   0.1960 
  7 C        2.4600    -0.9670    -1.5430 C.3   1 <1>   0.1960 
  8 C       -2.1880    -0.1550     0.4920 C.3   1 <1>   0.1960 
  9 C       -1.6770    -2.0680    -0.8890 C.3   1 <1>   0.1960 
 10 C        2.8260    -2.9090     0.5860 C.3   1 <1>   0.2090 
 11 C        3.5460    -2.0540    -1.6610 C.3   1 <1>   0.2090 
 12 C       -3.2710    -0.9330     1.2470 C.3   1 <1>  -0.1600 
 13 C       -2.7330    -2.9230    -0.1810 C.3   1 <1>  -0.1600 
 14 N        3.9510    -2.5350    -0.3130 N.pl3 1 <1>  -0.8380 
 15 C       -3.8630    -2.0550     0.3850 C.3   1 <1>  -0.1600 
 16 C        5.2560    -2.9540    -0.0480 C.ar  1 <1>   0.1000 
 17 C        6.1110    -2.1190     0.6770 C.ar  1 <1>  -0.1430 
 18 C        5.7300    -4.1930    -0.4940 C.ar  1 <1>  -0.1430 
 19 C        7.4080    -2.5190     0.9490 C.ar  1 <1>  -0.1500 
 20 C        5.6340    -0.7610     1.1750 C.3   1 <1>  -0.0970 
 21 C        7.0310    -4.5750    -0.2130 C.ar  1 <1>  -0.1500 
 22 C        4.8480    -5.1470    -1.2880 C.3   1 <1>  -0.0970 
 23 C        7.8690    -3.7440     0.5060 C.ar  1 <1>  -0.1500 
 24 H        0.9320    -2.1250     1.2070 H     1 <1>   0.0800 
 25 H        2.1970    -0.9340     1.1190 H     1 <1>   0.0800 
 26 H        2.8980    -0.0860    -1.1050 H     1 <1>   0.0800 
 27 H        2.1240    -0.7120    -2.5340 H     1 <1>   0.0800 
 28 H       -2.6210     0.3590    -0.3520 H     1 <1>   0.0800 
 29 H       -1.7660     0.5820     1.1550 H     1 <1>   0.0800 
 30 H       -0.8830    -2.7090    -1.2350 H     1 <1>   0.0800 
 31 H       -2.1140    -1.5840    -1.7480 H     1 <1>   0.0800 
 32 H        2.3680    -3.8140     0.2300 H     1 <1>   0.0800 
 33 H        3.2040    -3.0870     1.5780 H     1 <1>   0.0800 
 34 H        4.4060    -1.6590    -2.1730 H     1 <1>   0.0800 
 35 H        3.1580    -2.8770    -2.2320 H     1 <1>   0.0800 
 36 H       -4.0510    -0.2570     1.5480 H     1 <1>   0.0800 
 37 H       -2.8360    -1.3510     2.1380 H     1 <1>   0.0800 
 38 H       -2.2580    -3.4690     0.6150 H     1 <1>   0.0800 
 39 H       -3.1380    -3.6370    -0.8750 H     1 <1>   0.0800 
 40 H       -4.4220    -1.6230    -0.4280 H     1 <1>   0.0800 
 41 H       -4.5340    -2.6570     0.9720 H     1 <1>   0.0800 
 42 H        8.0690    -1.8810     1.5070 H     1 <1>   0.1500 
 43 H        5.2740    -0.1770     0.3480 H     1 <1>   0.0800 
 44 H        6.4290    -0.2200     1.6560 H     1 <1>   0.0800 
 45 H        4.8330    -0.8940     1.8780 H     1 <1>   0.0800 
 46 H        7.4050    -5.5250    -0.5530 H     1 <1>   0.1500 
 47 H        4.6710    -4.7450    -2.2680 H     1 <1>   0.0800 
 48 H        3.9060    -5.2820    -0.7900 H     1 <1>   0.0800 
 49 H        5.3140    -6.1090    -1.3920 H     1 <1>   0.0800 
 50 H        8.8780    -4.0490     0.7190 H     1 <1>   0.1500 
@<TRIPOS>BOND
  1   1   2  2   
  2   1   3  2   
  3   1   4  am  
  4   1   5  am  
  5   4   6  1   
  6   4   7  1   
  7   5   8  1   
  8   5   9  1   
  9   6  10  1   
 10   6  24  1   
 11   6  25  1   
 12   7  11  1   
 13   7  26  1   
 14   7  27  1   
 15   8  12  1   
 16   8  28  1   
 17   8  29  1   
 18   9  13  1   
 19   9  30  1   
 20   9  31  1   
 21  10  14  1   
 22  10  32  1   
 23  10  33  1   
 24  11  14  1   
 25  11  34  1   
 26  11  35  1   
 27  12  15  1   
 28  12  36  1   
 29  12  37  1   
 30  13  15  1   
 31  13  38  1   
 32  13  39  1   
 33  14  16  1   
 34  15  40  1   
 35  15  41  1   
 36  16  17  ar  
 37  16  18  ar  
 38  17  19  ar  
 39  17  20  1   
 40  18  21  ar  
 41  18  22  1   
 42  19  23  ar  
 43  19  42  1   
 44  20  43  1   
 45  20  44  1   
 46  20  45  1   
 47  21  23  ar  
 48  21  46  1   
 49  22  47  1   
 50  22  48  1   
 51  22  49  1   
 52  23  50  1   
@<TRIPOS>SUBSTRUCTURE
  1 ****   6 GROUP 4 **** **** 0

# MOE 2024.06 (io_trps.svl 2023.06)
