@<TRIPOS>MOLECULE
NONAME
39 40 1 0 0 
SMALL
USER_CHARGES


@<TRIPOS>ATOM
  1 I       -0.3660     0.7050    -1.1280 I     1 <1>  -0.0810 
  2 C        0.8030     2.3390    -0.3940 C.ar  1 <1>   0.0810 
  3 C        0.2420     3.6000    -0.2440 C.ar  1 <1>   0.0820 
  4 C        2.1240     2.0670    -0.0910 C.ar  1 <1>  -0.1500 
  5 O       -1.0640     3.7880    -0.5790 O.3   1 <1>  -0.3630 
  6 C        1.0620     4.6370     0.2190 C.ar  1 <1>   0.0830 
  7 C        2.9310     3.0950     0.3710 C.ar  1 <1>  -0.1440 
  8 C       -1.9530     4.3300     0.3810 C.3   1 <1>   0.2000 
  9 O        0.5310     5.8880     0.3360 O.3   1 <1>  -0.3630 
 10 C        2.3970     4.3690     0.5280 C.ar  1 <1>  -0.1500 
 11 C        4.3870     2.8280     0.6830 C.3   1 <1>   0.4870 
 12 C       -3.0360     3.2970     0.6700 C.3   1 <1>  -0.1600 
 13 C       -2.7170     5.4740    -0.2750 C.3   1 <1>  -0.1600 
 14 C        1.2430     6.9780     0.8770 C.3   1 <1>   0.0400 
 15 N        5.1260     2.9710    -0.5920 N.4   1 <1>  -0.9060 
 16 C       -4.0150     3.4010    -0.5030 C.3   1 <1>  -0.1600 
 17 C       -3.8400     4.8120    -1.0810 C.3   1 <1>  -0.1600 
 18 C        6.5930     2.7310    -0.4640 C.3   1 <1>   0.2630 
 19 H        2.4950     1.0640    -0.2180 H     1 <1>   0.1500 
 20 H       -1.4170     4.6260     1.2660 H     1 <1>   0.0800 
 21 H        3.0280     5.1590     0.8900 H     1 <1>   0.1500 
 22 H        4.5030     1.8320     1.0780 H     1 <1>   0.0800 
 23 H        4.7470     3.5370     1.4110 H     1 <1>   0.0800 
 24 H       -3.5440     3.5770     1.5760 H     1 <1>   0.0800 
 25 H       -2.6330     2.3080     0.7900 H     1 <1>   0.0800 
 26 H       -2.0740     6.0850    -0.8830 H     1 <1>   0.0800 
 27 H       -3.1500     6.0840     0.4970 H     1 <1>   0.0800 
 28 H        0.5830     7.8280     0.8970 H     1 <1>   0.0800 
 29 H        2.0890     7.1930     0.2490 H     1 <1>   0.0800 
 30 H        1.5510     6.7360     1.8790 H     1 <1>   0.0800 
 31 H        4.9370     3.9120    -0.9620 H     1 <1>   0.4500 
 32 H        4.7070     2.3230    -1.2720 H     1 <1>   0.4500 
 33 H       -5.0270     3.2220    -0.1830 H     1 <1>   0.0800 
 34 H       -3.7510     2.6750    -1.2530 H     1 <1>   0.0800 
 35 H       -3.5510     4.7410    -2.1160 H     1 <1>   0.0800 
 36 H       -4.7500     5.3820    -1.0110 H     1 <1>   0.0800 
 37 H        7.0320     3.4340     0.2260 H     1 <1>   0.0800 
 38 H        7.0750     2.8480    -1.4230 H     1 <1>   0.0800 
 39 H        6.7820     1.7310    -0.1070 H     1 <1>   0.0800 
@<TRIPOS>BOND
  1   1   2  1   
  2   2   3  ar  
  3   2   4  ar  
  4   3   5  1   
  5   3   6  ar  
  6   4   7  ar  
  7   4  19  1   
  8   5   8  1   
  9   6   9  1   
 10   6  10  ar  
 11   7  10  ar  
 12   7  11  1   
 13   8  12  1   
 14   8  13  1   
 15   8  20  1   
 16   9  14  1   
 17  10  21  1   
 18  11  15  1   
 19  11  22  1   
 20  11  23  1   
 21  12  16  1   
 22  12  24  1   
 23  12  25  1   
 24  13  17  1   
 25  13  26  1   
 26  13  27  1   
 27  14  28  1   
 28  14  29  1   
 29  14  30  1   
 30  15  18  1   
 31  15  31  1   
 32  15  32  1   
 33  16  17  1   
 34  16  33  1   
 35  16  34  1   
 36  17  35  1   
 37  17  36  1   
 38  18  37  1   
 39  18  38  1   
 40  18  39  1   
@<TRIPOS>SUBSTRUCTURE
  1 ****   3 GROUP 4 **** **** 0

# MOE 2024.06 (io_trps.svl 2023.06)
