@<TRIPOS>MOLECULE
NONAME
42 43 1 0 0 
SMALL
USER_CHARGES


@<TRIPOS>ATOM
  1 O        0.7730    -0.4630     1.8240 O.2   1 <1>  -0.5700 
  2 C        1.3200    -0.8410     0.8080 C.2   1 <1>   0.5440 
  3 N        0.6870    -1.7440    -0.0070 N.am  1 <1>  -0.5390 
  4 C        2.6340    -0.3450     0.4420 C.ar  1 <1>   0.0860 
  5 C       -0.3840    -2.6070     0.3410 C.2   1 <1>   0.1230 
  6 C        3.0100     0.9650     0.7390 C.ar  1 <1>  -0.1500 
  7 C        3.5700    -1.1490    -0.2140 C.ar  1 <1>  -0.1500 
  8 C       -1.6490    -2.1090     0.4400 C.2   1 <1>  -0.2760 
  9 C        0.0420    -3.9980     0.5340 C.2   1 <1>   0.7060 
 10 C        4.2510     1.4600     0.3830 C.ar  1 <1>  -0.1500 
 11 C        4.8130    -0.6600    -0.5740 C.ar  1 <1>  -0.1500 
 12 C       -2.9060    -2.9190     0.7760 C.3   1 <1>  -0.0220 
 13 C       -2.0220    -0.6370     0.2220 C.3   1 <1>  -0.0220 
 14 O       -0.5260    -4.8280     1.2130 O.2   1 <1>  -0.5700 
 15 O        1.1720    -4.3630    -0.0900 O.3   1 <1>  -0.4300 
 16 C        5.1550     0.6470    -0.2780 C.ar  1 <1>  -0.1500 
 17 C       -3.9490    -2.7930    -0.3420 C.3   1 <1>  -0.1600 
 18 C       -3.0590    -0.4970    -0.8990 C.3   1 <1>  -0.1600 
 19 C        1.7070    -5.6610     0.0430 C.3   1 <1>   0.1200 
 20 C       -4.3140    -1.3270    -0.6070 C.3   1 <1>  -0.1600 
 21 C        3.0070    -5.7190    -0.7530 C.3   1 <1>  -0.2400 
 22 H        1.2570    -2.0890    -0.7790 H     1 <1>   0.3700 
 23 H        2.3120     1.6010     1.2580 H     1 <1>   0.1500 
 24 H        3.3330    -2.1740    -0.4390 H     1 <1>   0.1500 
 25 H        4.5150     2.4760     0.6210 H     1 <1>   0.1500 
 26 H        5.5190    -1.2950    -1.0810 H     1 <1>   0.1500 
 27 H       -2.7040    -3.9610     0.9200 H     1 <1>   0.0800 
 28 H       -3.3230    -2.5500     1.6970 H     1 <1>   0.0800 
 29 H       -2.4240    -0.2400     1.1380 H     1 <1>   0.0800 
 30 H       -1.1710    -0.0330    -0.0310 H     1 <1>   0.0800 
 31 H        6.1220     1.0300    -0.5560 H     1 <1>   0.1500 
 32 H       -3.5510    -3.2300    -1.2410 H     1 <1>   0.0800 
 33 H       -4.8340    -3.3410    -0.0710 H     1 <1>   0.0800 
 34 H       -3.3280     0.5390    -1.0110 H     1 <1>   0.0800 
 35 H       -2.6190    -0.8270    -1.8240 H     1 <1>   0.0800 
 36 H        1.8850    -5.8520     1.0880 H     1 <1>   0.0800 
 37 H        0.9870    -6.3670    -0.3360 H     1 <1>   0.0800 
 38 H       -4.8140    -0.9230     0.2570 H     1 <1>   0.0800 
 39 H       -4.9920    -1.2670    -1.4400 H     1 <1>   0.0800 
 40 H        3.7130    -5.0080    -0.3640 H     1 <1>   0.0800 
 41 H        2.8180    -5.5130    -1.7910 H     1 <1>   0.0800 
 42 H        3.4350    -6.7020    -0.6730 H     1 <1>   0.0800 
@<TRIPOS>BOND
  1   1   2  2   
  2   2   3  am  
  3   2   4  1   
  4   3   5  1   
  5   3  22  1   
  6   4   6  ar  
  7   4   7  ar  
  8   5   8  2   
  9   5   9  1   
 10   6  10  ar  
 11   6  23  1   
 12   7  11  ar  
 13   7  24  1   
 14   8  12  1   
 15   8  13  1   
 16   9  14  2   
 17   9  15  1   
 18  10  16  ar  
 19  10  25  1   
 20  11  16  ar  
 21  11  26  1   
 22  12  17  1   
 23  12  27  1   
 24  12  28  1   
 25  13  18  1   
 26  13  29  1   
 27  13  30  1   
 28  15  19  1   
 29  16  31  1   
 30  17  20  1   
 31  17  32  1   
 32  17  33  1   
 33  18  20  1   
 34  18  34  1   
 35  18  35  1   
 36  19  21  1   
 37  19  36  1   
 38  19  37  1   
 39  20  38  1   
 40  20  39  1   
 41  21  40  1   
 42  21  41  1   
 43  21  42  1   
@<TRIPOS>SUBSTRUCTURE
  1 ****   3 GROUP 4 **** **** 0

# MOE 2024.06 (io_trps.svl 2023.06)
