@<TRIPOS>MOLECULE
NONAME
36 36 1 0 0 
SMALL
USER_CHARGES


@<TRIPOS>ATOM
  1 S       -4.0530     4.3480    -1.0170 S.3   1 <1>  -0.0800 
  2 C       -2.5980     3.5790    -0.3710 C.2   1 <1>  -0.0450 
  3 C       -5.1020     3.3930     0.0070 C.2   1 <1>  -0.1100 
  4 C       -1.3140     3.9870    -0.8730 C.2   1 <1>   0.8050 
  5 C       -2.9720     2.6630     0.5620 C.2   1 <1>  -0.1500 
  6 C       -4.3770     2.5590     0.7740 C.2   1 <1>  -0.1500 
  7 O       -1.1410     4.8360    -1.7220 O.2   1 <1>  -0.5700 
  8 O       -0.2320     3.3840    -0.3610 O.3   1 <1>  -0.4300 
  9 C        1.0640     3.7280    -0.8070 C.3   1 <1>   0.1200 
 10 C        2.0890     2.8920    -0.0320 C.3   1 <1>   0.3430 
 11 N        3.5030     3.0860    -0.5240 N.4   1 <1>  -0.9590 
 12 C        4.4680     2.0770     0.0110 C.3   1 <1>   0.5030 
 13 C        3.9390     4.5120    -0.3080 C.3   1 <1>   0.2630 
 14 C        4.5740     2.1650     1.5360 C.3   1 <1>  -0.2400 
 15 C        4.0030     0.6750    -0.3980 C.3   1 <1>  -0.2400 
 16 C        5.8440     2.3160    -0.6190 C.3   1 <1>  -0.2400 
 17 H       -6.1620     3.5580    -0.0740 H     1 <1>   0.1500 
 18 H       -2.2910     2.0440     1.1200 H     1 <1>   0.1500 
 19 H       -4.7830     1.8650     1.4900 H     1 <1>   0.1500 
 20 H        1.2020     4.7810    -0.6310 H     1 <1>   0.0800 
 21 H        1.1160     3.5180    -1.8620 H     1 <1>   0.0800 
 22 H        1.8060     1.8590    -0.1400 H     1 <1>   0.0800 
 23 H        2.0320     3.1500     1.0130 H     1 <1>   0.0800 
 24 H        3.4970     2.9170    -1.5380 H     1 <1>   0.4500 
 25 H        3.9790     4.7370     0.7450 H     1 <1>   0.0800 
 26 H        3.2520     5.1950    -0.7790 H     1 <1>   0.0800 
 27 H        4.9150     4.6800    -0.7340 H     1 <1>   0.0800 
 28 H        3.6340     1.9590     2.0140 H     1 <1>   0.0800 
 29 H        4.9320     3.1260     1.8540 H     1 <1>   0.0800 
 30 H        5.2780     1.4310     1.8890 H     1 <1>   0.0800 
 31 H        4.7590    -0.0470    -0.1440 H     1 <1>   0.0800 
 32 H        3.1120     0.3770     0.1210 H     1 <1>   0.0800 
 33 H        3.8400     0.6140    -1.4590 H     1 <1>   0.0800 
 34 H        6.2950     3.2260    -0.2680 H     1 <1>   0.0800 
 35 H        5.7820     2.3360    -1.6920 H     1 <1>   0.0800 
 36 H        6.5140     1.5190    -0.3470 H     1 <1>   0.0800 
@<TRIPOS>BOND
  1   1   2  1   
  2   1   3  1   
  3   2   4  1   
  4   2   5  2   
  5   3   6  2   
  6   3  17  1   
  7   4   7  2   
  8   4   8  1   
  9   5   6  1   
 10   5  18  1   
 11   6  19  1   
 12   8   9  1   
 13   9  10  1   
 14   9  20  1   
 15   9  21  1   
 16  10  11  1   
 17  10  22  1   
 18  10  23  1   
 19  11  12  1   
 20  11  13  1   
 21  11  24  1   
 22  12  14  1   
 23  12  15  1   
 24  12  16  1   
 25  13  25  1   
 26  13  26  1   
 27  13  27  1   
 28  14  28  1   
 29  14  29  1   
 30  14  30  1   
 31  15  31  1   
 32  15  32  1   
 33  15  33  1   
 34  16  34  1   
 35  16  35  1   
 36  16  36  1   
@<TRIPOS>SUBSTRUCTURE
  1 ****   8 GROUP 4 **** **** 0

# MOE 2024.06 (io_trps.svl 2023.06)
