@<TRIPOS>MOLECULE
NONAME
46 47 1 0 0 
SMALL
USER_CHARGES


@<TRIPOS>ATOM
  1 S        0.8310     1.3440    -0.7420 S.o2  1 <1>   1.3330 
  2 O        1.6730     2.1690    -1.5750 O.2   1 <1>  -0.6500 
  3 O        1.3530     0.7230     0.4490 O.2   1 <1>  -0.6500 
  4 N       -0.5170     2.3250    -0.2930 N.am  1 <1>  -0.6930 
  5 C        0.0780     0.1080    -1.7780 C.3   1 <1>  -0.1350 
  6 C       -1.6740     1.7510     0.2190 C.ar  1 <1>   0.1990 
  7 C       -0.1830     3.7080     0.1710 C.3   1 <1>   0.2570 
  8 C       -2.8640     1.8550    -0.4910 C.ar  1 <1>  -0.1500 
  9 C       -1.6740     1.0600     1.4250 C.ar  1 <1>  -0.1500 
 10 C        0.5180     3.7800     1.5390 C.2   1 <1>   0.5690 
 11 C       -4.0250     1.2740    -0.0150 C.ar  1 <1>  -0.1500 
 12 C       -2.8320     0.4780     1.9050 C.ar  1 <1>  -0.1500 
 13 O       -0.1540     3.6800     2.5360 O.2   1 <1>  -0.5700 
 14 N        1.8500     3.9970     1.6830 N.am  1 <1>  -0.7300 
 15 C       -4.0100     0.5820     1.1840 C.ar  1 <1>  -0.1500 
 16 C        2.9100     4.1930     0.6800 C.3   1 <1>   0.2200 
 17 C        3.9910     3.1310     0.9200 C.3   1 <1>  -0.1600 
 18 C        3.4020     5.6390     0.8000 C.3   1 <1>  -0.1600 
 19 C        4.9510     3.0010    -0.2720 C.3   1 <1>  -0.1600 
 20 C        4.5550     6.0060    -0.1490 C.3   1 <1>  -0.1600 
 21 C        6.1480     3.9660    -0.2540 C.3   1 <1>  -0.1600 
 22 C        5.8900     5.3830     0.2810 C.3   1 <1>  -0.1600 
 23 H        0.8280    -0.5540    -2.1630 H     1 <1>   0.0800 
 24 H       -0.4280     0.5740    -2.6010 H     1 <1>   0.0800 
 25 H       -0.6310    -0.4670    -1.2150 H     1 <1>   0.0800 
 26 H       -1.0980     4.2660     0.2540 H     1 <1>   0.0800 
 27 H        0.4150     4.1970    -0.5730 H     1 <1>   0.0800 
 28 H       -2.8730     2.3950    -1.4200 H     1 <1>   0.1500 
 29 H       -0.7610     0.9880     1.9920 H     1 <1>   0.1500 
 30 H       -4.9410     1.3600    -0.5730 H     1 <1>   0.1500 
 31 H       -2.8170    -0.0530     2.8420 H     1 <1>   0.1500 
 32 H        2.1810     3.9780     2.6480 H     1 <1>   0.3700 
 33 H       -4.9120     0.1290     1.5590 H     1 <1>   0.1500 
 34 H        2.5060     4.0560    -0.3050 H     1 <1>   0.0800 
 35 H        3.5000     2.1810     1.0360 H     1 <1>   0.0800 
 36 H        4.5360     3.3310     1.8260 H     1 <1>   0.0800 
 37 H        3.7030     5.8340     1.8140 H     1 <1>   0.0800 
 38 H        2.5720     6.2870     0.5780 H     1 <1>   0.0800 
 39 H        4.3990     3.1310    -1.1880 H     1 <1>   0.0800 
 40 H        5.3380     1.9970    -0.2920 H     1 <1>   0.0800 
 41 H        4.6670     7.0770    -0.1220 H     1 <1>   0.0800 
 42 H        4.3180     5.7350    -1.1640 H     1 <1>   0.0800 
 43 H        6.5260     4.0390    -1.2590 H     1 <1>   0.0800 
 44 H        6.9310     3.5280     0.3410 H     1 <1>   0.0800 
 45 H        5.9540     5.3770     1.3560 H     1 <1>   0.0800 
 46 H        6.6910     6.0130    -0.0690 H     1 <1>   0.0800 
@<TRIPOS>BOND
  1   1   2  2   
  2   1   3  2   
  3   1   4  am  
  4   1   5  1   
  5   4   6  1   
  6   4   7  1   
  7   5  23  1   
  8   5  24  1   
  9   5  25  1   
 10   6   8  ar  
 11   6   9  ar  
 12   7  10  1   
 13   7  26  1   
 14   7  27  1   
 15   8  11  ar  
 16   8  28  1   
 17   9  12  ar  
 18   9  29  1   
 19  10  13  2   
 20  10  14  am  
 21  11  15  ar  
 22  11  30  1   
 23  12  15  ar  
 24  12  31  1   
 25  14  16  1   
 26  14  32  1   
 27  15  33  1   
 28  16  17  1   
 29  16  18  1   
 30  16  34  1   
 31  17  19  1   
 32  17  35  1   
 33  17  36  1   
 34  18  20  1   
 35  18  37  1   
 36  18  38  1   
 37  19  21  1   
 38  19  39  1   
 39  19  40  1   
 40  20  22  1   
 41  20  41  1   
 42  20  42  1   
 43  21  22  1   
 44  21  43  1   
 45  21  44  1   
 46  22  45  1   
 47  22  46  1   
@<TRIPOS>SUBSTRUCTURE
  1 ****   7 GROUP 4 **** **** 0

# MOE 2024.06 (io_trps.svl 2023.06)
