@<TRIPOS>MOLECULE
NONAME
35 36 1 0 0 
SMALL
USER_CHARGES


@<TRIPOS>ATOM
  1 BR       0.3300    -0.2610    -0.3210 Br    1 <1>  -0.1110 
  2 C       -1.4580    -0.9680    -0.2290 C.ar  1 <1>   0.1110 
  3 C       -1.7540    -1.9080     0.7370 C.ar  1 <1>  -0.1500 
  4 C       -2.4020    -0.5200    -1.1350 C.ar  1 <1>  -0.1500 
  5 C       -3.0440    -2.3970     0.7800 C.ar  1 <1>   0.1770 
  6 C       -3.6900    -1.0270    -1.0710 C.ar  1 <1>  -0.1500 
  7 CL      -3.4460    -3.5960     1.9930 Cl    1 <1>  -0.1770 
  8 C       -4.0390    -1.9740    -0.1060 C.ar  1 <1>   0.1170 
  9 N       -5.3310    -2.5300     0.0100 N.am  1 <1>  -0.5470 
 10 C       -6.5430    -2.1020    -0.4680 C.2   1 <1>   0.5690 
 11 O       -6.6840    -1.1000    -1.1280 O.2   1 <1>  -0.5700 
 12 C       -7.8170    -2.9030    -0.1430 C.3   1 <1>   0.4040 
 13 N       -9.0830    -2.0810    -0.2370 N.4   1 <1>  -0.9590 
 14 C       -9.1510    -1.0400     0.8320 C.3   1 <1>   0.3430 
 15 C      -10.3130    -2.9200    -0.3040 C.3   1 <1>   0.3430 
 16 C      -10.3500    -0.1250     0.5820 C.3   1 <1>  -0.1600 
 17 C      -11.5290    -2.0310    -0.5710 C.3   1 <1>  -0.1600 
 18 C      -11.6600    -0.9160     0.4750 C.3   1 <1>  -0.1600 
 19 H       -1.0050    -2.2460     1.4300 H     1 <1>   0.1500 
 20 H       -2.1310     0.2130    -1.8760 H     1 <1>   0.1500 
 21 H       -4.4130    -0.6770    -1.7850 H     1 <1>   0.1500 
 22 H       -5.3300    -3.3570     0.6150 H     1 <1>   0.3700 
 23 H       -7.7290    -3.3180     0.8460 H     1 <1>   0.0800 
 24 H       -7.8720    -3.7180    -0.8450 H     1 <1>   0.0800 
 25 H       -9.0010    -1.5510    -1.1220 H     1 <1>   0.4500 
 26 H       -8.2480    -0.4480     0.8310 H     1 <1>   0.0800 
 27 H       -9.2520    -1.5100     1.7970 H     1 <1>   0.0800 
 28 H      -10.4500    -3.4430     0.6280 H     1 <1>   0.0800 
 29 H      -10.2240    -3.6490    -1.0950 H     1 <1>   0.0800 
 30 H      -10.1850     0.4380    -0.3210 H     1 <1>   0.0800 
 31 H      -10.4260     0.5830     1.3900 H     1 <1>   0.0800 
 32 H      -12.4180    -2.6370    -0.5570 H     1 <1>   0.0800 
 33 H      -11.4490    -1.6030    -1.5550 H     1 <1>   0.0800 
 34 H      -12.4660    -0.2530     0.2030 H     1 <1>   0.0800 
 35 H      -11.9010    -1.3460     1.4330 H     1 <1>   0.0800 
@<TRIPOS>BOND
  1   1   2  1   
  2   2   3  ar  
  3   2   4  ar  
  4   3   5  ar  
  5   3  19  1   
  6   4   6  ar  
  7   4  20  1   
  8   5   7  1   
  9   5   8  ar  
 10   6   8  ar  
 11   6  21  1   
 12   8   9  1   
 13   9  10  am  
 14   9  22  1   
 15  10  11  2   
 16  10  12  1   
 17  12  13  1   
 18  12  23  1   
 19  12  24  1   
 20  13  14  1   
 21  13  15  1   
 22  13  25  1   
 23  14  16  1   
 24  14  26  1   
 25  14  27  1   
 26  15  17  1   
 27  15  28  1   
 28  15  29  1   
 29  16  18  1   
 30  16  30  1   
 31  16  31  1   
 32  17  18  1   
 33  17  32  1   
 34  17  33  1   
 35  18  34  1   
 36  18  35  1   
@<TRIPOS>SUBSTRUCTURE
  1 ****  10 GROUP 4 **** **** 0

# MOE 2024.06 (io_trps.svl 2023.06)
