@<TRIPOS>MOLECULE
NONAME
34 35 1 0 0 
SMALL
USER_CHARGES


@<TRIPOS>ATOM
  1 CL      -0.1040     1.7330    -2.4290 Cl    1 <1>  -0.1770 
  2 C        1.4660     1.0740    -2.0300 C.ar  1 <1>   0.1770 
  3 C        2.4860     1.9050    -1.6050 C.ar  1 <1>   0.1600 
  4 C        1.6830    -0.2830    -2.1410 C.ar  1 <1>  -0.1500 
  5 N        3.7020     1.4860    -1.2820 N.ar  1 <1>  -0.6200 
  6 C        2.9460    -0.7220    -1.8090 C.ar  1 <1>  -0.1500 
  7 C        3.9150     0.1880    -1.3880 C.ar  1 <1>   0.4100 
  8 N        5.1630    -0.2670    -1.0600 N.pl3 1 <1>  -0.8690 
  9 C        6.1200     0.5060    -0.1370 C.3   1 <1>   0.5680 
 10 C        6.8500     1.7090    -0.7820 C.2   1 <1>   0.5690 
 11 C        7.3350    -0.4310     0.0400 C.2   1 <1>  -0.1240 
 12 C        5.5990     1.0010     1.2610 C.3   1 <1>   1.0200 
 13 O        6.4160     2.7930    -1.0850 O.2   1 <1>  -0.5700 
 14 N        8.1650     1.4080    -0.9340 N.am  1 <1>  -0.5390 
 15 C        8.4480     0.1660    -0.4480 C.2   1 <1>  -0.0290 
 16 C        7.1390    -1.7040     0.6530 C.2   1 <1>   0.7060 
 17 F        6.6040     1.2360     2.1060 F     1 <1>  -0.3400 
 18 F        4.8810     2.1190     1.2670 F     1 <1>  -0.3400 
 19 F        4.8420     0.0960     1.8770 F     1 <1>  -0.3400 
 20 C        9.8840    -0.3180    -0.5360 C.3   1 <1>  -0.1020 
 21 O        6.0560    -2.2530     0.7020 O.2   1 <1>  -0.5700 
 22 O        8.1930    -2.3200     1.1920 O.3   1 <1>  -0.4300 
 23 C        8.0770    -3.5750     1.8340 C.3   1 <1>   0.0400 
 24 H        2.2930     2.9610    -1.5280 H     1 <1>   0.1500 
 25 H        0.9050    -0.9480    -2.4700 H     1 <1>   0.1500 
 26 H        3.1950    -1.7640    -1.8730 H     1 <1>   0.1500 
 27 H        5.1500    -1.2530    -0.7670 H     1 <1>   0.4000 
 28 H        8.8070     2.0820    -1.3590 H     1 <1>   0.3700 
 29 H       10.5130     0.2840     0.0940 H     1 <1>   0.0800 
 30 H       10.2340    -0.2400    -1.5500 H     1 <1>   0.0800 
 31 H        9.9780    -1.3430    -0.2320 H     1 <1>   0.0800 
 32 H        9.0480    -3.8660     2.1940 H     1 <1>   0.0800 
 33 H        7.7120    -4.2980     1.1250 H     1 <1>   0.0800 
 34 H        7.3900    -3.4840     2.6590 H     1 <1>   0.0800 
@<TRIPOS>BOND
  1   1   2  1   
  2   2   3  ar  
  3   2   4  ar  
  4   3   5  ar  
  5   3  24  1   
  6   4   6  ar  
  7   4  25  1   
  8   5   7  ar  
  9   6   7  ar  
 10   6  26  1   
 11   7   8  1   
 12   8   9  1   
 13   8  27  1   
 14   9  10  1   
 15   9  11  1   
 16   9  12  1   
 17  10  13  2   
 18  10  14  am  
 19  11  15  2   
 20  11  16  1   
 21  12  17  1   
 22  12  18  1   
 23  12  19  1   
 24  14  15  1   
 25  14  28  1   
 26  15  20  1   
 27  16  21  2   
 28  16  22  1   
 29  20  29  1   
 30  20  30  1   
 31  20  31  1   
 32  22  23  1   
 33  23  32  1   
 34  23  33  1   
 35  23  34  1   
@<TRIPOS>SUBSTRUCTURE
  1 ****   9 GROUP 4 **** **** 0

# MOE 2024.06 (io_trps.svl 2023.06)
