@<TRIPOS>MOLECULE
NONAME
33 34 1 0 0 
SMALL
USER_CHARGES


@<TRIPOS>ATOM
  1 S       -1.4930     0.3460    -0.5170 S.3   1 <1>  -0.3320 
  2 C       -0.8400     1.9650    -0.0330 C.ar  1 <1>   0.1020 
  3 C       -0.1560    -0.5710    -1.4040 C.3   1 <1>  -0.0100 
  4 C       -1.5830     2.8040     0.8140 C.ar  1 <1>   0.0860 
  5 C        0.4060     2.3460    -0.5130 C.ar  1 <1>  -0.1500 
  6 C       -2.9020     2.5030     1.3470 C.2   1 <1>   0.5440 
  7 C       -0.9940     4.0220     1.1640 C.ar  1 <1>  -0.1500 
  8 C        0.9510     3.5630    -0.1500 C.ar  1 <1>  -0.1500 
  9 O       -3.1940     2.8400     2.4800 O.2   1 <1>  -0.5700 
 10 N       -3.8550     1.8880     0.5920 N.am  1 <1>  -0.7300 
 11 C        0.2480     4.4020     0.6930 C.ar  1 <1>  -0.1500 
 12 C       -5.1960     1.4870     1.0440 C.3   1 <1>   0.2200 
 13 C       -5.2290    -0.0300     1.1820 C.3   1 <1>  -0.1600 
 14 C       -6.1890     1.7580    -0.0780 C.3   1 <1>  -0.1600 
 15 C       -5.4470    -0.5740    -0.2350 C.3   1 <1>  -0.1600 
 16 C       -6.0570     0.5770    -1.0460 C.3   1 <1>  -0.1600 
 17 H       -0.5210    -1.5630    -1.6030 H     1 <1>   0.0800 
 18 H        0.7070    -0.6060    -0.7630 H     1 <1>   0.0800 
 19 H        0.0530    -0.0530    -2.3230 H     1 <1>   0.0800 
 20 H        0.9710     1.7150    -1.1690 H     1 <1>   0.1500 
 21 H       -1.5310     4.6840     1.8230 H     1 <1>   0.1500 
 22 H        1.9180     3.8580    -0.5210 H     1 <1>   0.1500 
 23 H       -3.5540     1.4260    -0.2680 H     1 <1>   0.3700 
 24 H        0.6680     5.3500     0.9840 H     1 <1>   0.1500 
 25 H       -5.4590     1.9910     1.9600 H     1 <1>   0.0800 
 26 H       -6.0730    -0.2970     1.7940 H     1 <1>   0.0800 
 27 H       -4.3350    -0.4130     1.6430 H     1 <1>   0.0800 
 28 H       -6.0150     2.7080    -0.5520 H     1 <1>   0.0800 
 29 H       -7.1810     1.7580     0.3400 H     1 <1>   0.0800 
 30 H       -6.0950    -1.4330    -0.2200 H     1 <1>   0.0800 
 31 H       -4.5020    -0.8590    -0.6650 H     1 <1>   0.0800 
 32 H       -5.3940     0.8400    -1.8530 H     1 <1>   0.0800 
 33 H       -7.0140     0.3070    -1.4570 H     1 <1>   0.0800 
@<TRIPOS>BOND
  1   1   2  1   
  2   1   3  1   
  3   2   4  ar  
  4   2   5  ar  
  5   3  17  1   
  6   3  18  1   
  7   3  19  1   
  8   4   6  1   
  9   4   7  ar  
 10   5   8  ar  
 11   5  20  1   
 12   6   9  2   
 13   6  10  am  
 14   7  11  ar  
 15   7  21  1   
 16   8  11  ar  
 17   8  22  1   
 18  10  12  1   
 19  10  23  1   
 20  11  24  1   
 21  12  13  1   
 22  12  14  1   
 23  12  25  1   
 24  13  15  1   
 25  13  26  1   
 26  13  27  1   
 27  14  16  1   
 28  14  28  1   
 29  14  29  1   
 30  15  16  1   
 31  15  30  1   
 32  15  31  1   
 33  16  32  1   
 34  16  33  1   
@<TRIPOS>SUBSTRUCTURE
  1 ****   6 GROUP 4 **** **** 0

# MOE 2024.06 (io_trps.svl 2023.06)
