@<TRIPOS>MOLECULE
21792
39 40 1 0 0 
SMALL
USER_CHARGES


@<TRIPOS>ATOM
  1 S       -0.2440    -0.2560     0.4250 S.3   1 <1>  -0.0800 
  2 C        1.5130    -0.1570     0.4930 C.2   1 <1>   0.1040 
  3 C       -0.3830     1.4810     0.2670 C.2   1 <1>  -0.1400 
  4 N        2.2700    -1.3210     0.5510 N.am  1 <1>  -0.4940 
  5 C        1.9280     1.1460     0.4200 C.2   1 <1>  -0.0860 
  6 C        0.8220     2.0640     0.2870 C.2   1 <1>  -0.1810 
  7 C       -1.7410     2.1320     0.1320 C.3   1 <1>   0.0200 
  8 C        1.9590    -2.6370     0.8660 C.2   1 <1>   0.6300 
  9 C        3.3010     1.5670     0.4770 C.2   1 <1>   0.7160 
 10 C        0.9590     3.5770     0.1720 C.3   1 <1>   0.0210 
 11 C       -1.5580     3.5910    -0.3360 C.3   1 <1>  -0.0800 
 12 O        0.8930    -2.8840     1.4020 O.2   1 <1>  -0.5700 
 13 C        2.9530    -3.6780     0.5760 C.2   1 <1>   0.7200 
 14 O        3.7510     2.4700    -0.1970 O.2   1 <1>  -0.5700 
 15 N        4.1730     0.9650     1.3160 N.am  1 <1>  -0.8000 
 16 C       -0.3940     4.2800     0.4110 C.3   1 <1>  -0.1600 
 17 C       -2.8590     4.3850    -0.1640 C.3   1 <1>  -0.2400 
 18 O        2.8020    -4.8740     0.7410 O.2   1 <1>  -0.5700 
 19 O        4.1320    -3.2560     0.0900 O.3   1 <1>  -0.4300 
 20 C        5.1690    -4.1560    -0.2390 C.3   1 <1>   0.1200 
 21 C        6.3510    -3.3430    -0.7570 C.3   1 <1>  -0.2400 
 22 H        3.2470    -1.2050     0.2680 H     1 <1>   0.3700 
 23 H       -2.2330     2.0990     1.0880 H     1 <1>   0.0800 
 24 H       -2.3380     1.5910    -0.5810 H     1 <1>   0.0800 
 25 H        1.3230     3.8140    -0.8130 H     1 <1>   0.0800 
 26 H        1.6750     3.9390     0.8880 H     1 <1>   0.0800 
 27 H       -1.3100     3.5730    -1.3840 H     1 <1>   0.0800 
 28 H        5.0960     1.3900     1.4040 H     1 <1>   0.3700 
 29 H        3.8320     0.4630     2.1350 H     1 <1>   0.3700 
 30 H       -0.3120     5.3060     0.0990 H     1 <1>   0.0800 
 31 H       -0.6040     4.2720     1.4660 H     1 <1>   0.0800 
 32 H       -3.1350     4.4430     0.8740 H     1 <1>   0.0800 
 33 H       -3.6580     3.9120    -0.7070 H     1 <1>   0.0800 
 34 H       -2.7380     5.3840    -0.5430 H     1 <1>   0.0800 
 35 H        4.8070    -4.8350    -0.9930 H     1 <1>   0.0800 
 36 H        5.4380    -4.7100     0.6460 H     1 <1>   0.0800 
 37 H        6.0680    -2.7900    -1.6340 H     1 <1>   0.0800 
 38 H        7.1570    -4.0060    -1.0180 H     1 <1>   0.0800 
 39 H        6.7000    -2.6660     0.0020 H     1 <1>   0.0800 
@<TRIPOS>BOND
  1   1   2  1   
  2   1   3  1   
  3   2   4  1   
  4   2   5  2   
  5   3   6  2   
  6   3   7  1   
  7   4   8  am  
  8   4  22  1   
  9   5   6  1   
 10   5   9  1   
 11   6  10  1   
 12   7  11  1   
 13   7  23  1   
 14   7  24  1   
 15   8  12  2   
 16   8  13  1   
 17   9  14  2   
 18   9  15  am  
 19  10  16  1   
 20  10  25  1   
 21  10  26  1   
 22  11  16  1   
 23  11  17  1   
 24  11  27  1   
 25  13  18  2   
 26  13  19  1   
 27  15  28  1   
 28  15  29  1   
 29  16  30  1   
 30  16  31  1   
 31  17  32  1   
 32  17  33  1   
 33  17  34  1   
 34  19  20  1   
 35  20  21  1   
 36  20  35  1   
 37  20  36  1   
 38  21  37  1   
 39  21  38  1   
 40  21  39  1   
@<TRIPOS>SUBSTRUCTURE
  1 ****   2 GROUP 4 **** **** 0

# MOE 2024.06 (io_trps.svl 2023.06)
