@<TRIPOS>MOLECULE
NONAME
52 54 1 0 0 
SMALL
USER_CHARGES


@<TRIPOS>ATOM
  1 O       -1.9130     1.8910    -1.2090 O.3   1 <1>  -0.3630 
  2 C       -1.0910     2.1530    -0.1470 C.ar  1 <1>   0.0830 
  3 C       -1.3720     1.4730    -2.4480 C.3   1 <1>   0.0400 
  4 C        0.1550     2.7940    -0.2540 C.ar  1 <1>   0.0830 
  5 C       -1.5620     1.7620     1.1030 C.ar  1 <1>  -0.1440 
  6 O        0.5780     3.2420    -1.4700 O.3   1 <1>  -0.3620 
  7 C        0.9180     2.9810     0.8960 C.ar  1 <1>  -0.1500 
  8 C       -0.7870     1.9630     2.2350 C.ar  1 <1>  -0.1500 
  9 C       -2.9320     1.1240     1.2350 C.3   1 <1>   0.4860 
 10 C        1.8110     3.9100    -1.6420 C.3   1 <1>   0.0400 
 11 C        0.4510     2.5650     2.1290 C.ar  1 <1>  -0.1500 
 12 N       -3.9400     2.0870     0.7330 N.4   1 <1>  -0.9590 
 13 C       -3.9850     3.3580     1.5420 C.3   1 <1>   0.3430 
 14 C       -5.3070     1.4820     0.5680 C.3   1 <1>   0.3430 
 15 C       -5.0030     4.3700     0.9820 C.3   1 <1>   0.2090 
 16 C       -6.3270     2.4930     0.0060 C.3   1 <1>   0.2090 
 17 N       -6.3500     3.7430     0.8220 N.pl3 1 <1>  -0.8380 
 18 C       -7.3700     4.6420     0.4770 C.ar  1 <1>   0.1000 
 19 C       -7.4340     5.3260    -0.7520 C.ar  1 <1>   0.0830 
 20 C       -8.3690     4.8590     1.4140 C.ar  1 <1>  -0.1500 
 21 O       -6.4410     5.1070    -1.6720 O.3   1 <1>  -0.3630 
 22 C       -8.4910     6.1980    -0.9980 C.ar  1 <1>  -0.1500 
 23 C       -9.4150     5.7270     1.1610 C.ar  1 <1>  -0.1500 
 24 C       -6.4030     5.8170    -2.8910 C.3   1 <1>   0.0400 
 25 C       -9.4760     6.3970    -0.0460 C.ar  1 <1>  -0.1500 
 26 H       -1.0960     2.3420    -3.0200 H     1 <1>   0.0800 
 27 H       -2.1230     0.9180    -2.9800 H     1 <1>   0.0800 
 28 H       -0.5110     0.8520    -2.2710 H     1 <1>   0.0800 
 29 H        1.8820     3.4530     0.8580 H     1 <1>   0.1500 
 30 H       -1.1320     1.6530     3.2080 H     1 <1>   0.1500 
 31 H       -3.1320     0.8720     2.2630 H     1 <1>   0.0800 
 32 H       -2.9550     0.2240     0.6430 H     1 <1>   0.0800 
 33 H        1.8100     4.8070    -1.0490 H     1 <1>   0.0800 
 34 H        1.9120     4.1620    -2.6820 H     1 <1>   0.0800 
 35 H        2.6100     3.2530    -1.3490 H     1 <1>   0.0800 
 36 H        1.0560     2.7150     3.0080 H     1 <1>   0.1500 
 37 H       -3.5850     2.3480    -0.2040 H     1 <1>   0.4500 
 38 H       -3.0100     3.8180     1.5570 H     1 <1>   0.0800 
 39 H       -4.2620     3.1310     2.5580 H     1 <1>   0.0800 
 40 H       -5.6680     1.1410     1.5230 H     1 <1>   0.0800 
 41 H       -5.2560     0.6330    -0.0930 H     1 <1>   0.0800 
 42 H       -4.6530     4.7400     0.0340 H     1 <1>   0.0800 
 43 H       -5.0820     5.2080     1.6530 H     1 <1>   0.0800 
 44 H       -7.3090     2.0520     0.0110 H     1 <1>   0.0800 
 45 H       -6.0770     2.7250    -1.0150 H     1 <1>   0.0800 
 46 H       -8.3220     4.3380     2.3520 H     1 <1>   0.1500 
 47 H       -8.5750     6.7350    -1.9230 H     1 <1>   0.1500 
 48 H      -10.1800     5.8800     1.9030 H     1 <1>   0.1500 
 49 H       -5.5270     5.5090    -3.4320 H     1 <1>   0.0800 
 50 H       -6.3500     6.8710    -2.6810 H     1 <1>   0.0800 
 51 H       -7.2850     5.5820    -3.4610 H     1 <1>   0.0800 
 52 H      -10.2900     7.0730    -0.2450 H     1 <1>   0.1500 
@<TRIPOS>BOND
  1   1   2  1   
  2   1   3  1   
  3   2   4  ar  
  4   2   5  ar  
  5   3  26  1   
  6   3  27  1   
  7   3  28  1   
  8   4   6  1   
  9   4   7  ar  
 10   5   8  ar  
 11   5   9  1   
 12   6  10  1   
 13   7  11  ar  
 14   7  29  1   
 15   8  11  ar  
 16   8  30  1   
 17   9  12  1   
 18   9  31  1   
 19   9  32  1   
 20  10  33  1   
 21  10  34  1   
 22  10  35  1   
 23  11  36  1   
 24  12  13  1   
 25  12  14  1   
 26  12  37  1   
 27  13  15  1   
 28  13  38  1   
 29  13  39  1   
 30  14  16  1   
 31  14  40  1   
 32  14  41  1   
 33  15  17  1   
 34  15  42  1   
 35  15  43  1   
 36  16  17  1   
 37  16  44  1   
 38  16  45  1   
 39  17  18  1   
 40  18  19  ar  
 41  18  20  ar  
 42  19  21  1   
 43  19  22  ar  
 44  20  23  ar  
 45  20  46  1   
 46  21  24  1   
 47  22  25  ar  
 48  22  47  1   
 49  23  25  ar  
 50  23  48  1   
 51  24  49  1   
 52  24  50  1   
 53  24  51  1   
 54  25  52  1   
@<TRIPOS>SUBSTRUCTURE
  1 ****  13 GROUP 4 **** **** 0

# MOE 2024.06 (io_trps.svl 2023.06)
