@<TRIPOS>MOLECULE
NONAME
43 46 1 0 0 
SMALL
USER_CHARGES


@<TRIPOS>ATOM
  1 O       -0.4220     0.2640     1.1510 O.2   1 <1>  -0.5700 
  2 C       -0.6010    -0.6240     0.3480 C.2   1 <1>   0.5690 
  3 N       -1.8430    -0.8260    -0.2060 N.am  1 <1>  -0.6600 
  4 C        0.6000    -1.5100    -0.0280 C.3   1 <1>  -0.0190 
  5 C       -2.9820     0.0410     0.2370 C.3   1 <1>   0.3200 
  6 C       -2.1840    -1.8260    -1.2770 C.3   1 <1>   0.1400 
  7 C        0.5250    -2.8740     0.6890 C.3   1 <1>  -0.1600 
  8 C        1.9610    -0.8420     0.2660 C.3   1 <1>  -0.1600 
  9 C       -4.2780    -0.7530     0.2360 C.2   1 <1>  -0.3320 
 10 C       -3.2840    -2.7980    -0.8220 C.3   1 <1>   0.0210 
 11 C        1.6950    -3.7870     0.2990 C.3   1 <1>  -0.1600 
 12 C        3.1350    -1.7480    -0.1310 C.3   1 <1>  -0.1600 
 13 N       -5.4760    -0.3010     0.7140 N.pl3 1 <1>   0.0330 
 14 C       -4.4270    -2.0110    -0.2260 C.2   1 <1>  -0.1810 
 15 C        3.0430    -3.1080     0.5720 C.3   1 <1>  -0.1600 
 16 C       -6.4030    -1.3020     0.5490 C.ar  1 <1>  -0.1520 
 17 C       -5.7720    -2.3950    -0.0390 C.ar  1 <1>   0.0000 
 18 C       -7.7610    -1.3470     0.8710 C.ar  1 <1>  -0.1500 
 19 C       -6.5060    -3.5540    -0.3100 C.ar  1 <1>  -0.1500 
 20 C       -8.4720    -2.4930     0.5970 C.ar  1 <1>  -0.1500 
 21 C       -7.8440    -3.5970     0.0070 C.ar  1 <1>  -0.1500 
 22 H        0.5730    -1.6720    -1.0880 H     1 <1>   0.0800 
 23 H       -3.0660     0.8810    -0.4310 H     1 <1>   0.0800 
 24 H       -2.8020     0.4120     1.2320 H     1 <1>   0.0800 
 25 H       -1.3270    -2.3930    -1.5820 H     1 <1>   0.0800 
 26 H       -2.5400    -1.2840    -2.1370 H     1 <1>   0.0800 
 27 H       -0.4020    -3.3650     0.4530 H     1 <1>   0.0800 
 28 H        0.5410    -2.7090     1.7530 H     1 <1>   0.0800 
 29 H        2.0300    -0.6170     1.3170 H     1 <1>   0.0800 
 30 H        2.0270     0.0890    -0.2700 H     1 <1>   0.0800 
 31 H       -2.8960    -3.4780    -0.0860 H     1 <1>   0.0800 
 32 H       -3.6330    -3.3670    -1.6650 H     1 <1>   0.0800 
 33 H        1.6260    -4.0320    -0.7470 H     1 <1>   0.0800 
 34 H        1.6370    -4.7060     0.8570 H     1 <1>   0.0800 
 35 H        4.0630    -1.2690     0.1330 H     1 <1>   0.0800 
 36 H        3.1310    -1.8950    -1.1970 H     1 <1>   0.0800 
 37 H       -5.6650     0.6110     1.1390 H     1 <1>   0.2700 
 38 H        3.8440    -3.7440     0.2350 H     1 <1>   0.0800 
 39 H        3.1600    -2.9670     1.6330 H     1 <1>   0.0800 
 40 H       -8.2360    -0.4960     1.3250 H     1 <1>   0.1500 
 41 H       -6.0120    -4.3940    -0.7610 H     1 <1>   0.1500 
 42 H       -9.5200    -2.5530     0.8350 H     1 <1>   0.1500 
 43 H       -8.4230    -4.4810    -0.1950 H     1 <1>   0.1500 
@<TRIPOS>BOND
  1   1   2  2   
  2   2   3  am  
  3   2   4  1   
  4   3   5  1   
  5   3   6  1   
  6   4   7  1   
  7   4   8  1   
  8   4  22  1   
  9   5   9  1   
 10   5  23  1   
 11   5  24  1   
 12   6  10  1   
 13   6  25  1   
 14   6  26  1   
 15   7  11  1   
 16   7  27  1   
 17   7  28  1   
 18   8  12  1   
 19   8  29  1   
 20   8  30  1   
 21   9  13  1   
 22   9  14  2   
 23  10  14  1   
 24  10  31  1   
 25  10  32  1   
 26  11  15  1   
 27  11  33  1   
 28  11  34  1   
 29  12  15  1   
 30  12  35  1   
 31  12  36  1   
 32  13  16  1   
 33  13  37  1   
 34  14  17  1   
 35  15  38  1   
 36  15  39  1   
 37  16  17  ar  
 38  16  18  ar  
 39  17  19  ar  
 40  18  20  ar  
 41  18  40  1   
 42  19  21  ar  
 43  19  41  1   
 44  20  21  ar  
 45  20  42  1   
 46  21  43  1   
@<TRIPOS>SUBSTRUCTURE
  1 ****   3 GROUP 4 **** **** 0

# MOE 2024.06 (io_trps.svl 2023.06)
