@<TRIPOS>MOLECULE
NONAME
33 35 1 0 0 
SMALL
USER_CHARGES


@<TRIPOS>ATOM
  1 O       -0.7020    -0.1900     1.1210 O.2   1 <1>  -0.5700 
  2 C       -1.5730    -0.9090     0.7150 C.2   1 <1>   0.4480 
  3 C       -1.3180    -2.2740     0.0480 C.3   1 <1>   0.3610 
  4 C       -3.0510    -0.5580     0.8090 C.3   1 <1>  -0.0190 
  5 N        0.1370    -2.5400    -0.0040 N.am  1 <1>  -0.7300 
  6 C       -1.9180    -2.2250    -1.3720 C.3   1 <1>  -0.1600 
  7 C       -2.0410    -3.3500     0.8850 C.3   1 <1>  -0.1600 
  8 C       -3.6350    -0.5320    -0.6180 C.3   1 <1>  -0.1600 
  9 C       -3.7580    -1.6540     1.6320 C.3   1 <1>  -0.1600 
 10 C        0.7920    -3.6150    -0.5050 C.2   1 <1>   0.7800 
 11 C       -3.4260    -1.9020    -1.2970 C.3   1 <1>  -0.0800 
 12 C       -3.5490    -3.0300     0.9660 C.3   1 <1>  -0.0800 
 13 O        0.2220    -4.5580    -1.0060 O.2   1 <1>  -0.5700 
 14 O        2.1240    -3.6440    -0.4470 O.3   1 <1>  -0.4300 
 15 C       -4.1300    -2.9900    -0.4620 C.3   1 <1>  -0.1600 
 16 C        2.9110    -2.6120     0.1100 C.3   1 <1>   0.0400 
 17 H       -3.1680     0.4020     1.2810 H     1 <1>   0.0800 
 18 H        0.6770    -1.7770     0.4050 H     1 <1>   0.3700 
 19 H       -1.7850    -3.1730    -1.8620 H     1 <1>   0.0800 
 20 H       -1.4140    -1.4720    -1.9520 H     1 <1>   0.0800 
 21 H       -1.6230    -3.3800     1.8750 H     1 <1>   0.0800 
 22 H       -1.9100    -4.3180     0.4350 H     1 <1>   0.0800 
 23 H       -3.1510     0.2380    -1.1940 H     1 <1>   0.0800 
 24 H       -4.6850    -0.2990    -0.5790 H     1 <1>   0.0800 
 25 H       -4.8100    -1.4360     1.7030 H     1 <1>   0.0800 
 26 H       -3.3600    -1.6690     2.6330 H     1 <1>   0.0800 
 27 H       -3.8410    -1.8830    -2.2910 H     1 <1>   0.0800 
 28 H       -4.0510    -3.7920     1.5390 H     1 <1>   0.0800 
 29 H       -4.0020    -3.9500    -0.9330 H     1 <1>   0.0800 
 30 H       -5.1870    -2.7900    -0.4200 H     1 <1>   0.0800 
 31 H        3.9440    -2.8960     0.0250 H     1 <1>   0.0800 
 32 H        2.6500    -2.4920     1.1480 H     1 <1>   0.0800 
 33 H        2.7360    -1.7020    -0.4380 H     1 <1>   0.0800 
@<TRIPOS>BOND
  1   1   2  2   
  2   2   3  1   
  3   2   4  1   
  4   3   5  1   
  5   3   6  1   
  6   3   7  1   
  7   4   8  1   
  8   4   9  1   
  9   4  17  1   
 10   5  10  am  
 11   5  18  1   
 12   6  11  1   
 13   6  19  1   
 14   6  20  1   
 15   7  12  1   
 16   7  21  1   
 17   7  22  1   
 18   8  11  1   
 19   8  23  1   
 20   8  24  1   
 21   9  12  1   
 22   9  25  1   
 23   9  26  1   
 24  10  13  2   
 25  10  14  1   
 26  11  15  1   
 27  11  27  1   
 28  12  15  1   
 29  12  28  1   
 30  14  16  1   
 31  15  29  1   
 32  15  30  1   
 33  16  31  1   
 34  16  32  1   
 35  16  33  1   
@<TRIPOS>SUBSTRUCTURE
  1 ****   3 GROUP 4 **** **** 0

# MOE 2024.06 (io_trps.svl 2023.06)
