@<TRIPOS>MOLECULE
NONAME
40 41 1 0 0 
SMALL
USER_CHARGES


@<TRIPOS>ATOM
  1 O       -0.0320    -0.2810     1.0970 O.2   1 <1>  -0.5700 
  2 C        0.0180    -1.1190     0.2190 C.2   1 <1>   0.6900 
  3 N        1.1930    -1.6110    -0.2650 N.am  1 <1>  -0.5470 
  4 N       -1.1350    -1.5950    -0.3140 N.am  1 <1>  -0.7300 
  5 C        2.5210    -1.2340    -0.0160 C.ar  1 <1>   0.1170 
  6 C       -2.4630    -1.1750     0.1540 C.3   1 <1>   0.2200 
  7 C        3.5320    -2.1590    -0.2520 C.ar  1 <1>  -0.1500 
  8 C        2.8780     0.0320     0.4370 C.ar  1 <1>  -0.1500 
  9 C       -3.4710    -2.3000    -0.0590 C.3   1 <1>  -0.1600 
 10 C       -2.8890     0.0860    -0.5940 C.3   1 <1>  -0.1600 
 11 C        4.8640    -1.8410    -0.0400 C.ar  1 <1>  -0.1430 
 12 C        4.2040     0.3590     0.6520 C.ar  1 <1>  -0.1500 
 13 C       -4.8640    -1.8440     0.3700 C.3   1 <1>   0.3430 
 14 C       -4.2850     0.5130    -0.1530 C.3   1 <1>   0.3430 
 15 C        5.1960    -0.5750     0.4130 C.ar  1 <1>  -0.1500 
 16 C        5.9590    -2.8600    -0.2990 C.3   1 <1>  -0.0970 
 17 N       -5.2510    -0.6060    -0.3740 N.4   1 <1>  -0.9590 
 18 C       -6.6380    -0.1820    -0.0100 C.3   1 <1>   0.2630 
 19 H        1.0950    -2.4580    -0.8110 H     1 <1>   0.3700 
 20 H       -1.0900    -2.1310    -1.1780 H     1 <1>   0.3700 
 21 H       -2.4040    -0.9550     1.2100 H     1 <1>   0.0800 
 22 H        3.2740    -3.1400    -0.6020 H     1 <1>   0.1500 
 23 H        2.1210     0.7710     0.6230 H     1 <1>   0.1500 
 24 H       -3.1850    -3.1500     0.5360 H     1 <1>   0.0800 
 25 H       -3.4940    -2.6010    -1.0920 H     1 <1>   0.0800 
 26 H       -2.8760    -0.0780    -1.6570 H     1 <1>   0.0800 
 27 H       -2.1980     0.8800    -0.3680 H     1 <1>   0.0800 
 28 H        4.4640     1.3420     1.0050 H     1 <1>   0.1500 
 29 H       -4.8640    -1.6450     1.4300 H     1 <1>   0.0800 
 30 H       -5.5760    -2.6310     0.1750 H     1 <1>   0.0800 
 31 H       -4.5880     1.3820    -0.7150 H     1 <1>   0.0800 
 32 H       -4.2630     0.7770     0.8930 H     1 <1>   0.0800 
 33 H        6.2260    -0.3130     0.5820 H     1 <1>   0.1500 
 34 H        5.5470    -3.8470    -0.4080 H     1 <1>   0.0800 
 35 H        6.6530    -2.8710     0.5220 H     1 <1>   0.0800 
 36 H        6.4880    -2.6040    -1.1990 H     1 <1>   0.0800 
 37 H       -5.2370    -0.8300    -1.3800 H     1 <1>   0.4500 
 38 H       -6.6920     0.0640     1.0380 H     1 <1>   0.0800 
 39 H       -7.3380    -0.9760    -0.2140 H     1 <1>   0.0800 
 40 H       -6.9270     0.6850    -0.5830 H     1 <1>   0.0800 
@<TRIPOS>BOND
  1   1   2  2   
  2   2   3  am  
  3   2   4  am  
  4   3   5  1   
  5   3  19  1   
  6   4   6  1   
  7   4  20  1   
  8   5   7  ar  
  9   5   8  ar  
 10   6   9  1   
 11   6  10  1   
 12   6  21  1   
 13   7  11  ar  
 14   7  22  1   
 15   8  12  ar  
 16   8  23  1   
 17   9  13  1   
 18   9  24  1   
 19   9  25  1   
 20  10  14  1   
 21  10  26  1   
 22  10  27  1   
 23  11  15  ar  
 24  11  16  1   
 25  12  15  ar  
 26  12  28  1   
 27  13  17  1   
 28  13  29  1   
 29  13  30  1   
 30  14  17  1   
 31  14  31  1   
 32  14  32  1   
 33  15  33  1   
 34  16  34  1   
 35  16  35  1   
 36  16  36  1   
 37  17  18  1   
 38  17  37  1   
 39  18  38  1   
 40  18  39  1   
 41  18  40  1   
@<TRIPOS>SUBSTRUCTURE
  1 ****   2 GROUP 4 **** **** 0

# MOE 2024.06 (io_trps.svl 2023.06)
