@<TRIPOS>MOLECULE
NONAME
30 31 1 0 0 
SMALL
USER_CHARGES


@<TRIPOS>ATOM
  1 S        2.8640     1.6040    -1.8410 S.3   1 <1>  -0.3710 
  2 C        2.7400     1.1090    -0.1590 C.2   1 <1>   0.6510 
  3 C        1.0700     1.4630    -2.1340 C.3   1 <1>   0.0700 
  4 N        1.5680     0.8500     0.2280 N.2   1 <1>  -0.6960 
  5 N        3.9440     1.0760     0.4890 N.am  1 <1>  -0.4900 
  6 C        0.5050     1.0030    -0.7790 C.3   1 <1>   0.0860 
  7 C        4.2540     0.7420     1.7740 C.2   1 <1>   0.5690 
  8 O        3.4450     0.4020     2.5980 O.2   1 <1>  -0.5700 
  9 C        5.7140     0.7990     2.1960 C.3   1 <1>   0.0440 
 10 C        6.6330     1.2610     1.0700 C.ar  1 <1>  -0.1430 
 11 C        7.1410     0.3420     0.1640 C.ar  1 <1>  -0.1500 
 12 C        6.9410     2.6040     0.9250 C.ar  1 <1>  -0.1500 
 13 C        7.9460     0.7570    -0.8840 C.ar  1 <1>  -0.1430 
 14 C        7.7450     3.0230    -0.1200 C.ar  1 <1>  -0.1500 
 15 C        8.2440     2.1020    -1.0230 C.ar  1 <1>  -0.1500 
 16 C        8.4930    -0.2550    -1.8740 C.3   1 <1>  -0.0970 
 17 H        0.9100     0.7370    -2.9110 H     1 <1>   0.0800 
 18 H        0.6990     2.4300    -2.4230 H     1 <1>   0.0800 
 19 H        4.7320     1.3450    -0.0960 H     1 <1>   0.3700 
 20 H        0.0020     0.0590    -0.8970 H     1 <1>   0.0800 
 21 H       -0.2110     1.7210    -0.4210 H     1 <1>   0.0800 
 22 H        6.0080    -0.1790     2.5300 H     1 <1>   0.0800 
 23 H        5.7980     1.4640     3.0350 H     1 <1>   0.0800 
 24 H        6.9080    -0.7040     0.2700 H     1 <1>   0.1500 
 25 H        6.5580     3.3330     1.6200 H     1 <1>   0.1500 
 26 H        7.9830     4.0670    -0.2320 H     1 <1>   0.1500 
 27 H        8.8660     2.4380    -1.8340 H     1 <1>   0.1500 
 28 H        7.7820    -0.4110    -2.6660 H     1 <1>   0.0800 
 29 H        8.6820    -1.1950    -1.3860 H     1 <1>   0.0800 
 30 H        9.4150     0.0950    -2.3010 H     1 <1>   0.0800 
@<TRIPOS>BOND
  1   1   2  1   
  2   1   3  1   
  3   2   4  2   
  4   2   5  1   
  5   3   6  1   
  6   3  17  1   
  7   3  18  1   
  8   4   6  1   
  9   5   7  am  
 10   5  19  1   
 11   6  20  1   
 12   6  21  1   
 13   7   8  2   
 14   7   9  1   
 15   9  10  1   
 16   9  22  1   
 17   9  23  1   
 18  10  11  ar  
 19  10  12  ar  
 20  11  13  ar  
 21  11  24  1   
 22  12  14  ar  
 23  12  25  1   
 24  13  15  ar  
 25  13  16  1   
 26  14  15  ar  
 27  14  26  1   
 28  15  27  1   
 29  16  28  1   
 30  16  29  1   
 31  16  30  1   
@<TRIPOS>SUBSTRUCTURE
  1 ****   5 GROUP 4 **** **** 0

# MOE 2024.06 (io_trps.svl 2023.06)
