@<TRIPOS>MOLECULE
NONAME
51 54 1 0 0 
SMALL
USER_CHARGES


@<TRIPOS>ATOM
  1 S       -1.5850    -0.3390    -0.5070 S.3   1 <1>  -0.0800 
  2 C       -1.6990    -0.5970     1.2260 C.2   1 <1>  -0.0360 
  3 C       -0.2460    -1.4620    -0.6390 C.2   1 <1>  -0.1400 
  4 N       -2.6830     0.1210     1.9350 N.pl3 1 <1>   0.6460 
  5 C       -0.7610    -1.4850     1.6430 C.2   1 <1>   0.0190 
  6 C        0.0550    -1.9920     0.5650 C.2   1 <1>  -0.1810 
  7 C        0.3460    -1.6360    -2.0270 C.3   1 <1>   0.0200 
  8 N       -2.3840     0.8690     2.9970 N.2   1 <1>  -0.7070 
  9 C       -4.0180     0.2330     1.7010 C.2   1 <1>   0.1330 
 10 C       -0.5910    -1.8930     3.0080 C.1   1 <1>   0.5380 
 11 C        1.1430    -3.0400     0.8080 C.3   1 <1>   0.0210 
 12 C        1.8430    -1.9650    -1.9560 C.3   1 <1>  -0.1600 
 13 C       -3.5190     1.3900     3.3120 C.2   1 <1>   0.3660 
 14 N       -4.5590     1.0490     2.5520 N.2   1 <1>  -0.5650 
 15 C       -4.7350    -0.4620     0.6600 C.ar  1 <1>   0.0530 
 16 N       -0.4530    -2.2620     4.0790 N.1   1 <1>  -0.5570 
 17 C        1.3220    -3.9840    -0.3910 C.3   1 <1>  -0.1600 
 18 C        2.1590    -3.4130    -1.5480 C.3   1 <1>  -0.1600 
 19 C       -5.6500     0.2190    -0.1390 C.ar  1 <1>  -0.1500 
 20 C       -4.5450    -1.8200     0.4160 C.ar  1 <1>  -0.1500 
 21 C       -6.3450    -0.4200    -1.1590 C.ar  1 <1>   0.0830 
 22 C       -5.2090    -2.4770    -0.6020 C.ar  1 <1>   0.0830 
 23 O       -7.2410     0.2370    -1.9540 O.3   1 <1>  -0.3630 
 24 C       -6.1320    -1.7810    -1.3910 C.ar  1 <1>   0.0830 
 25 O       -4.9070    -3.7950    -0.7520 O.3   1 <1>  -0.3630 
 26 C       -7.4740     1.6220    -1.8230 C.3   1 <1>   0.0400 
 27 O       -6.8270    -2.4160    -2.3710 O.3   1 <1>  -0.3630 
 28 C       -4.6760    -4.3020    -2.0500 C.3   1 <1>   0.0400 
 29 C       -8.1450    -2.7850    -2.0380 C.3   1 <1>   0.0400 
 30 H        0.2330    -0.7100    -2.5620 H     1 <1>   0.0800 
 31 H       -0.1900    -2.3970    -2.5670 H     1 <1>   0.0800 
 32 H        0.8650    -3.6530     1.6460 H     1 <1>   0.0800 
 33 H        2.0730    -2.5580     1.0530 H     1 <1>   0.0800 
 34 H        2.3100    -1.2860    -1.2630 H     1 <1>   0.0800 
 35 H        2.2840    -1.7820    -2.9200 H     1 <1>   0.0800 
 36 H       -3.6450     2.0680     4.1430 H     1 <1>   0.1500 
 37 H        0.3490    -4.2690    -0.7550 H     1 <1>   0.0800 
 38 H        1.8020    -4.8840    -0.0490 H     1 <1>   0.0800 
 39 H        3.2010    -3.4640    -1.2820 H     1 <1>   0.0800 
 40 H        2.0230    -4.0520    -2.4040 H     1 <1>   0.0800 
 41 H       -5.7990     1.2610     0.0660 H     1 <1>   0.1500 
 42 H       -3.8660    -2.3900     1.0230 H     1 <1>   0.1500 
 43 H       -8.1960     1.9090    -2.5660 H     1 <1>   0.0800 
 44 H       -6.5510     2.1490    -1.9890 H     1 <1>   0.0800 
 45 H       -7.8630     1.8200    -0.8400 H     1 <1>   0.0800 
 46 H       -4.0630    -5.1800    -1.9630 H     1 <1>   0.0800 
 47 H       -4.1720    -3.5540    -2.6380 H     1 <1>   0.0800 
 48 H       -5.6190    -4.5610    -2.4960 H     1 <1>   0.0800 
 49 H       -8.5740    -3.2970    -2.8810 H     1 <1>   0.0800 
 50 H       -8.7130    -1.8990    -1.8180 H     1 <1>   0.0800 
 51 H       -8.1170    -3.4360    -1.1830 H     1 <1>   0.0800 
@<TRIPOS>BOND
  1   1   2  1   
  2   1   3  1   
  3   2   4  1   
  4   2   5  2   
  5   3   6  2   
  6   3   7  1   
  7   4   8  1   
  8   4   9  1   
  9   5   6  1   
 10   5  10  1   
 11   6  11  1   
 12   7  12  1   
 13   7  30  1   
 14   7  31  1   
 15   8  13  2   
 16   9  14  2   
 17   9  15  1   
 18  10  16  3   
 19  11  17  1   
 20  11  32  1   
 21  11  33  1   
 22  12  18  1   
 23  12  34  1   
 24  12  35  1   
 25  13  14  1   
 26  13  36  1   
 27  15  19  ar  
 28  15  20  ar  
 29  17  18  1   
 30  17  37  1   
 31  17  38  1   
 32  18  39  1   
 33  18  40  1   
 34  19  21  ar  
 35  19  41  1   
 36  20  22  ar  
 37  20  42  1   
 38  21  23  1   
 39  21  24  ar  
 40  22  24  ar  
 41  22  25  1   
 42  23  26  1   
 43  24  27  1   
 44  25  28  1   
 45  26  43  1   
 46  26  44  1   
 47  26  45  1   
 48  27  29  1   
 49  28  46  1   
 50  28  47  1   
 51  28  48  1   
 52  29  49  1   
 53  29  50  1   
 54  29  51  1   
@<TRIPOS>SUBSTRUCTURE
  1 ****  20 GROUP 4 **** **** 0

# MOE 2024.06 (io_trps.svl 2023.06)
