@<TRIPOS>MOLECULE
NONAME
52 54 1 0 0 
SMALL
USER_CHARGES


@<TRIPOS>ATOM
  1 O        0.7250     0.0280    -0.6430 O.2   1 <1>  -0.5700 
  2 C        1.8550    -0.2180    -0.2780 C.2   1 <1>   0.5440 
  3 N        2.7290     0.8350    -0.3000 N.am  1 <1>  -0.5470 
  4 C        2.2180    -1.5580     0.1510 C.ar  1 <1>   0.0860 
  5 C        4.1190     0.8920    -0.1970 C.ar  1 <1>   0.1170 
  6 C        3.0710    -1.7870     1.2300 C.ar  1 <1>  -0.1500 
  7 C        1.7080    -2.6710    -0.5150 C.ar  1 <1>  -0.1500 
  8 C        4.9440    -0.0990    -0.7170 C.ar  1 <1>  -0.1500 
  9 C        4.7160     1.9780     0.4290 C.ar  1 <1>  -0.1500 
 10 C        3.4280    -3.0650     1.6170 C.ar  1 <1>   0.0830 
 11 C        2.0530    -3.9630    -0.1340 C.ar  1 <1>   0.0830 
 12 C        6.3170    -0.0190    -0.5890 C.ar  1 <1>  -0.1500 
 13 C        6.0900     2.0570     0.5530 C.ar  1 <1>  -0.1500 
 14 O        4.2770    -3.1670     2.6700 O.3   1 <1>  -0.3630 
 15 C        2.9170    -4.1580     0.9290 C.ar  1 <1>  -0.1500 
 16 O        1.5880    -5.0780    -0.7510 O.3   1 <1>  -0.3630 
 17 C        6.9300     1.0570     0.0580 C.ar  1 <1>   0.0860 
 18 C        4.7140    -4.4250     3.1360 C.3   1 <1>   0.0400 
 19 C        0.6210    -5.0000    -1.7760 C.3   1 <1>   0.0400 
 20 C        8.3710     1.1460     0.2130 C.2   1 <1>   0.5440 
 21 O        8.9210     2.2210     0.3600 O.2   1 <1>  -0.5700 
 22 N        9.1430     0.0200     0.2040 N.am  1 <1>  -0.7300 
 23 C       10.6210    -0.0370     0.2410 C.3   1 <1>   0.1400 
 24 C       11.1290    -1.0650    -0.7800 C.3   1 <1>   0.2000 
 25 O       10.4320    -2.2680    -0.6490 O.3   1 <1>  -0.5600 
 26 C       12.5900    -1.4510    -0.6110 C.3   1 <1>  -0.1600 
 27 C       11.1930    -3.3330    -1.1310 C.3   1 <1>   0.1200 
 28 C       12.6350    -2.8380    -1.2250 C.3   1 <1>  -0.1600 
 29 H        2.2480     1.7170    -0.4760 H     1 <1>   0.3700 
 30 H        3.4700    -0.9550     1.7820 H     1 <1>   0.1500 
 31 H        1.0380    -2.4960    -1.3350 H     1 <1>   0.1500 
 32 H        4.5100    -0.9390    -1.2300 H     1 <1>   0.1500 
 33 H        4.1000     2.7640     0.8290 H     1 <1>   0.1500 
 34 H        6.9240    -0.8030    -1.0060 H     1 <1>   0.1500 
 35 H        6.5340     2.9060     1.0440 H     1 <1>   0.1500 
 36 H        3.1660    -5.1660     1.1970 H     1 <1>   0.1500 
 37 H        5.2390    -4.9290     2.3440 H     1 <1>   0.0800 
 38 H        3.8600    -4.9950     3.4570 H     1 <1>   0.0800 
 39 H        5.3770    -4.2610     3.9670 H     1 <1>   0.0800 
 40 H        0.3740    -6.0010    -2.0780 H     1 <1>   0.0800 
 41 H        1.0350    -4.4590    -2.6080 H     1 <1>   0.0800 
 42 H       -0.2550    -4.5070    -1.3930 H     1 <1>   0.0800 
 43 H        8.7200    -0.9070     0.1000 H     1 <1>   0.3700 
 44 H       10.9330    -0.3230     1.2300 H     1 <1>   0.0800 
 45 H       11.0380     0.9310     0.0230 H     1 <1>   0.0800 
 46 H       10.9580    -0.7020    -1.7800 H     1 <1>   0.0800 
 47 H       12.8360    -1.5030     0.4360 H     1 <1>   0.0800 
 48 H       13.2500    -0.7570    -1.1000 H     1 <1>   0.0800 
 49 H       10.8090    -3.6190    -2.0950 H     1 <1>   0.0800 
 50 H       11.0960    -4.1520    -0.4380 H     1 <1>   0.0800 
 51 H       13.3130    -3.4910    -0.7040 H     1 <1>   0.0800 
 52 H       12.9260    -2.7860    -2.2600 H     1 <1>   0.0800 
@<TRIPOS>BOND
  1   1   2  2   
  2   2   3  am  
  3   2   4  1   
  4   3   5  1   
  5   3  29  1   
  6   4   6  ar  
  7   4   7  ar  
  8   5   8  ar  
  9   5   9  ar  
 10   6  10  ar  
 11   6  30  1   
 12   7  11  ar  
 13   7  31  1   
 14   8  12  ar  
 15   8  32  1   
 16   9  13  ar  
 17   9  33  1   
 18  10  14  1   
 19  10  15  ar  
 20  11  15  ar  
 21  11  16  1   
 22  12  17  ar  
 23  12  34  1   
 24  13  17  ar  
 25  13  35  1   
 26  14  18  1   
 27  15  36  1   
 28  16  19  1   
 29  17  20  1   
 30  18  37  1   
 31  18  38  1   
 32  18  39  1   
 33  19  40  1   
 34  19  41  1   
 35  19  42  1   
 36  20  21  2   
 37  20  22  am  
 38  22  23  1   
 39  22  43  1   
 40  23  24  1   
 41  23  44  1   
 42  23  45  1   
 43  24  25  1   
 44  24  26  1   
 45  24  46  1   
 46  25  27  1   
 47  26  28  1   
 48  26  47  1   
 49  26  48  1   
 50  27  28  1   
 51  27  49  1   
 52  27  50  1   
 53  28  51  1   
 54  28  52  1   
@<TRIPOS>SUBSTRUCTURE
  1 ****  12 GROUP 4 **** **** 0

# MOE 2024.06 (io_trps.svl 2023.06)
