@<TRIPOS>MOLECULE
NONAME
46 48 1 0 0 
SMALL
USER_CHARGES


@<TRIPOS>ATOM
  1 O       -1.3130     0.6460     0.6760 O.3   1 <1>  -0.3630 
  2 C       -0.8330     1.9060     0.4960 C.ar  1 <1>   0.0830 
  3 C       -0.6360    -0.3080     1.4670 C.3   1 <1>   0.0400 
  4 C       -1.3530     2.6800    -0.5200 C.ar  1 <1>  -0.1440 
  5 C        0.1730     2.4240     1.3310 C.ar  1 <1>  -0.1500 
  6 C       -0.8630     3.9960    -0.7530 C.ar  1 <1>   0.0000 
  7 C       -2.4690     2.0920    -1.3850 C.3   1 <1>   0.2540 
  8 C        0.6410     3.6890     1.1360 C.ar  1 <1>  -0.1500 
  9 C        0.1410     4.5030     0.1050 C.ar  1 <1>   0.0000 
 10 C       -1.3130     4.8540    -1.7900 C.ar  1 <1>  -0.1500 
 11 N       -3.7860     2.2600    -0.7330 N.3   1 <1>  -0.8100 
 12 C        0.6260     5.8130    -0.0830 C.ar  1 <1>  -0.1500 
 13 C       -0.8230     6.1190    -1.9540 C.ar  1 <1>  -0.1500 
 14 C       -4.1610     3.6690    -0.4590 C.3   1 <1>   0.1100 
 15 C       -4.8680     1.5430    -1.4400 C.3   1 <1>   0.1100 
 16 C        0.1570     6.6090    -1.0880 C.ar  1 <1>  -0.1500 
 17 C       -5.5160     3.7760     0.2800 C.3   1 <1>   0.3430 
 18 C       -6.2050     1.6080    -0.6600 C.3   1 <1>   0.3430 
 19 N       -6.0600     2.4160     0.5990 N.4   1 <1>  -0.9590 
 20 C       -7.2550     2.4540     1.4730 C.3   1 <1>   0.3430 
 21 C       -7.5100     1.0710     2.0590 C.3   1 <1>  -0.2400 
 22 H       -1.1270    -1.2560     1.3390 H     1 <1>   0.0800 
 23 H       -0.6870    -0.0070     2.4980 H     1 <1>   0.0800 
 24 H        0.3850    -0.3770     1.1340 H     1 <1>   0.0800 
 25 H        0.5790     1.8350     2.1310 H     1 <1>   0.1500 
 26 H       -2.2800     1.0400    -1.5160 H     1 <1>   0.0800 
 27 H       -2.4780     2.5180    -2.3700 H     1 <1>   0.0800 
 28 H        1.4090     4.0870     1.7760 H     1 <1>   0.1500 
 29 H       -2.0590     4.5150    -2.4790 H     1 <1>   0.1500 
 30 H        1.3840     6.1800     0.5850 H     1 <1>   0.1500 
 31 H       -1.1780     6.7540    -2.7480 H     1 <1>   0.1500 
 32 H       -4.2090     4.2260    -1.3790 H     1 <1>   0.0800 
 33 H       -3.4100     4.1280     0.1610 H     1 <1>   0.0800 
 34 H       -4.5910     0.5090    -1.5620 H     1 <1>   0.0800 
 35 H       -5.0050     1.9620    -2.4230 H     1 <1>   0.0800 
 36 H        0.5320     7.6080    -1.2280 H     1 <1>   0.1500 
 37 H       -6.2150     4.3180    -0.3350 H     1 <1>   0.0800 
 38 H       -5.3710     4.3380     1.1880 H     1 <1>   0.0800 
 39 H       -6.5100     0.6040    -0.4190 H     1 <1>   0.0800 
 40 H       -6.9650     2.0390    -1.2910 H     1 <1>   0.0800 
 41 H       -5.2710     1.9590     1.0880 H     1 <1>   0.4500 
 42 H       -8.1160     2.7860     0.9140 H     1 <1>   0.0800 
 43 H       -7.0880     3.1490     2.2810 H     1 <1>   0.0800 
 44 H       -7.7850     0.3650     1.2970 H     1 <1>   0.0800 
 45 H       -8.3250     1.1300     2.7580 H     1 <1>   0.0800 
 46 H       -6.6430     0.7160     2.5890 H     1 <1>   0.0800 
@<TRIPOS>BOND
  1   1   2  1   
  2   1   3  1   
  3   2   4  ar  
  4   2   5  ar  
  5   3  22  1   
  6   3  23  1   
  7   3  24  1   
  8   4   6  ar  
  9   4   7  1   
 10   5   8  ar  
 11   5  25  1   
 12   6   9  ar  
 13   6  10  ar  
 14   7  11  1   
 15   7  26  1   
 16   7  27  1   
 17   8   9  ar  
 18   8  28  1   
 19   9  12  ar  
 20  10  13  ar  
 21  10  29  1   
 22  11  14  1   
 23  11  15  1   
 24  12  16  ar  
 25  12  30  1   
 26  13  16  ar  
 27  13  31  1   
 28  14  17  1   
 29  14  32  1   
 30  14  33  1   
 31  15  18  1   
 32  15  34  1   
 33  15  35  1   
 34  16  36  1   
 35  17  19  1   
 36  17  37  1   
 37  17  38  1   
 38  18  19  1   
 39  18  39  1   
 40  18  40  1   
 41  19  20  1   
 42  19  41  1   
 43  20  21  1   
 44  20  42  1   
 45  20  43  1   
 46  21  44  1   
 47  21  45  1   
 48  21  46  1   
@<TRIPOS>SUBSTRUCTURE
  1 ****   4 GROUP 4 **** **** 0

# MOE 2024.06 (io_trps.svl 2023.06)
