@<TRIPOS>MOLECULE
NONAME
51 52 1 0 0 
SMALL
USER_CHARGES


@<TRIPOS>ATOM
  1 S       -0.2640    -0.5950     0.4290 S.o2  1 <1>   1.3330 
  2 O       -1.6370    -0.7430     0.8420 O.2   1 <1>  -0.6500 
  3 O        0.4300    -1.6890    -0.2020 O.2   1 <1>  -0.6500 
  4 N       -0.1580     0.7550    -0.6580 N.am  1 <1>  -0.6930 
  5 C        0.7090    -0.0490     1.8150 C.3   1 <1>  -0.1350 
  6 C       -0.7300     2.0020    -0.4040 C.ar  1 <1>   0.1990 
  7 C        0.4240     0.4700    -2.0150 C.3   1 <1>   0.2570 
  8 C       -2.0760     2.1340    -0.0810 C.ar  1 <1>  -0.1500 
  9 C        0.0400     3.1600    -0.4760 C.ar  1 <1>  -0.1500 
 10 C        1.9540     0.4240    -2.0340 C.2   1 <1>   0.5690 
 11 C       -2.6290     3.3730     0.1830 C.ar  1 <1>  -0.1500 
 12 C       -0.5100     4.4010    -0.2130 C.ar  1 <1>  -0.1500 
 13 O        2.5160    -0.0190    -3.0070 O.2   1 <1>  -0.5700 
 14 N        2.6060     0.9330    -0.9480 N.am  1 <1>  -0.5470 
 15 C       -1.8490     4.5160     0.1220 C.ar  1 <1>  -0.1430 
 16 C        3.9510     1.0770    -0.5740 C.ar  1 <1>   0.1170 
 17 C       -2.4570     5.8790     0.4120 C.3   1 <1>  -0.0170 
 18 C        4.2270     1.8050     0.5880 C.ar  1 <1>   0.0830 
 19 C        5.0030     0.5270    -1.2950 C.ar  1 <1>  -0.1500 
 20 C       -2.9860     6.5150    -0.8750 C.3   1 <1>  -0.2400 
 21 O        3.1580     2.3270     1.2660 O.3   1 <1>  -0.3620 
 22 C        5.5420     1.9700     1.0060 C.ar  1 <1>  -0.1500 
 23 C        6.3110     0.6940    -0.8760 C.ar  1 <1>  -0.1500 
 24 C        3.3510     3.1970     2.3610 C.3   1 <1>   0.0400 
 25 C        6.5840     1.4180     0.2810 C.ar  1 <1>   0.0830 
 26 O        7.8360     1.6280     0.7650 O.3   1 <1>  -0.3620 
 27 C        8.9650     1.0960     0.1070 C.3   1 <1>   0.0400 
 28 H        0.6720    -0.7830     2.5960 H     1 <1>   0.0800 
 29 H        0.3280     0.8780     2.1960 H     1 <1>   0.0800 
 30 H        1.7330     0.0830     1.5280 H     1 <1>   0.0800 
 31 H        0.1060     1.2300    -2.7050 H     1 <1>   0.0800 
 32 H        0.0490    -0.4710    -2.3770 H     1 <1>   0.0800 
 33 H       -2.7050     1.2630    -0.0410 H     1 <1>   0.1500 
 34 H        1.0800     3.1050    -0.7360 H     1 <1>   0.1500 
 35 H       -3.6740     3.4450     0.4340 H     1 <1>   0.1500 
 36 H        0.1070     5.2810    -0.2740 H     1 <1>   0.1500 
 37 H        1.9770     1.3360    -0.2510 H     1 <1>   0.3700 
 38 H       -1.7150     6.5210     0.8540 H     1 <1>   0.0800 
 39 H       -3.2610     5.7750     1.1200 H     1 <1>   0.0800 
 40 H        4.8060    -0.0380    -2.1880 H     1 <1>   0.1500 
 41 H       -2.1860     6.6410    -1.5830 H     1 <1>   0.0800 
 42 H       -3.4160     7.4780    -0.6630 H     1 <1>   0.0800 
 43 H       -3.7400     5.8880    -1.3150 H     1 <1>   0.0800 
 44 H        5.7920     2.5190     1.8930 H     1 <1>   0.1500 
 45 H        7.0960     0.2540    -1.4610 H     1 <1>   0.1500 
 46 H        2.3860     3.5340     2.6960 H     1 <1>   0.0800 
 47 H        3.9400     4.0390     2.0410 H     1 <1>   0.0800 
 48 H        3.8460     2.6610     3.1520 H     1 <1>   0.0800 
 49 H        9.8400     1.3810     0.6630 H     1 <1>   0.0800 
 50 H        9.0160     1.5050    -0.8870 H     1 <1>   0.0800 
 51 H        8.8820     0.0240     0.0800 H     1 <1>   0.0800 
@<TRIPOS>BOND
  1   1   2  2   
  2   1   3  2   
  3   1   4  am  
  4   1   5  1   
  5   4   6  1   
  6   4   7  1   
  7   5  28  1   
  8   5  29  1   
  9   5  30  1   
 10   6   8  ar  
 11   6   9  ar  
 12   7  10  1   
 13   7  31  1   
 14   7  32  1   
 15   8  11  ar  
 16   8  33  1   
 17   9  12  ar  
 18   9  34  1   
 19  10  13  2   
 20  10  14  am  
 21  11  15  ar  
 22  11  35  1   
 23  12  15  ar  
 24  12  36  1   
 25  14  16  1   
 26  14  37  1   
 27  15  17  1   
 28  16  18  ar  
 29  16  19  ar  
 30  17  20  1   
 31  17  38  1   
 32  17  39  1   
 33  18  21  1   
 34  18  22  ar  
 35  19  23  ar  
 36  19  40  1   
 37  20  41  1   
 38  20  42  1   
 39  20  43  1   
 40  21  24  1   
 41  22  25  ar  
 42  22  44  1   
 43  23  25  ar  
 44  23  45  1   
 45  24  46  1   
 46  24  47  1   
 47  24  48  1   
 48  25  26  1   
 49  26  27  1   
 50  27  49  1   
 51  27  50  1   
 52  27  51  1   
@<TRIPOS>SUBSTRUCTURE
  1 ****  14 GROUP 4 **** **** 0

# MOE 2024.06 (io_trps.svl 2023.06)
