@<TRIPOS>MOLECULE
NONAME
45 48 1 0 0 
SMALL
USER_CHARGES


@<TRIPOS>ATOM
  1 O       -0.1620    -1.1930     1.1730 O.2   1 <1>  -0.5700 
  2 C        0.4230    -2.2330     1.4460 C.2   1 <1>   0.6160 
  3 N        1.5080    -2.6450     0.6820 N.am  1 <1>  -0.4690 
  4 C        0.0210    -3.0370     2.5450 C.2   1 <1>  -0.1360 
  5 C        2.2190    -3.7930     1.0360 C.2   1 <1>  -0.0290 
  6 C        1.7410    -1.9370    -0.6160 C.3   1 <1>   0.1400 
  7 C        0.6910    -4.1720     2.8690 C.2   1 <1>  -0.1500 
  8 C        1.8160    -4.5470     2.0970 C.2   1 <1>  -0.1500 
  9 C        3.4690    -4.1900     0.2420 C.3   1 <1>   0.0580 
 10 C        3.1730    -2.1570    -1.1150 C.3   1 <1>  -0.0800 
 11 C        4.7110    -3.6220     0.9610 C.3   1 <1>   0.3430 
 12 C        3.3940    -3.6770    -1.1990 C.3   1 <1>  -0.1600 
 13 C        4.1150    -1.4250    -0.1290 C.3   1 <1>   0.3430 
 14 N        5.2020    -2.2900     0.4320 N.4   1 <1>  -0.9590 
 15 C        6.3470    -2.4270    -0.5150 C.3   1 <1>   0.4860 
 16 C        7.4930    -3.1090     0.2030 C.ar  1 <1>  -0.1440 
 17 C        7.8260    -4.4200    -0.1100 C.ar  1 <1>  -0.1500 
 18 C        8.2130    -2.4340     1.1790 C.ar  1 <1>  -0.1500 
 19 C        8.8560    -5.0620     0.5570 C.ar  1 <1>  -0.1440 
 20 C        9.2430    -3.0730     1.8450 C.ar  1 <1>  -0.1500 
 21 C        9.5610    -4.3830     1.5360 C.ar  1 <1>  -0.1500 
 22 C        9.2240    -6.4960     0.2180 C.3   1 <1>  -0.0970 
 23 H       -0.8360    -2.6970     3.0960 H     1 <1>   0.1500 
 24 H        1.5550    -0.8820    -0.5000 H     1 <1>   0.0800 
 25 H        1.0360    -2.3130    -1.3380 H     1 <1>   0.0800 
 26 H        0.3930    -4.7940     3.6970 H     1 <1>   0.1500 
 27 H        2.3330    -5.4450     2.3890 H     1 <1>   0.1500 
 28 H        3.5420    -5.2630     0.2380 H     1 <1>   0.0800 
 29 H        3.2630    -1.7160    -2.0920 H     1 <1>   0.0800 
 30 H        5.5050    -4.3470     0.9010 H     1 <1>   0.0800 
 31 H        4.4640    -3.5170     2.0050 H     1 <1>   0.0800 
 32 H        2.5710    -4.1470    -1.7120 H     1 <1>   0.0800 
 33 H        4.2900    -3.9200    -1.7400 H     1 <1>   0.0800 
 34 H        3.5180    -1.0630     0.6940 H     1 <1>   0.0800 
 35 H        4.5420    -0.5610    -0.6130 H     1 <1>   0.0800 
 36 H        5.6010    -1.8030     1.2450 H     1 <1>   0.4500 
 37 H        6.6700    -1.4550    -0.8500 H     1 <1>   0.0800 
 38 H        6.0610    -3.0040    -1.3770 H     1 <1>   0.0800 
 39 H        7.2900    -4.9530    -0.8760 H     1 <1>   0.1500 
 40 H        7.9920    -1.4120     1.4320 H     1 <1>   0.1500 
 41 H        9.8040    -2.5540     2.6030 H     1 <1>   0.1500 
 42 H       10.3670    -4.8710     2.0580 H     1 <1>   0.1500 
 43 H        9.5100    -7.0280     1.1070 H     1 <1>   0.0800 
 44 H       10.0510    -6.5050    -0.4700 H     1 <1>   0.0800 
 45 H        8.3950    -7.0100    -0.2320 H     1 <1>   0.0800 
@<TRIPOS>BOND
  1   1   2  2   
  2   2   3  am  
  3   2   4  1   
  4   3   5  1   
  5   3   6  1   
  6   4   7  2   
  7   4  23  1   
  8   5   8  2   
  9   5   9  1   
 10   6  10  1   
 11   6  24  1   
 12   6  25  1   
 13   7   8  1   
 14   7  26  1   
 15   8  27  1   
 16   9  11  1   
 17   9  12  1   
 18   9  28  1   
 19  10  12  1   
 20  10  13  1   
 21  10  29  1   
 22  11  14  1   
 23  11  30  1   
 24  11  31  1   
 25  12  32  1   
 26  12  33  1   
 27  13  14  1   
 28  13  34  1   
 29  13  35  1   
 30  14  15  1   
 31  14  36  1   
 32  15  16  1   
 33  15  37  1   
 34  15  38  1   
 35  16  17  ar  
 36  16  18  ar  
 37  17  19  ar  
 38  17  39  1   
 39  18  20  ar  
 40  18  40  1   
 41  19  21  ar  
 42  19  22  1   
 43  20  21  ar  
 44  20  41  1   
 45  21  42  1   
 46  22  43  1   
 47  22  44  1   
 48  22  45  1   
@<TRIPOS>SUBSTRUCTURE
  1 ****  11 GROUP 4 **** **** 0

# MOE 2024.06 (io_trps.svl 2023.06)
