@<TRIPOS>MOLECULE
NONAME
47 49 1 0 0 
SMALL
USER_CHARGES


@<TRIPOS>ATOM
  1 O       -2.0450    -0.0320     1.8750 O.3   1 <1>  -0.3630 
  2 C       -2.4040     0.7830     0.8540 C.ar  1 <1>   0.0830 
  3 C       -0.8420     0.1630     2.5880 C.3   1 <1>   0.0400 
  4 C       -1.6940     1.9190     0.4790 C.ar  1 <1>  -0.1500 
  5 C       -3.5540     0.4300     0.1670 C.ar  1 <1>  -0.1500 
  6 C       -2.1440     2.6910    -0.5870 C.ar  1 <1>   0.0830 
  7 C       -4.0100     1.2000    -0.8920 C.ar  1 <1>  -0.1430 
  8 O       -1.5260     3.8160    -1.0230 O.3   1 <1>  -0.3630 
  9 C       -3.2930     2.3250    -1.2670 C.ar  1 <1>  -0.1500 
 10 C       -5.2810     0.8230    -1.6230 C.3   1 <1>   0.4860 
 11 C       -0.2950     4.2410    -0.4760 C.3   1 <1>   0.0400 
 12 N       -6.4390     1.2310    -0.7870 N.4   1 <1>  -0.9590 
 13 C       -7.7430     0.7220    -1.3440 C.3   1 <1>   0.3430 
 14 C       -6.4850     2.7270    -0.5820 C.3   1 <1>   0.3430 
 15 C       -8.9560     1.1570    -0.4970 C.3   1 <1>   0.2090 
 16 C       -7.6960     3.1730     0.2620 C.3   1 <1>   0.2090 
 17 N       -8.9750     2.6350    -0.2890 N.pl3 1 <1>  -0.8380 
 18 C      -10.0970     3.0970     0.3620 C.ar  1 <1>   0.4100 
 19 N      -10.2810     2.6520     1.5970 N.ar  1 <1>  -0.6200 
 20 C      -10.9570     3.9830    -0.2790 C.ar  1 <1>  -0.1500 
 21 C      -11.3610     3.1070     2.2130 C.ar  1 <1>   0.1600 
 22 C      -12.0750     4.4470     0.3730 C.ar  1 <1>  -0.1500 
 23 C      -12.2740     3.9880     1.6600 C.ar  1 <1>  -0.1500 
 24 H       -0.7540    -0.6230     3.3170 H     1 <1>   0.0800 
 25 H       -0.8790     1.1160     3.0850 H     1 <1>   0.0800 
 26 H       -0.0160     0.1170     1.9010 H     1 <1>   0.0800 
 27 H       -0.8070     2.1980     1.0090 H     1 <1>   0.1500 
 28 H       -4.0730    -0.4580     0.4820 H     1 <1>   0.1500 
 29 H       -3.6050     2.9410    -2.0930 H     1 <1>   0.1500 
 30 H       -5.2940    -0.2420    -1.7860 H     1 <1>   0.0800 
 31 H       -5.3160     1.3180    -2.5800 H     1 <1>   0.0800 
 32 H        0.0170     5.1240    -1.0030 H     1 <1>   0.0800 
 33 H        0.4350     3.4610    -0.6080 H     1 <1>   0.0800 
 34 H       -0.4340     4.4680     0.5660 H     1 <1>   0.0800 
 35 H       -6.3000     0.8160     0.1440 H     1 <1>   0.4500 
 36 H       -7.7250    -0.3540    -1.3990 H     1 <1>   0.0800 
 37 H       -7.8820     1.1030    -2.3420 H     1 <1>   0.0800 
 38 H       -6.5440     3.2210    -1.5380 H     1 <1>   0.0800 
 39 H       -5.5830     3.0590    -0.0950 H     1 <1>   0.0800 
 40 H       -8.9300     0.6570     0.4570 H     1 <1>   0.0800 
 41 H       -9.8640     0.8610    -0.9950 H     1 <1>   0.0800 
 42 H       -7.7420     4.2490     0.2770 H     1 <1>   0.0800 
 43 H       -7.5720     2.8390     1.2790 H     1 <1>   0.0800 
 44 H      -10.7340     4.2940    -1.2810 H     1 <1>   0.1500 
 45 H      -11.5300     2.7580     3.2170 H     1 <1>   0.1500 
 46 H      -12.7620     5.1330    -0.0930 H     1 <1>   0.1500 
 47 H      -13.1280     4.3100     2.2280 H     1 <1>   0.1500 
@<TRIPOS>BOND
  1   1   2  1   
  2   1   3  1   
  3   2   4  ar  
  4   2   5  ar  
  5   3  24  1   
  6   3  25  1   
  7   3  26  1   
  8   4   6  ar  
  9   4  27  1   
 10   5   7  ar  
 11   5  28  1   
 12   6   8  1   
 13   6   9  ar  
 14   7   9  ar  
 15   7  10  1   
 16   8  11  1   
 17   9  29  1   
 18  10  12  1   
 19  10  30  1   
 20  10  31  1   
 21  11  32  1   
 22  11  33  1   
 23  11  34  1   
 24  12  13  1   
 25  12  14  1   
 26  12  35  1   
 27  13  15  1   
 28  13  36  1   
 29  13  37  1   
 30  14  16  1   
 31  14  38  1   
 32  14  39  1   
 33  15  17  1   
 34  15  40  1   
 35  15  41  1   
 36  16  17  1   
 37  16  42  1   
 38  16  43  1   
 39  17  18  1   
 40  18  19  ar  
 41  18  20  ar  
 42  19  21  ar  
 43  20  22  ar  
 44  20  44  1   
 45  21  23  ar  
 46  21  45  1   
 47  22  23  ar  
 48  22  46  1   
 49  23  47  1   
@<TRIPOS>SUBSTRUCTURE
  1 ****  14 GROUP 4 **** **** 0

# MOE 2024.06 (io_trps.svl 2023.06)
