@<TRIPOS>MOLECULE
NONAME
40 41 1 0 0 
SMALL
USER_CHARGES


@<TRIPOS>ATOM
  1 BR      -2.0350     1.5430     4.5090 Br    1 <1>  -0.1110 
  2 C       -3.1890     1.8000     2.9880 C.ar  1 <1>   0.1110 
  3 C       -3.0250     2.9280     2.2090 C.ar  1 <1>  -0.1500 
  4 C       -4.1530     0.8490     2.7130 C.ar  1 <1>  -0.1500 
  5 C       -3.8590     3.1070     1.1190 C.ar  1 <1>  -0.1500 
  6 C       -4.9780     1.0420     1.6190 C.ar  1 <1>  -0.1500 
  7 C       -4.8460     2.1720     0.8130 C.ar  1 <1>   0.1170 
  8 N       -5.6600     2.3950    -0.3080 N.am  1 <1>  -0.5470 
  9 C       -6.9530     2.0370    -0.5300 C.2   1 <1>   0.6900 
 10 O       -7.6300     1.4870     0.3170 O.2   1 <1>  -0.5700 
 11 N       -7.5180     2.3530    -1.7220 N.am  1 <1>  -0.7300 
 12 C       -8.8380     1.8500    -2.2120 C.3   1 <1>   0.1400 
 13 C      -10.0290     2.6500    -1.6390 C.3   1 <1>   0.3430 
 14 N      -10.1430     2.4940    -0.1590 N.4   1 <1>  -0.9590 
 15 C      -10.9090     1.2800     0.2380 C.3   1 <1>   0.3430 
 16 C      -10.6300     3.7280     0.5130 C.3   1 <1>   0.3430 
 17 C      -10.8070     1.0800     1.7510 C.3   1 <1>  -0.1600 
 18 C      -10.5130     3.5640     2.0300 C.3   1 <1>  -0.1600 
 19 C      -11.2650     2.3220     2.5260 C.3   1 <1>  -0.1600 
 20 H       -2.2620     3.6460     2.4540 H     1 <1>   0.1500 
 21 H       -4.2520    -0.0190     3.3400 H     1 <1>   0.1500 
 22 H       -3.7400     3.9820     0.5070 H     1 <1>   0.1500 
 23 H       -5.7260     0.3040     1.3920 H     1 <1>   0.1500 
 24 H       -5.2460     2.9880    -1.0200 H     1 <1>   0.3700 
 25 H       -6.8870     2.6800    -2.4570 H     1 <1>   0.3700 
 26 H       -8.9430     0.8090    -1.9570 H     1 <1>   0.0800 
 27 H       -8.8560     1.9240    -3.2850 H     1 <1>   0.0800 
 28 H      -10.9430     2.3250    -2.1080 H     1 <1>   0.0800 
 29 H       -9.8830     3.6880    -1.8860 H     1 <1>   0.0800 
 30 H       -9.1750     2.3200     0.1880 H     1 <1>   0.4500 
 31 H      -10.5060     0.4120    -0.2590 H     1 <1>   0.0800 
 32 H      -11.9430     1.3900    -0.0430 H     1 <1>   0.0800 
 33 H      -11.6580     3.9090     0.2470 H     1 <1>   0.0800 
 34 H      -10.0400     4.5750     0.2010 H     1 <1>   0.0800 
 35 H       -9.7870     0.8450     2.0070 H     1 <1>   0.0800 
 36 H      -11.4100     0.2360     2.0380 H     1 <1>   0.0800 
 37 H      -10.9120     4.4400     2.5120 H     1 <1>   0.0800 
 38 H       -9.4730     3.4920     2.2980 H     1 <1>   0.0800 
 39 H      -11.0840     2.1820     3.5790 H     1 <1>   0.0800 
 40 H      -12.3240     2.4620     2.3900 H     1 <1>   0.0800 
@<TRIPOS>BOND
  1   1   2  1   
  2   2   3  ar  
  3   2   4  ar  
  4   3   5  ar  
  5   3  20  1   
  6   4   6  ar  
  7   4  21  1   
  8   5   7  ar  
  9   5  22  1   
 10   6   7  ar  
 11   6  23  1   
 12   7   8  1   
 13   8   9  am  
 14   8  24  1   
 15   9  10  2   
 16   9  11  am  
 17  11  12  1   
 18  11  25  1   
 19  12  13  1   
 20  12  26  1   
 21  12  27  1   
 22  13  14  1   
 23  13  28  1   
 24  13  29  1   
 25  14  15  1   
 26  14  16  1   
 27  14  30  1   
 28  15  17  1   
 29  15  31  1   
 30  15  32  1   
 31  16  18  1   
 32  16  33  1   
 33  16  34  1   
 34  17  19  1   
 35  17  35  1   
 36  17  36  1   
 37  18  19  1   
 38  18  37  1   
 39  18  38  1   
 40  19  39  1   
 41  19  40  1   
@<TRIPOS>SUBSTRUCTURE
  1 ****  10 GROUP 4 **** **** 0

# MOE 2024.06 (io_trps.svl 2023.06)
