@<TRIPOS>MOLECULE
NONAME
43 46 1 0 0 
SMALL
USER_CHARGES


@<TRIPOS>ATOM
  1 O       -0.8010     1.9470    -2.4510 O.2   1 <1>  -0.5700 
  2 C       -0.3470     2.3170    -1.3890 C.2   1 <1>   0.5950 
  3 C       -1.1720     2.7450    -0.3060 C.2   1 <1>  -0.0860 
  4 C        1.1830     2.3020    -1.2480 C.3   1 <1>   0.1710 
  5 C       -2.3510     2.1730     0.1030 C.2   1 <1>  -0.0680 
  6 C       -1.0090     3.7990     0.6230 C.2   1 <1>   0.1080 
  7 N        1.7550     1.1680    -0.4680 N.3   1 <1>  -0.8100 
  8 N       -2.7860     2.8480     1.1750 N.pl3 1 <1>   0.5930 
  9 N       -3.2240     1.1420    -0.1900 N.pl3 1 <1>  -0.5530 
 10 N       -1.9470     3.8620     1.5120 N.2   1 <1>  -0.7070 
 11 C        0.1030     4.8280     0.6390 C.3   1 <1>  -0.0590 
 12 C        3.2280     1.1530    -0.5650 C.3   1 <1>   0.1100 
 13 C        1.3430     1.1630     0.9550 C.3   1 <1>   0.1100 
 14 C       -3.9780     2.2750     1.6120 C.ar  1 <1>  -0.0230 
 15 C       -4.2470     1.2160     0.7550 C.ar  1 <1>   0.1000 
 16 C       -3.1380     0.2450    -1.3640 C.3   1 <1>   0.1290 
 17 C        3.8320     0.0030     0.2610 C.3   1 <1>   0.1200 
 18 C        2.0220     0.0210     1.7330 C.3   1 <1>   0.1200 
 19 C       -4.8310     2.5890     2.6630 C.ar  1 <1>  -0.1500 
 20 C       -5.3910     0.4490     0.9390 C.ar  1 <1>  -0.1500 
 21 O        3.4120     0.0890     1.5920 O.3   1 <1>  -0.5600 
 22 C       -5.9680     1.8210     2.8410 C.ar  1 <1>  -0.1500 
 23 C       -6.2450     0.7570     1.9820 C.ar  1 <1>  -0.1500 
 24 H        1.5220     3.2270    -0.8280 H     1 <1>   0.0800 
 25 H        1.5810     2.2510    -2.2470 H     1 <1>   0.0800 
 26 H        0.9840     4.4160     1.0930 H     1 <1>   0.0800 
 27 H       -0.2060     5.6830     1.2150 H     1 <1>   0.0800 
 28 H        0.3220     5.1590    -0.3590 H     1 <1>   0.0800 
 29 H        3.6320     2.0840    -0.2070 H     1 <1>   0.0800 
 30 H        3.5170     1.0310    -1.5940 H     1 <1>   0.0800 
 31 H        0.2790     1.0260     1.0290 H     1 <1>   0.0800 
 32 H        1.5990     2.0980     1.4220 H     1 <1>   0.0800 
 33 H       -2.1500    -0.1770    -1.4210 H     1 <1>   0.0800 
 34 H       -3.3280     0.8100    -2.2590 H     1 <1>   0.0800 
 35 H       -3.8570    -0.5490    -1.2810 H     1 <1>   0.0800 
 36 H        4.9060     0.0590     0.2510 H     1 <1>   0.0800 
 37 H        3.5280    -0.9490    -0.1380 H     1 <1>   0.0800 
 38 H        1.6840    -0.9340     1.3700 H     1 <1>   0.0800 
 39 H        1.7930     0.0960     2.7810 H     1 <1>   0.0800 
 40 H       -4.6000     3.4150     3.3140 H     1 <1>   0.1500 
 41 H       -5.6010    -0.3680     0.2750 H     1 <1>   0.1500 
 42 H       -6.6460     2.0430     3.6470 H     1 <1>   0.1500 
 43 H       -7.1350     0.1720     2.1380 H     1 <1>   0.1500 
@<TRIPOS>BOND
  1   1   2  2   
  2   2   3  1   
  3   2   4  1   
  4   3   5  2   
  5   3   6  1   
  6   4   7  1   
  7   4  24  1   
  8   4  25  1   
  9   5   8  1   
 10   5   9  1   
 11   6  10  2   
 12   6  11  1   
 13   7  12  1   
 14   7  13  1   
 15   8  10  1   
 16   8  14  1   
 17   9  15  1   
 18   9  16  1   
 19  11  26  1   
 20  11  27  1   
 21  11  28  1   
 22  12  17  1   
 23  12  29  1   
 24  12  30  1   
 25  13  18  1   
 26  13  31  1   
 27  13  32  1   
 28  14  15  ar  
 29  14  19  ar  
 30  15  20  ar  
 31  16  33  1   
 32  16  34  1   
 33  16  35  1   
 34  17  21  1   
 35  17  36  1   
 36  17  37  1   
 37  18  21  1   
 38  18  38  1   
 39  18  39  1   
 40  19  22  ar  
 41  19  40  1   
 42  20  23  ar  
 43  20  41  1   
 44  22  23  ar  
 45  22  42  1   
 46  23  43  1   
@<TRIPOS>SUBSTRUCTURE
  1 ****   5 GROUP 4 **** **** 0

# MOE 2024.06 (io_trps.svl 2023.06)
