@<TRIPOS>MOLECULE
NONAME
40 42 1 0 0 
SMALL
USER_CHARGES


@<TRIPOS>ATOM
  1 CL      -0.7810    -4.4880    -1.5970 Cl    1 <1>  -0.1770 
  2 C       -1.6230    -3.1660    -0.8120 C.ar  1 <1>   0.1770 
  3 C       -0.8840    -2.1280    -0.2450 C.ar  1 <1>   0.1170 
  4 C       -3.0040    -3.1950    -0.7800 C.ar  1 <1>  -0.1500 
  5 N        0.5240    -2.1670    -0.3180 N.am  1 <1>  -0.5470 
  6 C       -1.5980    -1.0960     0.3610 C.ar  1 <1>  -0.1500 
  7 C       -3.6890    -2.1600    -0.1680 C.ar  1 <1>  -0.1500 
  8 C        1.4960    -1.3960     0.2540 C.2   1 <1>   0.5690 
  9 C       -2.9820    -1.1140     0.4010 C.ar  1 <1>  -0.1500 
 10 O        1.2840    -0.4710     0.9950 O.2   1 <1>  -0.5700 
 11 C        2.9320    -1.7530    -0.0410 C.3   1 <1>  -0.0990 
 12 C        3.4610    -2.6790     1.0540 C.3   1 <1>   0.1400 
 13 N        4.7520    -3.2690     0.6420 N.am  1 <1>  -0.4200 
 14 C        5.9760    -2.8800     1.1040 C.2   1 <1>   0.5690 
 15 C        4.8690    -4.3090    -0.2350 C.2   1 <1>   0.5690 
 16 O        6.1900    -2.0810     1.9780 O.2   1 <1>  -0.5700 
 17 C        7.0480    -3.5870     0.3060 C.3   1 <1>  -0.0190 
 18 O        3.9810    -4.7730    -0.9030 O.2   1 <1>  -0.5700 
 19 C        6.2930    -4.8120    -0.2150 C.3   1 <1>  -0.0190 
 20 C        8.3750    -4.0260     0.9300 C.3   1 <1>  -0.0220 
 21 C        6.9890    -5.3510    -1.4680 C.3   1 <1>  -0.0220 
 22 C        9.0790    -4.9370    -0.0790 C.2   1 <1>  -0.2880 
 23 C        8.4770    -5.5010    -1.1400 C.2   1 <1>  -0.2880 
 24 H       -3.5330    -4.0160    -1.2280 H     1 <1>   0.1500 
 25 H        0.8720    -2.9470    -0.8810 H     1 <1>   0.3700 
 26 H       -1.0810    -0.2670     0.8090 H     1 <1>   0.1500 
 27 H       -4.7660    -2.1670    -0.1340 H     1 <1>   0.1500 
 28 H       -3.5110    -0.3060     0.8770 H     1 <1>   0.1500 
 29 H        3.5180    -0.8530    -0.0690 H     1 <1>   0.0800 
 30 H        2.9840    -2.2310    -1.0020 H     1 <1>   0.0800 
 31 H        2.7600    -3.4770     1.2320 H     1 <1>   0.0800 
 32 H        3.5840    -2.1280     1.9730 H     1 <1>   0.0800 
 33 H        7.2760    -2.9370    -0.5210 H     1 <1>   0.0800 
 34 H        6.3220    -5.5860     0.5330 H     1 <1>   0.0800 
 35 H        8.2110    -4.5550     1.8540 H     1 <1>   0.0800 
 36 H        8.9780    -3.1580     1.1350 H     1 <1>   0.0800 
 37 H        6.8600    -4.6810    -2.3010 H     1 <1>   0.0800 
 38 H        6.5660    -6.3060    -1.7280 H     1 <1>   0.0800 
 39 H       10.1240    -5.0830     0.1420 H     1 <1>   0.1500 
 40 H        9.0060    -6.1160    -1.8500 H     1 <1>   0.1500 
@<TRIPOS>BOND
  1   1   2  1   
  2   2   3  ar  
  3   2   4  ar  
  4   3   5  1   
  5   3   6  ar  
  6   4   7  ar  
  7   4  24  1   
  8   5   8  am  
  9   5  25  1   
 10   6   9  ar  
 11   6  26  1   
 12   7   9  ar  
 13   7  27  1   
 14   8  10  2   
 15   8  11  1   
 16   9  28  1   
 17  11  12  1   
 18  11  29  1   
 19  11  30  1   
 20  12  13  1   
 21  12  31  1   
 22  12  32  1   
 23  13  14  am  
 24  13  15  am  
 25  14  16  2   
 26  14  17  1   
 27  15  18  2   
 28  15  19  1   
 29  17  19  1   
 30  17  20  1   
 31  17  33  1   
 32  19  21  1   
 33  19  34  1   
 34  20  22  1   
 35  20  35  1   
 36  20  36  1   
 37  21  23  1   
 38  21  37  1   
 39  21  38  1   
 40  22  23  2   
 41  22  39  1   
 42  23  40  1   
@<TRIPOS>SUBSTRUCTURE
  1 ****  12 GROUP 4 **** **** 0

# MOE 2024.06 (io_trps.svl 2023.06)
