@<TRIPOS>MOLECULE
NONAME
55 57 1 0 0 
SMALL
USER_CHARGES


@<TRIPOS>ATOM
  1 O        0.0250    -0.3930    -0.5040 O.3   1 <1>  -0.3630 
  2 C       -1.1280    -1.1320    -0.5770 C.ar  1 <1>   0.0830 
  3 C        0.1020     0.9000    -1.0590 C.3   1 <1>   0.1200 
  4 C       -1.1120    -2.4440    -0.0680 C.ar  1 <1>   0.1000 
  5 C       -2.2980    -0.6250    -1.1350 C.ar  1 <1>  -0.1500 
  6 C        1.5210     1.4190    -0.8480 C.3   1 <1>  -0.2400 
  7 N        0.0140    -3.0440     0.5150 N.pl3 1 <1>  -0.8380 
  8 C       -2.2720    -3.2020    -0.1390 C.ar  1 <1>  -0.1500 
  9 C       -3.4430    -1.4020    -1.1940 C.ar  1 <1>  -0.1500 
 10 C        0.4420    -2.4220     1.8040 C.3   1 <1>   0.2090 
 11 C        1.1350    -3.3020    -0.4400 C.3   1 <1>   0.2090 
 12 C       -3.4300    -2.6910    -0.6960 C.ar  1 <1>  -0.1500 
 13 C        1.5920    -3.2170     2.4540 C.3   1 <1>   0.3430 
 14 C        2.2870    -4.0720     0.2360 C.3   1 <1>   0.3430 
 15 N        2.7500    -3.4140     1.5140 N.4   1 <1>  -0.9590 
 16 C        3.8550    -4.1870     2.1390 C.3   1 <1>   0.4860 
 17 C        5.0810    -4.0810     1.2550 C.ar  1 <1>  -0.1430 
 18 C        5.3700    -5.0970     0.3510 C.ar  1 <1>   0.0830 
 19 C        5.9080    -2.9720     1.3490 C.ar  1 <1>  -0.1500 
 20 O        4.5040    -6.1540     0.3550 O.3   1 <1>  -0.3630 
 21 C        6.4830    -4.9810    -0.4980 C.ar  1 <1>   0.0830 
 22 C        7.0170    -2.8660     0.5320 C.ar  1 <1>  -0.1500 
 23 C        4.9680    -7.4720     0.1380 C.3   1 <1>   0.0400 
 24 O        6.7260    -5.9480    -1.4280 O.3   1 <1>  -0.3630 
 25 C        7.3020    -3.8590    -0.3870 C.ar  1 <1>  -0.1500 
 26 C        7.8380    -5.8980    -2.2980 C.3   1 <1>   0.0400 
 27 H       -0.6120     1.5310    -0.5570 H     1 <1>   0.0800 
 28 H       -0.1270     0.8360    -2.1090 H     1 <1>   0.0800 
 29 H       -2.3510     0.3700    -1.5310 H     1 <1>   0.1500 
 30 H        1.7450     1.4700     0.2020 H     1 <1>   0.0800 
 31 H        1.6090     2.4070    -1.2630 H     1 <1>   0.0800 
 32 H        2.2280     0.7780    -1.3420 H     1 <1>   0.0800 
 33 H       -2.2610    -4.2040     0.2480 H     1 <1>   0.1500 
 34 H       -4.3440    -1.0030    -1.6270 H     1 <1>   0.1500 
 35 H       -0.4000    -2.3970     2.4750 H     1 <1>   0.0800 
 36 H        0.7570    -1.4080     1.6360 H     1 <1>   0.0800 
 37 H        1.5090    -2.3720    -0.8290 H     1 <1>   0.0800 
 38 H        0.7630    -3.8780    -1.2700 H     1 <1>   0.0800 
 39 H       -4.3190    -3.2960    -0.7410 H     1 <1>   0.1500 
 40 H        1.2040    -4.1770     2.7540 H     1 <1>   0.0800 
 41 H        1.9180    -2.6980     3.3390 H     1 <1>   0.0800 
 42 H        3.1080    -4.1480    -0.4580 H     1 <1>   0.0800 
 43 H        1.9470    -5.0720     0.4470 H     1 <1>   0.0800 
 44 H        3.1240    -2.4950     1.2510 H     1 <1>   0.4500 
 45 H        3.5700    -5.2190     2.2580 H     1 <1>   0.0800 
 46 H        4.0870    -3.7840     3.1110 H     1 <1>   0.0800 
 47 H        5.7070    -2.1840     2.0560 H     1 <1>   0.1500 
 48 H        7.6640    -2.0070     0.6070 H     1 <1>   0.1500 
 49 H        5.0320    -7.6500    -0.9210 H     1 <1>   0.0800 
 50 H        4.2640    -8.1570     0.5750 H     1 <1>   0.0800 
 51 H        5.9330    -7.5920     0.5990 H     1 <1>   0.0800 
 52 H        8.1680    -3.7330    -1.0080 H     1 <1>   0.1500 
 53 H        7.7660    -5.0170    -2.9100 H     1 <1>   0.0800 
 54 H        7.8150    -6.7750    -2.9200 H     1 <1>   0.0800 
 55 H        8.7410    -5.8920    -1.7130 H     1 <1>   0.0800 
@<TRIPOS>BOND
  1   1   2  1   
  2   1   3  1   
  3   2   4  ar  
  4   2   5  ar  
  5   3   6  1   
  6   3  27  1   
  7   3  28  1   
  8   4   7  1   
  9   4   8  ar  
 10   5   9  ar  
 11   5  29  1   
 12   6  30  1   
 13   6  31  1   
 14   6  32  1   
 15   7  10  1   
 16   7  11  1   
 17   8  12  ar  
 18   8  33  1   
 19   9  12  ar  
 20   9  34  1   
 21  10  13  1   
 22  10  35  1   
 23  10  36  1   
 24  11  14  1   
 25  11  37  1   
 26  11  38  1   
 27  12  39  1   
 28  13  15  1   
 29  13  40  1   
 30  13  41  1   
 31  14  15  1   
 32  14  42  1   
 33  14  43  1   
 34  15  16  1   
 35  15  44  1   
 36  16  17  1   
 37  16  45  1   
 38  16  46  1   
 39  17  18  ar  
 40  17  19  ar  
 41  18  20  1   
 42  18  21  ar  
 43  19  22  ar  
 44  19  47  1   
 45  20  23  1   
 46  21  24  1   
 47  21  25  ar  
 48  22  25  ar  
 49  22  48  1   
 50  23  49  1   
 51  23  50  1   
 52  23  51  1   
 53  24  26  1   
 54  25  52  1   
 55  26  53  1   
 56  26  54  1   
 57  26  55  1   
@<TRIPOS>SUBSTRUCTURE
  1 ****  14 GROUP 4 **** **** 0

# MOE 2024.06 (io_trps.svl 2023.06)
