@<TRIPOS>MOLECULE
NONAME
50 52 1 0 0 
SMALL
USER_CHARGES


@<TRIPOS>ATOM
  1 S       -0.0120    -0.8220     1.0010 S.o2  1 <1>   1.4470 
  2 O       -0.2230    -0.1470     2.2650 O.2   1 <1>  -0.6500 
  3 O        0.2330    -2.2470     0.9930 O.2   1 <1>  -0.6500 
  4 N        1.3280    -0.0750     0.2770 N.am  1 <1>  -0.8490 
  5 C       -1.3690    -0.4460    -0.1460 C.ar  1 <1>  -0.0090 
  6 C        2.5850    -0.6000     0.8140 C.3   1 <1>   0.1960 
  7 C        1.2630     1.3870     0.3790 C.3   1 <1>   0.1960 
  8 C       -1.2190    -0.6560    -1.5160 C.ar  1 <1>  -0.1500 
  9 C       -2.5860     0.0510     0.3180 C.ar  1 <1>  -0.1500 
 10 C        3.7770    -0.0200     0.0470 C.3   1 <1>  -0.1600 
 11 C        2.4030     2.0240    -0.4180 C.3   1 <1>  -0.1600 
 12 C       -2.2450    -0.3740    -2.4040 C.ar  1 <1>  -0.1500 
 13 C       -3.6240     0.3390    -0.5530 C.ar  1 <1>  -0.1500 
 14 C        3.7710     1.5170     0.0700 C.3   1 <1>  -0.0190 
 15 C       -3.4320     0.1210    -1.9030 C.ar  1 <1>   0.1900 
 16 C        4.9260     2.0880    -0.7520 C.2   1 <1>   0.5690 
 17 F       -4.4040     0.3900    -2.7310 F     1 <1>  -0.1900 
 18 O        4.8650     2.0370    -1.9560 O.2   1 <1>  -0.5700 
 19 N        5.9860     2.6160    -0.0650 N.am  1 <1>  -0.5470 
 20 C        7.1810     3.2150    -0.5000 C.ar  1 <1>   0.1170 
 21 C        8.2760     3.2680     0.3660 C.ar  1 <1>  -0.1430 
 22 C        7.3070     3.7800    -1.7650 C.ar  1 <1>  -0.1500 
 23 C        9.4550     3.8720    -0.0450 C.ar  1 <1>  -0.1500 
 24 C        8.2130     2.6690     1.7660 C.3   1 <1>  -0.0970 
 25 C        8.4870     4.3770    -2.1670 C.ar  1 <1>  -0.1500 
 26 C        9.5700     4.4260    -1.3080 C.ar  1 <1>  -0.1430 
 27 C       10.8670     5.0830    -1.7440 C.3   1 <1>  -0.0970 
 28 H        2.6060    -1.6730     0.7130 H     1 <1>   0.0800 
 29 H        2.6620    -0.3610     1.8630 H     1 <1>   0.0800 
 30 H        1.3260     1.6880     1.4130 H     1 <1>   0.0800 
 31 H        0.3240     1.7380    -0.0160 H     1 <1>   0.0800 
 32 H       -0.2850    -1.0440    -1.8880 H     1 <1>   0.1500 
 33 H       -2.7220     0.2140     1.3750 H     1 <1>   0.1500 
 34 H        3.7330    -0.3670    -0.9720 H     1 <1>   0.0800 
 35 H        4.6910    -0.3890     0.4760 H     1 <1>   0.0800 
 36 H        2.3560     3.0940    -0.3190 H     1 <1>   0.0800 
 37 H        2.2710     1.7850    -1.4600 H     1 <1>   0.0800 
 38 H       -2.1290    -0.5340    -3.4610 H     1 <1>   0.1500 
 39 H       -4.5640     0.7230    -0.1970 H     1 <1>   0.1500 
 40 H        3.8920     1.8350     1.0900 H     1 <1>   0.0800 
 41 H        5.9350     2.5210     0.9440 H     1 <1>   0.3700 
 42 H        6.4800     3.7620    -2.4500 H     1 <1>   0.1500 
 43 H       10.2980     3.9140     0.6210 H     1 <1>   0.1500 
 44 H        7.9280     1.6340     1.7130 H     1 <1>   0.0800 
 45 H        7.5010     3.2070     2.3660 H     1 <1>   0.0800 
 46 H        9.1700     2.7250     2.2520 H     1 <1>   0.0800 
 47 H        8.5540     4.8050    -3.1520 H     1 <1>   0.1500 
 48 H       11.7080     4.5750    -1.3070 H     1 <1>   0.0800 
 49 H       10.8780     6.1100    -1.4290 H     1 <1>   0.0800 
 50 H       10.9680     5.0460    -2.8130 H     1 <1>   0.0800 
@<TRIPOS>BOND
  1   1   2  2   
  2   1   3  2   
  3   1   4  am  
  4   1   5  1   
  5   4   6  1   
  6   4   7  1   
  7   5   8  ar  
  8   5   9  ar  
  9   6  10  1   
 10   6  28  1   
 11   6  29  1   
 12   7  11  1   
 13   7  30  1   
 14   7  31  1   
 15   8  12  ar  
 16   8  32  1   
 17   9  13  ar  
 18   9  33  1   
 19  10  14  1   
 20  10  34  1   
 21  10  35  1   
 22  11  14  1   
 23  11  36  1   
 24  11  37  1   
 25  12  15  ar  
 26  12  38  1   
 27  13  15  ar  
 28  13  39  1   
 29  14  16  1   
 30  14  40  1   
 31  15  17  1   
 32  16  18  2   
 33  16  19  am  
 34  19  20  1   
 35  19  41  1   
 36  20  21  ar  
 37  20  22  ar  
 38  21  23  ar  
 39  21  24  1   
 40  22  25  ar  
 41  22  42  1   
 42  23  26  ar  
 43  23  43  1   
 44  24  44  1   
 45  24  45  1   
 46  24  46  1   
 47  25  26  ar  
 48  25  47  1   
 49  26  27  1   
 50  27  48  1   
 51  27  49  1   
 52  27  50  1   
@<TRIPOS>SUBSTRUCTURE
  1 ****  11 GROUP 4 **** **** 0

# MOE 2024.06 (io_trps.svl 2023.06)
