@<TRIPOS>MOLECULE
NONAME
43 43 1 0 0 
SMALL
USER_CHARGES


@<TRIPOS>ATOM
  1 O        0.2810    -1.3640     0.3380 O.3   1 <1>  -0.3630 
  2 C       -1.0640    -1.2680     0.1570 C.ar  1 <1>   0.0830 
  3 C        1.1650    -0.3950    -0.1600 C.3   1 <1>   0.1200 
  4 C       -1.8570    -2.2790     0.6940 C.ar  1 <1>  -0.1440 
  5 C       -1.6630    -0.2150    -0.5320 C.ar  1 <1>  -0.1500 
  6 C        2.5760    -0.8320     0.2350 C.3   1 <1>  -0.1600 
  7 C       -3.2320    -2.2230     0.5370 C.ar  1 <1>  -0.1500 
  8 C       -1.2320    -3.4420     1.4510 C.3   1 <1>  -0.0970 
  9 C       -3.0380    -0.1660    -0.6870 C.ar  1 <1>  -0.1430 
 10 C        3.6160     0.1630    -0.2630 C.3   1 <1>   0.3430 
 11 C       -3.8190    -1.1740    -0.1480 C.ar  1 <1>  -0.1500 
 12 C       -3.6890     0.9830    -1.4360 C.3   1 <1>  -0.0970 
 13 N        4.9600    -0.3080     0.1470 N.4   1 <1>  -0.9060 
 14 C        6.0460     0.6000    -0.2930 C.3   1 <1>   0.3430 
 15 C        7.3830     0.0330     0.1730 C.3   1 <1>  -0.1600 
 16 C        8.5410     0.9410    -0.2610 C.3   1 <1>  -0.1600 
 17 C        9.8850     0.3750     0.2060 C.3   1 <1>  -0.2400 
 18 H        0.9080     0.5520     0.2840 H     1 <1>   0.0800 
 19 H        1.0510    -0.3550    -1.2300 H     1 <1>   0.0800 
 20 H       -1.0780     0.5770    -0.9540 H     1 <1>   0.1500 
 21 H        2.7610    -1.8010    -0.1950 H     1 <1>   0.0800 
 22 H        2.6190    -0.9010     1.3080 H     1 <1>   0.0800 
 23 H       -3.8560    -2.9960     0.9470 H     1 <1>   0.1500 
 24 H       -0.5530    -3.9720     0.8070 H     1 <1>   0.0800 
 25 H       -1.9830    -4.1290     1.7960 H     1 <1>   0.0800 
 26 H       -0.6880    -3.0720     2.3010 H     1 <1>   0.0800 
 27 H        3.4190     1.1360     0.1600 H     1 <1>   0.0800 
 28 H        3.5620     0.2390    -1.3380 H     1 <1>   0.0800 
 29 H       -4.8890    -1.1480    -0.2580 H     1 <1>   0.1500 
 30 H       -3.0330     1.3540    -2.2020 H     1 <1>   0.0800 
 31 H       -3.9130     1.7820    -0.7520 H     1 <1>   0.0800 
 32 H       -4.6020     0.6580    -1.9010 H     1 <1>   0.0800 
 33 H        5.1260    -1.2470    -0.2370 H     1 <1>   0.4500 
 34 H        4.9930    -0.4030     1.1700 H     1 <1>   0.4500 
 35 H        5.9030     1.5820     0.1280 H     1 <1>   0.0800 
 36 H        6.0460     0.6850    -1.3690 H     1 <1>   0.0800 
 37 H        7.5340    -0.9450    -0.2510 H     1 <1>   0.0800 
 38 H        7.3910    -0.0480     1.2470 H     1 <1>   0.0800 
 39 H        8.4160     1.9270     0.1570 H     1 <1>   0.0800 
 40 H        8.5580     1.0330    -1.3340 H     1 <1>   0.0800 
 41 H        9.9150     0.2970     1.2800 H     1 <1>   0.0800 
 42 H       10.6850     1.0230    -0.1060 H     1 <1>   0.0800 
 43 H       10.0570    -0.6000    -0.2170 H     1 <1>   0.0800 
@<TRIPOS>BOND
  1   1   2  1   
  2   1   3  1   
  3   2   4  ar  
  4   2   5  ar  
  5   3   6  1   
  6   3  18  1   
  7   3  19  1   
  8   4   7  ar  
  9   4   8  1   
 10   5   9  ar  
 11   5  20  1   
 12   6  10  1   
 13   6  21  1   
 14   6  22  1   
 15   7  11  ar  
 16   7  23  1   
 17   8  24  1   
 18   8  25  1   
 19   8  26  1   
 20   9  11  ar  
 21   9  12  1   
 22  10  13  1   
 23  10  27  1   
 24  10  28  1   
 25  11  29  1   
 26  12  30  1   
 27  12  31  1   
 28  12  32  1   
 29  13  14  1   
 30  13  33  1   
 31  13  34  1   
 32  14  15  1   
 33  14  35  1   
 34  14  36  1   
 35  15  16  1   
 36  15  37  1   
 37  15  38  1   
 38  16  17  1   
 39  16  39  1   
 40  16  40  1   
 41  17  41  1   
 42  17  42  1   
 43  17  43  1   
@<TRIPOS>SUBSTRUCTURE
  1 ****   3 GROUP 4 **** **** 0

# MOE 2024.06 (io_trps.svl 2023.06)
