@<TRIPOS>MOLECULE
NONAME
28 29 1 0 0 
SMALL
USER_CHARGES


@<TRIPOS>ATOM
  1 BR       0.2700     0.1530     2.0750 Br    1 <1>  -0.1110 
  2 C        1.5370     1.1570     1.0260 C.ar  1 <1>   0.1110 
  3 C        2.6330     0.5260     0.4480 C.ar  1 <1>  -0.0090 
  4 C        1.2740     2.5080     0.8840 C.ar  1 <1>  -0.1500 
  5 S        2.9210    -1.2500     0.6760 S.o2  1 <1>   1.4470 
  6 C        3.4720     1.3240    -0.3320 C.ar  1 <1>  -0.1500 
  7 C        2.1400     3.2610     0.1190 C.ar  1 <1>   0.1770 
  8 O        2.0480    -1.9730    -0.2220 O.2   1 <1>  -0.6500 
  9 O        2.9390    -1.5900     2.0810 O.2   1 <1>  -0.6500 
 10 N        4.5070    -1.4880     0.1150 N.am  1 <1>  -0.8490 
 11 C        3.2350     2.6810    -0.4940 C.ar  1 <1>  -0.1500 
 12 CL       1.8470     4.9670    -0.0830 Cl    1 <1>  -0.1770 
 13 C        4.7260    -2.8730    -0.3360 C.3   1 <1>   0.1960 
 14 C        5.5290    -1.1480     1.1230 C.3   1 <1>   0.1960 
 15 C        6.1670    -3.0730    -0.8430 C.3   1 <1>   0.1200 
 16 C        6.9460    -1.3710     0.5680 C.3   1 <1>   0.1200 
 17 O        7.0960    -2.6920     0.1330 O.3   1 <1>  -0.5600 
 18 H        0.4190     2.9600     1.3520 H     1 <1>   0.1500 
 19 H        4.3220     0.8860    -0.8280 H     1 <1>   0.1500 
 20 H        3.8900     3.2880    -1.0940 H     1 <1>   0.1500 
 21 H        4.0460    -3.1070    -1.1380 H     1 <1>   0.0800 
 22 H        4.5340    -3.5600     0.4730 H     1 <1>   0.0800 
 23 H        5.4070    -1.7600     2.0030 H     1 <1>   0.0800 
 24 H        5.4220    -0.1180     1.4180 H     1 <1>   0.0800 
 25 H        6.3380    -2.4880    -1.7290 H     1 <1>   0.0800 
 26 H        6.3390    -4.1100    -1.0730 H     1 <1>   0.0800 
 27 H        7.6800    -1.1940     1.3340 H     1 <1>   0.0800 
 28 H        7.1390    -0.7110    -0.2600 H     1 <1>   0.0800 
@<TRIPOS>BOND
  1   1   2  1   
  2   2   3  ar  
  3   2   4  ar  
  4   3   5  1   
  5   3   6  ar  
  6   4   7  ar  
  7   4  18  1   
  8   5   8  2   
  9   5   9  2   
 10   5  10  am  
 11   6  11  ar  
 12   6  19  1   
 13   7  11  ar  
 14   7  12  1   
 15  10  13  1   
 16  10  14  1   
 17  11  20  1   
 18  13  15  1   
 19  13  21  1   
 20  13  22  1   
 21  14  16  1   
 22  14  23  1   
 23  14  24  1   
 24  15  17  1   
 25  15  25  1   
 26  15  26  1   
 27  16  17  1   
 28  16  27  1   
 29  16  28  1   
@<TRIPOS>SUBSTRUCTURE
  1 ****   3 GROUP 4 **** **** 0

# MOE 2024.06 (io_trps.svl 2023.06)
