@<TRIPOS>MOLECULE
NONAME
41 43 1 0 0 
SMALL
USER_CHARGES


@<TRIPOS>ATOM
  1 O        2.1300     0.7210    -0.6360 O.2   1 <1>  -0.5700 
  2 C        1.8680     1.8610    -0.3340 C.2   1 <1>   0.5690 
  3 N        0.6670     2.2710     0.1530 N.am  1 <1>  -0.4200 
  4 C        2.8160     3.0610    -0.5300 C.3   1 <1>   0.2510 
  5 C        0.6120     3.6240     0.2370 C.2   1 <1>   0.5690 
  6 C       -0.4610     1.3670     0.4750 C.3   1 <1>   0.0600 
  7 N        4.0230     3.1280     0.3500 N.3   1 <1>  -0.8100 
  8 C        1.8990     4.2600    -0.2200 C.3   1 <1>  -0.0990 
  9 O       -0.3380     4.2660     0.6020 O.2   1 <1>  -0.5700 
 10 C        4.7450     1.8300     0.4200 C.3   1 <1>   0.1100 
 11 C        4.9580     4.1850    -0.1100 C.3   1 <1>   0.1100 
 12 C        5.9810     1.8970     1.3330 C.3   1 <1>   0.1400 
 13 C        6.1840     4.3160     0.8090 C.3   1 <1>   0.1400 
 14 N        6.8900     3.0080     0.9230 N.am  1 <1>  -0.6600 
 15 C        8.1660     2.7770     0.4530 C.2   1 <1>   0.5440 
 16 O        8.5000     1.6360     0.1950 O.2   1 <1>  -0.5700 
 17 C        9.1110     3.8580     0.2420 C.ar  1 <1>   0.0860 
 18 C        9.3780     4.8000     1.2370 C.ar  1 <1>  -0.1500 
 19 C        9.7880     3.9900    -0.9690 C.ar  1 <1>  -0.1500 
 20 C       10.2650     5.8390     1.0250 C.ar  1 <1>  -0.1500 
 21 C       10.6780     5.0260    -1.1880 C.ar  1 <1>  -0.1500 
 22 C       10.9150     5.9550    -0.1910 C.ar  1 <1>  -0.1500 
 23 H        3.1190     3.0740    -1.5630 H     1 <1>   0.0800 
 24 H       -0.0840     0.4180     0.8150 H     1 <1>   0.0800 
 25 H       -1.0620     1.2140    -0.4040 H     1 <1>   0.0800 
 26 H       -1.0700     1.8020     1.2490 H     1 <1>   0.0800 
 27 H        1.7130     4.8430    -1.1020 H     1 <1>   0.0800 
 28 H        2.2800     4.8830     0.5680 H     1 <1>   0.0800 
 29 H        5.0520     1.5220    -0.5650 H     1 <1>   0.0800 
 30 H        4.0970     1.0710     0.8190 H     1 <1>   0.0800 
 31 H        4.4560     5.1360    -0.1350 H     1 <1>   0.0800 
 32 H        5.2980     3.9620    -1.1070 H     1 <1>   0.0800 
 33 H        6.4960     0.9530     1.3030 H     1 <1>   0.0800 
 34 H        5.6610     2.0620     2.3460 H     1 <1>   0.0800 
 35 H        5.8640     4.6330     1.7860 H     1 <1>   0.0800 
 36 H        6.8370     5.0700     0.4080 H     1 <1>   0.0800 
 37 H        8.8810     4.7070     2.1870 H     1 <1>   0.1500 
 38 H        9.6110     3.2620    -1.7420 H     1 <1>   0.1500 
 39 H       10.4550     6.5560     1.8060 H     1 <1>   0.1500 
 40 H       11.1870     5.1090    -2.1330 H     1 <1>   0.1500 
 41 H       11.6060     6.7630    -0.3590 H     1 <1>   0.1500 
@<TRIPOS>BOND
  1   1   2  2   
  2   2   3  am  
  3   2   4  1   
  4   3   5  am  
  5   3   6  1   
  6   4   7  1   
  7   4   8  1   
  8   4  23  1   
  9   5   8  1   
 10   5   9  2   
 11   6  24  1   
 12   6  25  1   
 13   6  26  1   
 14   7  10  1   
 15   7  11  1   
 16   8  27  1   
 17   8  28  1   
 18  10  12  1   
 19  10  29  1   
 20  10  30  1   
 21  11  13  1   
 22  11  31  1   
 23  11  32  1   
 24  12  14  1   
 25  12  33  1   
 26  12  34  1   
 27  13  14  1   
 28  13  35  1   
 29  13  36  1   
 30  14  15  am  
 31  15  16  2   
 32  15  17  1   
 33  17  18  ar  
 34  17  19  ar  
 35  18  20  ar  
 36  18  37  1   
 37  19  21  ar  
 38  19  38  1   
 39  20  22  ar  
 40  20  39  1   
 41  21  22  ar  
 42  21  40  1   
 43  22  41  1   
@<TRIPOS>SUBSTRUCTURE
  1 ****  11 GROUP 4 **** **** 0

# MOE 2024.06 (io_trps.svl 2023.06)
