@<TRIPOS>MOLECULE
NONAME
30 30 1 0 0 
SMALL
USER_CHARGES


@<TRIPOS>ATOM
  1 S        0.0040    -0.3620     0.3190 S.o2  1 <1>   1.3330 
  2 O        0.2000    -1.6230    -0.3530 O.2   1 <1>  -0.6500 
  3 O       -0.2500    -0.2970     1.7360 O.2   1 <1>  -0.6500 
  4 N        1.3810     0.5660     0.1180 N.am  1 <1>  -0.9140 
  5 C       -1.2290     0.5780    -0.5540 C.3   1 <1>  -0.1350 
  6 C        2.6050    -0.2300     0.1250 C.3   1 <1>   0.1960 
  7 C        3.8190     0.6860    -0.0180 C.3   1 <1>   0.0700 
  8 S        5.3160    -0.3330     0.0840 S.3   1 <1>  -0.4600 
  9 C        6.6560     0.8500    -0.2370 C.3   1 <1>   0.2130 
 10 C        7.9860     0.1200    -0.1480 C.ar  1 <1>  -0.1430 
 11 C        8.3140    -0.8500    -1.0830 C.ar  1 <1>  -0.1500 
 12 C        8.8900     0.4220     0.8600 C.ar  1 <1>  -0.1500 
 13 C        9.5300    -1.5070    -1.0150 C.ar  1 <1>  -0.1500 
 14 C       10.1070    -0.2340     0.9290 C.ar  1 <1>  -0.1500 
 15 C       10.4280    -1.1980    -0.0090 C.ar  1 <1>  -0.1500 
 16 H        1.3930     1.1300     0.9680 H     1 <1>   0.4200 
 17 H       -2.1820     0.0930    -0.4770 H     1 <1>   0.0800 
 18 H       -0.9650     0.6560    -1.5910 H     1 <1>   0.0800 
 19 H       -1.3080     1.5630    -0.1400 H     1 <1>   0.0800 
 20 H        2.5930    -0.9270    -0.6980 H     1 <1>   0.0800 
 21 H        2.6740    -0.7880     1.0450 H     1 <1>   0.0800 
 22 H        3.8690     1.4040     0.7800 H     1 <1>   0.0800 
 23 H        3.8250     1.1730    -0.9770 H     1 <1>   0.0800 
 24 H        6.5800     1.6290     0.5000 H     1 <1>   0.0800 
 25 H        6.5020     1.2540    -1.2210 H     1 <1>   0.0800 
 26 H        7.6170    -1.1000    -1.8650 H     1 <1>   0.1500 
 27 H        8.6520     1.1680     1.5980 H     1 <1>   0.1500 
 28 H        9.7750    -2.2600    -1.7440 H     1 <1>   0.1500 
 29 H       10.8030     0.0050     1.7140 H     1 <1>   0.1500 
 30 H       11.3740    -1.7090     0.0440 H     1 <1>   0.1500 
@<TRIPOS>BOND
  1   1   2  2   
  2   1   3  2   
  3   1   4  am  
  4   1   5  1   
  5   4   6  1   
  6   4  16  1   
  7   5  17  1   
  8   5  18  1   
  9   5  19  1   
 10   6   7  1   
 11   6  20  1   
 12   6  21  1   
 13   7   8  1   
 14   7  22  1   
 15   7  23  1   
 16   8   9  1   
 17   9  10  1   
 18   9  24  1   
 19   9  25  1   
 20  10  11  ar  
 21  10  12  ar  
 22  11  13  ar  
 23  11  26  1   
 24  12  14  ar  
 25  12  27  1   
 26  13  15  ar  
 27  13  28  1   
 28  14  15  ar  
 29  14  29  1   
 30  15  30  1   
@<TRIPOS>SUBSTRUCTURE
  1 ****   8 GROUP 4 **** **** 0

# MOE 2024.06 (io_trps.svl 2023.06)
