@<TRIPOS>MOLECULE
NONAME
47 49 1 0 0 
SMALL
USER_CHARGES


@<TRIPOS>ATOM
  1 O        0.1190     0.0470    -0.1910 O.2   1 <1>  -0.5700 
  2 C       -0.0380     1.2510    -0.1230 C.2   1 <1>   0.5440 
  3 N       -1.2980     1.7870    -0.1430 N.am  1 <1>  -0.5470 
  4 C        1.1030     2.1430    -0.0050 C.ar  1 <1>   0.0860 
  5 C       -2.5960     1.2930    -0.3280 C.ar  1 <1>   0.1170 
  6 C        1.0400     3.4760    -0.4150 C.ar  1 <1>  -0.1500 
  7 C        2.3120     1.7010     0.5290 C.ar  1 <1>  -0.1500 
  8 C       -3.6150     2.2560    -0.3630 C.ar  1 <1>   0.1000 
  9 C       -2.9130    -0.0500    -0.4740 C.ar  1 <1>  -0.1500 
 10 C        2.1180     4.3330    -0.2850 C.ar  1 <1>   0.0830 
 11 C        3.4030     2.5410     0.6660 C.ar  1 <1>   0.0830 
 12 N       -3.2930     3.6190    -0.2180 N.pl3 1 <1>  -0.8380 
 13 C       -4.9290     1.8430    -0.5430 C.ar  1 <1>  -0.1500 
 14 C       -4.2280    -0.4460    -0.6530 C.ar  1 <1>  -0.1500 
 15 O        1.9280     5.6070    -0.7110 O.3   1 <1>  -0.3620 
 16 C        3.3090     3.8670     0.2590 C.ar  1 <1>  -0.1500 
 17 O        4.5230     1.9960     1.2050 O.3   1 <1>  -0.3620 
 18 C       -3.8140     4.2840     1.0130 C.3   1 <1>   0.2090 
 19 C       -3.5070     4.4690    -1.4270 C.3   1 <1>   0.2090 
 20 C       -5.2370     0.5010    -0.6880 C.ar  1 <1>  -0.1500 
 21 C        2.9590     6.5680    -0.6460 C.3   1 <1>   0.0400 
 22 C        5.7090     2.7420     1.3630 C.3   1 <1>   0.0400 
 23 C       -3.2680     5.7190     1.1300 C.3   1 <1>   0.1200 
 24 C       -2.9760     5.8950    -1.1930 C.3   1 <1>   0.1200 
 25 O       -3.5350     6.4540    -0.0340 O.3   1 <1>  -0.5600 
 26 H       -1.3590     2.8020    -0.0210 H     1 <1>   0.3700 
 27 H        0.1410     3.8660    -0.8540 H     1 <1>   0.1500 
 28 H        2.4020     0.6770     0.8470 H     1 <1>   0.1500 
 29 H       -2.1370    -0.7920    -0.4480 H     1 <1>   0.1500 
 30 H       -5.7140     2.5760    -0.5720 H     1 <1>   0.1500 
 31 H       -4.4620    -1.4910    -0.7650 H     1 <1>   0.1500 
 32 H        4.1480     4.5230     0.3640 H     1 <1>   0.1500 
 33 H       -3.5190     3.7150     1.8780 H     1 <1>   0.0800 
 34 H       -4.8900     4.3170     0.9840 H     1 <1>   0.0800 
 35 H       -4.5570     4.5160    -1.6590 H     1 <1>   0.0800 
 36 H       -2.9980     4.0270    -2.2670 H     1 <1>   0.0800 
 37 H       -6.2580     0.1940    -0.8270 H     1 <1>   0.1500 
 38 H        2.5790     7.4920    -1.0430 H     1 <1>   0.0800 
 39 H        3.7900     6.2310    -1.2400 H     1 <1>   0.0800 
 40 H        3.2470     6.7040     0.3810 H     1 <1>   0.0800 
 41 H        6.4530     2.0970     1.7930 H     1 <1>   0.0800 
 42 H        5.5170     3.5690     2.0240 H     1 <1>   0.0800 
 43 H        6.0380     3.0850     0.3980 H     1 <1>   0.0800 
 44 H       -2.2040     5.7030     1.2900 H     1 <1>   0.0800 
 45 H       -3.7350     6.2280     1.9530 H     1 <1>   0.0800 
 46 H       -3.2370     6.5280    -2.0210 H     1 <1>   0.0800 
 47 H       -1.9050     5.8840    -1.0880 H     1 <1>   0.0800 
@<TRIPOS>BOND
  1   1   2  2   
  2   2   3  am  
  3   2   4  1   
  4   3   5  1   
  5   3  26  1   
  6   4   6  ar  
  7   4   7  ar  
  8   5   8  ar  
  9   5   9  ar  
 10   6  10  ar  
 11   6  27  1   
 12   7  11  ar  
 13   7  28  1   
 14   8  12  1   
 15   8  13  ar  
 16   9  14  ar  
 17   9  29  1   
 18  10  15  1   
 19  10  16  ar  
 20  11  16  ar  
 21  11  17  1   
 22  12  18  1   
 23  12  19  1   
 24  13  20  ar  
 25  13  30  1   
 26  14  20  ar  
 27  14  31  1   
 28  15  21  1   
 29  16  32  1   
 30  17  22  1   
 31  18  23  1   
 32  18  33  1   
 33  18  34  1   
 34  19  24  1   
 35  19  35  1   
 36  19  36  1   
 37  20  37  1   
 38  21  38  1   
 39  21  39  1   
 40  21  40  1   
 41  22  41  1   
 42  22  42  1   
 43  22  43  1   
 44  23  25  1   
 45  23  44  1   
 46  23  45  1   
 47  24  25  1   
 48  24  46  1   
 49  24  47  1   
@<TRIPOS>SUBSTRUCTURE
  1 ****   3 GROUP 4 **** **** 0

# MOE 2024.06 (io_trps.svl 2023.06)
