@<TRIPOS>MOLECULE
NONAME
40 41 1 0 0 
SMALL
USER_CHARGES


@<TRIPOS>ATOM
  1 P        0.1240     0.5620     0.2210 P.3   1 <1>   0.9000 
  2 O        0.3200    -0.8340    -0.2600 O.co2 1 <1>  -0.9500 
  3 O        0.5600     0.9330     1.6010 O.co2 1 <1>  -0.9500 
  4 C        1.2150     1.5970    -0.7810 C.3   1 <1>   0.3430 
  5 C       -1.5500     1.1130    -0.0920 C.3   1 <1>  -0.1600 
  6 N        2.5870     1.5440    -0.1710 N.4   1 <1>  -0.9590 
  7 C       -2.5750     0.3430     0.7440 C.3   1 <1>  -0.0170 
  8 C        3.4280     2.7370    -0.4040 C.3   1 <1>   0.3430 
  9 C        3.2320     0.2330    -0.4590 C.3   1 <1>   0.3430 
 10 C       -3.9830     0.8390     0.4540 C.ar  1 <1>  -0.1430 
 11 C        4.7170     2.6220     0.4130 C.3   1 <1>  -0.1600 
 12 C        4.5250     0.1120     0.3500 C.3   1 <1>  -0.1600 
 13 C       -4.7330     0.2620    -0.5590 C.ar  1 <1>  -0.1500 
 14 C       -4.5280     1.8740     1.1980 C.ar  1 <1>  -0.1500 
 15 C        5.4600     1.3090     0.1290 C.3   1 <1>  -0.1600 
 16 C       -6.0130     0.7150    -0.8270 C.ar  1 <1>  -0.1500 
 17 C       -5.8080     2.3300     0.9310 C.ar  1 <1>  -0.1500 
 18 C       -6.5510     1.7500    -0.0830 C.ar  1 <1>  -0.1500 
 19 H        0.8820     2.6180    -0.7470 H     1 <1>   0.0800 
 20 H        1.2530     1.2870    -1.8090 H     1 <1>   0.0800 
 21 H       -1.8080     0.9810    -1.1250 H     1 <1>   0.0800 
 22 H       -1.6590     2.1560     0.1380 H     1 <1>   0.0800 
 23 H        2.3160     1.4740     0.8420 H     1 <1>   0.4500 
 24 H       -2.3470     0.4660     1.7900 H     1 <1>   0.0800 
 25 H       -2.4990    -0.7080     0.5220 H     1 <1>   0.0800 
 26 H        2.8930     3.6260    -0.1120 H     1 <1>   0.0800 
 27 H        3.6700     2.8080    -1.4520 H     1 <1>   0.0800 
 28 H        3.4490     0.1550    -1.5110 H     1 <1>   0.0800 
 29 H        2.5670    -0.5750    -0.1900 H     1 <1>   0.0800 
 30 H        4.4730     2.6820     1.4600 H     1 <1>   0.0800 
 31 H        5.3570     3.4550     0.1810 H     1 <1>   0.0800 
 32 H        5.0260    -0.7980     0.0710 H     1 <1>   0.0800 
 33 H        4.2690     0.0310     1.3930 H     1 <1>   0.0800 
 34 H       -4.3180    -0.5440    -1.1400 H     1 <1>   0.1500 
 35 H       -3.9530     2.3270     1.9870 H     1 <1>   0.1500 
 36 H        6.3160     1.2260     0.7780 H     1 <1>   0.0800 
 37 H        5.8140     1.3060    -0.8880 H     1 <1>   0.0800 
 38 H       -6.5880     0.2620    -1.6150 H     1 <1>   0.1500 
 39 H       -6.2230     3.1330     1.5120 H     1 <1>   0.1500 
 40 H       -7.5460     2.1030    -0.2900 H     1 <1>   0.1500 
@<TRIPOS>BOND
  1   1   2  ar  
  2   1   3  ar  
  3   1   4  1   
  4   1   5  1   
  5   4   6  1   
  6   4  19  1   
  7   4  20  1   
  8   5   7  1   
  9   5  21  1   
 10   5  22  1   
 11   6   8  1   
 12   6   9  1   
 13   6  23  1   
 14   7  10  1   
 15   7  24  1   
 16   7  25  1   
 17   8  11  1   
 18   8  26  1   
 19   8  27  1   
 20   9  12  1   
 21   9  28  1   
 22   9  29  1   
 23  10  13  ar  
 24  10  14  ar  
 25  11  15  1   
 26  11  30  1   
 27  11  31  1   
 28  12  15  1   
 29  12  32  1   
 30  12  33  1   
 31  13  16  ar  
 32  13  34  1   
 33  14  17  ar  
 34  14  35  1   
 35  15  36  1   
 36  15  37  1   
 37  16  18  ar  
 38  16  38  1   
 39  17  18  ar  
 40  17  39  1   
 41  18  40  1   
@<TRIPOS>SUBSTRUCTURE
  1 ****   1 GROUP 4 **** **** 0

# MOE 2024.06 (io_trps.svl 2023.06)
