@<TRIPOS>MOLECULE
NONAME
41 44 1 0 0 
SMALL
USER_CHARGES


@<TRIPOS>ATOM
  1 S       -0.1910     0.1750     1.3370 S.3   1 <1>  -0.0800 
  2 C        1.3430    -0.6380     0.9990 C.ar  1 <1>   0.2970 
  3 C       -1.1160    -1.2420     0.8170 C.2   1 <1>  -0.0450 
  4 N        2.4860    -0.0270     1.2240 N.ar  1 <1>  -0.5670 
  5 C        1.1330    -1.9180     0.5010 C.ar  1 <1>   0.0000 
  6 C       -2.5250    -1.3840     0.8030 C.2   1 <1>   0.8660 
  7 C       -0.2770    -2.2290     0.4250 C.2   1 <1>   0.0830 
  8 C        3.5530    -0.7480     0.9300 C.ar  1 <1>   0.1660 
  9 C        2.2700    -2.6570     0.1780 C.ar  1 <1>  -0.1440 
 10 O       -3.2830    -0.4900     1.1520 O.2   1 <1>  -0.5700 
 11 N       -3.0640    -2.5750     0.3810 N.2   1 <1>  -0.6610 
 12 N       -0.8910    -3.3940     0.0230 N.pl3 1 <1>  -0.5330 
 13 C        3.5040    -2.0580     0.4200 C.ar  1 <1>  -0.1430 
 14 C        4.8710    -0.0150     1.1980 C.3   1 <1>  -0.0170 
 15 C        2.1360    -4.0630    -0.4050 C.3   1 <1>  -0.0170 
 16 C       -2.2550    -3.5050     0.0200 C.2   1 <1>   0.4400 
 17 C        4.7980    -2.8260     0.1160 C.3   1 <1>  -0.0170 
 18 C        5.5320     0.5720    -0.0680 C.3   1 <1>  -0.0800 
 19 C        3.4410    -4.6160    -0.9810 C.3   1 <1>  -0.1600 
 20 C        4.5950    -4.3360    -0.0230 C.3   1 <1>  -0.1600 
 21 C        6.8810     1.2110     0.2870 C.3   1 <1>  -0.2400 
 22 C        4.6350     1.6120    -0.7520 C.3   1 <1>  -0.2400 
 23 H       -0.3220    -4.1910    -0.2660 H     1 <1>   0.4000 
 24 H        5.5560    -0.6710     1.6990 H     1 <1>   0.0800 
 25 H        4.6810     0.7900     1.8870 H     1 <1>   0.0800 
 26 H        1.4090    -4.0580    -1.1970 H     1 <1>   0.0800 
 27 H        1.7950    -4.7210     0.3750 H     1 <1>   0.0800 
 28 H       -2.6570    -4.4480    -0.3110 H     1 <1>   0.0600 
 29 H        5.5240    -2.6730     0.8920 H     1 <1>   0.0800 
 30 H        5.2080    -2.4510    -0.8040 H     1 <1>   0.0800 
 31 H        5.7160    -0.2220    -0.7700 H     1 <1>   0.0800 
 32 H        3.6430    -4.1480    -1.9290 H     1 <1>   0.0800 
 33 H        3.3460    -5.6760    -1.1450 H     1 <1>   0.0800 
 34 H        4.3790    -4.7620     0.9420 H     1 <1>   0.0800 
 35 H        5.4990    -4.7880    -0.3940 H     1 <1>   0.0800 
 36 H        6.7440     2.0230     0.9800 H     1 <1>   0.0800 
 37 H        7.3570     1.5940    -0.5990 H     1 <1>   0.0800 
 38 H        7.5360     0.4840     0.7330 H     1 <1>   0.0800 
 39 H        4.3970     2.4120    -0.0720 H     1 <1>   0.0800 
 40 H        3.7150     1.1610    -1.0780 H     1 <1>   0.0800 
 41 H        5.1270     2.0270    -1.6130 H     1 <1>   0.0800 
@<TRIPOS>BOND
  1   1   2  1   
  2   1   3  1   
  3   2   4  ar  
  4   2   5  ar  
  5   3   6  1   
  6   3   7  2   
  7   4   8  ar  
  8   5   7  1   
  9   5   9  ar  
 10   6  10  2   
 11   6  11  1   
 12   7  12  1   
 13   8  13  ar  
 14   8  14  1   
 15   9  13  ar  
 16   9  15  1   
 17  11  16  2   
 18  12  16  1   
 19  12  23  1   
 20  13  17  1   
 21  14  18  1   
 22  14  24  1   
 23  14  25  1   
 24  15  19  1   
 25  15  26  1   
 26  15  27  1   
 27  16  28  1   
 28  17  20  1   
 29  17  29  1   
 30  17  30  1   
 31  18  21  1   
 32  18  22  1   
 33  18  31  1   
 34  19  20  1   
 35  19  32  1   
 36  19  33  1   
 37  20  34  1   
 38  20  35  1   
 39  21  36  1   
 40  21  37  1   
 41  21  38  1   
 42  22  39  1   
 43  22  40  1   
 44  22  41  1   
@<TRIPOS>SUBSTRUCTURE
  1 ****   5 GROUP 4 **** **** 0

# MOE 2024.06 (io_trps.svl 2023.06)
