@<TRIPOS>MOLECULE
Structure2311
27 28 1 0 0 
SMALL
USER_CHARGES


@<TRIPOS>ATOM
  1 O        0.0580    -0.2980    -0.5850 O.3   1 <1>  -0.3400 
  2 C        1.2670    -0.9100    -0.5330 C.ar  1 <1>   0.0830 
  3 C       -1.1080    -1.0840    -0.7230 C.3   1 <1>   0.2580 
  4 C        2.2540    -0.2990     0.2240 C.ar  1 <1>  -0.1500 
  5 C        1.5390    -2.1070    -1.1890 C.ar  1 <1>  -0.1500 
  6 C       -2.3630    -0.2840    -0.3050 C.3   1 <1>   0.4720 
  7 C       -1.3670    -1.9620     0.5260 C.3   1 <1>   0.4720 
  8 C        3.5010    -0.8870     0.3540 C.ar  1 <1>  -0.1500 
  9 C        2.7850    -2.6930    -1.0550 C.ar  1 <1>  -0.1500 
 10 N       -2.7740    -1.4340     0.5740 N.4   1 <1>  -0.8440 
 11 C        3.7690    -2.0950    -0.2840 C.ar  1 <1>   0.0830 
 12 O        4.9570    -2.7460    -0.2050 O.3   1 <1>  -0.3630 
 13 C        6.0420    -2.1990     0.5110 C.3   1 <1>   0.0400 
 14 H       -1.1760    -1.5720    -1.6790 H     1 <1>   0.0000 
 15 H        2.0490     0.6360     0.7140 H     1 <1>   0.1500 
 16 H        0.8130    -2.5910    -1.8140 H     1 <1>   0.1500 
 17 H       -3.0700    -0.1230    -1.0980 H     1 <1>   0.0000 
 18 H       -2.1360     0.5860     0.2840 H     1 <1>   0.0000 
 19 H       -0.8100    -1.6480     1.3900 H     1 <1>   0.0000 
 20 H       -1.3490    -3.0200     0.3350 H     1 <1>   0.0000 
 21 H        4.2460    -0.3940     0.9500 H     1 <1>   0.1500 
 22 H        3.0120    -3.6190    -1.5540 H     1 <1>   0.1500 
 23 H       -3.4510    -2.0600     0.1250 H     1 <1>   0.4500 
 24 H       -3.0600    -1.1400     1.5140 H     1 <1>   0.4500 
 25 H        6.8750    -2.8730     0.4200 H     1 <1>   0.0800 
 26 H        5.7650    -2.1000     1.5460 H     1 <1>   0.0800 
 27 H        6.2970    -1.2450     0.0850 H     1 <1>   0.0800 
@<TRIPOS>BOND
  1   1   2  1   
  2   1   3  1   
  3   2   4  ar  
  4   2   5  ar  
  5   3   6  1   
  6   3   7  1   
  7   3  14  1   
  8   4   8  ar  
  9   4  15  1   
 10   5   9  ar  
 11   5  16  1   
 12   6  10  1   
 13   6  17  1   
 14   6  18  1   
 15   7  10  1   
 16   7  19  1   
 17   7  20  1   
 18   8  11  ar  
 19   8  21  1   
 20   9  11  ar  
 21   9  22  1   
 22  10  23  1   
 23  10  24  1   
 24  11  12  1   
 25  12  13  1   
 26  13  25  1   
 27  13  26  1   
 28  13  27  1   
@<TRIPOS>SUBSTRUCTURE
  1 ****   2 GROUP 4 **** **** 0

# MOE 2024.06 (io_trps.svl 2023.06)
