@<TRIPOS>MOLECULE
NONAME
36 37 1 0 0 
SMALL
USER_CHARGES


@<TRIPOS>ATOM
  1 F        0.5050    -0.9810     0.3280 F     1 <1>  -0.1900 
  2 C       -0.4660    -1.8450     0.2310 C.ar  1 <1>   0.1900 
  3 C       -0.8000    -2.6050     1.3340 C.ar  1 <1>  -0.1500 
  4 C       -1.1290    -1.9750    -0.9740 C.ar  1 <1>  -0.1500 
  5 C       -1.8350    -3.5180     1.2210 C.ar  1 <1>  -0.1500 
  6 C       -2.1600    -2.8930    -1.0680 C.ar  1 <1>  -0.1500 
  7 C       -2.5430    -3.6800     0.0250 C.ar  1 <1>   0.0860 
  8 C       -3.6360    -4.6350    -0.0690 C.2   1 <1>   0.5440 
  9 O       -3.7340    -5.5610     0.7140 O.2   1 <1>  -0.5700 
 10 N       -4.6420    -4.5040    -0.9990 N.am  1 <1>  -0.6600 
 11 C       -5.3280    -5.7380    -1.4830 C.3   1 <1>   0.1400 
 12 C       -5.5520    -3.3290    -0.9010 C.3   1 <1>   0.1400 
 13 C       -6.5030    -6.0850    -0.5500 C.3   1 <1>   0.3430 
 14 C       -6.7490    -3.6660     0.0160 C.3   1 <1>   0.3430 
 15 N       -7.4610    -4.9310    -0.3970 N.4   1 <1>  -0.9590 
 16 C       -8.5490    -5.2820     0.5400 C.3   1 <1>   0.4810 
 17 C       -9.6710    -4.2970     0.3060 C.2   1 <1>  -0.2880 
 18 C      -10.8030    -4.5630    -0.3550 C.2   1 <1>  -0.3000 
 19 H       -0.2580    -2.4830     2.2550 H     1 <1>   0.1500 
 20 H       -0.8350    -1.3710    -1.8140 H     1 <1>   0.1500 
 21 H       -2.0990    -4.1210     2.0740 H     1 <1>   0.1500 
 22 H       -2.6720    -3.0070    -2.0080 H     1 <1>   0.1500 
 23 H       -4.6280    -6.5580    -1.4940 H     1 <1>   0.0800 
 24 H       -5.6780    -5.5900    -2.4900 H     1 <1>   0.0800 
 25 H       -5.9010    -3.0590    -1.8830 H     1 <1>   0.0800 
 26 H       -5.0210    -2.4850    -0.4960 H     1 <1>   0.0800 
 27 H       -6.0930    -6.3490     0.4130 H     1 <1>   0.0800 
 28 H       -7.0190    -6.9480    -0.9380 H     1 <1>   0.0800 
 29 H       -7.4380    -2.8370     0.0100 H     1 <1>   0.0800 
 30 H       -6.3770    -3.7770     1.0220 H     1 <1>   0.0800 
 31 H       -7.9160    -4.7600    -1.3020 H     1 <1>   0.4500 
 32 H       -8.2110    -5.2480     1.5640 H     1 <1>   0.0800 
 33 H       -8.9070    -6.2770     0.3270 H     1 <1>   0.0800 
 34 H       -9.4830    -3.3300     0.7400 H     1 <1>   0.1500 
 35 H      -11.5930    -3.8430    -0.5030 H     1 <1>   0.1500 
 36 H      -11.0540    -5.5110    -0.8030 H     1 <1>   0.1500 
@<TRIPOS>BOND
  1   1   2  1   
  2   2   3  ar  
  3   2   4  ar  
  4   3   5  ar  
  5   3  19  1   
  6   4   6  ar  
  7   4  20  1   
  8   5   7  ar  
  9   5  21  1   
 10   6   7  ar  
 11   6  22  1   
 12   7   8  1   
 13   8   9  2   
 14   8  10  am  
 15  10  11  1   
 16  10  12  1   
 17  11  13  1   
 18  11  23  1   
 19  11  24  1   
 20  12  14  1   
 21  12  25  1   
 22  12  26  1   
 23  13  15  1   
 24  13  27  1   
 25  13  28  1   
 26  14  15  1   
 27  14  29  1   
 28  14  30  1   
 29  15  16  1   
 30  15  31  1   
 31  16  17  1   
 32  16  32  1   
 33  16  33  1   
 34  17  18  2   
 35  17  34  1   
 36  18  35  1   
 37  18  36  1   
@<TRIPOS>SUBSTRUCTURE
  1 ****  10 GROUP 4 **** **** 0

# MOE 2024.06 (io_trps.svl 2023.06)
