@<TRIPOS>MOLECULE
NONAME
44 46 1 0 0 
SMALL
USER_CHARGES


@<TRIPOS>ATOM
  1 CL      -1.7010     0.5150     1.0190 Cl    1 <1>  -0.1770 
  2 C       -0.9410     1.9750     0.4360 C.ar  1 <1>   0.1770 
  3 C       -1.5850     2.7360    -0.5250 C.ar  1 <1>  -0.1440 
  4 C        0.2860     2.3500     0.9580 C.ar  1 <1>  -0.1500 
  5 C       -0.9550     3.8960    -0.9380 C.ar  1 <1>   0.1900 
  6 C       -2.9170     2.3170    -1.1070 C.3   1 <1>   0.4860 
  7 C        0.8940     3.5160     0.5190 C.ar  1 <1>  -0.1500 
  8 F       -1.5470     4.6470    -1.8260 F     1 <1>  -0.1900 
  9 C        0.2700     4.3010    -0.4380 C.ar  1 <1>  -0.1500 
 10 N       -3.9870     2.5240    -0.0950 N.4   1 <1>  -0.9590 
 11 C       -5.2860     1.8960    -0.5320 C.3   1 <1>   0.3430 
 12 C       -4.1790     3.9880     0.2300 C.3   1 <1>   0.3430 
 13 C       -6.4110     2.0790     0.5070 C.3   1 <1>   0.2090 
 14 C       -5.2940     4.2280     1.2700 C.3   1 <1>   0.2090 
 15 N       -6.5510     3.5140     0.8950 N.pl3 1 <1>  -0.8380 
 16 C       -7.6700     4.2120     0.4390 C.ar  1 <1>   0.1000 
 17 C       -8.9380     3.8070     0.8350 C.ar  1 <1>  -0.1500 
 18 C       -7.5640     5.3030    -0.4200 C.ar  1 <1>  -0.1500 
 19 C      -10.0750     4.4550     0.3880 C.ar  1 <1>   0.0830 
 20 C       -8.6930     5.9630    -0.8700 C.ar  1 <1>  -0.1500 
 21 O      -11.2650     3.9720     0.8280 O.3   1 <1>  -0.3620 
 22 C       -9.9500     5.5430    -0.4710 C.ar  1 <1>  -0.1500 
 23 C      -12.4800     4.5910     0.4720 C.3   1 <1>   0.0400 
 24 H        0.7630     1.7340     1.7020 H     1 <1>   0.1500 
 25 H       -2.8660     1.2740    -1.3790 H     1 <1>   0.0800 
 26 H       -3.1310     2.8870    -1.9970 H     1 <1>   0.0800 
 27 H        1.8510     3.8110     0.9200 H     1 <1>   0.1500 
 28 H        0.7270     5.2100    -0.7910 H     1 <1>   0.1500 
 29 H       -3.6880     2.0490     0.7680 H     1 <1>   0.4500 
 30 H       -5.1460     0.8420    -0.7090 H     1 <1>   0.0800 
 31 H       -5.6130     2.3460    -1.4550 H     1 <1>   0.0800 
 32 H       -4.4400     4.5230    -0.6680 H     1 <1>   0.0800 
 33 H       -3.2600     4.4070     0.6040 H     1 <1>   0.0800 
 34 H       -6.2010     1.4930     1.3860 H     1 <1>   0.0800 
 35 H       -7.3370     1.7220     0.0900 H     1 <1>   0.0800 
 36 H       -5.4870     5.2840     1.3610 H     1 <1>   0.0800 
 37 H       -4.9700     3.8790     2.2350 H     1 <1>   0.0800 
 38 H       -9.0450     2.9790     1.5090 H     1 <1>   0.1500 
 39 H       -6.6010     5.6420    -0.7460 H     1 <1>   0.1500 
 40 H       -8.5980     6.8060    -1.5320 H     1 <1>   0.1500 
 41 H      -10.8120     6.0700    -0.8360 H     1 <1>   0.1500 
 42 H      -13.2810     4.0530     0.9480 H     1 <1>   0.0800 
 43 H      -12.5950     4.5460    -0.5970 H     1 <1>   0.0800 
 44 H      -12.4680     5.6090     0.8180 H     1 <1>   0.0800 
@<TRIPOS>BOND
  1   1   2  1   
  2   2   3  ar  
  3   2   4  ar  
  4   3   5  ar  
  5   3   6  1   
  6   4   7  ar  
  7   4  24  1   
  8   5   8  1   
  9   5   9  ar  
 10   6  10  1   
 11   6  25  1   
 12   6  26  1   
 13   7   9  ar  
 14   7  27  1   
 15   9  28  1   
 16  10  11  1   
 17  10  12  1   
 18  10  29  1   
 19  11  13  1   
 20  11  30  1   
 21  11  31  1   
 22  12  14  1   
 23  12  32  1   
 24  12  33  1   
 25  13  15  1   
 26  13  34  1   
 27  13  35  1   
 28  14  15  1   
 29  14  36  1   
 30  14  37  1   
 31  15  16  1   
 32  16  17  ar  
 33  16  18  ar  
 34  17  19  ar  
 35  17  38  1   
 36  18  20  ar  
 37  18  39  1   
 38  19  21  1   
 39  19  22  ar  
 40  20  22  ar  
 41  20  40  1   
 42  21  23  1   
 43  22  41  1   
 44  23  42  1   
 45  23  43  1   
 46  23  44  1   
@<TRIPOS>SUBSTRUCTURE
  1 ****  12 GROUP 4 **** **** 0

# MOE 2024.06 (io_trps.svl 2023.06)
