@<TRIPOS>MOLECULE
NONAME
50 50 1 0 0 
SMALL
USER_CHARGES


@<TRIPOS>ATOM
  1 O       -0.3390    -1.9580    -1.0580 O.2   1 <1>  -0.5700 
  2 C       -0.9200    -1.6150    -0.0470 C.2   1 <1>   0.5440 
  3 N       -0.6880    -2.3070     1.1100 N.am  1 <1>  -0.7300 
  4 C       -1.8180    -0.4720    -0.0550 C.ar  1 <1>   0.0860 
  5 C        0.1730    -3.5260     1.3050 C.3   1 <1>   0.2810 
  6 C       -2.8620    -0.3460     0.8650 C.ar  1 <1>  -0.1500 
  7 C       -1.6660     0.5530    -0.9910 C.ar  1 <1>  -0.1500 
  8 C        1.6820    -3.2210     1.1810 C.2   1 <1>   0.5690 
  9 C       -0.2870    -4.7110     0.4120 C.3   1 <1>  -0.0800 
 10 C       -3.7000     0.7550     0.8600 C.ar  1 <1>  -0.1500 
 11 C       -2.5010     1.6550    -1.0020 C.ar  1 <1>  -0.1500 
 12 O        2.4130    -3.5550     2.0810 O.2   1 <1>  -0.5700 
 13 N        2.1500    -2.5760     0.0780 N.am  1 <1>  -0.7300 
 14 C       -1.8000    -4.9800     0.5170 C.3   1 <1>  -0.2400 
 15 C        0.4580    -6.0080     0.7730 C.3   1 <1>  -0.2400 
 16 C       -3.5190     1.7590    -0.0730 C.ar  1 <1>  -0.1500 
 17 C        3.4910    -1.9230    -0.1220 C.3   1 <1>   0.2810 
 18 C        4.7020    -2.5080     0.6640 C.2   1 <1>   0.6590 
 19 C        3.3390    -0.3830     0.0400 C.3   1 <1>  -0.0800 
 20 O        5.3020    -1.8620     1.4850 O.2   1 <1>  -0.5700 
 21 O        5.1730    -3.7120     0.3320 O.3   1 <1>  -0.4300 
 22 C        2.7140     0.0410     1.3830 C.3   1 <1>  -0.2400 
 23 C        2.5310     0.2400    -1.1120 C.3   1 <1>  -0.2400 
 24 C        4.4550    -4.7180    -0.3490 C.3   1 <1>   0.0400 
 25 H       -1.0310    -1.9050     1.9820 H     1 <1>   0.3700 
 26 H        0.0250    -3.8390     2.3240 H     1 <1>   0.0800 
 27 H       -3.0320    -1.1210     1.5900 H     1 <1>   0.1500 
 28 H       -0.8800     0.4800    -1.7220 H     1 <1>   0.1500 
 29 H       -0.0540    -4.4780    -0.6130 H     1 <1>   0.0800 
 30 H       -4.4980     0.8310     1.5800 H     1 <1>   0.1500 
 31 H       -2.3590     2.4320    -1.7340 H     1 <1>   0.1500 
 32 H        1.4230    -2.2600    -0.5840 H     1 <1>   0.3700 
 33 H       -2.0830    -5.1750     1.5360 H     1 <1>   0.0800 
 34 H       -2.0710    -5.8300    -0.0840 H     1 <1>   0.0800 
 35 H       -2.3640    -4.1370     0.1560 H     1 <1>   0.0800 
 36 H        0.2710    -6.2830     1.7970 H     1 <1>   0.0800 
 37 H        1.5180    -5.8940     0.6410 H     1 <1>   0.0800 
 38 H        0.1330    -6.8150     0.1390 H     1 <1>   0.0800 
 39 H       -4.1710     2.6170    -0.0790 H     1 <1>   0.1500 
 40 H        3.7500    -2.0830    -1.1520 H     1 <1>   0.0800 
 41 H        4.3280     0.0430    -0.0070 H     1 <1>   0.0800 
 42 H        1.6860    -0.2670     1.4470 H     1 <1>   0.0800 
 43 H        2.7550     1.1100     1.4910 H     1 <1>   0.0800 
 44 H        3.2520    -0.3990     2.2050 H     1 <1>   0.0800 
 45 H        1.5140    -0.1050    -1.0990 H     1 <1>   0.0800 
 46 H        2.9680    -0.0130    -2.0610 H     1 <1>   0.0800 
 47 H        2.5240     1.3120    -1.0200 H     1 <1>   0.0800 
 48 H        5.1160    -5.5520    -0.5030 H     1 <1>   0.0800 
 49 H        4.1140    -4.3420    -1.2970 H     1 <1>   0.0800 
 50 H        3.6270    -5.0240     0.2630 H     1 <1>   0.0800 
@<TRIPOS>BOND
  1   1   2  2   
  2   2   3  am  
  3   2   4  1   
  4   3   5  1   
  5   3  25  1   
  6   4   6  ar  
  7   4   7  ar  
  8   5   8  1   
  9   5   9  1   
 10   5  26  1   
 11   6  10  ar  
 12   6  27  1   
 13   7  11  ar  
 14   7  28  1   
 15   8  12  2   
 16   8  13  am  
 17   9  14  1   
 18   9  15  1   
 19   9  29  1   
 20  10  16  ar  
 21  10  30  1   
 22  11  16  ar  
 23  11  31  1   
 24  13  17  1   
 25  13  32  1   
 26  14  33  1   
 27  14  34  1   
 28  14  35  1   
 29  15  36  1   
 30  15  37  1   
 31  15  38  1   
 32  16  39  1   
 33  17  18  1   
 34  17  19  1   
 35  17  40  1   
 36  18  20  2   
 37  18  21  1   
 38  19  22  1   
 39  19  23  1   
 40  19  41  1   
 41  21  24  1   
 42  22  42  1   
 43  22  43  1   
 44  22  44  1   
 45  23  45  1   
 46  23  46  1   
 47  23  47  1   
 48  24  48  1   
 49  24  49  1   
 50  24  50  1   
@<TRIPOS>SUBSTRUCTURE
  1 ****  13 GROUP 4 **** **** 0

# MOE 2024.06 (io_trps.svl 2023.06)
