@<TRIPOS>MOLECULE
NONAME
31 32 1 0 0 
SMALL
USER_CHARGES


@<TRIPOS>ATOM
  1 S       -0.2150    -0.1790    -0.9350 S.o2  1 <1>   1.4470 
  2 O       -0.2010     1.2170    -0.5570 O.2   1 <1>  -0.6500 
  3 O       -0.8000    -0.5670    -2.2010 O.2   1 <1>  -0.6500 
  4 N       -1.0610    -1.0030     0.2780 N.am  1 <1>  -0.8490 
  5 C        1.4610    -0.8560    -0.7840 C.ar  1 <1>  -0.0090 
  6 C       -1.3300    -2.4020    -0.0080 C.3   1 <1>   0.1960 
  7 C       -2.3550    -0.4110     0.5630 C.3   1 <1>   0.1960 
  8 C        2.0710    -1.5200    -1.8420 C.ar  1 <1>  -0.1500 
  9 C        2.1760    -0.7320     0.4040 C.ar  1 <1>  -0.1500 
 10 C       -2.3950    -2.7920     1.0080 C.3   1 <1>  -0.1600 
 11 C       -3.1020    -1.4800     1.3530 C.3   1 <1>  -0.1600 
 12 C        3.3440    -2.0330    -1.6920 C.ar  1 <1>   0.1900 
 13 C        3.4550    -1.2480     0.5510 C.ar  1 <1>  -0.1500 
 14 F        3.8750    -2.6540    -2.7150 F     1 <1>  -0.1900 
 15 C        4.0640    -1.9150    -0.5080 C.ar  1 <1>   0.0820 
 16 O        5.3130    -2.4490    -0.4390 O.3   1 <1>  -0.3630 
 17 C        6.1030    -2.3390     0.7250 C.3   1 <1>   0.0400 
 18 H       -0.4390    -3.0000     0.0940 H     1 <1>   0.0800 
 19 H       -1.7290    -2.5140    -1.0030 H     1 <1>   0.0800 
 20 H       -2.8760    -0.2060    -0.3590 H     1 <1>   0.0800 
 21 H       -2.2460     0.5040     1.1220 H     1 <1>   0.0800 
 22 H        1.5590    -1.6390    -2.7820 H     1 <1>   0.1500 
 23 H        1.7140    -0.2180     1.2320 H     1 <1>   0.1500 
 24 H       -1.9240    -3.2010     1.8850 H     1 <1>   0.0800 
 25 H       -3.0700    -3.5220     0.5980 H     1 <1>   0.0800 
 26 H       -4.1410    -1.4960     1.0780 H     1 <1>   0.0800 
 27 H       -3.0200    -1.2770     2.4070 H     1 <1>   0.0800 
 28 H        3.9560    -1.1200     1.4920 H     1 <1>   0.1500 
 29 H        7.0430    -2.8240     0.5360 H     1 <1>   0.0800 
 30 H        5.5970    -2.8280     1.5380 H     1 <1>   0.0800 
 31 H        6.2660    -1.2980     0.9390 H     1 <1>   0.0800 
@<TRIPOS>BOND
  1   1   2  2   
  2   1   3  2   
  3   1   4  am  
  4   1   5  1   
  5   4   6  1   
  6   4   7  1   
  7   5   8  ar  
  8   5   9  ar  
  9   6  10  1   
 10   6  18  1   
 11   6  19  1   
 12   7  11  1   
 13   7  20  1   
 14   7  21  1   
 15   8  12  ar  
 16   8  22  1   
 17   9  13  ar  
 18   9  23  1   
 19  10  11  1   
 20  10  24  1   
 21  10  25  1   
 22  11  26  1   
 23  11  27  1   
 24  12  14  1   
 25  12  15  ar  
 26  13  15  ar  
 27  13  28  1   
 28  15  16  1   
 29  16  17  1   
 30  17  29  1   
 31  17  30  1   
 32  17  31  1   
@<TRIPOS>SUBSTRUCTURE
  1 ****   5 GROUP 4 **** **** 0

# MOE 2024.06 (io_trps.svl 2023.06)
