@<TRIPOS>MOLECULE
NONAME
38 39 1 0 0 
SMALL
USER_CHARGES


@<TRIPOS>ATOM
  1 S        0.1200    -0.3920    -1.2130 S.o2  1 <1>   1.4470 
  2 O        0.7490    -1.0960    -2.3080 O.2   1 <1>  -0.6500 
  3 O        0.1230     1.0520    -1.1750 O.2   1 <1>  -0.6500 
  4 N        0.8800    -1.0100     0.1530 N.am  1 <1>  -0.9140 
  5 C       -1.5820    -0.9830    -1.0060 C.ar  1 <1>  -0.0090 
  6 C        2.0830    -0.4060     0.6800 C.3   1 <1>   0.3560 
  7 C       -2.3070    -0.7010     0.1240 C.ar  1 <1>  -0.1500 
  8 C       -2.2030    -1.7470    -2.0110 C.ar  1 <1>  -0.1500 
  9 C        2.6730    -1.4910     1.6110 C.3   1 <1>  -0.1600 
 10 C        3.0800    -0.0640    -0.4340 C.3   1 <1>  -0.2400 
 11 C        1.7100     0.8360     1.4950 C.3   1 <1>  -0.2400 
 12 C       -3.6300    -1.1490     0.3100 C.ar  1 <1>   0.0000 
 13 C       -3.4860    -2.1990    -1.8660 C.ar  1 <1>  -0.1500 
 14 C        3.9640    -1.1390     2.3760 C.3   1 <1>  -0.2400 
 15 C       -4.2330    -1.9160    -0.7070 C.ar  1 <1>   0.0000 
 16 C       -4.3730    -0.8600     1.4720 C.ar  1 <1>  -0.1500 
 17 C       -5.5560    -2.3670    -0.5230 C.ar  1 <1>  -0.1500 
 18 C       -5.6550    -1.3100     1.6250 C.ar  1 <1>  -0.1500 
 19 C       -6.2530    -2.0730     0.6160 C.ar  1 <1>  -0.1500 
 20 H        1.1670    -1.9320    -0.1630 H     1 <1>   0.4200 
 21 H       -1.8570    -0.1150     0.9070 H     1 <1>   0.1500 
 22 H       -1.6470    -1.9730    -2.9060 H     1 <1>   0.1500 
 23 H        2.8760    -2.3730     1.0290 H     1 <1>   0.0800 
 24 H        1.9260    -1.7540     2.3420 H     1 <1>   0.0800 
 25 H        3.3150    -0.9340    -1.0200 H     1 <1>   0.0800 
 26 H        3.9930     0.3170    -0.0160 H     1 <1>   0.0800 
 27 H        2.7000     0.7050    -1.0810 H     1 <1>   0.0800 
 28 H        1.0090     0.5800     2.2680 H     1 <1>   0.0800 
 29 H        1.2820     1.6030     0.8790 H     1 <1>   0.0800 
 30 H        2.5820     1.2610     1.9540 H     1 <1>   0.0800 
 31 H       -3.9480    -2.7830    -2.6420 H     1 <1>   0.1500 
 32 H        4.7720    -0.9200     1.7020 H     1 <1>   0.0800 
 33 H        4.2600    -1.9770     2.9820 H     1 <1>   0.0800 
 34 H        3.8140    -0.2990     3.0300 H     1 <1>   0.0800 
 35 H       -3.9090    -0.2730     2.2450 H     1 <1>   0.1500 
 36 H       -6.0110    -2.9520    -1.3020 H     1 <1>   0.1500 
 37 H       -6.2170    -1.0870     2.5150 H     1 <1>   0.1500 
 38 H       -7.2630    -2.4200     0.7520 H     1 <1>   0.1500 
@<TRIPOS>BOND
  1   1   2  2   
  2   1   3  2   
  3   1   4  am  
  4   1   5  1   
  5   4   6  1   
  6   4  20  1   
  7   5   7  ar  
  8   5   8  ar  
  9   6   9  1   
 10   6  10  1   
 11   6  11  1   
 12   7  12  ar  
 13   7  21  1   
 14   8  13  ar  
 15   8  22  1   
 16   9  14  1   
 17   9  23  1   
 18   9  24  1   
 19  10  25  1   
 20  10  26  1   
 21  10  27  1   
 22  11  28  1   
 23  11  29  1   
 24  11  30  1   
 25  12  15  ar  
 26  12  16  ar  
 27  13  15  ar  
 28  13  31  1   
 29  14  32  1   
 30  14  33  1   
 31  14  34  1   
 32  15  17  ar  
 33  16  18  ar  
 34  16  35  1   
 35  17  19  ar  
 36  17  36  1   
 37  18  19  ar  
 38  18  37  1   
 39  19  38  1   
@<TRIPOS>SUBSTRUCTURE
  1 ****   5 GROUP 4 **** **** 0

# MOE 2024.06 (io_trps.svl 2023.06)
