@<TRIPOS>MOLECULE
NONAME
29 29 1 0 0 
SMALL
USER_CHARGES


@<TRIPOS>ATOM
  1 CL       2.8700     2.2060    -0.7270 Cl    1 <1>  -0.1770 
  2 C        1.5790     3.2590    -0.2210 C.ar  1 <1>   0.1770 
  3 C        0.8170     3.9080    -1.1740 C.ar  1 <1>  -0.1500 
  4 C        1.3290     3.4360     1.1260 C.ar  1 <1>  -0.1500 
  5 C       -0.2020     4.7510    -0.7700 C.ar  1 <1>  -0.1500 
  6 C        0.3070     4.2810     1.5180 C.ar  1 <1>  -0.1500 
  7 C       -0.4770     4.9680     0.5860 C.ar  1 <1>   0.0860 
  8 C       -1.5130     5.8660     1.0500 C.2   1 <1>   0.4230 
  9 O       -2.1920     5.6330     2.0160 O.2   1 <1>  -0.5700 
 10 C       -1.7520     7.2010     0.3550 C.3   1 <1>  -0.0990 
 11 C       -0.8470     8.3060     0.9310 C.3   1 <1>  -0.0990 
 12 C        0.6250     7.9650     0.8230 C.2   1 <1>   0.6590 
 13 O        1.3220     7.8550     1.7970 O.2   1 <1>  -0.5700 
 14 O        1.0810     7.7600    -0.4040 O.3   1 <1>  -0.4300 
 15 C        2.4140     7.3610    -0.6290 C.3   1 <1>   0.1200 
 16 C        2.6110     7.1910    -2.1310 C.3   1 <1>  -0.2400 
 17 H        1.0250     3.7480    -2.2170 H     1 <1>   0.1500 
 18 H        1.9290     2.9190     1.8540 H     1 <1>   0.1500 
 19 H       -0.7910     5.2400    -1.5240 H     1 <1>   0.1500 
 20 H        0.1070     4.4240     2.5670 H     1 <1>   0.1500 
 21 H       -2.7810     7.4810     0.5000 H     1 <1>   0.0800 
 22 H       -1.5910     7.1180    -0.7020 H     1 <1>   0.0800 
 23 H       -1.0870     8.4560     1.9690 H     1 <1>   0.0800 
 24 H       -1.0240     9.2300     0.4120 H     1 <1>   0.0800 
 25 H        2.5830     6.4320    -0.1090 H     1 <1>   0.0800 
 26 H        3.0690     8.1190    -0.2340 H     1 <1>   0.0800 
 27 H        1.9410     6.4420    -2.5130 H     1 <1>   0.0800 
 28 H        3.6210     6.8790    -2.3300 H     1 <1>   0.0800 
 29 H        2.4360     8.1240    -2.6360 H     1 <1>   0.0800 
@<TRIPOS>BOND
  1   1   2  1   
  2   2   3  ar  
  3   2   4  ar  
  4   3   5  ar  
  5   3  17  1   
  6   4   6  ar  
  7   4  18  1   
  8   5   7  ar  
  9   5  19  1   
 10   6   7  ar  
 11   6  20  1   
 12   7   8  1   
 13   8   9  2   
 14   8  10  1   
 15  10  11  1   
 16  10  21  1   
 17  10  22  1   
 18  11  12  1   
 19  11  23  1   
 20  11  24  1   
 21  12  13  2   
 22  12  14  1   
 23  14  15  1   
 24  15  16  1   
 25  15  25  1   
 26  15  26  1   
 27  16  27  1   
 28  16  28  1   
 29  16  29  1   
@<TRIPOS>SUBSTRUCTURE
  1 ****   7 GROUP 4 **** **** 0

# MOE 2024.06 (io_trps.svl 2023.06)
