@<TRIPOS>MOLECULE
NONAME
39 41 1 0 0 
SMALL
USER_CHARGES


@<TRIPOS>ATOM
  1 CL      -1.1260     2.1180    -2.2270 Cl    1 <1>  -0.1770 
  2 C       -2.2830     1.9010    -0.9400 C.ar  1 <1>   0.1770 
  3 C       -3.4800     1.2700    -1.2050 C.ar  1 <1>  -0.1500 
  4 C       -1.9750     2.3690     0.3270 C.ar  1 <1>  -0.1500 
  5 C       -4.4180     1.0890    -0.1850 C.ar  1 <1>   0.0860 
  6 C       -2.8890     2.1970     1.3480 C.ar  1 <1>  -0.1500 
  7 C       -5.6910     0.4470    -0.3850 C.2   1 <1>   0.4690 
  8 C       -4.1000     1.5630     1.0970 C.ar  1 <1>   0.0830 
  9 O       -6.0630     0.0470    -1.4720 O.2   1 <1>  -0.5700 
 10 C       -6.5370     0.3120     0.7540 C.2   1 <1>  -0.1240 
 11 O       -4.9720     1.4080     2.1180 O.3   1 <1>  -0.1590 
 12 C       -6.1450     0.7910     1.9550 C.2   1 <1>  -0.0730 
 13 C       -7.8530    -0.4100     0.5400 C.3   1 <1>   0.4810 
 14 N       -8.9530     0.5610     0.2660 N.4   1 <1>  -0.9590 
 15 C      -10.2920    -0.0880     0.4360 C.3   1 <1>   0.3430 
 16 C       -8.8350     1.1840    -1.0860 C.3   1 <1>   0.3430 
 17 C      -11.4520     0.8060    -0.0550 C.3   1 <1>  -0.0800 
 18 C       -9.8120     2.3610    -1.2010 C.3   1 <1>  -0.1600 
 19 C      -11.0260     2.2690    -0.2580 C.3   1 <1>  -0.1600 
 20 C      -12.6400     0.7280     0.9130 C.3   1 <1>  -0.2400 
 21 H       -3.6880     0.9170    -2.2000 H     1 <1>   0.1500 
 22 H       -1.0320     2.8570     0.5000 H     1 <1>   0.1500 
 23 H       -2.6690     2.5520     2.3410 H     1 <1>   0.1500 
 24 H       -6.7160     0.7190     2.8670 H     1 <1>   0.1500 
 25 H       -8.0840    -0.9680     1.4320 H     1 <1>   0.0800 
 26 H       -7.7600    -1.1100    -0.2760 H     1 <1>   0.0800 
 27 H       -8.8900     1.3270     0.9460 H     1 <1>   0.4500 
 28 H      -10.4440    -0.3140     1.4790 H     1 <1>   0.0800 
 29 H      -10.3230    -1.0180    -0.1090 H     1 <1>   0.0800 
 30 H       -9.0610     0.4480    -1.8410 H     1 <1>   0.0800 
 31 H       -7.8330     1.5420    -1.2600 H     1 <1>   0.0800 
 32 H      -11.7820     0.4190    -1.0050 H     1 <1>   0.0800 
 33 H      -10.1530     2.4050    -2.2210 H     1 <1>   0.0800 
 34 H       -9.2860     3.2810    -1.0130 H     1 <1>   0.0800 
 35 H      -10.7720     2.7030     0.6950 H     1 <1>   0.0800 
 36 H      -11.8420     2.8440    -0.6650 H     1 <1>   0.0800 
 37 H      -12.3740     1.1080     1.8840 H     1 <1>   0.0800 
 38 H      -12.9760    -0.2880     1.0210 H     1 <1>   0.0800 
 39 H      -13.4640     1.3110     0.5380 H     1 <1>   0.0800 
@<TRIPOS>BOND
  1   1   2  1   
  2   2   3  ar  
  3   2   4  ar  
  4   3   5  ar  
  5   3  21  1   
  6   4   6  ar  
  7   4  22  1   
  8   5   7  1   
  9   5   8  ar  
 10   6   8  ar  
 11   6  23  1   
 12   7   9  2   
 13   7  10  1   
 14   8  11  1   
 15  10  12  2   
 16  10  13  1   
 17  11  12  1   
 18  12  24  1   
 19  13  14  1   
 20  13  25  1   
 21  13  26  1   
 22  14  15  1   
 23  14  16  1   
 24  14  27  1   
 25  15  17  1   
 26  15  28  1   
 27  15  29  1   
 28  16  18  1   
 29  16  30  1   
 30  16  31  1   
 31  17  19  1   
 32  17  20  1   
 33  17  32  1   
 34  18  19  1   
 35  18  33  1   
 36  18  34  1   
 37  19  35  1   
 38  19  36  1   
 39  20  37  1   
 40  20  38  1   
 41  20  39  1   
@<TRIPOS>SUBSTRUCTURE
  1 ****  10 GROUP 4 **** **** 0

# MOE 2024.06 (io_trps.svl 2023.06)
