@<TRIPOS>MOLECULE
NONAME
44 46 1 0 0 
SMALL
USER_CHARGES


@<TRIPOS>ATOM
  1 F       -1.6900     0.9220    -0.9440 F     1 <1>  -0.1900 
  2 C       -0.9770     1.9320    -0.5190 C.ar  1 <1>   0.1900 
  3 C       -1.4520     2.6870     0.5410 C.ar  1 <1>  -0.1440 
  4 C        0.2160     2.2110    -1.1570 C.ar  1 <1>  -0.1500 
  5 C       -0.6890     3.7630     0.9720 C.ar  1 <1>  -0.1500 
  6 C       -2.7690     2.3380     1.2050 C.3   1 <1>   0.4870 
  7 C        0.9640     3.2890    -0.7180 C.ar  1 <1>  -0.1500 
  8 C        0.5110     4.0600     0.3420 C.ar  1 <1>  -0.1500 
  9 N       -3.8720     2.5240     0.2260 N.4   1 <1>  -0.9590 
 10 C       -3.9840     3.9560    -0.2430 C.3   1 <1>   0.3430 
 11 C       -5.1890     2.0180     0.7580 C.3   1 <1>   0.3430 
 12 C       -5.1200     4.1600    -1.2690 C.3   1 <1>   0.2090 
 13 C       -6.3370     2.1750    -0.2600 C.3   1 <1>   0.2090 
 14 N       -6.4030     3.5730    -0.7800 N.pl3 1 <1>  -0.8380 
 15 C       -7.4600     4.3850    -0.3630 C.ar  1 <1>   0.1000 
 16 C       -8.7650     4.0170    -0.6630 C.ar  1 <1>  -0.1500 
 17 C       -7.2540     5.5560     0.3620 C.ar  1 <1>  -0.1500 
 18 C       -9.8420     4.7790    -0.2490 C.ar  1 <1>   0.0830 
 19 C       -8.3230     6.3290     0.7770 C.ar  1 <1>  -0.1500 
 20 O      -11.0760     4.3250    -0.5870 O.3   1 <1>  -0.3630 
 21 C       -9.6180     5.9460     0.4770 C.ar  1 <1>  -0.1500 
 22 C      -12.2380     5.0520    -0.2570 C.3   1 <1>   0.0400 
 23 H        0.5530     1.6000    -1.9770 H     1 <1>   0.1500 
 24 H       -1.0070     4.3790     1.7970 H     1 <1>   0.1500 
 25 H       -2.9260     2.9660     2.0670 H     1 <1>   0.0800 
 26 H       -2.7350     1.3110     1.5320 H     1 <1>   0.0800 
 27 H        1.8990     3.5280    -1.1980 H     1 <1>   0.1500 
 28 H        1.1040     4.8950     0.6790 H     1 <1>   0.1500 
 29 H       -3.6240     1.9560    -0.5970 H     1 <1>   0.4500 
 30 H       -3.0540     4.2720    -0.6870 H     1 <1>   0.0800 
 31 H       -4.1790     4.5950     0.6020 H     1 <1>   0.0800 
 32 H       -5.4560     2.5680     1.6450 H     1 <1>   0.0800 
 33 H       -5.1030     0.9780     1.0260 H     1 <1>   0.0800 
 34 H       -4.8540     3.6910    -2.2000 H     1 <1>   0.0800 
 35 H       -5.2490     5.2110    -1.4660 H     1 <1>   0.0800 
 36 H       -7.2680     1.9190     0.2180 H     1 <1>   0.0800 
 37 H       -6.1960     1.4980    -1.0840 H     1 <1>   0.0800 
 38 H       -8.9490     3.1290    -1.2350 H     1 <1>   0.1500 
 39 H       -6.2600     5.8690     0.6110 H     1 <1>   0.1500 
 40 H       -8.1510     7.2330     1.3370 H     1 <1>   0.1500 
 41 H      -10.4320     6.5610     0.8120 H     1 <1>   0.1500 
 42 H      -13.0870     4.5160    -0.6380 H     1 <1>   0.0800 
 43 H      -12.1830     6.0240    -0.7150 H     1 <1>   0.0800 
 44 H      -12.3070     5.1320     0.8140 H     1 <1>   0.0800 
@<TRIPOS>BOND
  1   1   2  1   
  2   2   3  ar  
  3   2   4  ar  
  4   3   5  ar  
  5   3   6  1   
  6   4   7  ar  
  7   4  23  1   
  8   5   8  ar  
  9   5  24  1   
 10   6   9  1   
 11   6  25  1   
 12   6  26  1   
 13   7   8  ar  
 14   7  27  1   
 15   8  28  1   
 16   9  10  1   
 17   9  11  1   
 18   9  29  1   
 19  10  12  1   
 20  10  30  1   
 21  10  31  1   
 22  11  13  1   
 23  11  32  1   
 24  11  33  1   
 25  12  14  1   
 26  12  34  1   
 27  12  35  1   
 28  13  14  1   
 29  13  36  1   
 30  13  37  1   
 31  14  15  1   
 32  15  16  ar  
 33  15  17  ar  
 34  16  18  ar  
 35  16  38  1   
 36  17  19  ar  
 37  17  39  1   
 38  18  20  1   
 39  18  21  ar  
 40  19  21  ar  
 41  19  40  1   
 42  20  22  1   
 43  21  41  1   
 44  22  42  1   
 45  22  43  1   
 46  22  44  1   
@<TRIPOS>SUBSTRUCTURE
  1 ****  10 GROUP 4 **** **** 0

# MOE 2024.06 (io_trps.svl 2023.06)
