@<TRIPOS>MOLECULE
NONAME
37 38 1 0 0 
SMALL
USER_CHARGES


@<TRIPOS>ATOM
  1 CL       0.0720     0.3140    -0.1040 Cl    1 <1>  -0.1770 
  2 C        1.5710     1.1940     0.0970 C.ar  1 <1>   0.1770 
  3 C        1.5780     2.5820     0.0470 C.ar  1 <1>   0.0830 
  4 C        2.7320     0.4730     0.2900 C.ar  1 <1>  -0.1500 
  5 O        0.4170     3.2470    -0.1720 O.3   1 <1>  -0.3630 
  6 C        2.7970     3.2420     0.2320 C.ar  1 <1>   0.0830 
  7 C        3.9590     1.1180     0.4380 C.ar  1 <1>   0.0860 
  8 C        0.2970     3.9430    -1.3930 C.3   1 <1>   0.0400 
  9 O        2.9040     4.5920     0.2410 O.3   1 <1>  -0.3630 
 10 C        3.9590     2.5140     0.4140 C.ar  1 <1>  -0.1500 
 11 C        5.1790     0.3560     0.6210 C.2   1 <1>   0.5440 
 12 C        2.2910     5.2640     1.3180 C.3   1 <1>   0.1200 
 13 O        5.1990    -0.5530     1.4290 O.2   1 <1>  -0.5700 
 14 N        6.3180     0.6230    -0.1030 N.am  1 <1>  -0.6600 
 15 C        2.6510     6.7430     1.2160 C.3   1 <1>  -0.2400 
 16 C        7.5680    -0.1470     0.0890 C.3   1 <1>   0.1400 
 17 C        6.3710     1.4070    -1.3580 C.3   1 <1>   0.1400 
 18 C        8.5060     0.3420    -1.0090 C.3   1 <1>  -0.1600 
 19 C        7.5800     0.8580    -2.1060 C.3   1 <1>  -0.1600 
 20 H        2.6930    -0.6020     0.3270 H     1 <1>   0.1500 
 21 H       -0.6990     4.3450    -1.4520 H     1 <1>   0.0800 
 22 H        0.4650     3.2550    -2.2020 H     1 <1>   0.0800 
 23 H        1.0160     4.7410    -1.4220 H     1 <1>   0.0800 
 24 H        4.8850     3.0420     0.5540 H     1 <1>   0.1500 
 25 H        2.6590     4.8420     2.2370 H     1 <1>   0.0800 
 26 H        1.2260     5.1270     1.2570 H     1 <1>   0.0800 
 27 H        3.7170     6.8690     1.2710 H     1 <1>   0.0800 
 28 H        2.1990     7.2830     2.0280 H     1 <1>   0.0800 
 29 H        2.2870     7.1490     0.2890 H     1 <1>   0.0800 
 30 H        7.3560    -1.1970    -0.0320 H     1 <1>   0.0800 
 31 H        7.9730     0.0260     1.0710 H     1 <1>   0.0800 
 32 H        6.5250     2.4450    -1.1190 H     1 <1>   0.0800 
 33 H        5.4670     1.2920    -1.9320 H     1 <1>   0.0800 
 34 H        9.1580    -0.4410    -1.3540 H     1 <1>   0.0800 
 35 H        9.1030     1.1500    -0.6220 H     1 <1>   0.0800 
 36 H        8.0470     1.6080    -2.7190 H     1 <1>   0.0800 
 37 H        7.2630     0.0410    -2.7300 H     1 <1>   0.0800 
@<TRIPOS>BOND
  1   1   2  1   
  2   2   3  ar  
  3   2   4  ar  
  4   3   5  1   
  5   3   6  ar  
  6   4   7  ar  
  7   4  20  1   
  8   5   8  1   
  9   6   9  1   
 10   6  10  ar  
 11   7  10  ar  
 12   7  11  1   
 13   8  21  1   
 14   8  22  1   
 15   8  23  1   
 16   9  12  1   
 17  10  24  1   
 18  11  13  2   
 19  11  14  am  
 20  12  15  1   
 21  12  25  1   
 22  12  26  1   
 23  14  16  1   
 24  14  17  1   
 25  15  27  1   
 26  15  28  1   
 27  15  29  1   
 28  16  18  1   
 29  16  30  1   
 30  16  31  1   
 31  17  19  1   
 32  17  32  1   
 33  17  33  1   
 34  18  19  1   
 35  18  34  1   
 36  18  35  1   
 37  19  36  1   
 38  19  37  1   
@<TRIPOS>SUBSTRUCTURE
  1 ****  10 GROUP 4 **** **** 0

# MOE 2024.06 (io_trps.svl 2023.06)
