@<TRIPOS>MOLECULE
NONAME
50 52 1 0 0 
SMALL
USER_CHARGES


@<TRIPOS>ATOM
  1 S        1.0130    -0.0540    -0.0290 S.o2  1 <1>   1.3330 
  2 O        1.9360     0.6190     0.8530 O.2   1 <1>  -0.6500 
  3 O        1.4880    -1.0910    -0.9110 O.2   1 <1>  -0.6500 
  4 N        0.3000     1.1620    -1.0270 N.am  1 <1>  -0.6930 
  5 C       -0.3760    -0.6830     0.8890 C.3   1 <1>  -0.1350 
  6 C       -0.5230     2.1330    -0.4630 C.ar  1 <1>   0.1990 
  7 C        1.0470     1.4720    -2.2930 C.3   1 <1>   0.3370 
  8 C       -1.8860     2.1200    -0.7330 C.ar  1 <1>  -0.1500 
  9 C       -0.0280     3.1110     0.3900 C.ar  1 <1>  -0.1500 
 10 C        2.1960     2.5050    -2.1330 C.2   1 <1>   0.5690 
 11 C        0.0320     1.8560    -3.3830 C.3   1 <1>  -0.2400 
 12 C       -2.7320     3.0580    -0.1690 C.ar  1 <1>  -0.1500 
 13 C       -0.8700     4.0500     0.9560 C.ar  1 <1>  -0.1500 
 14 O        2.3820     3.3320    -2.9970 O.2   1 <1>  -0.5700 
 15 N        3.0140     2.4510    -1.0460 N.am  1 <1>  -0.7300 
 16 C       -2.2280     4.0280     0.6820 C.ar  1 <1>  -0.1430 
 17 C        4.1940     3.2960    -0.8030 C.3   1 <1>   0.2200 
 18 C       -3.1510     5.0620     1.3010 C.3   1 <1>  -0.0970 
 19 C        5.5140     2.5010    -0.8770 C.3   1 <1>  -0.0800 
 20 C        4.1960     3.8330     0.6370 C.3   1 <1>  -0.1600 
 21 C        6.4220     3.3750    -0.0250 C.3   1 <1>  -0.1600 
 22 C        5.4510     1.2310    -0.0030 C.3   1 <1>  -0.1600 
 23 C        5.5300     3.3170     1.2040 C.3   1 <1>  -0.0800 
 24 C        5.4090     1.7990     1.4260 C.3   1 <1>  -0.1600 
 25 H       -1.1220    -1.0620     0.2180 H     1 <1>   0.0800 
 26 H       -0.8100     0.0940     1.4870 H     1 <1>   0.0800 
 27 H       -0.0600    -1.4770     1.5360 H     1 <1>   0.0800 
 28 H        1.5190     0.5700    -2.6360 H     1 <1>   0.0800 
 29 H       -2.2820     1.3700    -1.3920 H     1 <1>   0.1500 
 30 H        1.0210     3.1400     0.6150 H     1 <1>   0.1500 
 31 H       -0.4180     2.8070    -3.1610 H     1 <1>   0.0800 
 32 H       -0.7280     1.1020    -3.4710 H     1 <1>   0.0800 
 33 H        0.5360     1.9420    -4.3290 H     1 <1>   0.0800 
 34 H       -3.7840     3.0320    -0.3950 H     1 <1>   0.1500 
 35 H       -0.4630     4.8010     1.6110 H     1 <1>   0.1500 
 36 H        2.8330     1.7700    -0.2950 H     1 <1>   0.3700 
 37 H        4.2180     4.1170    -1.5020 H     1 <1>   0.0800 
 38 H       -4.1400     4.6590     1.4240 H     1 <1>   0.0800 
 39 H       -3.2060     5.9270     0.6650 H     1 <1>   0.0800 
 40 H       -2.7850     5.3630     2.2660 H     1 <1>   0.0800 
 41 H        5.8610     2.3360    -1.8820 H     1 <1>   0.0800 
 42 H        3.3580     3.4880     1.2160 H     1 <1>   0.0800 
 43 H        4.1970     4.9080     0.6190 H     1 <1>   0.0800 
 44 H        6.5310     4.3730    -0.4170 H     1 <1>   0.0800 
 45 H        7.3920     2.9360     0.1410 H     1 <1>   0.0800 
 46 H        6.3460     0.6490    -0.1390 H     1 <1>   0.0800 
 47 H        4.6030     0.6050    -0.2190 H     1 <1>   0.0800 
 48 H        5.8850     3.8610     2.0630 H     1 <1>   0.0800 
 49 H        6.2440     1.4330     1.9970 H     1 <1>   0.0800 
 50 H        4.4940     1.5390     1.9330 H     1 <1>   0.0800 
@<TRIPOS>BOND
  1   1   2  2   
  2   1   3  2   
  3   1   4  am  
  4   1   5  1   
  5   4   6  1   
  6   4   7  1   
  7   5  25  1   
  8   5  26  1   
  9   5  27  1   
 10   6   8  ar  
 11   6   9  ar  
 12   7  10  1   
 13   7  11  1   
 14   7  28  1   
 15   8  12  ar  
 16   8  29  1   
 17   9  13  ar  
 18   9  30  1   
 19  10  14  2   
 20  10  15  am  
 21  11  31  1   
 22  11  32  1   
 23  11  33  1   
 24  12  16  ar  
 25  12  34  1   
 26  13  16  ar  
 27  13  35  1   
 28  15  17  1   
 29  15  36  1   
 30  16  18  1   
 31  17  19  1   
 32  17  20  1   
 33  17  37  1   
 34  18  38  1   
 35  18  39  1   
 36  18  40  1   
 37  19  21  1   
 38  19  22  1   
 39  19  41  1   
 40  20  23  1   
 41  20  42  1   
 42  20  43  1   
 43  21  23  1   
 44  21  44  1   
 45  21  45  1   
 46  22  24  1   
 47  22  46  1   
 48  22  47  1   
 49  23  24  1   
 50  23  48  1   
 51  24  49  1   
 52  24  50  1   
@<TRIPOS>SUBSTRUCTURE
  1 ****  15 GROUP 4 **** **** 0

# MOE 2024.06 (io_trps.svl 2023.06)
