@<TRIPOS>MOLECULE
NONAME
50 52 1 0 0 
SMALL
USER_CHARGES


@<TRIPOS>ATOM
  1 CL      -0.2410     4.9860    -2.1460 Cl    1 <1>  -0.1770 
  2 C        0.7010     4.0120    -1.0430 C.ar  1 <1>   0.1770 
  3 C        0.1160     2.9670    -0.3230 C.ar  1 <1>   0.0860 
  4 C        2.0450     4.3200    -0.9320 C.ar  1 <1>  -0.1500 
  5 C       -1.2900     2.6280    -0.4010 C.2   1 <1>   0.5440 
  6 C        0.9620     2.2280     0.5060 C.ar  1 <1>  -0.1500 
  7 C        2.8540     3.5760    -0.0930 C.ar  1 <1>  -0.1500 
  8 O       -1.6160     1.4630    -0.4780 O.2   1 <1>  -0.5700 
  9 N       -2.2420     3.6260    -0.3280 N.am  1 <1>  -0.4940 
 10 C        2.3090     2.5250     0.6240 C.ar  1 <1>  -0.1500 
 11 C       -3.6290     3.6470    -0.3940 C.2   1 <1>   0.1040 
 12 S       -4.5120     2.1570    -0.7090 S.3   1 <1>  -0.0800 
 13 C       -4.4930     4.7080    -0.2520 C.2   1 <1>  -0.0860 
 14 C       -6.0460     2.9900    -0.6550 C.2   1 <1>  -0.1400 
 15 C       -5.8730     4.3000    -0.4290 C.2   1 <1>  -0.1810 
 16 C       -4.0820     6.0570     0.0540 C.2   1 <1>   0.8060 
 17 C       -7.3280     2.2070    -0.8470 C.3   1 <1>   0.3200 
 18 C       -7.1020     5.2030    -0.3680 C.3   1 <1>   0.0210 
 19 O       -4.8500     6.9850     0.2300 O.2   1 <1>  -0.5700 
 20 O       -2.7680     6.3090     0.1650 O.3   1 <1>  -0.4300 
 21 N       -8.4900     3.1130    -0.6050 N.am  1 <1>  -0.6600 
 22 C       -8.3220     4.5380    -1.0330 C.3   1 <1>   0.1400 
 23 C       -2.2840     7.5920     0.4990 C.3   1 <1>   0.1200 
 24 C       -9.6530     2.6560    -0.0530 C.2   1 <1>   0.7800 
 25 C       -0.7640     7.5160     0.5960 C.3   1 <1>  -0.2400 
 26 O      -10.6060     3.3790     0.1640 O.2   1 <1>  -0.5700 
 27 O       -9.7300     1.3570     0.2420 O.3   1 <1>  -0.4300 
 28 C      -10.8960     0.8130     0.8160 C.3   1 <1>   0.1200 
 29 C      -10.6610    -0.6780     1.0380 C.3   1 <1>  -0.2400 
 30 H        2.4550     5.1340    -1.5030 H     1 <1>   0.1500 
 31 H        0.5500     1.4030     1.0640 H     1 <1>   0.1500 
 32 H        3.9030     3.8070    -0.0010 H     1 <1>   0.1500 
 33 H       -1.8350     4.5600    -0.2300 H     1 <1>   0.3700 
 34 H        2.9350     1.9360     1.2740 H     1 <1>   0.1500 
 35 H       -7.3420     1.3830    -0.1550 H     1 <1>   0.0800 
 36 H       -7.3740     1.8220    -1.8500 H     1 <1>   0.0800 
 37 H       -6.9140     6.1260    -0.8840 H     1 <1>   0.0800 
 38 H       -7.3300     5.4330     0.6570 H     1 <1>   0.0800 
 39 H       -8.1890     4.5540    -2.1010 H     1 <1>   0.0800 
 40 H       -9.2060     5.1090    -0.8050 H     1 <1>   0.0800 
 41 H       -2.7140     7.8860     1.4420 H     1 <1>   0.0800 
 42 H       -2.5890     8.2840    -0.2690 H     1 <1>   0.0800 
 43 H       -0.4710     6.7920     1.3350 H     1 <1>   0.0800 
 44 H       -0.3740     8.4750     0.8860 H     1 <1>   0.0800 
 45 H       -0.3410     7.2560    -0.3570 H     1 <1>   0.0800 
 46 H      -11.7180     0.9800     0.1400 H     1 <1>   0.0800 
 47 H      -11.0850     1.3180     1.7480 H     1 <1>   0.0800 
 48 H      -10.4660    -1.1660     0.1000 H     1 <1>   0.0800 
 49 H      -11.5360    -1.1200     1.4790 H     1 <1>   0.0800 
 50 H       -9.8290    -0.8260     1.7020 H     1 <1>   0.0800 
@<TRIPOS>BOND
  1   1   2  1   
  2   2   3  ar  
  3   2   4  ar  
  4   3   5  1   
  5   3   6  ar  
  6   4   7  ar  
  7   4  30  1   
  8   5   8  2   
  9   5   9  am  
 10   6  10  ar  
 11   6  31  1   
 12   7  10  ar  
 13   7  32  1   
 14   9  11  1   
 15   9  33  1   
 16  10  34  1   
 17  11  12  1   
 18  11  13  2   
 19  12  14  1   
 20  13  15  1   
 21  13  16  1   
 22  14  15  2   
 23  14  17  1   
 24  15  18  1   
 25  16  19  2   
 26  16  20  1   
 27  17  21  1   
 28  17  35  1   
 29  17  36  1   
 30  18  22  1   
 31  18  37  1   
 32  18  38  1   
 33  20  23  1   
 34  21  22  1   
 35  21  24  am  
 36  22  39  1   
 37  22  40  1   
 38  23  25  1   
 39  23  41  1   
 40  23  42  1   
 41  24  26  2   
 42  24  27  1   
 43  25  43  1   
 44  25  44  1   
 45  25  45  1   
 46  27  28  1   
 47  28  29  1   
 48  28  46  1   
 49  28  47  1   
 50  29  48  1   
 51  29  49  1   
 52  29  50  1   
@<TRIPOS>SUBSTRUCTURE
  1 ****  11 GROUP 4 **** **** 0

# MOE 2024.06 (io_trps.svl 2023.06)
