@<TRIPOS>MOLECULE
NONAME
35 36 1 0 0 
SMALL
USER_CHARGES


@<TRIPOS>ATOM
  1 O       -0.7640    -0.7650    -1.3340 O.2   1 <1>  -0.5700 
  2 C       -0.9210    -1.8440    -0.8120 C.2   1 <1>   0.4950 
  3 C       -2.0910    -2.1920    -0.0620 C.2   1 <1>   0.0290 
  4 C        0.2150    -2.8320    -1.0140 C.3   1 <1>  -0.0990 
  5 C       -2.1800    -3.5190     0.4840 C.2   1 <1>   0.4950 
  6 C       -3.0850    -1.2490     0.1070 C.2   1 <1>  -0.0500 
  7 C        0.3240    -3.8620     0.1180 C.3   1 <1>   0.0000 
  8 O       -3.1310    -3.9470     1.1020 O.2   1 <1>  -0.5700 
  9 C       -1.0510    -4.5200     0.2960 C.3   1 <1>  -0.0990 
 10 N       -4.2380    -1.4140     0.8000 N.pl3 1 <1>  -0.8690 
 11 C        1.3620    -4.9310    -0.2570 C.3   1 <1>  -0.2400 
 12 C        0.7760    -3.1860     1.4260 C.3   1 <1>  -0.2400 
 13 C       -5.3410    -0.4340     0.9580 C.3   1 <1>   0.3890 
 14 C       -6.6700    -1.0580     0.5640 C.2   1 <1>  -0.0400 
 15 O       -7.7710    -0.3440     0.7120 O.3   1 <1>  -0.2800 
 16 C       -6.9670    -2.2780     0.0610 C.2   1 <1>  -0.1500 
 17 C       -8.7850    -1.0840     0.3110 C.2   1 <1>  -0.0100 
 18 C       -8.3570    -2.2950    -0.1050 C.2   1 <1>  -0.1500 
 19 H        0.0520    -3.3290    -1.9530 H     1 <1>   0.0800 
 20 H        1.1390    -2.2860    -1.0960 H     1 <1>   0.0800 
 21 H       -2.9480    -0.2800    -0.3510 H     1 <1>   0.1500 
 22 H       -1.0260    -5.1780     1.1470 H     1 <1>   0.0800 
 23 H       -1.2880    -5.1190    -0.5640 H     1 <1>   0.0800 
 24 H       -4.4240    -2.3260     1.2540 H     1 <1>   0.4000 
 25 H        2.3310    -4.4840    -0.3980 H     1 <1>   0.0800 
 26 H        1.0870    -5.4320    -1.1690 H     1 <1>   0.0800 
 27 H        1.4430    -5.6700     0.5210 H     1 <1>   0.0800 
 28 H        0.0870    -2.4250     1.7470 H     1 <1>   0.0800 
 29 H        1.7410    -2.7260     1.2980 H     1 <1>   0.0800 
 30 H        0.8570    -3.9130     2.2160 H     1 <1>   0.0800 
 31 H       -5.3890    -0.1180     1.9850 H     1 <1>   0.0800 
 32 H       -5.1550     0.4290     0.3420 H     1 <1>   0.0800 
 33 H       -6.2960    -3.0860    -0.1750 H     1 <1>   0.1500 
 34 H       -9.7780    -0.6720     0.3560 H     1 <1>   0.1500 
 35 H       -8.9310    -3.1200    -0.4880 H     1 <1>   0.1500 
@<TRIPOS>BOND
  1   1   2  2   
  2   2   3  1   
  3   2   4  1   
  4   3   5  1   
  5   3   6  2   
  6   4   7  1   
  7   4  19  1   
  8   4  20  1   
  9   5   8  2   
 10   5   9  1   
 11   6  10  1   
 12   6  21  1   
 13   7   9  1   
 14   7  11  1   
 15   7  12  1   
 16   9  22  1   
 17   9  23  1   
 18  10  13  1   
 19  10  24  1   
 20  11  25  1   
 21  11  26  1   
 22  11  27  1   
 23  12  28  1   
 24  12  29  1   
 25  12  30  1   
 26  13  14  1   
 27  13  31  1   
 28  13  32  1   
 29  14  15  1   
 30  14  16  2   
 31  15  17  1   
 32  16  18  1   
 33  16  33  1   
 34  17  18  2   
 35  17  34  1   
 36  18  35  1   
@<TRIPOS>SUBSTRUCTURE
  1 ****   6 GROUP 4 **** **** 0

# MOE 2024.06 (io_trps.svl 2023.06)
