@<TRIPOS>MOLECULE
NONAME
37 38 1 0 0 
SMALL
USER_CHARGES


@<TRIPOS>ATOM
  1 I       -0.5520     0.0160    -0.2800 I     1 <1>  -0.0810 
  2 C        1.4040    -0.8110    -0.2400 C.ar  1 <1>   0.0810 
  3 C        1.8680    -1.4790    -1.3570 C.ar  1 <1>  -0.1500 
  4 C        2.1660    -0.6630     0.9030 C.ar  1 <1>  -0.1500 
  5 C        3.1450    -2.0110    -1.3210 C.ar  1 <1>  -0.1500 
  6 C        3.4400    -1.2030     0.9170 C.ar  1 <1>  -0.1500 
  7 C        3.9600    -1.8780    -0.1930 C.ar  1 <1>   0.0860 
  8 C        5.3000    -2.4340    -0.1810 C.2   1 <1>   0.5440 
  9 O        5.4700    -3.5810    -0.5500 O.2   1 <1>  -0.5700 
 10 N        6.3950    -1.6980     0.2220 N.am  1 <1>  -0.6600 
 11 C        7.7250    -2.3400     0.4650 C.3   1 <1>   0.1400 
 12 C        6.4540    -0.2030     0.1660 C.3   1 <1>   0.1400 
 13 C        8.7550    -1.8790    -0.5770 C.3   1 <1>   0.1400 
 14 C        7.4940     0.2690    -0.8640 C.3   1 <1>   0.1400 
 15 N        8.8140    -0.3860    -0.6300 N.am  1 <1>  -0.6600 
 16 C        9.9520     0.3380    -0.4010 C.2   1 <1>   0.7800 
 17 O        9.9630     1.5540    -0.3900 O.2   1 <1>  -0.5700 
 18 O       11.0830    -0.3340    -0.1790 O.3   1 <1>  -0.4300 
 19 C       12.2930     0.3470     0.0580 C.3   1 <1>   0.1200 
 20 C       13.3880    -0.6940     0.2760 C.3   1 <1>  -0.2400 
 21 H        1.2490    -1.5860    -2.2300 H     1 <1>   0.1500 
 22 H        1.7730    -0.1450     1.7600 H     1 <1>   0.1500 
 23 H        3.5280    -2.5440    -2.1740 H     1 <1>   0.1500 
 24 H        4.0490    -1.1100     1.8000 H     1 <1>   0.1500 
 25 H        7.6420    -3.4130     0.4310 H     1 <1>   0.0800 
 26 H        8.0720    -2.0720     1.4470 H     1 <1>   0.0800 
 27 H        6.7230     0.1770     1.1370 H     1 <1>   0.0800 
 28 H        5.4980     0.2100    -0.0990 H     1 <1>   0.0800 
 29 H        8.4700    -2.2560    -1.5440 H     1 <1>   0.0800 
 30 H        9.7160    -2.2940    -0.3320 H     1 <1>   0.0800 
 31 H        7.5880     1.3390    -0.8080 H     1 <1>   0.0800 
 32 H        7.1510     0.0200    -1.8530 H     1 <1>   0.0800 
 33 H       12.1710     0.9670     0.9300 H     1 <1>   0.0800 
 34 H       12.5100     0.9640    -0.7970 H     1 <1>   0.0800 
 35 H       13.1510    -1.3080     1.1260 H     1 <1>   0.0800 
 36 H       14.3250    -0.2010     0.4580 H     1 <1>   0.0800 
 37 H       13.4890    -1.3110    -0.5990 H     1 <1>   0.0800 
@<TRIPOS>BOND
  1   1   2  1   
  2   2   3  ar  
  3   2   4  ar  
  4   3   5  ar  
  5   3  21  1   
  6   4   6  ar  
  7   4  22  1   
  8   5   7  ar  
  9   5  23  1   
 10   6   7  ar  
 11   6  24  1   
 12   7   8  1   
 13   8   9  2   
 14   8  10  am  
 15  10  11  1   
 16  10  12  1   
 17  11  13  1   
 18  11  25  1   
 19  11  26  1   
 20  12  14  1   
 21  12  27  1   
 22  12  28  1   
 23  13  15  1   
 24  13  29  1   
 25  13  30  1   
 26  14  15  1   
 27  14  31  1   
 28  14  32  1   
 29  15  16  am  
 30  16  17  2   
 31  16  18  1   
 32  18  19  1   
 33  19  20  1   
 34  19  33  1   
 35  19  34  1   
 36  20  35  1   
 37  20  36  1   
 38  20  37  1   
@<TRIPOS>SUBSTRUCTURE
  1 ****  12 GROUP 4 **** **** 0

# MOE 2024.06 (io_trps.svl 2023.06)
