@<TRIPOS>MOLECULE
NONAME
39 40 1 0 0 
SMALL
USER_CHARGES


@<TRIPOS>ATOM
  1 BR       2.6080     0.3740    -0.8560 Br    1 <1>  -0.1110 
  2 C        1.3450     1.8360    -0.8100 C.ar  1 <1>   0.1110 
  3 C        1.6160     2.9710    -0.0480 C.ar  1 <1>   0.0820 
  4 C        0.1840     1.7030    -1.5450 C.ar  1 <1>  -0.1500 
  5 O        2.7620     3.0770     0.6670 O.3   1 <1>  -0.3630 
  6 C        0.6800     4.0020    -0.0060 C.ar  1 <1>  -0.1440 
  7 C       -0.7250     2.7420    -1.5010 C.ar  1 <1>   0.1770 
  8 C        3.9470     3.3320    -0.0490 C.3   1 <1>   0.1200 
  9 C       -0.4910     3.8790    -0.7440 C.ar  1 <1>  -0.1500 
 10 C        0.9160     5.2490     0.8340 C.3   1 <1>  -0.0960 
 11 CL      -2.2040     2.6180    -2.4190 Cl    1 <1>  -0.1770 
 12 C        5.0670     2.5500     0.6420 C.3   1 <1>   0.3430 
 13 N        6.3430     2.6040    -0.1340 N.4   1 <1>  -0.9060 
 14 C        7.4250     1.8220     0.5460 C.3   1 <1>   0.3430 
 15 C        8.7590     1.8710    -0.2180 C.3   1 <1>   0.2000 
 16 O        9.7120     1.2360     0.5540 O.3   1 <1>  -0.5600 
 17 C        9.3340     3.2650    -0.4440 C.3   1 <1>  -0.1600 
 18 C       10.9940     1.6460     0.1910 C.3   1 <1>   0.1200 
 19 C       10.8310     3.0020    -0.4920 C.3   1 <1>  -0.1600 
 20 H       -0.0140     0.8240    -2.1300 H     1 <1>   0.1500 
 21 H        4.1250     4.3920    -0.0190 H     1 <1>   0.0800 
 22 H        3.8190     3.0060    -1.0670 H     1 <1>   0.0800 
 23 H       -1.2330     4.6580    -0.7380 H     1 <1>   0.1500 
 24 H        1.7300     5.8200     0.4260 H     1 <1>   0.0800 
 25 H        1.1580     4.9710     1.8450 H     1 <1>   0.0800 
 26 H        0.0390     5.8710     0.8570 H     1 <1>   0.0800 
 27 H        4.7540     1.5230     0.7420 H     1 <1>   0.0800 
 28 H        5.2200     2.9580     1.6280 H     1 <1>   0.0800 
 29 H        6.6530     3.5790    -0.2400 H     1 <1>   0.4500 
 30 H        6.1920     2.2200    -1.0760 H     1 <1>   0.4500 
 31 H        7.1260     0.7910     0.6420 H     1 <1>   0.0800 
 32 H        7.5920     2.2200     1.5330 H     1 <1>   0.0800 
 33 H        8.6920     1.3270    -1.1470 H     1 <1>   0.0800 
 34 H        9.1090     3.9020     0.3940 H     1 <1>   0.0800 
 35 H        8.9760     3.7170    -1.3510 H     1 <1>   0.0800 
 36 H       11.4100     0.9130    -0.4800 H     1 <1>   0.0800 
 37 H       11.5970     1.7100     1.0810 H     1 <1>   0.0800 
 38 H       11.3910     3.7660     0.0190 H     1 <1>   0.0800 
 39 H       11.1820     2.9350    -1.5070 H     1 <1>   0.0800 
@<TRIPOS>BOND
  1   1   2  1   
  2   2   3  ar  
  3   2   4  ar  
  4   3   5  1   
  5   3   6  ar  
  6   4   7  ar  
  7   4  20  1   
  8   5   8  1   
  9   6   9  ar  
 10   6  10  1   
 11   7   9  ar  
 12   7  11  1   
 13   8  12  1   
 14   8  21  1   
 15   8  22  1   
 16   9  23  1   
 17  10  24  1   
 18  10  25  1   
 19  10  26  1   
 20  12  13  1   
 21  12  27  1   
 22  12  28  1   
 23  13  14  1   
 24  13  29  1   
 25  13  30  1   
 26  14  15  1   
 27  14  31  1   
 28  14  32  1   
 29  15  16  1   
 30  15  17  1   
 31  15  33  1   
 32  16  18  1   
 33  17  19  1   
 34  17  34  1   
 35  17  35  1   
 36  18  19  1   
 37  18  36  1   
 38  18  37  1   
 39  19  38  1   
 40  19  39  1   
@<TRIPOS>SUBSTRUCTURE
  1 ****   8 GROUP 4 **** **** 0

# MOE 2024.06 (io_trps.svl 2023.06)
