@<TRIPOS>MOLECULE
Structure1818
29 30 1 0 0 
SMALL
USER_CHARGES


@<TRIPOS>ATOM
  1 O       -0.1800     0.2630    -0.2210 O.2   1 <1>  -0.5700 
  2 C       -0.0890     1.3990     0.2090 C.2   1 <1>   0.7800 
  3 O        1.0990     1.9990     0.2320 O.3   1 <1>  -0.4300 
  4 N       -1.1520     2.1040     0.6750 N.am  1 <1>  -0.5100 
  5 C        2.2370     1.3320    -0.2640 C.3   1 <1>   0.2640 
  6 C       -2.5740     1.9440     0.2280 C.3   1 <1>   0.2250 
  7 C       -1.3160     3.5940     0.6280 C.3   1 <1>   0.2250 
  8 C        3.4460     2.2490    -0.1460 C.ar  1 <1>  -0.1440 
  9 C       -2.4860     3.3690    -0.3450 C.3   1 <1>  -0.0710 
 10 C        3.3980     3.5420    -0.6460 C.ar  1 <1>  -0.1500 
 11 C        4.6120     1.7980     0.4550 C.ar  1 <1>  -0.1500 
 12 C       -3.6840     4.2160    -0.0150 C.2   1 <1>   0.8710 
 13 C        4.5010     4.3730    -0.5490 C.ar  1 <1>  -0.1500 
 14 C        5.7160     2.6280     0.5530 C.ar  1 <1>  -0.1500 
 15 O       -3.5090     5.4020     0.2830 O.co2 1 <1>  -0.9000 
 16 O       -4.8090     3.7060    -0.0630 O.co2 1 <1>  -0.9000 
 17 C        5.6610     3.9160     0.0510 C.ar  1 <1>  -0.1500 
 18 H        2.0600     1.0780    -1.2950 H     1 <1>   0.0800 
 19 H        2.3750     0.4320     0.3090 H     1 <1>   0.0800 
 20 H       -3.2320     1.8400     1.0740 H     1 <1>   0.0000 
 21 H       -2.6910     1.1810    -0.5210 H     1 <1>   0.0000 
 22 H       -0.4740     4.0940     0.1840 H     1 <1>   0.0000 
 23 H       -1.6020     3.9790     1.5920 H     1 <1>   0.0000 
 24 H       -2.1930     3.3980    -1.3810 H     1 <1>   0.0000 
 25 H        2.4960     3.9050    -1.1090 H     1 <1>   0.1500 
 26 H        4.6690     0.7990     0.8500 H     1 <1>   0.1500 
 27 H        4.4540     5.3750    -0.9380 H     1 <1>   0.1500 
 28 H        6.6170     2.2730     1.0210 H     1 <1>   0.1500 
 29 H        6.5180     4.5620     0.1270 H     1 <1>   0.1500 
@<TRIPOS>BOND
  1   1   2  2   
  2   2   3  1   
  3   2   4  am  
  4   3   5  1   
  5   4   6  1   
  6   4   7  1   
  7   5   8  1   
  8   5  18  1   
  9   5  19  1   
 10   6   9  1   
 11   6  20  1   
 12   6  21  1   
 13   7   9  1   
 14   7  22  1   
 15   7  23  1   
 16   8  10  ar  
 17   8  11  ar  
 18   9  12  1   
 19   9  24  1   
 20  10  13  ar  
 21  10  25  1   
 22  11  14  ar  
 23  11  26  1   
 24  12  15  ar  
 25  12  16  ar  
 26  13  17  ar  
 27  13  27  1   
 28  14  17  ar  
 29  14  28  1   
 30  17  29  1   
@<TRIPOS>SUBSTRUCTURE
  1 ****   3 GROUP 4 **** **** 0

# MOE 2024.06 (io_trps.svl 2023.06)
