@<TRIPOS>MOLECULE
NONAME
40 40 1 0 0 
SMALL
USER_CHARGES


@<TRIPOS>ATOM
  1 O        0.6390    -1.6010    -1.4880 O.2   1 <1>  -0.5700 
  2 C        0.3210    -1.9720    -0.3760 C.2   1 <1>   0.5440 
  3 N        1.2290    -1.9390     0.6510 N.am  1 <1>  -0.7300 
  4 C       -1.0330    -2.4300    -0.1180 C.ar  1 <1>   0.0860 
  5 C        2.6520    -1.4880     0.6700 C.3   1 <1>   0.2200 
  6 C       -2.1170    -1.8830    -0.8040 C.ar  1 <1>  -0.1500 
  7 C       -1.3060    -3.4260     0.8220 C.ar  1 <1>  -0.1500 
  8 C        2.7350     0.0450     0.9190 C.3   1 <1>  -0.0800 
  9 C        3.4830    -2.0340    -0.5270 C.3   1 <1>  -0.0800 
 10 C       -3.4170    -2.2910    -0.5610 C.ar  1 <1>  -0.1440 
 11 C       -2.6000    -3.8420     1.0730 C.ar  1 <1>  -0.1500 
 12 C        2.0050     0.4560     2.2090 C.3   1 <1>  -0.2400 
 13 C        2.2250     0.9080    -0.2480 C.3   1 <1>  -0.2400 
 14 C        3.3890    -3.5680    -0.6340 C.3   1 <1>  -0.2400 
 15 C        4.9720    -1.6550    -0.4290 C.3   1 <1>  -0.2400 
 16 C       -3.6560    -3.2740     0.3840 C.ar  1 <1>  -0.1500 
 17 C       -4.5760    -1.6740    -1.3240 C.3   1 <1>  -0.0970 
 18 H        0.8540    -2.0820     1.5860 H     1 <1>   0.3700 
 19 H        3.0880    -1.9450     1.5420 H     1 <1>   0.0800 
 20 H       -1.9210    -1.1230    -1.5410 H     1 <1>   0.1500 
 21 H       -0.4940    -3.8870     1.3560 H     1 <1>   0.1500 
 22 H        3.7710     0.2930     1.0680 H     1 <1>   0.0800 
 23 H        3.1080    -1.6110    -1.4420 H     1 <1>   0.0800 
 24 H       -2.7890    -4.6110     1.8020 H     1 <1>   0.1500 
 25 H        0.9430     0.3160     2.1100 H     1 <1>   0.0800 
 26 H        2.1870     1.4950     2.4220 H     1 <1>   0.0800 
 27 H        2.3570    -0.1250     3.0430 H     1 <1>   0.0800 
 28 H        1.1720     0.7560    -0.4010 H     1 <1>   0.0800 
 29 H        2.7380     0.6610    -1.1600 H     1 <1>   0.0800 
 30 H        2.3900     1.9500    -0.0420 H     1 <1>   0.0800 
 31 H        3.7360    -4.0340     0.2700 H     1 <1>   0.0800 
 32 H        3.9820    -3.9230    -1.4570 H     1 <1>   0.0800 
 33 H        2.3730    -3.8730    -0.8120 H     1 <1>   0.0800 
 34 H        5.3890    -1.9850     0.5050 H     1 <1>   0.0800 
 35 H        5.1020    -0.5910    -0.5150 H     1 <1>   0.0800 
 36 H        5.5250    -2.1110    -1.2310 H     1 <1>   0.0800 
 37 H       -4.6620    -3.6020     0.5820 H     1 <1>   0.1500 
 38 H       -4.2760    -0.7570    -1.7980 H     1 <1>   0.0800 
 39 H       -5.3890    -1.4600    -0.6540 H     1 <1>   0.0800 
 40 H       -4.9180    -2.3580    -2.0800 H     1 <1>   0.0800 
@<TRIPOS>BOND
  1   1   2  2   
  2   2   3  am  
  3   2   4  1   
  4   3   5  1   
  5   3  18  1   
  6   4   6  ar  
  7   4   7  ar  
  8   5   8  1   
  9   5   9  1   
 10   5  19  1   
 11   6  10  ar  
 12   6  20  1   
 13   7  11  ar  
 14   7  21  1   
 15   8  12  1   
 16   8  13  1   
 17   8  22  1   
 18   9  14  1   
 19   9  15  1   
 20   9  23  1   
 21  10  16  ar  
 22  10  17  1   
 23  11  16  ar  
 24  11  24  1   
 25  12  25  1   
 26  12  26  1   
 27  12  27  1   
 28  13  28  1   
 29  13  29  1   
 30  13  30  1   
 31  14  31  1   
 32  14  32  1   
 33  14  33  1   
 34  15  34  1   
 35  15  35  1   
 36  15  36  1   
 37  16  37  1   
 38  17  38  1   
 39  17  39  1   
 40  17  40  1   
@<TRIPOS>SUBSTRUCTURE
  1 ****   2 GROUP 4 **** **** 0

# MOE 2024.06 (io_trps.svl 2023.06)
