@<TRIPOS>MOLECULE
NONAME
47 50 1 0 0 
SMALL
USER_CHARGES


@<TRIPOS>ATOM
  1 S       -0.2880     0.1410    -1.3570 S.o2  1 <1>   1.4470 
  2 O       -1.1470     1.1260    -1.9770 O.2   1 <1>  -0.6500 
  3 O        0.2570    -0.9290    -2.1650 O.2   1 <1>  -0.6500 
  4 N        1.0440     0.9730    -0.7130 N.am  1 <1>  -0.8490 
  5 C       -1.1100    -0.5340     0.1140 C.ar  1 <1>  -0.0090 
  6 C        1.6210     1.8920    -1.6970 C.3   1 <1>   0.1960 
  7 C        2.0500     0.0550    -0.1690 C.3   1 <1>   0.1960 
  8 C       -1.3950     0.2760     1.2070 C.ar  1 <1>  -0.1500 
  9 C       -1.4780    -1.8730     0.1840 C.ar  1 <1>  -0.1500 
 10 C        2.7290     2.7330    -1.0560 C.3   1 <1>  -0.1600 
 11 C        3.1610     0.8410     0.5300 C.3   1 <1>  -0.1600 
 12 C       -2.0180    -0.2310     2.3350 C.ar  1 <1>  -0.1500 
 13 C       -2.1010    -2.3890     1.3070 C.ar  1 <1>  -0.1500 
 14 C        3.8190     1.8470    -0.4300 C.3   1 <1>  -0.0190 
 15 C       -2.3710    -1.5660     2.3850 C.ar  1 <1>  -0.1500 
 16 C        4.8910     2.6810     0.2720 C.2   1 <1>   0.5690 
 17 O        4.5710     3.3720     1.2080 O.2   1 <1>  -0.5700 
 18 N        6.1740     2.5910    -0.1970 N.am  1 <1>  -0.5470 
 19 C        7.3570     3.2270     0.2190 C.ar  1 <1>   0.1170 
 20 C        8.5730     2.6310    -0.1110 C.ar  1 <1>  -0.1500 
 21 C        7.3630     4.4330     0.9300 C.ar  1 <1>  -0.1500 
 22 C        9.7420     3.2490     0.2790 C.ar  1 <1>   0.0820 
 23 C        8.5500     5.0420     1.3170 C.ar  1 <1>  -0.1500 
 24 O       11.0010     2.8490     0.0670 O.3   1 <1>  -0.3620 
 25 C        9.7340     4.4220     0.9740 C.ar  1 <1>   0.0820 
 26 C       11.8470     3.8270     0.6690 C.3   1 <1>   0.4000 
 27 O       10.9880     4.8150     1.2330 O.3   1 <1>  -0.3620 
 28 H        0.8570     2.5580    -2.0640 H     1 <1>   0.0800 
 29 H        2.0090     1.3340    -2.5340 H     1 <1>   0.0800 
 30 H        2.4690    -0.5450    -0.9620 H     1 <1>   0.0800 
 31 H        1.5910    -0.6070     0.5460 H     1 <1>   0.0800 
 32 H       -1.1230     1.3180     1.1720 H     1 <1>   0.1500 
 33 H       -1.2730    -2.5220    -0.6520 H     1 <1>   0.1500 
 34 H        2.2900     3.3600    -0.2990 H     1 <1>   0.0800 
 35 H        3.1640     3.3760    -1.8000 H     1 <1>   0.0800 
 36 H        3.9020     0.1570     0.9050 H     1 <1>   0.0800 
 37 H        2.7400     1.3620     1.3740 H     1 <1>   0.0800 
 38 H       -2.2280     0.4150     3.1700 H     1 <1>   0.1500 
 39 H       -2.3770    -3.4290     1.3410 H     1 <1>   0.1500 
 40 H        4.2850     1.2900    -1.2230 H     1 <1>   0.0800 
 41 H       -2.8560    -1.9640     3.2600 H     1 <1>   0.1500 
 42 H        6.3110     1.9210    -0.9500 H     1 <1>   0.3700 
 43 H        8.6180     1.7070    -0.6550 H     1 <1>   0.1500 
 44 H        6.4350     4.9110     1.1870 H     1 <1>   0.1500 
 45 H        8.5580     5.9670     1.8650 H     1 <1>   0.1500 
 46 H       12.4710     4.2770    -0.0820 H     1 <1>   0.0800 
 47 H       12.4300     3.3690     1.4490 H     1 <1>   0.0800 
@<TRIPOS>BOND
  1   1   2  2   
  2   1   3  2   
  3   1   4  am  
  4   1   5  1   
  5   4   6  1   
  6   4   7  1   
  7   5   8  ar  
  8   5   9  ar  
  9   6  10  1   
 10   6  28  1   
 11   6  29  1   
 12   7  11  1   
 13   7  30  1   
 14   7  31  1   
 15   8  12  ar  
 16   8  32  1   
 17   9  13  ar  
 18   9  33  1   
 19  10  14  1   
 20  10  34  1   
 21  10  35  1   
 22  11  14  1   
 23  11  36  1   
 24  11  37  1   
 25  12  15  ar  
 26  12  38  1   
 27  13  15  ar  
 28  13  39  1   
 29  14  16  1   
 30  14  40  1   
 31  15  41  1   
 32  16  17  2   
 33  16  18  am  
 34  18  19  1   
 35  18  42  1   
 36  19  20  ar  
 37  19  21  ar  
 38  20  22  ar  
 39  20  43  1   
 40  21  23  ar  
 41  21  44  1   
 42  22  24  1   
 43  22  25  ar  
 44  23  25  ar  
 45  23  45  1   
 46  24  26  1   
 47  25  27  1   
 48  26  27  1   
 49  26  46  1   
 50  26  47  1   
@<TRIPOS>SUBSTRUCTURE
  1 ****  14 GROUP 4 **** **** 0

# MOE 2024.06 (io_trps.svl 2023.06)
