@<TRIPOS>MOLECULE
NONAME
32 32 1 0 0 
SMALL
USER_CHARGES


@<TRIPOS>ATOM
  1 S       -0.2290    -4.9870     1.0760 S.3   1 <1>  -0.3710 
  2 C       -1.9710    -5.0520     0.6720 C.2   1 <1>   0.6510 
  3 C        0.5120    -3.6930    -0.0580 C.3   1 <1>  -0.0360 
  4 N       -2.7400    -5.8580     1.2990 N.2   1 <1>  -0.6210 
  5 N       -2.3600    -4.2050    -0.3130 N.am  1 <1>  -0.4900 
  6 C        2.0010    -3.4800     0.1400 C.2   1 <1>   0.9060 
  7 C       -4.0720    -5.8630     0.9470 C.2   1 <1>   0.0210 
  8 C       -3.6620    -4.1710    -0.6980 C.2   1 <1>   0.6160 
  9 O        2.3750    -2.5930     0.9160 O.co2 1 <1>  -0.9000 
 10 O        2.7920    -4.1250    -0.5580 O.co2 1 <1>  -0.9000 
 11 O       -4.8030    -6.6450     1.5660 O.3   1 <1>  -0.8500 
 12 C       -4.5540    -5.0210    -0.0540 C.2   1 <1>  -0.1240 
 13 O       -3.9390    -3.3680    -1.6050 O.2   1 <1>  -0.5700 
 14 C       -6.0320    -5.0310    -0.4300 C.3   1 <1>  -0.0220 
 15 C       -6.7980    -3.9760     0.3760 C.3   1 <1>  -0.1600 
 16 C       -8.2870    -3.9560     0.0100 C.3   1 <1>  -0.1600 
 17 C       -9.0410    -2.8990     0.8250 C.3   1 <1>  -0.1600 
 18 C      -10.5280    -2.8770     0.4610 C.3   1 <1>  -0.2400 
 19 H        0.0040    -2.7700     0.1370 H     1 <1>   0.0800 
 20 H        0.3430    -4.0180    -1.0660 H     1 <1>   0.0800 
 21 H       -1.7060    -3.5920    -0.7700 H     1 <1>   0.3700 
 22 H       -6.4390    -6.0070    -0.2270 H     1 <1>   0.0800 
 23 H       -6.1380    -4.8430    -1.4830 H     1 <1>   0.0800 
 24 H       -6.3620    -3.0100     0.1940 H     1 <1>   0.0800 
 25 H       -6.6820    -4.2070     1.4230 H     1 <1>   0.0800 
 26 H       -8.7090    -4.9280     0.2030 H     1 <1>   0.0800 
 27 H       -8.3930    -3.7450    -1.0410 H     1 <1>   0.0800 
 28 H       -8.6130    -1.9290     0.6390 H     1 <1>   0.0800 
 29 H       -8.9340    -3.1160     1.8750 H     1 <1>   0.0800 
 30 H      -10.6540    -2.6440    -0.5820 H     1 <1>   0.0800 
 31 H      -11.0390    -2.1320     1.0440 H     1 <1>   0.0800 
 32 H      -10.9750    -3.8360     0.6590 H     1 <1>   0.0800 
@<TRIPOS>BOND
  1   1   2  1   
  2   1   3  1   
  3   2   4  2   
  4   2   5  1   
  5   3   6  1   
  6   3  19  1   
  7   3  20  1   
  8   4   7  1   
  9   5   8  am  
 10   5  21  1   
 11   6   9  ar  
 12   6  10  ar  
 13   7  11  1   
 14   7  12  2   
 15   8  12  1   
 16   8  13  2   
 17  12  14  1   
 18  14  15  1   
 19  14  22  1   
 20  14  23  1   
 21  15  16  1   
 22  15  24  1   
 23  15  25  1   
 24  16  17  1   
 25  16  26  1   
 26  16  27  1   
 27  17  18  1   
 28  17  28  1   
 29  17  29  1   
 30  18  30  1   
 31  18  31  1   
 32  18  32  1   
@<TRIPOS>SUBSTRUCTURE
  1 ****   8 GROUP 4 **** **** 0

# MOE 2024.06 (io_trps.svl 2023.06)
