@<TRIPOS>MOLECULE
NONAME
53 57 1 0 0 
SMALL
USER_CHARGES


@<TRIPOS>ATOM
  1 F       -1.6270     0.6500    -1.7440 F     1 <1>  -0.1900 
  2 C       -1.8350    -0.6150    -1.4960 C.ar  1 <1>   0.1900 
  3 C       -2.9620    -0.9790    -0.7680 C.ar  1 <1>   0.0860 
  4 C       -0.9060    -1.5280    -1.9640 C.ar  1 <1>  -0.1500 
  5 C       -3.1010    -2.3400    -0.5230 C.ar  1 <1>   0.1900 
  6 C       -3.9180    -0.0120    -0.3020 C.2   1 <1>   0.5440 
  7 C       -1.0890    -2.8770    -1.6990 C.ar  1 <1>  -0.1500 
  8 F       -4.1300    -2.7560     0.1630 F     1 <1>  -0.1900 
  9 C       -2.1950    -3.2870    -0.9710 C.ar  1 <1>  -0.1500 
 10 O       -4.7480     0.4730    -1.0500 O.2   1 <1>  -0.5700 
 11 N       -3.8880     0.4600     0.9860 N.am  1 <1>  -0.6600 
 12 C       -5.1960     0.6100     1.7050 C.3   1 <1>   0.1400 
 13 C       -2.9680     1.6000     1.2710 C.3   1 <1>   0.1400 
 14 C       -5.7620     2.0480     1.5830 C.3   1 <1>   0.3430 
 15 C       -3.5910     2.9390     0.7990 C.3   1 <1>   0.3430 
 16 N       -5.0650     2.8130     0.4890 N.4   1 <1>  -0.9590 
 17 C       -5.7420     4.0490     0.0020 C.3   1 <1>   0.5030 
 18 C       -5.8490     5.1050     1.1220 C.3   1 <1>  -0.1600 
 19 C       -4.9480     4.6490    -1.1830 C.3   1 <1>  -0.1600 
 20 C       -7.1610     3.6980    -0.5010 C.3   1 <1>  -0.1600 
 21 C       -6.5550     6.3700     0.5920 C.3   1 <1>  -0.0800 
 22 C       -5.6470     5.9110    -1.7200 C.3   1 <1>  -0.0800 
 23 C       -7.8740     4.9550    -1.0330 C.3   1 <1>  -0.0800 
 24 C       -5.7490     6.9490    -0.5860 C.3   1 <1>  -0.1600 
 25 C       -7.9650     5.9970     0.0970 C.3   1 <1>  -0.1600 
 26 C       -7.0610     5.5420    -2.2000 C.3   1 <1>  -0.1600 
 27 H       -0.0530    -1.1900    -2.5270 H     1 <1>   0.1500 
 28 H       -0.3770    -3.6020    -2.0570 H     1 <1>   0.1500 
 29 H       -2.3560    -4.3290    -0.7530 H     1 <1>   0.1500 
 30 H       -5.0730     0.3520     2.7420 H     1 <1>   0.0800 
 31 H       -5.9100    -0.0810     1.2870 H     1 <1>   0.0800 
 32 H       -2.0220     1.4490     0.7790 H     1 <1>   0.0800 
 33 H       -2.7760     1.6450     2.3290 H     1 <1>   0.0800 
 34 H       -5.6350     2.5620     2.5210 H     1 <1>   0.0800 
 35 H       -6.8170     1.9760     1.3890 H     1 <1>   0.0800 
 36 H       -3.0670     3.2520    -0.0890 H     1 <1>   0.0800 
 37 H       -3.4300     3.6910     1.5530 H     1 <1>   0.0800 
 38 H       -5.0900     2.1450    -0.3110 H     1 <1>   0.4500 
 39 H       -6.4140     4.7200     1.9510 H     1 <1>   0.0800 
 40 H       -4.8710     5.3790     1.4750 H     1 <1>   0.0800 
 41 H       -4.8680     3.9250    -1.9760 H     1 <1>   0.0800 
 42 H       -3.9580     4.9360    -0.8820 H     1 <1>   0.0800 
 43 H       -7.7670     3.2990     0.2900 H     1 <1>   0.0800 
 44 H       -7.1030     2.9650    -1.2870 H     1 <1>   0.0800 
 45 H       -6.6290     7.1060     1.3760 H     1 <1>   0.0800 
 46 H       -5.0830     6.3230    -2.5410 H     1 <1>   0.0800 
 47 H       -8.8640     4.7000    -1.3750 H     1 <1>   0.0800 
 48 H       -4.7650     7.2340    -0.2570 H     1 <1>   0.0800 
 49 H       -6.2340     7.8380    -0.9540 H     1 <1>   0.0800 
 50 H       -8.4660     6.8790    -0.2640 H     1 <1>   0.0800 
 51 H       -8.5520     5.6080     0.9120 H     1 <1>   0.0800 
 52 H       -7.5560     6.4190    -2.5830 H     1 <1>   0.0800 
 53 H       -7.0030     4.8290    -3.0050 H     1 <1>   0.0800 
@<TRIPOS>BOND
  1   1   2  1   
  2   2   3  ar  
  3   2   4  ar  
  4   3   5  ar  
  5   3   6  1   
  6   4   7  ar  
  7   4  27  1   
  8   5   8  1   
  9   5   9  ar  
 10   6  10  2   
 11   6  11  am  
 12   7   9  ar  
 13   7  28  1   
 14   9  29  1   
 15  11  12  1   
 16  11  13  1   
 17  12  14  1   
 18  12  30  1   
 19  12  31  1   
 20  13  15  1   
 21  13  32  1   
 22  13  33  1   
 23  14  16  1   
 24  14  34  1   
 25  14  35  1   
 26  15  16  1   
 27  15  36  1   
 28  15  37  1   
 29  16  17  1   
 30  16  38  1   
 31  17  18  1   
 32  17  19  1   
 33  17  20  1   
 34  18  21  1   
 35  18  39  1   
 36  18  40  1   
 37  19  22  1   
 38  19  41  1   
 39  19  42  1   
 40  20  23  1   
 41  20  43  1   
 42  20  44  1   
 43  21  24  1   
 44  21  25  1   
 45  21  45  1   
 46  22  24  1   
 47  22  26  1   
 48  22  46  1   
 49  23  25  1   
 50  23  26  1   
 51  23  47  1   
 52  24  48  1   
 53  24  49  1   
 54  25  50  1   
 55  25  51  1   
 56  26  52  1   
 57  26  53  1   
@<TRIPOS>SUBSTRUCTURE
  1 ****  16 GROUP 4 **** **** 0

# MOE 2024.06 (io_trps.svl 2023.06)
