@<TRIPOS>MOLECULE
NONAME
26 27 1 0 0 
SMALL
USER_CHARGES


@<TRIPOS>ATOM
  1 F       -0.2420    -0.4110     0.3930 F     1 <1>  -0.1900 
  2 C        0.5360    -1.4240     0.0960 C.ar  1 <1>   0.1900 
  3 C       -0.0340    -2.6970    -0.0050 C.ar  1 <1>   0.1170 
  4 C        1.8810    -1.1650    -0.1010 C.ar  1 <1>  -0.1500 
  5 N       -1.4190    -2.8540     0.2150 N.am  1 <1>  -0.5470 
  6 C        0.8270    -3.7460    -0.3230 C.ar  1 <1>  -0.1500 
  7 C        2.7210    -2.2210    -0.4170 C.ar  1 <1>  -0.1500 
  8 C       -2.2460    -3.9450     0.1740 C.2   1 <1>   0.5770 
  9 C        2.1720    -3.4880    -0.5200 C.ar  1 <1>   0.1900 
 10 O       -1.8600    -5.0610    -0.0670 O.2   1 <1>  -0.5700 
 11 C       -3.7230    -3.7230     0.4740 C.3   1 <1>   0.0530 
 12 F        2.9640    -4.4830    -0.8180 F     1 <1>  -0.1900 
 13 C       -4.7130    -4.6120    -0.3300 C.3   1 <1>   0.0000 
 14 C       -4.3700    -2.5060    -0.2440 C.3   1 <1>   0.0000 
 15 C       -5.6440    -3.3750    -0.3990 C.3   1 <1>   0.0000 
 16 H        2.2600    -0.1630    -0.0100 H     1 <1>   0.1500 
 17 H       -1.8870    -1.9750     0.4410 H     1 <1>   0.3700 
 18 H        0.4750    -4.7560    -0.4210 H     1 <1>   0.1500 
 19 H        3.7730    -2.0730    -0.5800 H     1 <1>   0.1500 
 20 H       -3.9420    -3.7300     1.5280 H     1 <1>   0.0000 
 21 H       -5.1190    -5.4320     0.2350 H     1 <1>   0.0000 
 22 H       -4.3400    -4.8980    -1.2990 H     1 <1>   0.0000 
 23 H       -3.9120    -2.2770    -1.1920 H     1 <1>   0.0000 
 24 H       -4.5030    -1.6460     0.3890 H     1 <1>   0.0000 
 25 H       -6.3040    -3.3020     0.4490 H     1 <1>   0.0000 
 26 H       -6.1410    -3.2560    -1.3450 H     1 <1>   0.0000 
@<TRIPOS>BOND
  1   1   2  1   
  2   2   3  ar  
  3   2   4  ar  
  4   3   5  1   
  5   3   6  ar  
  6   4   7  ar  
  7   4  16  1   
  8   5   8  am  
  9   5  17  1   
 10   6   9  ar  
 11   6  18  1   
 12   7   9  ar  
 13   7  19  1   
 14   8  10  2   
 15   8  11  1   
 16   9  12  1   
 17  11  13  1   
 18  11  14  1   
 19  11  20  1   
 20  13  15  1   
 21  13  21  1   
 22  13  22  1   
 23  14  15  1   
 24  14  23  1   
 25  14  24  1   
 26  15  25  1   
 27  15  26  1   
@<TRIPOS>SUBSTRUCTURE
  1 ****   5 GROUP 4 **** **** 0

# MOE 2024.06 (io_trps.svl 2023.06)
