@<TRIPOS>MOLECULE
NONAME
30 31 1 0 0 
SMALL
USER_CHARGES


@<TRIPOS>ATOM
  1 S        0.2910    -0.1130    -0.3660 S.o2  1 <1>   1.3450 
  2 O       -0.1940    -1.2990     0.3840 O.co2 1 <1>  -0.8170 
  3 O        1.2260     0.7210     0.4240 O.co2 1 <1>  -0.8170 
  4 O        0.7840    -0.4650    -1.7160 O.co2 1 <1>  -0.8170 
  5 C       -1.2150     0.8540    -0.6390 C.3   1 <1>   0.0860 
  6 C       -0.9110     2.2900    -0.9760 C.2   1 <1>   0.4480 
  7 C       -2.1300     1.0470     0.6070 C.3   1 <1>  -0.0800 
  8 O       -0.4100     2.7310    -1.9700 O.2   1 <1>  -0.5700 
  9 C       -1.5290     3.1440     0.1270 C.3   1 <1>  -0.0190 
 10 C       -3.4870     1.7040     0.1990 C.3   1 <1>   0.0000 
 11 C       -1.4330     2.2090     1.3190 C.3   1 <1>  -0.1600 
 12 C       -3.0610     3.1840    -0.0730 C.3   1 <1>  -0.0800 
 13 C       -4.4810     1.6370     1.3770 C.3   1 <1>  -0.2400 
 14 C       -4.1850     0.9970    -0.9850 C.3   1 <1>  -0.2400 
 15 C       -3.4900     3.8190    -1.4090 C.3   1 <1>  -0.2400 
 16 H       -1.7410     0.3880    -1.4410 H     1 <1>   0.0800 
 17 H       -2.2310     0.1510     1.1970 H     1 <1>   0.0800 
 18 H       -1.0550     4.1000     0.2530 H     1 <1>   0.0800 
 19 H       -0.4180     2.0000     1.6050 H     1 <1>   0.0800 
 20 H       -1.9560     2.5750     2.1840 H     1 <1>   0.0800 
 21 H       -3.4640     3.8110     0.7050 H     1 <1>   0.0800 
 22 H       -4.0900     2.0930     2.2670 H     1 <1>   0.0800 
 23 H       -4.7150     0.6130     1.6070 H     1 <1>   0.0800 
 24 H       -5.3960     2.1440     1.1230 H     1 <1>   0.0800 
 25 H       -3.6470     1.1010    -1.9080 H     1 <1>   0.0800 
 26 H       -5.1660     1.4070    -1.1420 H     1 <1>   0.0800 
 27 H       -4.2910    -0.0540    -0.7760 H     1 <1>   0.0800 
 28 H       -3.0890     3.2890    -2.2550 H     1 <1>   0.0800 
 29 H       -3.1330     4.8330    -1.4600 H     1 <1>   0.0800 
 30 H       -4.5620     3.8350    -1.4870 H     1 <1>   0.0800 
@<TRIPOS>BOND
  1   1   2  ar  
  2   1   3  ar  
  3   1   4  ar  
  4   1   5  1   
  5   5   6  1   
  6   5   7  1   
  7   5  16  1   
  8   6   8  2   
  9   6   9  1   
 10   7  10  1   
 11   7  11  1   
 12   7  17  1   
 13   9  11  1   
 14   9  12  1   
 15   9  18  1   
 16  10  12  1   
 17  10  13  1   
 18  10  14  1   
 19  11  19  1   
 20  11  20  1   
 21  12  15  1   
 22  12  21  1   
 23  13  22  1   
 24  13  23  1   
 25  13  24  1   
 26  14  25  1   
 27  14  26  1   
 28  14  27  1   
 29  15  28  1   
 30  15  29  1   
 31  15  30  1   
@<TRIPOS>SUBSTRUCTURE
  1 ****   5 GROUP 4 **** **** 0

# MOE 2024.06 (io_trps.svl 2023.06)
