@<TRIPOS>MOLECULE
NONAME
34 34 1 0 0 
SMALL
USER_CHARGES


@<TRIPOS>ATOM
  1 S       -0.1620    -0.1240     0.2270 S.3   1 <1>  -0.3320 
  2 C       -0.1010    -1.8970     0.0400 C.ar  1 <1>   0.7220 
  3 C        1.4480     0.4630    -0.4830 C.3   1 <1>   0.1310 
  4 N        0.9770    -2.3770    -0.5060 N.ar  1 <1>  -0.6200 
  5 N       -1.1450    -2.5320     0.4750 N.ar  1 <1>  -0.6200 
  6 C        1.5800     1.9700    -0.3410 C.2   1 <1>   0.4480 
  7 C        0.9380    -3.6780    -0.6080 C.ar  1 <1>   0.7200 
  8 C       -1.0390    -3.8230     0.3160 C.ar  1 <1>   0.7200 
  9 O        1.8140     2.6640    -1.2830 O.2   1 <1>  -0.5700 
 10 C        1.4410     2.5660     1.0440 C.3   1 <1>  -0.1790 
 11 N       -0.0320    -4.4600    -0.2180 N.ar  1 <1>  -0.6200 
 12 N        2.0310    -4.2320    -1.1740 N.pl3 1 <1>  -0.8690 
 13 N       -2.0990    -4.5330     0.7560 N.pl3 1 <1>  -0.8690 
 14 C        2.3160    -5.6720    -1.2760 C.3   1 <1>   0.2090 
 15 C       -2.3430    -5.9630     0.5080 C.3   1 <1>   0.2090 
 16 C        3.3840    -5.8740    -2.3420 C.3   1 <1>  -0.2400 
 17 C       -3.4100    -6.4420     1.4820 C.3   1 <1>  -0.2400 
 18 H        1.4620     0.1800    -1.5200 H     1 <1>   0.0800 
 19 H        2.2370    -0.0380     0.0460 H     1 <1>   0.0800 
 20 H        0.4190     2.5070     1.3700 H     1 <1>   0.0800 
 21 H        1.7360     3.5990     1.0240 H     1 <1>   0.0800 
 22 H        2.0680     2.0380     1.7390 H     1 <1>   0.0800 
 23 H        2.7960    -3.5900    -1.3740 H     1 <1>   0.4000 
 24 H       -2.8950    -3.9680     1.0500 H     1 <1>   0.4000 
 25 H        1.4190    -6.2050    -1.5460 H     1 <1>   0.0800 
 26 H        2.6620    -6.0380    -0.3230 H     1 <1>   0.0800 
 27 H       -1.4310    -6.5190     0.6540 H     1 <1>   0.0800 
 28 H       -2.6730    -6.0990    -0.5090 H     1 <1>   0.0800 
 29 H        3.0350    -5.5040    -3.2890 H     1 <1>   0.0800 
 30 H        3.5980    -6.9220    -2.4420 H     1 <1>   0.0800 
 31 H        4.2900    -5.3660    -2.0660 H     1 <1>   0.0800 
 32 H       -3.0760    -6.2990     2.4940 H     1 <1>   0.0800 
 33 H       -3.5930    -7.4890     1.3280 H     1 <1>   0.0800 
 34 H       -4.3290    -5.9070     1.3250 H     1 <1>   0.0800 
@<TRIPOS>BOND
  1   1   2  1   
  2   1   3  1   
  3   2   4  ar  
  4   2   5  ar  
  5   3   6  1   
  6   3  18  1   
  7   3  19  1   
  8   4   7  ar  
  9   5   8  ar  
 10   6   9  2   
 11   6  10  1   
 12   7  11  ar  
 13   7  12  1   
 14   8  11  ar  
 15   8  13  1   
 16  10  20  1   
 17  10  21  1   
 18  10  22  1   
 19  12  14  1   
 20  12  23  1   
 21  13  15  1   
 22  13  24  1   
 23  14  16  1   
 24  14  25  1   
 25  14  26  1   
 26  15  17  1   
 27  15  27  1   
 28  15  28  1   
 29  16  29  1   
 30  16  30  1   
 31  16  31  1   
 32  17  32  1   
 33  17  33  1   
 34  17  34  1   
@<TRIPOS>SUBSTRUCTURE
  1 ****   4 GROUP 4 **** **** 0

# MOE 2024.06 (io_trps.svl 2023.06)
