@<TRIPOS>MOLECULE
NONAME
43 44 1 0 0 
SMALL
USER_CHARGES


@<TRIPOS>ATOM
  1 O        0.7120    -1.6260     0.9720 O.2   1 <1>  -0.5700 
  2 C        0.6000    -2.5030     0.1360 C.2   1 <1>   0.6900 
  3 N       -0.6140    -2.7730    -0.4420 N.am  1 <1>  -0.6600 
  4 N        1.6780    -3.2420    -0.2180 N.am  1 <1>  -0.7300 
  5 C       -0.7860    -3.4770    -1.7400 C.3   1 <1>   0.1400 
  6 C       -1.8720    -2.2330     0.1390 C.3   1 <1>   0.1400 
  7 C        3.0250    -3.1090     0.3550 C.3   1 <1>   0.2200 
  8 C       -1.7590    -4.6430    -1.5550 C.3   1 <1>  -0.1600 
  9 C       -2.8690    -3.3780     0.3370 C.3   1 <1>  -0.1600 
 10 C        4.0500    -3.1220    -0.7830 C.3   1 <1>  -0.1600 
 11 C        3.2640    -4.2630     1.3340 C.3   1 <1>  -0.1600 
 12 C       -3.1020    -4.1650    -0.9680 C.3   1 <1>  -0.0190 
 13 C        5.4860    -3.0950    -0.2380 C.3   1 <1>  -0.1600 
 14 C        4.6980    -4.2390     1.8820 C.3   1 <1>  -0.1600 
 15 C       -4.0730    -5.3230    -0.7640 C.2   1 <1>   0.6590 
 16 C        5.7280    -4.2500     0.7440 C.3   1 <1>  -0.1600 
 17 O       -5.1240    -5.3680    -1.3490 O.2   1 <1>  -0.5700 
 18 O       -3.6970    -6.2740     0.0850 O.3   1 <1>  -0.4300 
 19 C       -4.5170    -7.3920     0.3550 C.3   1 <1>   0.0400 
 20 H        1.5020    -4.0970    -0.7320 H     1 <1>   0.3700 
 21 H        0.1550    -3.8370    -2.1160 H     1 <1>   0.0800 
 22 H       -1.1820    -2.7810    -2.4600 H     1 <1>   0.0800 
 23 H       -2.2780    -1.4930    -0.5290 H     1 <1>   0.0800 
 24 H       -1.6800    -1.7580     1.0870 H     1 <1>   0.0800 
 25 H        3.1030    -2.1740     0.8870 H     1 <1>   0.0800 
 26 H       -1.3100    -5.3700    -0.9000 H     1 <1>   0.0800 
 27 H       -1.9290    -5.1170    -2.5060 H     1 <1>   0.0800 
 28 H       -3.8030    -2.9750     0.6890 H     1 <1>   0.0800 
 29 H       -2.4880    -4.0350     1.1000 H     1 <1>   0.0800 
 30 H        3.8920    -2.2630    -1.4110 H     1 <1>   0.0800 
 31 H        3.9190    -4.0100    -1.3770 H     1 <1>   0.0800 
 32 H        3.0960    -5.2010     0.8350 H     1 <1>   0.0800 
 33 H        2.5690    -4.1810     2.1510 H     1 <1>   0.0800 
 34 H       -3.5550    -3.4970    -1.6800 H     1 <1>   0.0800 
 35 H        5.6570    -2.1580     0.2650 H     1 <1>   0.0800 
 36 H        6.1840    -3.1620    -1.0550 H     1 <1>   0.0800 
 37 H        4.8550    -5.0910     2.5210 H     1 <1>   0.0800 
 38 H        4.8350    -3.3520     2.4780 H     1 <1>   0.0800 
 39 H        6.7200    -4.1700     1.1560 H     1 <1>   0.0800 
 40 H        5.6660    -5.1860     0.2160 H     1 <1>   0.0800 
 41 H       -4.0120    -8.0210     1.0670 H     1 <1>   0.0800 
 42 H       -4.6860    -7.9290    -0.5620 H     1 <1>   0.0800 
 43 H       -5.4520    -7.0470     0.7610 H     1 <1>   0.0800 
@<TRIPOS>BOND
  1   1   2  2   
  2   2   3  am  
  3   2   4  am  
  4   3   5  1   
  5   3   6  1   
  6   4   7  1   
  7   4  20  1   
  8   5   8  1   
  9   5  21  1   
 10   5  22  1   
 11   6   9  1   
 12   6  23  1   
 13   6  24  1   
 14   7  10  1   
 15   7  11  1   
 16   7  25  1   
 17   8  12  1   
 18   8  26  1   
 19   8  27  1   
 20   9  12  1   
 21   9  28  1   
 22   9  29  1   
 23  10  13  1   
 24  10  30  1   
 25  10  31  1   
 26  11  14  1   
 27  11  32  1   
 28  11  33  1   
 29  12  15  1   
 30  12  34  1   
 31  13  16  1   
 32  13  35  1   
 33  13  36  1   
 34  14  16  1   
 35  14  37  1   
 36  14  38  1   
 37  15  17  2   
 38  15  18  1   
 39  16  39  1   
 40  16  40  1   
 41  18  19  1   
 42  19  41  1   
 43  19  42  1   
 44  19  43  1   
@<TRIPOS>SUBSTRUCTURE
  1 ****   3 GROUP 4 **** **** 0

# MOE 2024.06 (io_trps.svl 2023.06)
