@<TRIPOS>MOLECULE
NONAME
50 54 1 0 0 
SMALL
USER_CHARGES


@<TRIPOS>ATOM
  1 O       -0.2270    -0.0720     0.8920 O.2   1 <1>  -0.5700 
  2 C        0.7000    -0.8190     0.8030 C.2   1 <1>   0.4480 
  3 C        2.0750    -0.3950     0.2760 C.3   1 <1>   0.0610 
  4 C        0.5990    -2.3020     1.1710 C.3   1 <1>   0.0610 
  5 C        2.3190    -1.2550    -0.9750 C.3   1 <1>   0.3430 
  6 C        3.1030    -0.8040     1.3450 C.3   1 <1>   0.1100 
  7 C        2.2010     1.1220    -0.0270 C.3   1 <1>  -0.1600 
  8 C        0.9040    -3.0740    -0.1230 C.3   1 <1>   0.3430 
  9 C        1.7290    -2.6010     2.1760 C.3   1 <1>   0.1100 
 10 C       -0.7940    -2.6760     1.7400 C.3   1 <1>  -0.1600 
 11 N        2.2670    -2.7080    -0.6290 N.4   1 <1>  -0.9590 
 12 N        3.0300    -2.2560     1.5680 N.3   1 <1>  -0.8100 
 13 C        1.4250     1.6050    -1.2630 C.3   1 <1>  -0.2400 
 14 C       -0.9890    -4.1620     2.0850 C.3   1 <1>  -0.2400 
 15 C        3.2700    -3.0820     0.3830 C.3   1 <1>   0.8740 
 16 C        4.6900    -3.1690    -0.1790 C.2   1 <1>  -0.1810 
 17 C        5.6010    -2.2310    -0.7620 C.ar  1 <1>   0.0000 
 18 C        5.3100    -4.3800    -0.1990 C.2   1 <1>  -0.3020 
 19 C        6.7300    -2.9750    -1.1150 C.ar  1 <1>  -0.1520 
 20 C        5.6470    -0.8520    -1.0450 C.ar  1 <1>  -0.1500 
 21 N        6.5440    -4.2760    -0.7570 N.pl3 1 <1>   0.0330 
 22 C        7.8460    -2.4100    -1.7360 C.ar  1 <1>  -0.1500 
 23 C        6.7420    -0.2870    -1.6560 C.ar  1 <1>  -0.1500 
 24 C        7.8460    -1.0660    -2.0060 C.ar  1 <1>  -0.1500 
 25 H        1.5580    -1.0310    -1.7050 H     1 <1>   0.0800 
 26 H        3.2670    -1.0190    -1.4190 H     1 <1>   0.0800 
 27 H        2.8890    -0.2890     2.2690 H     1 <1>   0.0800 
 28 H        4.1070    -0.5360     1.0770 H     1 <1>   0.0800 
 29 H        3.2360     1.3830    -0.1630 H     1 <1>   0.0800 
 30 H        1.8520     1.6740     0.8310 H     1 <1>   0.0800 
 31 H        0.1580    -2.8360    -0.8650 H     1 <1>   0.0800 
 32 H        0.8580    -4.1320     0.0730 H     1 <1>   0.0800 
 33 H        1.5840    -2.0270     3.0790 H     1 <1>   0.0800 
 34 H        1.7330    -3.6420     2.4540 H     1 <1>   0.0800 
 35 H       -1.5530    -2.3910     1.0290 H     1 <1>   0.0800 
 36 H       -0.9740    -2.0930     2.6290 H     1 <1>   0.0800 
 37 H        2.5190    -3.2600    -1.4560 H     1 <1>   0.4500 
 38 H        1.8150     1.1830    -2.1720 H     1 <1>   0.0800 
 39 H        1.5090     2.6760    -1.3400 H     1 <1>   0.0800 
 40 H        0.3780     1.3680    -1.1840 H     1 <1>   0.0800 
 41 H       -0.8690    -4.7930     1.2220 H     1 <1>   0.0800 
 42 H       -1.9890    -4.3090     2.4570 H     1 <1>   0.0800 
 43 H       -0.3110    -4.4820     2.8560 H     1 <1>   0.0800 
 44 H        3.0510    -4.0940     0.6860 H     1 <1>   0.0800 
 45 H        4.9530    -5.3340     0.1550 H     1 <1>   0.1500 
 46 H        4.8460    -0.1980    -0.7930 H     1 <1>   0.1500 
 47 H        7.2350    -5.0260    -0.8820 H     1 <1>   0.2700 
 48 H        8.6920    -3.0230    -1.9940 H     1 <1>   0.1500 
 49 H        6.7680     0.7680    -1.8690 H     1 <1>   0.1500 
 50 H        8.6930    -0.6020    -2.4830 H     1 <1>   0.1500 
@<TRIPOS>BOND
  1   1   2  2   
  2   2   3  1   
  3   2   4  1   
  4   3   5  1   
  5   3   6  1   
  6   3   7  1   
  7   4   8  1   
  8   4   9  1   
  9   4  10  1   
 10   5  11  1   
 11   5  25  1   
 12   5  26  1   
 13   6  12  1   
 14   6  27  1   
 15   6  28  1   
 16   7  13  1   
 17   7  29  1   
 18   7  30  1   
 19   8  11  1   
 20   8  31  1   
 21   8  32  1   
 22   9  12  1   
 23   9  33  1   
 24   9  34  1   
 25  10  14  1   
 26  10  35  1   
 27  10  36  1   
 28  11  15  1   
 29  11  37  1   
 30  12  15  1   
 31  13  38  1   
 32  13  39  1   
 33  13  40  1   
 34  14  41  1   
 35  14  42  1   
 36  14  43  1   
 37  15  16  1   
 38  15  44  1   
 39  16  17  1   
 40  16  18  2   
 41  17  19  ar  
 42  17  20  ar  
 43  18  21  1   
 44  18  45  1   
 45  19  21  1   
 46  19  22  ar  
 47  20  23  ar  
 48  20  46  1   
 49  21  47  1   
 50  22  24  ar  
 51  22  48  1   
 52  23  24  ar  
 53  23  49  1   
 54  24  50  1   
@<TRIPOS>SUBSTRUCTURE
  1 ****  15 GROUP 4 **** **** 0

# MOE 2024.06 (io_trps.svl 2023.06)
