@<TRIPOS>MOLECULE
NONAME
35 35 1 0 0 
SMALL
USER_CHARGES


@<TRIPOS>ATOM
  1 I       -0.7410     0.2520    -0.0340 I     1 <1>  -0.0810 
  2 C        1.2460     1.0180    -0.0020 C.ar  1 <1>   0.0810 
  3 C        1.4290     2.3820     0.1280 C.ar  1 <1>  -0.1500 
  4 C        2.3010     0.1310    -0.1130 C.ar  1 <1>  -0.1500 
  5 C        2.7240     2.8700     0.1480 C.ar  1 <1>  -0.1500 
  6 C        3.5920     0.6320    -0.0910 C.ar  1 <1>  -0.1500 
  7 C        3.8060     2.0060     0.0390 C.ar  1 <1>   0.0830 
  8 O        5.0370     2.5760     0.0690 O.3   1 <1>  -0.3630 
  9 C        6.2070     1.8030    -0.0340 C.3   1 <1>   0.1200 
 10 C        7.3960     2.7650     0.0340 C.3   1 <1>  -0.1600 
 11 C        8.7380     2.0270    -0.0690 C.3   1 <1>  -0.1600 
 12 C        9.8970     3.0200     0.0030 C.3   1 <1>   0.3430 
 13 N       11.1780     2.2820    -0.0990 N.4   1 <1>  -0.9060 
 14 C       12.3520     3.2040    -0.0350 C.3   1 <1>   0.3430 
 15 C       13.6810     2.4470    -0.1400 C.3   1 <1>   0.1200 
 16 O       14.6940     3.3830    -0.0710 O.3   1 <1>  -0.6800 
 17 H        0.5870     3.0460     0.2120 H     1 <1>   0.1500 
 18 H        2.1190    -0.9240    -0.2120 H     1 <1>   0.1500 
 19 H        2.9050     3.9250     0.2480 H     1 <1>   0.1500 
 20 H        4.4090    -0.0580    -0.1770 H     1 <1>   0.1500 
 21 H        6.1850     1.2790    -0.9740 H     1 <1>   0.0800 
 22 H        6.2250     1.1060     0.7860 H     1 <1>   0.0800 
 23 H        7.3450     3.3010     0.9670 H     1 <1>   0.0800 
 24 H        7.3060     3.4730    -0.7720 H     1 <1>   0.0800 
 25 H        8.7710     1.4940    -1.0040 H     1 <1>   0.0800 
 26 H        8.8110     1.3220     0.7410 H     1 <1>   0.0800 
 27 H        9.8540     3.5600     0.9360 H     1 <1>   0.0800 
 28 H        9.8140     3.7320    -0.8040 H     1 <1>   0.0800 
 29 H       11.1960     1.7590    -0.9840 H     1 <1>   0.4500 
 30 H       11.2340     1.5960     0.6640 H     1 <1>   0.4500 
 31 H       12.3380     3.7450     0.8980 H     1 <1>   0.0800 
 32 H       12.2990     3.9170    -0.8430 H     1 <1>   0.0800 
 33 H       13.7670     1.9340    -1.0830 H     1 <1>   0.0800 
 34 H       13.8070     1.7600     0.6790 H     1 <1>   0.0800 
 35 H       15.5830     2.9690    -0.1320 H     1 <1>   0.4000 
@<TRIPOS>BOND
  1   1   2  1   
  2   2   3  ar  
  3   2   4  ar  
  4   3   5  ar  
  5   3  17  1   
  6   4   6  ar  
  7   4  18  1   
  8   5   7  ar  
  9   5  19  1   
 10   6   7  ar  
 11   6  20  1   
 12   7   8  1   
 13   8   9  1   
 14   9  10  1   
 15   9  21  1   
 16   9  22  1   
 17  10  11  1   
 18  10  23  1   
 19  10  24  1   
 20  11  12  1   
 21  11  25  1   
 22  11  26  1   
 23  12  13  1   
 24  12  27  1   
 25  12  28  1   
 26  13  14  1   
 27  13  29  1   
 28  13  30  1   
 29  14  15  1   
 30  14  31  1   
 31  14  32  1   
 32  15  16  1   
 33  15  33  1   
 34  15  34  1   
 35  16  35  1   
@<TRIPOS>SUBSTRUCTURE
  1 ****   9 GROUP 4 **** **** 0

# MOE 2024.06 (io_trps.svl 2023.06)
