@<TRIPOS>MOLECULE
NONAME
42 43 1 0 0 
SMALL
USER_CHARGES


@<TRIPOS>ATOM
  1 BR       0.7290     0.1850     2.2680 Br    1 <1>  -0.1110 
  2 C        2.1800    -0.6180     1.2920 C.ar  1 <1>   0.1110 
  3 C        3.2650     0.1650     0.9540 C.ar  1 <1>  -0.1500 
  4 C        2.0970    -1.9560     0.9590 C.ar  1 <1>  -0.1500 
  5 C        4.3280    -0.3910     0.2430 C.ar  1 <1>   0.0540 
  6 C        3.1490    -2.5220     0.2610 C.ar  1 <1>  -0.1500 
  7 C        5.4900     0.3850    -0.1380 C.2   1 <1>   0.2350 
  8 C        4.2440    -1.7460    -0.0860 C.ar  1 <1>  -0.1500 
  9 N        6.7130    -0.0710    -0.0320 N.2   1 <1>  -0.7070 
 10 C        5.4840     1.6970    -0.6450 C.2   1 <1>  -0.0860 
 11 N        7.5080     0.9160    -0.4590 N.pl3 1 <1>   0.3140 
 12 C        4.3180     2.4980    -0.9130 C.2   1 <1>   0.7160 
 13 C        6.8000     1.9880    -0.8260 C.2   1 <1>  -0.3020 
 14 C        8.9730     0.7670    -0.5040 C.3   1 <1>   0.0960 
 15 O        3.4800     2.0870    -1.6940 O.2   1 <1>  -0.5700 
 16 N        4.1230     3.7180    -0.2930 N.am  1 <1>  -0.6600 
 17 C        9.5030     0.2400     0.8330 C.3   1 <1>   0.0400 
 18 C        4.8920     4.1400     0.9100 C.3   1 <1>   0.1400 
 19 C        2.9520     4.5680    -0.6450 C.3   1 <1>   0.1400 
 20 C       10.9860     0.1960     0.8010 C.1   1 <1>   0.3570 
 21 C        5.8220     5.2990     0.5630 C.3   1 <1>  -0.2400 
 22 C        3.2480     5.3570    -1.9180 C.3   1 <1>  -0.2400 
 23 N       12.1210     0.1860     0.7470 N.1   1 <1>  -0.5570 
 24 H        3.2780     1.1980     1.2440 H     1 <1>   0.1500 
 25 H        1.2350    -2.5350     1.2390 H     1 <1>   0.1500 
 26 H        3.1170    -3.5630    -0.0120 H     1 <1>   0.1500 
 27 H        5.0600    -2.1920    -0.6270 H     1 <1>   0.1500 
 28 H        7.2380     2.8920    -1.2060 H     1 <1>   0.1500 
 29 H        9.4100     1.7240    -0.7260 H     1 <1>   0.0800 
 30 H        9.2180     0.0820    -1.2950 H     1 <1>   0.0800 
 31 H        9.1330    -0.7530     1.0150 H     1 <1>   0.0800 
 32 H        9.1930     0.8840     1.6360 H     1 <1>   0.0800 
 33 H        5.4720     3.3180     1.2940 H     1 <1>   0.0800 
 34 H        4.2080     4.4380     1.6870 H     1 <1>   0.0800 
 35 H        2.7290     5.2460     0.1610 H     1 <1>   0.0800 
 36 H        2.0870     3.9440    -0.8000 H     1 <1>   0.0800 
 37 H        6.4620     5.0340    -0.2580 H     1 <1>   0.0800 
 38 H        6.4340     5.5370     1.4140 H     1 <1>   0.0800 
 39 H        5.2530     6.1730     0.3050 H     1 <1>   0.0800 
 40 H        4.1070     5.9880    -1.7870 H     1 <1>   0.0800 
 41 H        2.4030     5.9740    -2.1640 H     1 <1>   0.0800 
 42 H        3.4230     4.6830    -2.7380 H     1 <1>   0.0800 
@<TRIPOS>BOND
  1   1   2  1   
  2   2   3  ar  
  3   2   4  ar  
  4   3   5  ar  
  5   3  24  1   
  6   4   6  ar  
  7   4  25  1   
  8   5   7  1   
  9   5   8  ar  
 10   6   8  ar  
 11   6  26  1   
 12   7   9  2   
 13   7  10  1   
 14   8  27  1   
 15   9  11  1   
 16  10  12  1   
 17  10  13  2   
 18  11  13  1   
 19  11  14  1   
 20  12  15  2   
 21  12  16  am  
 22  13  28  1   
 23  14  17  1   
 24  14  29  1   
 25  14  30  1   
 26  16  18  1   
 27  16  19  1   
 28  17  20  1   
 29  17  31  1   
 30  17  32  1   
 31  18  21  1   
 32  18  33  1   
 33  18  34  1   
 34  19  22  1   
 35  19  35  1   
 36  19  36  1   
 37  20  23  3   
 38  21  37  1   
 39  21  38  1   
 40  21  39  1   
 41  22  40  1   
 42  22  41  1   
 43  22  42  1   
@<TRIPOS>SUBSTRUCTURE
  1 ****   7 GROUP 4 **** **** 0

# MOE 2024.06 (io_trps.svl 2023.06)
