@<TRIPOS>MOLECULE
NONAME
33 33 1 0 0 
SMALL
USER_CHARGES


@<TRIPOS>ATOM
  1 S        0.0680     0.2240     0.8500 S.o2  1 <1>   1.4470 
  2 O        0.7110     0.2750     2.1420 O.2   1 <1>  -0.6500 
  3 O       -0.7140     1.3430     0.3770 O.2   1 <1>  -0.6500 
  4 N        1.2740     0.0750    -0.3060 N.am  1 <1>  -0.9140 
  5 C       -0.8810    -1.3130     0.6770 C.ar  1 <1>  -0.0090 
  6 C        2.4320     0.8930    -0.0190 C.3   1 <1>   0.1960 
  7 C       -2.2670    -1.3000     0.6510 C.ar  1 <1>  -0.1500 
  8 C       -0.2450    -2.5420     0.5820 C.ar  1 <1>  -0.1500 
  9 C        3.3810     0.8020    -1.2050 C.3   1 <1>  -0.2400 
 10 C       -3.0340    -2.4580     0.5220 C.ar  1 <1>   0.0860 
 11 C       -0.9730    -3.7110     0.4560 C.ar  1 <1>  -0.1500 
 12 C       -2.3560    -3.6790     0.4220 C.ar  1 <1>  -0.1430 
 13 C       -4.4820    -2.3460     0.4890 C.2   1 <1>   0.5440 
 14 C       -3.1170    -4.9920     0.2770 C.3   1 <1>  -0.0970 
 15 O       -5.1840    -2.9930     1.2410 O.2   1 <1>  -0.5700 
 16 N       -5.0750    -1.4900    -0.3990 N.am  1 <1>  -0.7300 
 17 C       -6.5350    -1.2520    -0.5290 C.3   1 <1>   0.0600 
 18 H        0.8440     0.4600    -1.1440 H     1 <1>   0.4200 
 19 H        2.9230     0.5330     0.8720 H     1 <1>   0.0800 
 20 H        2.1350     1.9180     0.1420 H     1 <1>   0.0800 
 21 H       -2.7770    -0.3550     0.7410 H     1 <1>   0.1500 
 22 H        0.8320    -2.5850     0.6080 H     1 <1>   0.1500 
 23 H        3.6800    -0.2200    -1.3640 H     1 <1>   0.0800 
 24 H        4.2620     1.3850    -1.0060 H     1 <1>   0.0800 
 25 H        2.9150     1.1840    -2.0950 H     1 <1>   0.0800 
 26 H       -0.4490    -4.6490     0.3860 H     1 <1>   0.1500 
 27 H       -3.8430    -4.9170    -0.5130 H     1 <1>   0.0800 
 28 H       -3.6320    -5.2180     1.1940 H     1 <1>   0.0800 
 29 H       -2.4530    -5.8060     0.0490 H     1 <1>   0.0800 
 30 H       -4.4820    -0.9890    -1.0640 H     1 <1>   0.3700 
 31 H       -7.0760    -1.8110     0.2160 H     1 <1>   0.0800 
 32 H       -6.8690    -1.5610    -1.5040 H     1 <1>   0.0800 
 33 H       -6.7460    -0.2050    -0.3950 H     1 <1>   0.0800 
@<TRIPOS>BOND
  1   1   2  2   
  2   1   3  2   
  3   1   4  am  
  4   1   5  1   
  5   4   6  1   
  6   4  18  1   
  7   5   7  ar  
  8   5   8  ar  
  9   6   9  1   
 10   6  19  1   
 11   6  20  1   
 12   7  10  ar  
 13   7  21  1   
 14   8  11  ar  
 15   8  22  1   
 16   9  23  1   
 17   9  24  1   
 18   9  25  1   
 19  10  12  ar  
 20  10  13  1   
 21  11  12  ar  
 22  11  26  1   
 23  12  14  1   
 24  13  15  2   
 25  13  16  am  
 26  14  27  1   
 27  14  28  1   
 28  14  29  1   
 29  16  17  1   
 30  16  30  1   
 31  17  31  1   
 32  17  32  1   
 33  17  33  1   
@<TRIPOS>SUBSTRUCTURE
  1 ****   7 GROUP 4 **** **** 0

# MOE 2024.06 (io_trps.svl 2023.06)
