@<TRIPOS>MOLECULE
NONAME
21 21 1 0 0 
SMALL
USER_CHARGES


@<TRIPOS>ATOM
  1 F       -0.2420     0.8570    -0.9390 F     1 <1>  -0.3400 
  2 C       -1.3920     1.5130    -1.0330 C.3   1 <1>   1.0200 
  3 F       -1.1680     2.7230    -0.5360 F     1 <1>  -0.3400 
  4 F       -1.6210     1.6700    -2.3320 F     1 <1>  -0.3400 
  5 C       -2.5230     0.7530    -0.3050 C.3   1 <1>   0.1200 
  6 O       -3.7700     1.4000    -0.3590 O.3   1 <1>  -0.5600 
  7 C       -4.8110     0.7070     0.2660 C.3   1 <1>   0.3000 
  8 C       -6.0760     1.5410     0.2470 C.2   1 <1>  -0.0400 
  9 O       -6.1690     2.6020     1.0250 O.3   1 <1>  -0.2800 
 10 C       -7.2190     1.3740    -0.4520 C.2   1 <1>  -0.1500 
 11 C       -7.3610     3.1290     0.8360 C.2   1 <1>  -0.0100 
 12 C       -8.0820     2.4190    -0.0690 C.2   1 <1>  -0.2330 
 13 C       -9.4260     2.6550    -0.5450 C.2   1 <1>   1.0330 
 14 O      -10.0820     3.6210    -0.1180 O.co2 1 <1>  -0.9000 
 15 O       -9.9390     1.8870    -1.3780 O.co2 1 <1>  -0.9000 
 16 H       -2.2480     0.6420     0.7280 H     1 <1>   0.0800 
 17 H       -2.6260    -0.2170    -0.7560 H     1 <1>   0.0800 
 18 H       -4.5350     0.5000     1.2850 H     1 <1>   0.0800 
 19 H       -4.9750    -0.2140    -0.2650 H     1 <1>   0.0800 
 20 H       -7.4920     0.6210    -1.1700 H     1 <1>   0.1500 
 21 H       -7.6490     4.0140     1.3740 H     1 <1>   0.1500 
@<TRIPOS>BOND
  1   1   2  1   
  2   2   3  1   
  3   2   4  1   
  4   2   5  1   
  5   5   6  1   
  6   5  16  1   
  7   5  17  1   
  8   6   7  1   
  9   7   8  1   
 10   7  18  1   
 11   7  19  1   
 12   8   9  1   
 13   8  10  2   
 14   9  11  1   
 15  10  12  1   
 16  10  20  1   
 17  11  12  2   
 18  11  21  1   
 19  12  13  1   
 20  13  14  ar  
 21  13  15  ar  
@<TRIPOS>SUBSTRUCTURE
  1 ****   8 GROUP 4 **** **** 0

# MOE 2024.06 (io_trps.svl 2023.06)
