@<TRIPOS>MOLECULE
NONAME
39 41 1 0 0 
SMALL
USER_CHARGES


@<TRIPOS>ATOM
  1 CL      -0.6810    -0.3740    -2.2990 Cl    1 <1>  -0.1770 
  2 C       -2.0210    -1.0020    -1.3780 C.ar  1 <1>   0.1770 
  3 C       -2.8460    -1.9550    -1.9440 C.ar  1 <1>  -0.1500 
  4 C       -2.2400    -0.5390    -0.0950 C.ar  1 <1>  -0.1500 
  5 C       -3.9130    -2.4510    -1.2140 C.ar  1 <1>  -0.1500 
  6 C       -3.3080    -1.0350     0.6330 C.ar  1 <1>  -0.1500 
  7 C       -4.1530    -1.9880     0.0750 C.ar  1 <1>  -0.1430 
  8 C       -5.3320    -2.5180     0.8710 C.3   1 <1>   0.4870 
  9 N       -6.5820    -1.9400     0.3130 N.4   1 <1>  -0.9590 
 10 C       -6.6170    -0.4360     0.4380 C.3   1 <1>   0.3430 
 11 C       -7.8130    -2.5520     0.9290 C.3   1 <1>   0.3430 
 12 C       -7.9060     0.1720    -0.1500 C.3   1 <1>   0.2090 
 13 C       -9.1150    -1.9660     0.3450 C.3   1 <1>   0.2090 
 14 N       -9.1300    -0.4740     0.4140 N.pl3 1 <1>  -0.8380 
 15 C      -10.3050     0.0890    -0.0330 C.ar  1 <1>   0.4100 
 16 N      -10.5760    -0.0750    -1.3210 N.ar  1 <1>  -0.6200 
 17 C      -11.1270     0.7790     0.8510 C.ar  1 <1>  -0.1500 
 18 C      -11.7070     0.4700    -1.7390 C.ar  1 <1>   0.1600 
 19 C      -12.2990     1.3400     0.4010 C.ar  1 <1>  -0.1500 
 20 C      -12.5890     1.1750    -0.9380 C.ar  1 <1>  -0.1500 
 21 H       -2.6450    -2.3020    -2.9440 H     1 <1>   0.1500 
 22 H       -1.5760     0.1990     0.3220 H     1 <1>   0.1500 
 23 H       -4.5420    -3.2010    -1.6640 H     1 <1>   0.1500 
 24 H       -3.4650    -0.6700     1.6350 H     1 <1>   0.1500 
 25 H       -5.2270    -2.2490     1.9090 H     1 <1>   0.0800 
 26 H       -5.3540    -3.5940     0.7980 H     1 <1>   0.0800 
 27 H       -6.5940    -2.1460    -0.6940 H     1 <1>   0.4500 
 28 H       -5.7690    -0.0040    -0.0680 H     1 <1>   0.0800 
 29 H       -6.5590    -0.1570     1.4770 H     1 <1>   0.0800 
 30 H       -7.8150    -2.3700     1.9910 H     1 <1>   0.0800 
 31 H       -7.8130    -3.6180     0.7750 H     1 <1>   0.0800 
 32 H       -7.9000     0.0620    -1.2220 H     1 <1>   0.0800 
 33 H       -7.9330     1.2260     0.0670 H     1 <1>   0.0800 
 34 H       -9.9570    -2.3500     0.8940 H     1 <1>   0.0800 
 35 H       -9.2250    -2.2810    -0.6800 H     1 <1>   0.0800 
 36 H      -10.8320     0.8650     1.8790 H     1 <1>   0.1500 
 37 H      -11.9470     0.3500    -2.7820 H     1 <1>   0.1500 
 38 H      -12.9590     1.8810     1.0580 H     1 <1>   0.1500 
 39 H      -13.4890     1.5870    -1.3560 H     1 <1>   0.1500 
@<TRIPOS>BOND
  1   1   2  1   
  2   2   3  ar  
  3   2   4  ar  
  4   3   5  ar  
  5   3  21  1   
  6   4   6  ar  
  7   4  22  1   
  8   5   7  ar  
  9   5  23  1   
 10   6   7  ar  
 11   6  24  1   
 12   7   8  1   
 13   8   9  1   
 14   8  25  1   
 15   8  26  1   
 16   9  10  1   
 17   9  11  1   
 18   9  27  1   
 19  10  12  1   
 20  10  28  1   
 21  10  29  1   
 22  11  13  1   
 23  11  30  1   
 24  11  31  1   
 25  12  14  1   
 26  12  32  1   
 27  12  33  1   
 28  13  14  1   
 29  13  34  1   
 30  13  35  1   
 31  14  15  1   
 32  15  16  ar  
 33  15  17  ar  
 34  16  18  ar  
 35  17  19  ar  
 36  17  36  1   
 37  18  20  ar  
 38  18  37  1   
 39  19  20  ar  
 40  19  38  1   
 41  20  39  1   
@<TRIPOS>SUBSTRUCTURE
  1 ****  10 GROUP 4 **** **** 0

# MOE 2024.06 (io_trps.svl 2023.06)
