@<TRIPOS>MOLECULE
NONAME
44 46 1 0 0 
SMALL
USER_CHARGES


@<TRIPOS>ATOM
  1 N       -0.0400    -0.1370     0.1640 N.ar  1 <1>  -0.6200 
  2 C        0.0300    -1.3690     0.6710 C.ar  1 <1>   0.5970 
  3 C       -1.0420     0.6140     0.5610 C.ar  1 <1>   0.4100 
  4 N       -0.8490    -1.9120     1.5250 N.ar  1 <1>  -0.6200 
  5 N        1.1240    -2.1960     0.2300 N.pl3 1 <1>   0.5930 
  6 N       -1.1350     1.8880     0.0480 N.pl3 1 <1>  -0.8380 
  7 C       -1.9740     0.1380     1.4590 C.ar  1 <1>  -0.1500 
  8 C       -1.8370    -1.1410     1.9170 C.ar  1 <1>   0.1660 
  9 N        2.2390    -2.4980     0.9750 N.2   1 <1>  -0.7070 
 10 C        1.2360    -2.8040    -0.9930 C.2   1 <1>  -0.3320 
 11 C       -2.3560     2.3080    -0.6830 C.3   1 <1>   0.2090 
 12 C        0.0980     2.6270    -0.3330 C.3   1 <1>   0.2090 
 13 C       -2.8160    -1.7400     2.9030 C.3   1 <1>  -0.0970 
 14 C        2.9740    -3.2510     0.2280 C.2   1 <1>   0.1080 
 15 C        2.4020    -3.4800    -1.0170 C.2   1 <1>  -0.1500 
 16 C        0.1880    -2.6930    -2.0900 C.3   1 <1>  -0.0600 
 17 C       -2.5930     3.8040    -0.4610 C.3   1 <1>  -0.1600 
 18 C       -0.1210     4.1290    -0.1220 C.3   1 <1>  -0.1600 
 19 C        4.3020    -3.8020     0.6920 C.3   1 <1>  -0.0590 
 20 C       -1.3660     4.6360    -0.8680 C.3   1 <1>  -0.0800 
 21 C       -1.6000     6.1230    -0.5830 C.3   1 <1>  -0.2400 
 22 H       -2.7710     0.7770     1.7820 H     1 <1>   0.1500 
 23 H       -3.2090     1.7470    -0.3440 H     1 <1>   0.0800 
 24 H       -2.2190     2.1110    -1.7330 H     1 <1>   0.0800 
 25 H        0.3270     2.4240    -1.3650 H     1 <1>   0.0800 
 26 H        0.9260     2.2950     0.2700 H     1 <1>   0.0800 
 27 H       -2.2920    -2.0340     3.7940 H     1 <1>   0.0800 
 28 H       -3.2770    -2.6100     2.4710 H     1 <1>   0.0800 
 29 H       -3.5810    -1.0330     3.1660 H     1 <1>   0.0800 
 30 H        2.8250    -4.0740    -1.8070 H     1 <1>   0.1500 
 31 H        0.0650    -1.6650    -2.3810 H     1 <1>   0.0800 
 32 H       -0.7560    -3.0720    -1.7410 H     1 <1>   0.0800 
 33 H        0.4890    -3.2610    -2.9530 H     1 <1>   0.0800 
 34 H       -2.8180     3.9640     0.5780 H     1 <1>   0.0800 
 35 H       -3.4480     4.1120    -1.0360 H     1 <1>   0.0800 
 36 H        0.7500     4.6590    -0.4610 H     1 <1>   0.0800 
 37 H       -0.2260     4.3090     0.9340 H     1 <1>   0.0800 
 38 H        4.9630    -2.9890     0.9280 H     1 <1>   0.0800 
 39 H        4.7460    -4.4090    -0.0730 H     1 <1>   0.0800 
 40 H        4.1520    -4.3960     1.5740 H     1 <1>   0.0800 
 41 H       -1.2030     4.5120    -1.9260 H     1 <1>   0.0800 
 42 H       -1.7660     6.2860     0.4680 H     1 <1>   0.0800 
 43 H       -2.4590     6.4770    -1.1250 H     1 <1>   0.0800 
 44 H       -0.7460     6.7010    -0.8890 H     1 <1>   0.0800 
@<TRIPOS>BOND
  1   1   2  ar  
  2   1   3  ar  
  3   2   4  ar  
  4   2   5  1   
  5   3   6  1   
  6   3   7  ar  
  7   4   8  ar  
  8   5   9  1   
  9   5  10  1   
 10   6  11  1   
 11   6  12  1   
 12   7   8  ar  
 13   7  22  1   
 14   8  13  1   
 15   9  14  2   
 16  10  15  2   
 17  10  16  1   
 18  11  17  1   
 19  11  23  1   
 20  11  24  1   
 21  12  18  1   
 22  12  25  1   
 23  12  26  1   
 24  13  27  1   
 25  13  28  1   
 26  13  29  1   
 27  14  15  1   
 28  14  19  1   
 29  15  30  1   
 30  16  31  1   
 31  16  32  1   
 32  16  33  1   
 33  17  20  1   
 34  17  34  1   
 35  17  35  1   
 36  18  20  1   
 37  18  36  1   
 38  18  37  1   
 39  19  38  1   
 40  19  39  1   
 41  19  40  1   
 42  20  21  1   
 43  20  41  1   
 44  21  42  1   
 45  21  43  1   
 46  21  44  1   
@<TRIPOS>SUBSTRUCTURE
  1 ****   1 GROUP 4 **** **** 0

# MOE 2024.06 (io_trps.svl 2023.06)
