@<TRIPOS>MOLECULE
NONAME
34 35 1 0 0 
SMALL
USER_CHARGES


@<TRIPOS>ATOM
  1 S        0.1300     0.6640     0.1560 S.3   1 <1>  -0.0800 
  2 C        1.2510    -0.6580     0.1200 C.2   1 <1>   0.4420 
  3 C       -1.1450    -0.5060     0.0870 C.2   1 <1>   0.1980 
  4 N        0.6590    -1.7940     0.0640 N.2   1 <1>  -0.3380 
  5 N        2.5930    -0.3490     0.1550 N.am  1 <1>  -0.4940 
  6 N       -0.7050    -1.7000     0.0450 N.2   1 <1>  -0.3380 
  7 C       -2.5680     0.0350     0.0850 C.3   1 <1>   0.3000 
  8 C        3.6960    -1.1400     0.1410 C.2   1 <1>   0.5690 
  9 O       -3.5070    -1.0180     0.0280 O.3   1 <1>  -0.3630 
 10 O        4.7830    -0.6290     0.1800 O.2   1 <1>  -0.5700 
 11 C        3.5990    -2.6470     0.0770 C.3   1 <1>  -0.1790 
 12 C       -4.8460    -0.7820     0.0160 C.ar  1 <1>   0.0820 
 13 C       -5.6900    -1.8870    -0.0400 C.ar  1 <1>  -0.1430 
 14 C       -5.3930     0.4990     0.0570 C.ar  1 <1>  -0.1500 
 15 C       -7.0630    -1.7000    -0.0540 C.ar  1 <1>  -0.1500 
 16 C       -5.1170    -3.2960    -0.0870 C.3   1 <1>  -0.0970 
 17 C       -6.7660     0.6700     0.0420 C.ar  1 <1>  -0.1500 
 18 C       -7.6080    -0.4270    -0.0120 C.ar  1 <1>  -0.1430 
 19 C       -9.1140    -0.2420    -0.0290 C.3   1 <1>  -0.0970 
 20 H        2.8300     0.6390     0.2000 H     1 <1>   0.3700 
 21 H       -2.7170     0.6610    -0.7750 H     1 <1>   0.0800 
 22 H       -2.7460     0.5910     0.9870 H     1 <1>   0.0800 
 23 H        3.0610    -3.0160     0.9310 H     1 <1>   0.0800 
 24 H        4.5840    -3.0760     0.0760 H     1 <1>   0.0800 
 25 H        3.0900    -2.9440    -0.8210 H     1 <1>   0.0800 
 26 H       -4.7780     1.3760     0.1000 H     1 <1>   0.1500 
 27 H       -7.7170    -2.5530    -0.1000 H     1 <1>   0.1500 
 28 H       -4.4930    -3.4060    -0.9560 H     1 <1>   0.0800 
 29 H       -5.8970    -4.0340    -0.1280 H     1 <1>   0.0800 
 30 H       -4.5200    -3.4750     0.7890 H     1 <1>   0.0800 
 31 H       -7.1780     1.6630     0.0730 H     1 <1>   0.1500 
 32 H       -9.5960    -1.0430     0.5020 H     1 <1>   0.0800 
 33 H       -9.4670    -0.2350    -1.0450 H     1 <1>   0.0800 
 34 H       -9.3870     0.6870     0.4390 H     1 <1>   0.0800 
@<TRIPOS>BOND
  1   1   2  1   
  2   1   3  1   
  3   2   4  2   
  4   2   5  1   
  5   3   6  2   
  6   3   7  1   
  7   4   6  1   
  8   5   8  am  
  9   5  20  1   
 10   7   9  1   
 11   7  21  1   
 12   7  22  1   
 13   8  10  2   
 14   8  11  1   
 15   9  12  1   
 16  11  23  1   
 17  11  24  1   
 18  11  25  1   
 19  12  13  ar  
 20  12  14  ar  
 21  13  15  ar  
 22  13  16  1   
 23  14  17  ar  
 24  14  26  1   
 25  15  18  ar  
 26  15  27  1   
 27  16  28  1   
 28  16  29  1   
 29  16  30  1   
 30  17  18  ar  
 31  17  31  1   
 32  18  19  1   
 33  19  32  1   
 34  19  33  1   
 35  19  34  1   
@<TRIPOS>SUBSTRUCTURE
  1 ****   7 GROUP 4 **** **** 0

# MOE 2024.06 (io_trps.svl 2023.06)
