@<TRIPOS>MOLECULE
NONAME
42 43 1 0 0 
SMALL
USER_CHARGES


@<TRIPOS>ATOM
  1 O       -7.0760     2.1330    -0.1970 O.3   1 <1>  -0.3630 
  2 C       -8.3930     2.0000     0.0880 C.ar  1 <1>   0.0830 
  3 C       -6.1660     2.6830     0.7330 C.3   1 <1>   0.2640 
  4 C       -9.1720     1.3720    -0.8690 C.ar  1 <1>  -0.1500 
  5 C       -8.9870     2.4490     1.2640 C.ar  1 <1>  -0.1500 
  6 C       -4.7640     2.6280     0.1470 C.ar  1 <1>  -0.1440 
  7 C      -10.5270     1.1910    -0.6680 C.ar  1 <1>  -0.1500 
  8 C      -10.3450     2.2700     1.4660 C.ar  1 <1>  -0.1500 
  9 C       -4.1830     1.4050    -0.1520 C.ar  1 <1>  -0.1500 
 10 C       -4.0490     3.7940    -0.0860 C.ar  1 <1>  -0.1500 
 11 C      -11.1230     1.6450     0.5010 C.ar  1 <1>  -0.1430 
 12 C       -2.9020     1.3460    -0.6740 C.ar  1 <1>  -0.1500 
 13 C       -2.7680     3.7370    -0.6080 C.ar  1 <1>  -0.1500 
 14 C      -12.6090     1.4690     0.7110 C.3   1 <1>   0.4860 
 15 C       -2.1930     2.5130    -0.9010 C.ar  1 <1>  -0.1500 
 16 N      -13.2540     2.6440     0.0910 N.4   1 <1>  -0.9060 
 17 C      -14.7410     2.6130     0.1910 C.3   1 <1>   0.3430 
 18 C      -15.3810     3.8410    -0.4630 C.3   1 <1>   0.1200 
 19 O      -16.7510     3.7030    -0.3160 O.3   1 <1>  -0.5600 
 20 C      -17.4990     4.7460    -0.8600 C.3   1 <1>   0.0400 
 21 H       -6.2100     2.1010     1.6370 H     1 <1>   0.0800 
 22 H       -6.4590     3.6980     0.9320 H     1 <1>   0.0800 
 23 H       -8.7000     1.0240    -1.7730 H     1 <1>   0.1500 
 24 H       -8.4090     2.9360     2.0270 H     1 <1>   0.1500 
 25 H      -11.0990     0.6910    -1.4320 H     1 <1>   0.1500 
 26 H      -10.7790     2.6220     2.3880 H     1 <1>   0.1500 
 27 H       -4.7310     0.4950     0.0170 H     1 <1>   0.1500 
 28 H       -4.4840     4.7530     0.1350 H     1 <1>   0.1500 
 29 H       -2.4590     0.3930    -0.9050 H     1 <1>   0.1500 
 30 H       -2.2190     4.6450    -0.7870 H     1 <1>   0.1500 
 31 H      -12.8320     1.4220     1.7650 H     1 <1>   0.0800 
 32 H      -12.9430     0.5580     0.2400 H     1 <1>   0.0800 
 33 H       -1.1980     2.4680    -1.3070 H     1 <1>   0.1500 
 34 H      -12.9500     2.6820    -0.8890 H     1 <1>   0.4500 
 35 H      -12.8700     3.4840     0.5420 H     1 <1>   0.4500 
 36 H      -15.0380     2.5850     1.2270 H     1 <1>   0.0800 
 37 H      -15.1220     1.7300    -0.2970 H     1 <1>   0.0800 
 38 H      -15.1550     3.8820    -1.5150 H     1 <1>   0.0800 
 39 H      -15.0750     4.7470     0.0310 H     1 <1>   0.0800 
 40 H      -18.5410     4.5370    -0.6890 H     1 <1>   0.0800 
 41 H      -17.3150     4.8070    -1.9190 H     1 <1>   0.0800 
 42 H      -17.2350     5.6710    -0.3750 H     1 <1>   0.0800 
@<TRIPOS>BOND
  1   1   2  1   
  2   1   3  1   
  3   2   4  ar  
  4   2   5  ar  
  5   3   6  1   
  6   3  21  1   
  7   3  22  1   
  8   4   7  ar  
  9   4  23  1   
 10   5   8  ar  
 11   5  24  1   
 12   6   9  ar  
 13   6  10  ar  
 14   7  11  ar  
 15   7  25  1   
 16   8  11  ar  
 17   8  26  1   
 18   9  12  ar  
 19   9  27  1   
 20  10  13  ar  
 21  10  28  1   
 22  11  14  1   
 23  12  15  ar  
 24  12  29  1   
 25  13  15  ar  
 26  13  30  1   
 27  14  16  1   
 28  14  31  1   
 29  14  32  1   
 30  15  33  1   
 31  16  17  1   
 32  16  34  1   
 33  16  35  1   
 34  17  18  1   
 35  17  36  1   
 36  17  37  1   
 37  18  19  1   
 38  18  38  1   
 39  18  39  1   
 40  19  20  1   
 41  20  40  1   
 42  20  41  1   
 43  20  42  1   
@<TRIPOS>SUBSTRUCTURE
  1 ****   2 GROUP 4 **** **** 0

# MOE 2024.06 (io_trps.svl 2023.06)
