@<TRIPOS>MOLECULE
NONAME
51 53 1 0 0 
SMALL
USER_CHARGES


@<TRIPOS>ATOM
  1 S       -0.7060    -0.6240     1.2990 S.3   1 <1>  -0.0800 
  2 C        0.7530    -0.0960     0.4880 C.2   1 <1>   0.1040 
  3 C       -1.6750     0.5770     0.4700 C.2   1 <1>  -0.1400 
  4 N        1.9560    -0.7190     0.7790 N.am  1 <1>  -0.4940 
  5 C        0.4850     0.9250    -0.3870 C.2   1 <1>  -0.0860 
  6 C       -0.9150     1.3170    -0.3570 C.2   1 <1>  -0.1810 
  7 C       -3.1540     0.5900     0.8020 C.3   1 <1>   0.0200 
  8 C        2.3170    -1.8250     1.5000 C.2   1 <1>   0.5690 
  9 C        1.4980     1.4880    -1.2430 C.2   1 <1>   0.8060 
 10 C       -1.4980     2.4660    -1.1790 C.3   1 <1>   0.0210 
 11 C       -3.6300     1.9710     1.2610 C.3   1 <1>  -0.1600 
 12 O        1.5520    -2.5620     2.0700 O.2   1 <1>  -0.5700 
 13 C        3.8170    -2.1180     1.5520 C.3   1 <1>   0.1710 
 14 O        1.2900     1.9380    -2.3530 O.2   1 <1>  -0.5700 
 15 O        2.7630     1.4810    -0.7920 O.3   1 <1>  -0.4300 
 16 C       -2.2670     3.4840    -0.3240 C.3   1 <1>  -0.1600 
 17 C       -3.6570     3.0220     0.1410 C.3   1 <1>  -0.1600 
 18 N        4.5840    -1.5200     0.4150 N.3   1 <1>  -0.8100 
 19 C        3.8500     2.0170    -1.5170 C.3   1 <1>   0.1200 
 20 C        6.0310    -1.5120     0.7030 C.3   1 <1>   0.1100 
 21 C        4.3470    -2.2700    -0.8400 C.3   1 <1>   0.1100 
 22 C        3.9310     3.5180    -1.2460 C.3   1 <1>  -0.2400 
 23 C        6.8280    -0.9550    -0.4910 C.3   1 <1>   0.1200 
 24 C        5.1870    -1.6960    -1.9940 C.3   1 <1>   0.1200 
 25 O        6.5450    -1.6790    -1.6540 O.3   1 <1>  -0.5600 
 26 H        2.7890    -0.2960     0.3490 H     1 <1>   0.3700 
 27 H       -3.3410    -0.1170     1.5920 H     1 <1>   0.0800 
 28 H       -3.7140     0.2700    -0.0590 H     1 <1>   0.0800 
 29 H       -2.1360     2.0670    -1.9470 H     1 <1>   0.0800 
 30 H       -0.7190     3.0150    -1.6700 H     1 <1>   0.0800 
 31 H       -3.0070     2.3130     2.0700 H     1 <1>   0.0800 
 32 H       -4.6300     1.8660     1.6460 H     1 <1>   0.0800 
 33 H        3.9640    -3.1840     1.5780 H     1 <1>   0.0800 
 34 H        4.1830    -1.7130     2.4780 H     1 <1>   0.0800 
 35 H       -2.4020     4.3700    -0.9190 H     1 <1>   0.0800 
 36 H       -1.6680     3.7620     0.5270 H     1 <1>   0.0800 
 37 H       -4.1790     3.8850     0.5170 H     1 <1>   0.0800 
 38 H       -4.2210     2.6520    -0.6980 H     1 <1>   0.0800 
 39 H        3.7220     1.8090    -2.5660 H     1 <1>   0.0800 
 40 H        4.7430     1.5280    -1.1690 H     1 <1>   0.0800 
 41 H        6.3730    -2.5120     0.9140 H     1 <1>   0.0800 
 42 H        6.2230    -0.9000     1.5680 H     1 <1>   0.0800 
 43 H        3.3060    -2.2210    -1.1090 H     1 <1>   0.0800 
 44 H        4.6070    -3.3070    -0.7070 H     1 <1>   0.0800 
 45 H        3.0470     4.0130    -1.6080 H     1 <1>   0.0800 
 46 H        4.7820     3.9310    -1.7570 H     1 <1>   0.0800 
 47 H        4.0420     3.7020    -0.1920 H     1 <1>   0.0800 
 48 H        7.8840    -1.0370    -0.3040 H     1 <1>   0.0800 
 49 H        6.5840     0.0780    -0.6590 H     1 <1>   0.0800 
 50 H        4.8770    -0.6930    -2.2270 H     1 <1>   0.0800 
 51 H        5.0780    -2.3050    -2.8740 H     1 <1>   0.0800 
@<TRIPOS>BOND
  1   1   2  1   
  2   1   3  1   
  3   2   4  1   
  4   2   5  2   
  5   3   6  2   
  6   3   7  1   
  7   4   8  am  
  8   4  26  1   
  9   5   6  1   
 10   5   9  1   
 11   6  10  1   
 12   7  11  1   
 13   7  27  1   
 14   7  28  1   
 15   8  12  2   
 16   8  13  1   
 17   9  14  2   
 18   9  15  1   
 19  10  16  1   
 20  10  29  1   
 21  10  30  1   
 22  11  17  1   
 23  11  31  1   
 24  11  32  1   
 25  13  18  1   
 26  13  33  1   
 27  13  34  1   
 28  15  19  1   
 29  16  17  1   
 30  16  35  1   
 31  16  36  1   
 32  17  37  1   
 33  17  38  1   
 34  18  20  1   
 35  18  21  1   
 36  19  22  1   
 37  19  39  1   
 38  19  40  1   
 39  20  23  1   
 40  20  41  1   
 41  20  42  1   
 42  21  24  1   
 43  21  43  1   
 44  21  44  1   
 45  22  45  1   
 46  22  46  1   
 47  22  47  1   
 48  23  25  1   
 49  23  48  1   
 50  23  49  1   
 51  24  25  1   
 52  24  50  1   
 53  24  51  1   
@<TRIPOS>SUBSTRUCTURE
  1 ****   2 GROUP 4 **** **** 0

# MOE 2024.06 (io_trps.svl 2023.06)
