@<TRIPOS>MOLECULE
NONAME
52 55 1 0 0 
SMALL
USER_CHARGES


@<TRIPOS>ATOM
  1 F        0.2510     0.1150    -1.9470 F     1 <1>  -0.3400 
  2 C        1.4420    -0.3950    -1.6570 C.3   1 <1>   1.1580 
  3 F        2.0510     0.5220    -0.9160 F     1 <1>  -0.3400 
  4 F        2.0920    -0.4660    -2.8110 F     1 <1>  -0.3400 
  5 C        1.3080    -1.7300    -0.9620 C.2   1 <1>  -0.1690 
  6 N        2.4880    -2.3350    -0.6050 N.pl3 1 <1>   0.6010 
  7 C        0.1470    -2.3790    -0.6660 C.2   1 <1>  -0.1360 
  8 N        3.7530    -1.9190    -0.7770 N.2   1 <1>  -0.7070 
  9 C        2.4410    -3.5530     0.0250 C.2   1 <1>  -0.0260 
 10 C        0.1530    -3.6460     0.0030 C.2   1 <1>   0.3490 
 11 C        4.5210    -2.8730    -0.2570 C.2   1 <1>   0.2030 
 12 N        1.2780    -4.2160     0.3300 N.2   1 <1>  -0.5760 
 13 C        3.7290    -3.9040     0.2470 C.2   1 <1>  -0.1500 
 14 C       -1.1050    -4.2980     0.3010 C.ar  1 <1>   0.0860 
 15 C        5.9850    -2.9110    -0.2140 C.2   1 <1>   0.7160 
 16 C       -1.2590    -5.6700     0.1070 C.ar  1 <1>  -0.1500 
 17 C       -2.2030    -3.5920     0.7870 C.ar  1 <1>  -0.1500 
 18 O        6.5330    -3.9990    -0.1260 O.2   1 <1>  -0.5700 
 19 N        6.7930    -1.7850    -0.2690 N.am  1 <1>  -0.6600 
 20 C       -2.4560    -6.3300     0.3650 C.ar  1 <1>   0.0830 
 21 C       -3.4020    -4.2270     1.0410 C.ar  1 <1>  -0.1500 
 22 C        6.3150    -0.4010     0.0160 C.3   1 <1>   0.1400 
 23 C        8.2290    -1.8740    -0.6630 C.3   1 <1>   0.1400 
 24 O       -2.5600    -7.6780     0.1730 O.3   1 <1>  -0.3630 
 25 C       -3.5560    -5.5870     0.8310 C.ar  1 <1>   0.0830 
 26 C        7.2040     0.2590     1.0770 C.3   1 <1>  -0.1600 
 27 C        9.1130    -1.2380     0.4130 C.3   1 <1>  -0.1600 
 28 C       -1.4240    -8.5080     0.0500 C.3   1 <1>   0.0400 
 29 O       -4.8030    -6.0540     1.1170 O.3   1 <1>  -0.3630 
 30 C        8.6900     0.2080     0.7010 C.3   1 <1>  -0.1600 
 31 C       -5.2250    -7.3740     0.8610 C.3   1 <1>   0.0400 
 32 H       -0.8120    -1.9680    -0.9300 H     1 <1>   0.1500 
 33 H        4.0880    -4.8020     0.7170 H     1 <1>   0.1500 
 34 H       -0.4040    -6.2060    -0.2600 H     1 <1>   0.1500 
 35 H       -2.1240    -2.5370     0.9780 H     1 <1>   0.1500 
 36 H       -4.2420    -3.6660     1.4120 H     1 <1>   0.1500 
 37 H        5.3060    -0.4080     0.3830 H     1 <1>   0.0800 
 38 H        6.3390     0.1720    -0.8960 H     1 <1>   0.0800 
 39 H        8.3630    -1.3560    -1.5960 H     1 <1>   0.0800 
 40 H        8.5250    -2.8990    -0.8100 H     1 <1>   0.0800 
 41 H        7.0520    -0.2470     2.0150 H     1 <1>   0.0800 
 42 H        6.8980     1.2820     1.2070 H     1 <1>   0.0800 
 43 H       10.1380    -1.2570     0.0870 H     1 <1>   0.0800 
 44 H        9.0430    -1.8260     1.3110 H     1 <1>   0.0800 
 45 H       -1.7550    -9.5300     0.0650 H     1 <1>   0.0800 
 46 H       -0.9350    -8.2990    -0.8840 H     1 <1>   0.0800 
 47 H       -0.7650    -8.3250     0.8810 H     1 <1>   0.0800 
 48 H        9.2840     0.6090     1.5040 H     1 <1>   0.0800 
 49 H        8.8580     0.8120    -0.1750 H     1 <1>   0.0800 
 50 H       -4.6580    -8.0460     1.4810 H     1 <1>   0.0800 
 51 H       -6.2690    -7.4450     1.1050 H     1 <1>   0.0800 
 52 H       -5.0750    -7.5920    -0.1810 H     1 <1>   0.0800 
@<TRIPOS>BOND
  1   1   2  1   
  2   2   3  1   
  3   2   4  1   
  4   2   5  1   
  5   5   6  1   
  6   5   7  2   
  7   6   8  1   
  8   6   9  1   
  9   7  10  1   
 10   7  32  1   
 11   8  11  2   
 12   9  12  1   
 13   9  13  2   
 14  10  12  2   
 15  10  14  1   
 16  11  13  1   
 17  11  15  1   
 18  13  33  1   
 19  14  16  ar  
 20  14  17  ar  
 21  15  18  2   
 22  15  19  am  
 23  16  20  ar  
 24  16  34  1   
 25  17  21  ar  
 26  17  35  1   
 27  19  22  1   
 28  19  23  1   
 29  20  24  1   
 30  20  25  ar  
 31  21  25  ar  
 32  21  36  1   
 33  22  26  1   
 34  22  37  1   
 35  22  38  1   
 36  23  27  1   
 37  23  39  1   
 38  23  40  1   
 39  24  28  1   
 40  25  29  1   
 41  26  30  1   
 42  26  41  1   
 43  26  42  1   
 44  27  30  1   
 45  27  43  1   
 46  27  44  1   
 47  28  45  1   
 48  28  46  1   
 49  28  47  1   
 50  29  31  1   
 51  30  48  1   
 52  30  49  1   
 53  31  50  1   
 54  31  51  1   
 55  31  52  1   
@<TRIPOS>SUBSTRUCTURE
  1 ****   9 GROUP 4 **** **** 0

# MOE 2024.06 (io_trps.svl 2023.06)
