@<TRIPOS>MOLECULE
NONAME
44 47 1 0 0 
SMALL
USER_CHARGES


@<TRIPOS>ATOM
  1 S        0.1000     0.3850     0.9800 S.3   1 <1>  -0.0800 
  2 C       -1.5170     1.0070     0.7260 C.2   1 <1>   0.1240 
  3 C        0.6370     1.9500     1.6350 C.2   1 <1>   0.0600 
  4 N       -2.5380     0.2500     0.1960 N.pl3 1 <1>  -0.5840 
  5 C       -1.6130     2.2870     1.1180 C.2   1 <1>  -0.1810 
  6 C        1.9920     2.0610     2.0500 C.1   1 <1>   0.5370 
  7 C       -0.3940     2.8390     1.6170 C.2   1 <1>   0.0830 
  8 C       -3.8030     0.7890     0.1320 C.2   1 <1>  -0.0380 
  9 C       -2.9480     3.0170     0.9910 C.3   1 <1>   0.3830 
 10 N        3.0810     2.1710     2.3760 N.1   1 <1>  -0.5570 
 11 N       -0.3420     4.1760     2.0060 N.pl3 1 <1>  -0.8830 
 12 C       -4.0690     2.0730     0.5120 C.2   1 <1>  -0.1240 
 13 C       -4.9010    -0.1380    -0.3760 C.3   1 <1>  -0.0220 
 14 C       -2.7720     4.1890     0.0210 C.ar  1 <1>  -0.1430 
 15 C       -5.3800     2.6240     0.5100 C.2   1 <1>   0.4950 
 16 C       -6.3090     0.2940     0.0940 C.3   1 <1>   0.0000 
 17 C       -2.2360     3.9850    -1.2430 C.ar  1 <1>  -0.1500 
 18 C       -3.1360     5.4750     0.3980 C.ar  1 <1>  -0.1500 
 19 O       -5.6770     3.6870     1.0020 O.2   1 <1>  -0.5700 
 20 C       -6.4930     1.8100    -0.1260 C.3   1 <1>  -0.0990 
 21 C       -7.3770    -0.4710    -0.7040 C.3   1 <1>  -0.2400 
 22 C       -6.4900    -0.0440     1.5860 C.3   1 <1>  -0.2400 
 23 C       -2.0540     5.0480    -2.1110 C.ar  1 <1>  -0.1500 
 24 C       -2.9550     6.5390    -0.4690 C.ar  1 <1>  -0.1500 
 25 C       -2.4120     6.3270    -1.7230 C.ar  1 <1>  -0.1500 
 26 H       -2.3440    -0.7200    -0.0750 H     1 <1>   0.4000 
 27 H       -3.2100     3.3870     1.9660 H     1 <1>   0.0800 
 28 H       -0.9610     4.7890     1.4550 H     1 <1>   0.4000 
 29 H        0.5940     4.5920     2.0690 H     1 <1>   0.4000 
 30 H       -4.7120    -1.1430    -0.0440 H     1 <1>   0.0800 
 31 H       -4.8590    -0.1370    -1.4510 H     1 <1>   0.0800 
 32 H       -1.9550     2.9930    -1.5560 H     1 <1>   0.1500 
 33 H       -3.5750     5.6530     1.3660 H     1 <1>   0.1500 
 34 H       -6.4980     2.0330    -1.1780 H     1 <1>   0.0800 
 35 H       -7.4360     2.1290     0.2800 H     1 <1>   0.0800 
 36 H       -7.2950    -0.2580    -1.7550 H     1 <1>   0.0800 
 37 H       -8.3640    -0.1900    -0.3800 H     1 <1>   0.0800 
 38 H       -7.2670    -1.5320    -0.5650 H     1 <1>   0.0800 
 39 H       -5.7460     0.4420     2.1930 H     1 <1>   0.0800 
 40 H       -6.4060    -1.1050     1.7470 H     1 <1>   0.0800 
 41 H       -7.4590     0.2710     1.9310 H     1 <1>   0.0800 
 42 H       -1.6360     4.8790    -3.0880 H     1 <1>   0.1500 
 43 H       -3.2440     7.5310    -0.1680 H     1 <1>   0.1500 
 44 H       -2.2720     7.1540    -2.3970 H     1 <1>   0.1500 
@<TRIPOS>BOND
  1   1   2  1   
  2   1   3  1   
  3   2   4  1   
  4   2   5  2   
  5   3   6  1   
  6   3   7  2   
  7   4   8  1   
  8   4  26  1   
  9   5   7  1   
 10   5   9  1   
 11   6  10  3   
 12   7  11  1   
 13   8  12  2   
 14   8  13  1   
 15   9  12  1   
 16   9  14  1   
 17   9  27  1   
 18  11  28  1   
 19  11  29  1   
 20  12  15  1   
 21  13  16  1   
 22  13  30  1   
 23  13  31  1   
 24  14  17  ar  
 25  14  18  ar  
 26  15  19  2   
 27  15  20  1   
 28  16  20  1   
 29  16  21  1   
 30  16  22  1   
 31  17  23  ar  
 32  17  32  1   
 33  18  24  ar  
 34  18  33  1   
 35  20  34  1   
 36  20  35  1   
 37  21  36  1   
 38  21  37  1   
 39  21  38  1   
 40  22  39  1   
 41  22  40  1   
 42  22  41  1   
 43  23  25  ar  
 44  23  42  1   
 45  24  25  ar  
 46  24  43  1   
 47  25  44  1   
@<TRIPOS>SUBSTRUCTURE
  1 ****   9 GROUP 4 **** **** 0

# MOE 2024.06 (io_trps.svl 2023.06)
