@<TRIPOS>MOLECULE
NONAME
30 31 1 0 0 
SMALL
USER_CHARGES


@<TRIPOS>ATOM
  1 N       -3.1980     1.4380    -0.5450 N.ar  1 <1>  -0.2100 
  2 C       -4.2800     2.3000    -0.3710 C.ar  1 <1>   0.3610 
  3 C       -1.9570     1.8270    -0.2400 C.ar  1 <1>   0.2110 
  4 C       -3.3910     0.0550    -1.0780 C.3   1 <1>   0.3280 
  5 C       -4.0360     3.5970     0.1450 C.ar  1 <1>   0.0000 
  6 C       -5.6150     1.9600    -0.6800 C.ar  1 <1>  -0.1500 
  7 C       -1.6910     3.0950     0.2640 C.ar  1 <1>  -0.1500 
  8 C       -3.8800    -0.9180     0.0100 C.3   1 <1>  -0.1600 
  9 C       -5.1170     4.4810     0.3310 C.ar  1 <1>  -0.1500 
 10 C       -2.7190     3.9760     0.4580 C.ar  1 <1>  -0.1500 
 11 C       -6.6450     2.8410    -0.4890 C.ar  1 <1>  -0.1500 
 12 C       -2.9110    -1.0680     1.1930 C.3   1 <1>  -0.2400 
 13 C       -6.3980     4.1170     0.0230 C.ar  1 <1>  -0.1430 
 14 C       -7.5660     5.0680     0.2230 C.3   1 <1>  -0.0970 
 15 H       -1.1300     1.1490    -0.3800 H     1 <1>   0.1500 
 16 H       -2.4570    -0.3100    -1.4720 H     1 <1>   0.0800 
 17 H       -4.0840     0.0750    -1.9010 H     1 <1>   0.0800 
 18 H       -5.8610     0.9940    -1.0760 H     1 <1>   0.1500 
 19 H       -0.6770     3.3730     0.5000 H     1 <1>   0.1500 
 20 H       -4.0120    -1.8860    -0.4420 H     1 <1>   0.0800 
 21 H       -4.8440    -0.6110     0.3780 H     1 <1>   0.0800 
 22 H       -4.9130     5.4620     0.7260 H     1 <1>   0.1500 
 23 H       -2.5340     4.9640     0.8490 H     1 <1>   0.1500 
 24 H       -7.6590     2.5650    -0.7300 H     1 <1>   0.1500 
 25 H       -1.9360    -1.3770     0.8580 H     1 <1>   0.0800 
 26 H       -3.2820    -1.8190     1.8710 H     1 <1>   0.0800 
 27 H       -2.8200    -0.1480     1.7450 H     1 <1>   0.0800 
 28 H       -7.2340     6.0110     0.6210 H     1 <1>   0.0800 
 29 H       -8.2760     4.6410     0.9080 H     1 <1>   0.0800 
 30 H       -8.0580     5.2510    -0.7160 H     1 <1>   0.0800 
@<TRIPOS>BOND
  1   1   2  ar  
  2   1   3  ar  
  3   1   4  1   
  4   2   5  ar  
  5   2   6  ar  
  6   3   7  ar  
  7   3  15  1   
  8   4   8  1   
  9   4  16  1   
 10   4  17  1   
 11   5   9  ar  
 12   5  10  ar  
 13   6  11  ar  
 14   6  18  1   
 15   7  10  ar  
 16   7  19  1   
 17   8  12  1   
 18   8  20  1   
 19   8  21  1   
 20   9  13  ar  
 21   9  22  1   
 22  10  23  1   
 23  11  13  ar  
 24  11  24  1   
 25  12  25  1   
 26  12  26  1   
 27  12  27  1   
 28  13  14  1   
 29  14  28  1   
 30  14  29  1   
 31  14  30  1   
@<TRIPOS>SUBSTRUCTURE
  1 ****   2 GROUP 4 **** **** 0

# MOE 2024.06 (io_trps.svl 2023.06)
