@<TRIPOS>MOLECULE
NONAME
54 56 1 0 0 
SMALL
USER_CHARGES


@<TRIPOS>ATOM
  1 S        0.3480     1.0580     0.4610 S.o2  1 <1>   1.4470 
  2 O        1.7160     0.8920     0.8910 O.2   1 <1>  -0.6500 
  3 O       -0.4210     2.1010     1.1090 O.2   1 <1>  -0.6500 
  4 N        0.3520     1.4670    -1.1860 N.am  1 <1>  -0.8490 
  5 C       -0.4880    -0.5470     0.6050 C.ar  1 <1>  -0.0090 
  6 C        1.3780     2.4950    -1.5060 C.3   1 <1>   0.2570 
  7 C       -0.9830     1.8960    -1.6930 C.3   1 <1>   0.2570 
  8 C       -1.2930    -0.8360     1.7010 C.ar  1 <1>  -0.1500 
  9 C       -0.3280    -1.5370    -0.3580 C.ar  1 <1>  -0.1500 
 10 C        2.8410     2.0140    -1.5810 C.2   1 <1>   0.5690 
 11 C       -2.0690     0.8080    -1.7580 C.2   1 <1>   0.5690 
 12 C       -1.9290    -2.0590     1.8250 C.ar  1 <1>  -0.1500 
 13 C       -0.9640    -2.7600    -0.2420 C.ar  1 <1>  -0.1500 
 14 O        3.1260     1.2010    -2.4330 O.2   1 <1>  -0.5700 
 15 N        3.8100     2.5420    -0.7640 N.am  1 <1>  -0.6600 
 16 O       -1.9940    -0.0030    -2.6530 O.2   1 <1>  -0.5700 
 17 N       -3.1030     0.7610    -0.8570 N.am  1 <1>  -0.6600 
 18 C       -1.7720    -3.0270     0.8490 C.ar  1 <1>  -0.1430 
 19 C        5.1830     1.9910    -0.7420 C.3   1 <1>   0.1400 
 20 C        3.6100     3.4930     0.3540 C.3   1 <1>   0.1400 
 21 C       -3.4630     1.7590     0.1750 C.3   1 <1>   0.1400 
 22 C       -4.0590    -0.3690    -0.8490 C.3   1 <1>   0.1400 
 23 C       -2.4700    -4.3690     0.9730 C.3   1 <1>  -0.0970 
 24 C        5.7620     2.4360     0.5960 C.3   1 <1>  -0.1600 
 25 C        5.0010     3.7120     0.9370 C.3   1 <1>  -0.1600 
 26 C       -4.8820     1.3880     0.5860 C.3   1 <1>  -0.1600 
 27 C       -4.9610    -0.1180     0.3530 C.3   1 <1>  -0.1600 
 28 H        1.2930     3.3060    -0.8080 H     1 <1>   0.0800 
 29 H        1.1720     2.8960    -2.4810 H     1 <1>   0.0800 
 30 H       -0.8660     2.2370    -2.7060 H     1 <1>   0.0800 
 31 H       -1.3390     2.7320    -1.1210 H     1 <1>   0.0800 
 32 H       -1.4230    -0.0930     2.4690 H     1 <1>   0.1500 
 33 H        0.2960    -1.3430    -1.2160 H     1 <1>   0.1500 
 34 H       -2.5460    -2.2520     2.6850 H     1 <1>   0.1500 
 35 H       -0.8260    -3.5000    -1.0120 H     1 <1>   0.1500 
 36 H        5.7420     2.4120    -1.5590 H     1 <1>   0.0800 
 37 H        5.1670     0.9170    -0.8290 H     1 <1>   0.0800 
 38 H        2.9690     3.0460     1.0950 H     1 <1>   0.0800 
 39 H        3.1830     4.4190     0.0080 H     1 <1>   0.0800 
 40 H       -3.4140     2.7640    -0.2070 H     1 <1>   0.0800 
 41 H       -2.8090     1.6530     1.0220 H     1 <1>   0.0800 
 42 H       -3.5360    -1.3080    -0.7660 H     1 <1>   0.0800 
 43 H       -4.6280    -0.3540    -1.7630 H     1 <1>   0.0800 
 44 H       -2.7340    -4.7440     0.0010 H     1 <1>   0.0800 
 45 H       -3.3690    -4.2750     1.5560 H     1 <1>   0.0800 
 46 H       -1.8160    -5.0750     1.4520 H     1 <1>   0.0800 
 47 H        6.8250     2.5890     0.5410 H     1 <1>   0.0800 
 48 H        5.5530     1.6780     1.3310 H     1 <1>   0.0800 
 49 H        4.9660     3.8970     1.9960 H     1 <1>   0.0800 
 50 H        5.4600     4.5540     0.4470 H     1 <1>   0.0800 
 51 H       -5.5790     1.8950    -0.0590 H     1 <1>   0.0800 
 52 H       -5.0880     1.6570     1.6070 H     1 <1>   0.0800 
 53 H       -4.5600    -0.6420     1.2030 H     1 <1>   0.0800 
 54 H       -5.9660    -0.4560     0.1750 H     1 <1>   0.0800 
@<TRIPOS>BOND
  1   1   2  2   
  2   1   3  2   
  3   1   4  am  
  4   1   5  1   
  5   4   6  1   
  6   4   7  1   
  7   5   8  ar  
  8   5   9  ar  
  9   6  10  1   
 10   6  28  1   
 11   6  29  1   
 12   7  11  1   
 13   7  30  1   
 14   7  31  1   
 15   8  12  ar  
 16   8  32  1   
 17   9  13  ar  
 18   9  33  1   
 19  10  14  2   
 20  10  15  am  
 21  11  16  2   
 22  11  17  am  
 23  12  18  ar  
 24  12  34  1   
 25  13  18  ar  
 26  13  35  1   
 27  15  19  1   
 28  15  20  1   
 29  17  21  1   
 30  17  22  1   
 31  18  23  1   
 32  19  24  1   
 33  19  36  1   
 34  19  37  1   
 35  20  25  1   
 36  20  38  1   
 37  20  39  1   
 38  21  26  1   
 39  21  40  1   
 40  21  41  1   
 41  22  27  1   
 42  22  42  1   
 43  22  43  1   
 44  23  44  1   
 45  23  45  1   
 46  23  46  1   
 47  24  25  1   
 48  24  47  1   
 49  24  48  1   
 50  25  49  1   
 51  25  50  1   
 52  26  27  1   
 53  26  51  1   
 54  26  52  1   
 55  27  53  1   
 56  27  54  1   
@<TRIPOS>SUBSTRUCTURE
  1 ****   1 GROUP 4 **** **** 0

# MOE 2024.06 (io_trps.svl 2023.06)
