@<TRIPOS>MOLECULE
NONAME
35 36 1 0 0 
SMALL
USER_CHARGES


@<TRIPOS>ATOM
  1 O       -0.3150    -0.1370    -0.6080 O.2   1 <1>  -0.5700 
  2 C       -0.6270    -1.2660    -0.3280 C.2   1 <1>   0.5690 
  3 N        0.1830    -2.3550    -0.4080 N.am  1 <1>  -0.4200 
  4 C       -2.0020    -1.6520     0.1790 C.3   1 <1>  -0.0190 
  5 C       -0.4590    -3.4860    -0.0120 C.2   1 <1>   0.5690 
  6 C        1.5880    -2.3140    -0.8650 C.3   1 <1>   0.1400 
  7 C       -1.8860    -3.1820     0.3960 C.3   1 <1>  -0.0190 
  8 C       -3.1210    -1.2120    -0.7810 C.3   1 <1>  -0.0220 
  9 O        0.0220    -4.5900     0.0260 O.2   1 <1>  -0.5700 
 10 C        2.5190    -2.0730     0.3270 C.3   1 <1>  -0.1600 
 11 C       -2.9070    -4.0310    -0.3800 C.3   1 <1>  -0.0220 
 12 C       -4.3780    -2.0440    -0.5650 C.2   1 <1>  -0.2760 
 13 C        3.9860    -2.0250    -0.1130 C.3   1 <1>  -0.2400 
 14 C       -4.2780    -3.3670    -0.3770 C.2   1 <1>  -0.2760 
 15 C       -5.6530    -1.2100    -0.6240 C.3   1 <1>  -0.1020 
 16 C       -5.4150    -4.3630    -0.1760 C.3   1 <1>  -0.1020 
 17 H       -2.1600    -1.1790     1.1300 H     1 <1>   0.0800 
 18 H        1.7030    -1.5230    -1.5870 H     1 <1>   0.0800 
 19 H        1.8340    -3.2480    -1.3420 H     1 <1>   0.0800 
 20 H       -1.9930    -3.3910     1.4450 H     1 <1>   0.0800 
 21 H       -2.8050    -1.3320    -1.8030 H     1 <1>   0.0800 
 22 H       -3.3130    -0.1650    -0.6220 H     1 <1>   0.0800 
 23 H        2.3930    -2.8670     1.0430 H     1 <1>   0.0800 
 24 H        2.2620    -1.1390     0.7970 H     1 <1>   0.0800 
 25 H       -2.9470    -5.0100     0.0670 H     1 <1>   0.0800 
 26 H       -2.5920    -4.1530    -1.4020 H     1 <1>   0.0800 
 27 H        4.2730    -2.9550    -0.5720 H     1 <1>   0.0800 
 28 H        4.6200    -1.8550     0.7400 H     1 <1>   0.0800 
 29 H        4.1420    -1.2260    -0.8180 H     1 <1>   0.0800 
 30 H       -5.7180    -0.7120    -1.5750 H     1 <1>   0.0800 
 31 H       -5.6410    -0.4670     0.1530 H     1 <1>   0.0800 
 32 H       -6.5390    -1.8010    -0.5010 H     1 <1>   0.0800 
 33 H       -5.3860    -5.1090    -0.9500 H     1 <1>   0.0800 
 34 H       -6.3800    -3.8980    -0.2020 H     1 <1>   0.0800 
 35 H       -5.3090    -4.8510     0.7760 H     1 <1>   0.0800 
@<TRIPOS>BOND
  1   1   2  2   
  2   2   3  am  
  3   2   4  1   
  4   3   5  am  
  5   3   6  1   
  6   4   7  1   
  7   4   8  1   
  8   4  17  1   
  9   5   7  1   
 10   5   9  2   
 11   6  10  1   
 12   6  18  1   
 13   6  19  1   
 14   7  11  1   
 15   7  20  1   
 16   8  12  1   
 17   8  21  1   
 18   8  22  1   
 19  10  13  1   
 20  10  23  1   
 21  10  24  1   
 22  11  14  1   
 23  11  25  1   
 24  11  26  1   
 25  12  14  2   
 26  12  15  1   
 27  13  27  1   
 28  13  28  1   
 29  13  29  1   
 30  14  16  1   
 31  15  30  1   
 32  15  31  1   
 33  15  32  1   
 34  16  33  1   
 35  16  34  1   
 36  16  35  1   
@<TRIPOS>SUBSTRUCTURE
  1 ****   7 GROUP 4 **** **** 0

# MOE 2024.06 (io_trps.svl 2023.06)
