@<TRIPOS>MOLECULE
NONAME
37 38 1 0 0 
SMALL
USER_CHARGES


@<TRIPOS>ATOM
  1 CL      -0.7820     0.5120     0.9610 Cl    1 <1>  -0.1770 
  2 C       -1.7870    -0.7250     0.2320 C.ar  1 <1>   0.1770 
  3 C       -1.2780    -2.0030    -0.0070 C.ar  1 <1>   0.1170 
  4 C       -3.0970    -0.4000    -0.0650 C.ar  1 <1>  -0.1500 
  5 N        0.0480    -2.3580     0.2800 N.am  1 <1>  -0.5470 
  6 C       -2.1370    -2.9550    -0.5440 C.ar  1 <1>  -0.1500 
  7 C       -3.9350    -1.3620    -0.6050 C.ar  1 <1>  -0.1500 
  8 C        1.1660    -1.8470    -0.3000 C.2   1 <1>   0.6900 
  9 C       -3.4520    -2.6390    -0.8410 C.ar  1 <1>  -0.1500 
 10 O        1.0980    -1.1350    -1.2810 O.2   1 <1>  -0.5700 
 11 N        2.3600    -2.1750     0.2470 N.am  1 <1>  -0.7300 
 12 C        3.6570    -1.6780    -0.2360 C.3   1 <1>   0.2200 
 13 C        4.6670    -2.8300    -0.2190 C.3   1 <1>  -0.1600 
 14 C        4.1140    -0.5250     0.6620 C.3   1 <1>  -0.1600 
 15 C        6.0700    -2.3440    -0.6130 C.3   1 <1>  -0.1600 
 16 C        5.5170    -0.0380     0.2700 C.3   1 <1>  -0.1600 
 17 C        6.5360    -1.1890     0.2880 C.3   1 <1>  -0.0800 
 18 C        7.9150    -0.6880    -0.1560 C.3   1 <1>  -0.2400 
 19 H       -3.4550     0.5950     0.1280 H     1 <1>   0.1500 
 20 H        0.1940    -3.1960     0.8310 H     1 <1>   0.3700 
 21 H       -1.7700    -3.9470    -0.7410 H     1 <1>   0.1500 
 22 H       -4.9570    -1.1180    -0.8410 H     1 <1>   0.1500 
 23 H       -4.1030    -3.3870    -1.2620 H     1 <1>   0.1500 
 24 H        2.3750    -2.5510     1.1910 H     1 <1>   0.3700 
 25 H        3.5550    -1.3180    -1.2480 H     1 <1>   0.0800 
 26 H        4.3480    -3.5910    -0.9090 H     1 <1>   0.0800 
 27 H        4.7100    -3.2580     0.7670 H     1 <1>   0.0800 
 28 H        4.1300    -0.8490     1.6880 H     1 <1>   0.0800 
 29 H        3.4170     0.2900     0.5710 H     1 <1>   0.0800 
 30 H        6.0530    -2.0160    -1.6390 H     1 <1>   0.0800 
 31 H        6.7640    -3.1640    -0.5410 H     1 <1>   0.0800 
 32 H        5.8280     0.7350     0.9510 H     1 <1>   0.0800 
 33 H        5.4750     0.3910    -0.7170 H     1 <1>   0.0800 
 34 H        6.6200    -1.5550     1.2980 H     1 <1>   0.0800 
 35 H        7.8760    -0.3120    -1.1630 H     1 <1>   0.0800 
 36 H        8.6330    -1.4880    -0.1160 H     1 <1>   0.0800 
 37 H        8.2510     0.1010     0.4930 H     1 <1>   0.0800 
@<TRIPOS>BOND
  1   1   2  1   
  2   2   3  ar  
  3   2   4  ar  
  4   3   5  1   
  5   3   6  ar  
  6   4   7  ar  
  7   4  19  1   
  8   5   8  am  
  9   5  20  1   
 10   6   9  ar  
 11   6  21  1   
 12   7   9  ar  
 13   7  22  1   
 14   8  10  2   
 15   8  11  am  
 16   9  23  1   
 17  11  12  1   
 18  11  24  1   
 19  12  13  1   
 20  12  14  1   
 21  12  25  1   
 22  13  15  1   
 23  13  26  1   
 24  13  27  1   
 25  14  16  1   
 26  14  28  1   
 27  14  29  1   
 28  15  17  1   
 29  15  30  1   
 30  15  31  1   
 31  16  17  1   
 32  16  32  1   
 33  16  33  1   
 34  17  18  1   
 35  17  34  1   
 36  18  35  1   
 37  18  36  1   
 38  18  37  1   
@<TRIPOS>SUBSTRUCTURE
  1 ****   8 GROUP 4 **** **** 0

# MOE 2024.06 (io_trps.svl 2023.06)
