@<TRIPOS>MOLECULE
NONAME
47 49 1 0 0 
SMALL
USER_CHARGES


@<TRIPOS>ATOM
  1 F        1.2270    -0.1210    -1.5210 F     1 <1>  -0.1900 
  2 C        0.7910    -1.3530    -1.4010 C.ar  1 <1>   0.1900 
  3 C        1.6460    -2.3180    -0.8700 C.ar  1 <1>   0.1170 
  4 C       -0.5020    -1.6240    -1.8060 C.ar  1 <1>  -0.1500 
  5 N        2.9500    -1.9590    -0.4730 N.am  1 <1>  -0.5470 
  6 C        1.1320    -3.6070    -0.7470 C.ar  1 <1>  -0.1500 
  7 C       -0.9810    -2.9170    -1.6770 C.ar  1 <1>  -0.1500 
  8 C        4.0700    -2.7110    -0.2620 C.2   1 <1>   0.6900 
  9 C       -0.1620    -3.9020    -1.1480 C.ar  1 <1>  -0.1500 
 10 O        4.1020    -3.8930    -0.5340 O.2   1 <1>  -0.5700 
 11 N        5.1570    -2.0740     0.2690 N.am  1 <1>  -0.5470 
 12 C        6.4640    -2.5370     0.4780 C.ar  1 <1>   0.1170 
 13 C        7.0420    -3.5370    -0.2970 C.ar  1 <1>  -0.1500 
 14 C        7.2270    -1.9730     1.4930 C.ar  1 <1>  -0.1500 
 15 C        8.3340    -3.9680    -0.0610 C.ar  1 <1>  -0.1500 
 16 C        8.5230    -2.3960     1.7330 C.ar  1 <1>  -0.1500 
 17 C        9.0870    -3.3970     0.9550 C.ar  1 <1>  -0.1430 
 18 C       10.5080    -3.8650     1.2100 C.3   1 <1>   0.4860 
 19 N       11.3790    -3.3810     0.1060 N.4   1 <1>  -0.9590 
 20 C       12.7300    -4.0080     0.1610 C.3   1 <1>   0.3430 
 21 C       11.4490    -1.8900     0.0700 C.3   1 <1>   0.3430 
 22 C       13.5390    -3.5980    -1.0710 C.3   1 <1>  -0.1600 
 23 C       12.2380    -1.4400    -1.1610 C.3   1 <1>  -0.1600 
 24 C       13.6350    -2.0720    -1.2060 C.3   1 <1>  -0.1600 
 25 H       -1.1180    -0.8420    -2.2110 H     1 <1>   0.1500 
 26 H        3.1140    -0.9560    -0.5080 H     1 <1>   0.3700 
 27 H        1.7400    -4.3930    -0.3350 H     1 <1>   0.1500 
 28 H       -1.9840    -3.1560    -1.9870 H     1 <1>   0.1500 
 29 H       -0.5330    -4.9080    -1.0460 H     1 <1>   0.1500 
 30 H        4.9380    -1.1870     0.7100 H     1 <1>   0.3700 
 31 H        6.4740    -3.9880    -1.0930 H     1 <1>   0.1500 
 32 H        6.8010    -1.2010     2.1080 H     1 <1>   0.1500 
 33 H        8.7320    -4.7560    -0.6780 H     1 <1>   0.1500 
 34 H        9.0780    -1.9400     2.5350 H     1 <1>   0.1500 
 35 H       10.5200    -4.9420     1.2480 H     1 <1>   0.0800 
 36 H       10.8570    -3.4860     2.1560 H     1 <1>   0.0800 
 37 H       10.9280    -3.6690    -0.7710 H     1 <1>   0.4500 
 38 H       12.6410    -5.0830     0.1880 H     1 <1>   0.0800 
 39 H       13.2460    -3.6870     1.0520 H     1 <1>   0.0800 
 40 H       11.9330    -1.5240     0.9610 H     1 <1>   0.0800 
 41 H       10.4550    -1.4720     0.0270 H     1 <1>   0.0800 
 42 H       13.0860    -4.0160    -1.9530 H     1 <1>   0.0800 
 43 H       14.5310    -4.0100    -0.9940 H     1 <1>   0.0800 
 44 H       12.3330    -0.3680    -1.1450 H     1 <1>   0.0800 
 45 H       11.6880    -1.6990    -2.0500 H     1 <1>   0.0800 
 46 H       14.1230    -1.8170    -2.1320 H     1 <1>   0.0800 
 47 H       14.2340    -1.6770    -0.4020 H     1 <1>   0.0800 
@<TRIPOS>BOND
  1   1   2  1   
  2   2   3  ar  
  3   2   4  ar  
  4   3   5  1   
  5   3   6  ar  
  6   4   7  ar  
  7   4  25  1   
  8   5   8  am  
  9   5  26  1   
 10   6   9  ar  
 11   6  27  1   
 12   7   9  ar  
 13   7  28  1   
 14   8  10  2   
 15   8  11  am  
 16   9  29  1   
 17  11  12  1   
 18  11  30  1   
 19  12  13  ar  
 20  12  14  ar  
 21  13  15  ar  
 22  13  31  1   
 23  14  16  ar  
 24  14  32  1   
 25  15  17  ar  
 26  15  33  1   
 27  16  17  ar  
 28  16  34  1   
 29  17  18  1   
 30  18  19  1   
 31  18  35  1   
 32  18  36  1   
 33  19  20  1   
 34  19  21  1   
 35  19  37  1   
 36  20  22  1   
 37  20  38  1   
 38  20  39  1   
 39  21  23  1   
 40  21  40  1   
 41  21  41  1   
 42  22  24  1   
 43  22  42  1   
 44  22  43  1   
 45  23  24  1   
 46  23  44  1   
 47  23  45  1   
 48  24  46  1   
 49  24  47  1   
@<TRIPOS>SUBSTRUCTURE
  1 ****  12 GROUP 4 **** **** 0

# MOE 2024.06 (io_trps.svl 2023.06)
