@<TRIPOS>MOLECULE
NONAME
37 37 1 0 0 
SMALL
USER_CHARGES


@<TRIPOS>ATOM
  1 CL      -0.1380    -0.4340     0.7260 Cl    1 <1>  -0.1770 
  2 C       -1.5470     0.5800     0.5070 C.ar  1 <1>   0.1770 
  3 C       -2.8060     0.0140     0.3560 C.ar  1 <1>   0.0820 
  4 C       -1.3680     1.9470     0.4860 C.ar  1 <1>  -0.1500 
  5 O       -2.9110    -1.3430     0.3770 O.3   1 <1>  -0.3630 
  6 C       -3.8970     0.8610     0.1900 C.ar  1 <1>  -0.1500 
  7 C       -2.4700     2.7810     0.3160 C.ar  1 <1>   0.0830 
  8 C       -4.1460    -1.9960     0.1790 C.3   1 <1>   0.0400 
  9 C       -3.7510     2.2470     0.1810 C.ar  1 <1>  -0.0090 
 10 O       -2.3490     4.1320     0.2660 O.3   1 <1>  -0.3630 
 11 S       -5.1780     3.3480    -0.0430 S.o2  1 <1>   1.4470 
 12 C       -1.1080     4.7860     0.4160 C.3   1 <1>   0.0400 
 13 O       -5.2910     3.6950    -1.4410 O.2   1 <1>  -0.6500 
 14 O       -5.2230     4.3700     0.9780 O.2   1 <1>  -0.6500 
 15 N       -6.4790     2.3770     0.3980 N.am  1 <1>  -0.9140 
 16 C       -7.7790     2.5890    -0.1830 C.3   1 <1>   0.3560 
 17 C       -7.8430     1.9860    -1.5880 C.3   1 <1>  -0.2400 
 18 C       -8.1930     4.0620    -0.1700 C.3   1 <1>  -0.2400 
 19 C       -8.7370     1.8090     0.7160 C.3   1 <1>  -0.2400 
 20 H       -0.3730     2.3290     0.6000 H     1 <1>   0.1500 
 21 H       -4.8810     0.4510     0.0600 H     1 <1>   0.1500 
 22 H       -3.9730    -3.0560     0.2210 H     1 <1>   0.0800 
 23 H       -4.5330    -1.7270    -0.7880 H     1 <1>   0.0800 
 24 H       -4.8250    -1.7070     0.9620 H     1 <1>   0.0800 
 25 H       -1.2810     5.8450     0.3500 H     1 <1>   0.0800 
 26 H       -0.4500     4.4750    -0.3760 H     1 <1>   0.0800 
 27 H       -0.6980     4.5430     1.3800 H     1 <1>   0.0800 
 28 H       -6.5920     2.6330     1.3750 H     1 <1>   0.4200 
 29 H       -7.2680     2.5560    -2.2910 H     1 <1>   0.0800 
 30 H       -8.8590     1.9810    -1.9390 H     1 <1>   0.0800 
 31 H       -7.4830     0.9730    -1.5790 H     1 <1>   0.0800 
 32 H       -7.6120     4.6400    -0.8660 H     1 <1>   0.0800 
 33 H       -8.0850     4.4840     0.8130 H     1 <1>   0.0800 
 34 H       -9.2220     4.1560    -0.4650 H     1 <1>   0.0800 
 35 H       -8.4660     0.7680     0.7430 H     1 <1>   0.0800 
 36 H       -9.7420     1.8810     0.3410 H     1 <1>   0.0800 
 37 H       -8.7280     2.2010     1.7170 H     1 <1>   0.0800 
@<TRIPOS>BOND
  1   1   2  1   
  2   2   3  ar  
  3   2   4  ar  
  4   3   5  1   
  5   3   6  ar  
  6   4   7  ar  
  7   4  20  1   
  8   5   8  1   
  9   6   9  ar  
 10   6  21  1   
 11   7   9  ar  
 12   7  10  1   
 13   8  22  1   
 14   8  23  1   
 15   8  24  1   
 16   9  11  1   
 17  10  12  1   
 18  11  13  2   
 19  11  14  2   
 20  11  15  am  
 21  12  25  1   
 22  12  26  1   
 23  12  27  1   
 24  15  16  1   
 25  15  28  1   
 26  16  17  1   
 27  16  18  1   
 28  16  19  1   
 29  17  29  1   
 30  17  30  1   
 31  17  31  1   
 32  18  32  1   
 33  18  33  1   
 34  18  34  1   
 35  19  35  1   
 36  19  36  1   
 37  19  37  1   
@<TRIPOS>SUBSTRUCTURE
  1 ****   9 GROUP 4 **** **** 0

# MOE 2024.06 (io_trps.svl 2023.06)
