@<TRIPOS>MOLECULE
NONAME
51 53 1 0 0 
SMALL
USER_CHARGES


@<TRIPOS>ATOM
  1 O       -1.4270     0.7660    -2.2020 O.2   1 <1>  -0.5700 
  2 C       -1.6420     1.3500    -1.1570 C.2   1 <1>   0.7800 
  3 O       -0.6260     1.8590    -0.4590 O.3   1 <1>  -0.4300 
  4 N       -2.9000     1.5100    -0.6480 N.am  1 <1>  -0.6600 
  5 C        0.7000     1.7320    -0.9170 C.3   1 <1>   0.1200 
  6 C       -3.1430     2.2280     0.6410 C.3   1 <1>   0.1400 
  7 C       -4.0940     0.9310    -1.3340 C.3   1 <1>   0.1400 
  8 C        1.6170     2.4100     0.0960 C.3   1 <1>  -0.2400 
  9 C       -4.6160     2.6260     0.8270 C.3   1 <1>   0.1400 
 10 C       -5.1290     0.4110    -0.3230 C.3   1 <1>   0.1400 
 11 N       -5.5410     1.4590     0.6650 N.am  1 <1>  -0.6600 
 12 C       -6.7620     1.4410     1.3060 C.2   1 <1>   0.5440 
 13 O       -7.1220     2.4340     1.9080 O.2   1 <1>  -0.5700 
 14 C       -7.6160     0.2680     1.2790 C.ar  1 <1>   0.0860 
 15 C       -8.9010     0.3190     0.7500 C.ar  1 <1>  -0.1500 
 16 C       -7.1730    -0.9520     1.7820 C.ar  1 <1>  -0.1500 
 17 C       -9.7290    -0.7990     0.6990 C.ar  1 <1>   0.1170 
 18 C       -7.9760    -2.0750     1.7420 C.ar  1 <1>  -0.1500 
 19 N      -11.0150    -0.7550     0.1360 N.am  1 <1>  -0.5470 
 20 C       -9.2500    -2.0100     1.2030 C.ar  1 <1>  -0.1440 
 21 C      -11.9140     0.2700    -0.0540 C.2   1 <1>   0.7150 
 22 C      -10.1020    -3.2750     1.1870 C.3   1 <1>  -0.0970 
 23 O      -11.6650     1.3820     0.3690 O.2   1 <1>  -0.5700 
 24 C      -13.1490    -0.0210    -0.7500 C.2   1 <1>   0.0550 
 25 O      -14.1540     0.8520    -0.7680 O.3   1 <1>  -0.2800 
 26 C      -13.5340    -1.1220    -1.4610 C.2   1 <1>  -0.1500 
 27 C      -15.1510     0.3480    -1.4570 C.2   1 <1>  -0.0100 
 28 C      -14.8310    -0.8800    -1.9160 C.2   1 <1>  -0.1500 
 29 H        0.7730     2.2030    -1.8830 H     1 <1>   0.0800 
 30 H        0.9300     0.6840    -1.0070 H     1 <1>   0.0800 
 31 H       -2.5340     3.1140     0.6790 H     1 <1>   0.0800 
 32 H       -2.8500     1.5900     1.4560 H     1 <1>   0.0800 
 33 H       -3.7930     0.1200    -1.9760 H     1 <1>   0.0800 
 34 H       -4.5470     1.6880    -1.9500 H     1 <1>   0.0800 
 35 H        1.3680     3.4520     0.1810 H     1 <1>   0.0800 
 36 H        2.6380     2.3270    -0.2290 H     1 <1>   0.0800 
 37 H        1.5230     1.9360     1.0560 H     1 <1>   0.0800 
 38 H       -4.8760     3.3810     0.1050 H     1 <1>   0.0800 
 39 H       -4.7410     3.0550     1.8070 H     1 <1>   0.0800 
 40 H       -4.7030    -0.4230     0.2070 H     1 <1>   0.0800 
 41 H       -5.9940     0.0610    -0.8600 H     1 <1>   0.0800 
 42 H       -9.2460     1.2630     0.3700 H     1 <1>   0.1500 
 43 H       -6.1890    -1.0120     2.2130 H     1 <1>   0.1500 
 44 H       -7.5990    -3.0010     2.1410 H     1 <1>   0.1500 
 45 H      -11.3970    -1.6680    -0.0870 H     1 <1>   0.3700 
 46 H      -11.0340    -3.1000     1.6960 H     1 <1>   0.0800 
 47 H       -9.6000    -4.0840     1.6860 H     1 <1>   0.0800 
 48 H      -10.3000    -3.5770     0.1740 H     1 <1>   0.0800 
 49 H      -12.9770    -2.0180    -1.6630 H     1 <1>   0.1500 
 50 H      -16.0510     0.9270    -1.5730 H     1 <1>   0.1500 
 51 H      -15.4290    -1.5490    -2.5100 H     1 <1>   0.1500 
@<TRIPOS>BOND
  1   1   2  2   
  2   2   3  1   
  3   2   4  am  
  4   3   5  1   
  5   4   6  1   
  6   4   7  1   
  7   5   8  1   
  8   5  29  1   
  9   5  30  1   
 10   6   9  1   
 11   6  31  1   
 12   6  32  1   
 13   7  10  1   
 14   7  33  1   
 15   7  34  1   
 16   8  35  1   
 17   8  36  1   
 18   8  37  1   
 19   9  11  1   
 20   9  38  1   
 21   9  39  1   
 22  10  11  1   
 23  10  40  1   
 24  10  41  1   
 25  11  12  am  
 26  12  13  2   
 27  12  14  1   
 28  14  15  ar  
 29  14  16  ar  
 30  15  17  ar  
 31  15  42  1   
 32  16  18  ar  
 33  16  43  1   
 34  17  19  1   
 35  17  20  ar  
 36  18  20  ar  
 37  18  44  1   
 38  19  21  am  
 39  19  45  1   
 40  20  22  1   
 41  21  23  2   
 42  21  24  1   
 43  22  46  1   
 44  22  47  1   
 45  22  48  1   
 46  24  25  1   
 47  24  26  2   
 48  25  27  1   
 49  26  28  1   
 50  26  49  1   
 51  27  28  2   
 52  27  50  1   
 53  28  51  1   
@<TRIPOS>SUBSTRUCTURE
  1 ****  14 GROUP 4 **** **** 0

# MOE 2024.06 (io_trps.svl 2023.06)
