@<TRIPOS>MOLECULE
NONAME
42 45 1 0 0 
SMALL
USER_CHARGES


@<TRIPOS>ATOM
  1 O       -0.6050    -0.7810     1.6140 O.2   1 <1>  -0.5700 
  2 C       -1.1260    -1.2510     0.6360 C.2   1 <1>   0.5690 
  3 N       -0.6690    -2.2770    -0.1680 N.am  1 <1>  -0.2370 
  4 C       -2.4230    -0.7660     0.0490 C.3   1 <1>  -0.0190 
  5 C        0.5510    -2.9610     0.0080 C.ar  1 <1>   0.1170 
  6 C       -1.6860    -2.6780    -1.0160 C.2   1 <1>   0.5690 
  7 C       -3.6100     0.0750     0.5860 C.3   1 <1>   0.0580 
  8 C       -2.9650    -2.0950    -0.4810 C.3   1 <1>  -0.0190 
  9 C        0.5780    -4.2930     0.4280 C.ar  1 <1>   0.0830 
 10 C        1.7540    -2.3130    -0.2350 C.ar  1 <1>  -0.1500 
 11 O       -1.6110    -3.3860    -1.9890 O.2   1 <1>  -0.5700 
 12 C       -4.2300     0.5430    -0.7350 C.2   1 <1>  -0.2880 
 13 C       -4.7020    -0.8210     1.2380 C.3   1 <1>  -0.1600 
 14 C       -4.3830    -1.8680    -1.0720 C.3   1 <1>   0.0580 
 15 O       -0.5880    -4.9410     0.6860 O.3   1 <1>  -0.3630 
 16 C        1.7870    -4.9510     0.6020 C.ar  1 <1>  -0.1500 
 17 C        2.9640    -2.9670    -0.0720 C.ar  1 <1>   0.0830 
 18 C       -4.5600    -0.4360    -1.5910 C.2   1 <1>  -0.2880 
 19 C       -5.2870    -1.8390     0.1950 C.3   1 <1>  -0.1600 
 20 C       -0.8730    -6.0630    -0.1220 C.3   1 <1>   0.0400 
 21 C        2.9790    -4.2940     0.3500 C.ar  1 <1>  -0.1500 
 22 O        4.0850    -2.2480    -0.3410 O.3   1 <1>  -0.3630 
 23 C        5.3680    -2.8000    -0.1500 C.3   1 <1>   0.0400 
 24 H       -2.0480    -0.1960    -0.7890 H     1 <1>   0.0800 
 25 H       -3.2860     0.8930     1.2070 H     1 <1>   0.0800 
 26 H       -3.1210    -2.7540     0.3580 H     1 <1>   0.0800 
 27 H        1.7580    -1.2870    -0.5520 H     1 <1>   0.1500 
 28 H       -4.3270     1.6050    -0.8880 H     1 <1>   0.1500 
 29 H       -5.4970    -0.2010     1.6140 H     1 <1>   0.0800 
 30 H       -4.2750    -1.3480     2.0750 H     1 <1>   0.0800 
 31 H       -4.6830    -2.6270    -1.7740 H     1 <1>   0.0800 
 32 H        1.7980    -5.9700     0.9400 H     1 <1>   0.1500 
 33 H       -4.9700    -0.3230    -2.5810 H     1 <1>   0.1500 
 34 H       -6.2800    -1.5330    -0.0880 H     1 <1>   0.0800 
 35 H       -5.3700    -2.8180     0.6340 H     1 <1>   0.0800 
 36 H       -1.8820    -6.3740     0.0800 H     1 <1>   0.0800 
 37 H       -0.1890    -6.8560     0.1180 H     1 <1>   0.0800 
 38 H       -0.7770    -5.7820    -1.1570 H     1 <1>   0.0800 
 39 H        3.9010    -4.8260     0.4890 H     1 <1>   0.1500 
 40 H        6.0950    -2.0490    -0.4020 H     1 <1>   0.0800 
 41 H        5.4830    -3.6510    -0.7970 H     1 <1>   0.0800 
 42 H        5.4780    -3.0810     0.8830 H     1 <1>   0.0800 
@<TRIPOS>BOND
  1   1   2  2   
  2   2   3  am  
  3   2   4  1   
  4   3   5  1   
  5   3   6  am  
  6   4   7  1   
  7   4   8  1   
  8   4  24  1   
  9   5   9  ar  
 10   5  10  ar  
 11   6   8  1   
 12   6  11  2   
 13   7  12  1   
 14   7  13  1   
 15   7  25  1   
 16   8  14  1   
 17   8  26  1   
 18   9  15  1   
 19   9  16  ar  
 20  10  17  ar  
 21  10  27  1   
 22  12  18  2   
 23  12  28  1   
 24  13  19  1   
 25  13  29  1   
 26  13  30  1   
 27  14  18  1   
 28  14  19  1   
 29  14  31  1   
 30  15  20  1   
 31  16  21  ar  
 32  16  32  1   
 33  17  21  ar  
 34  17  22  1   
 35  18  33  1   
 36  19  34  1   
 37  19  35  1   
 38  20  36  1   
 39  20  37  1   
 40  20  38  1   
 41  21  39  1   
 42  22  23  1   
 43  23  40  1   
 44  23  41  1   
 45  23  42  1   
@<TRIPOS>SUBSTRUCTURE
  1 ****   3 GROUP 4 **** **** 0

# MOE 2024.06 (io_trps.svl 2023.06)
