@<TRIPOS>MOLECULE
NONAME
36 37 1 0 0 
SMALL
USER_CHARGES


@<TRIPOS>ATOM
  1 O        0.0310     0.5850    -0.9790 O.2   1 <1>  -0.5700 
  2 C       -0.0960     1.4950    -0.1960 C.2   1 <1>   0.5690 
  3 N       -1.3060     1.8850     0.3230 N.am  1 <1>  -0.5470 
  4 C        1.1850     2.2460     0.2170 C.3   1 <1>   0.4040 
  5 C       -2.6090     1.3920     0.0750 C.ar  1 <1>   0.1170 
  6 N        2.4570     1.4890    -0.0950 N.4   1 <1>  -0.9590 
  7 C       -3.7150     2.2390     0.2330 C.ar  1 <1>   0.0730 
  8 C       -2.8320     0.0720    -0.3100 C.ar  1 <1>  -0.1500 
  9 C        2.6100     0.2810     0.7690 C.3   1 <1>   0.3430 
 10 C        3.6640     2.3630    -0.0860 C.3   1 <1>   0.3430 
 11 C       -3.5180     3.5970     0.6400 C.1   1 <1>   0.4840 
 12 C       -4.9960     1.7550    -0.0050 C.ar  1 <1>  -0.1500 
 13 C       -4.1100    -0.3980    -0.5440 C.ar  1 <1>  -0.1500 
 14 C        3.8080    -0.5420     0.2940 C.3   1 <1>  -0.1600 
 15 C        4.8770     1.5690    -0.5740 C.3   1 <1>  -0.1600 
 16 N       -3.2220     4.6430     0.9830 N.1   1 <1>  -0.5570 
 17 C       -5.1960     0.4440    -0.3930 C.ar  1 <1>  -0.1500 
 18 C        5.0940     0.2930     0.2500 C.3   1 <1>  -0.1600 
 19 H       -1.2990     2.7300     0.9030 H     1 <1>   0.3700 
 20 H        1.1420     2.4600     1.2710 H     1 <1>   0.0800 
 21 H        1.1930     3.1830    -0.3140 H     1 <1>   0.0800 
 22 H        2.3280     1.1190    -1.0530 H     1 <1>   0.4500 
 23 H       -2.0100    -0.6090    -0.4300 H     1 <1>   0.1500 
 24 H        1.7200    -0.3270     0.7170 H     1 <1>   0.0800 
 25 H        2.7630     0.5790     1.7940 H     1 <1>   0.0800 
 26 H        3.8500     2.7190     0.9150 H     1 <1>   0.0800 
 27 H        3.5130     3.2150    -0.7300 H     1 <1>   0.0800 
 28 H       -5.8470     2.4050     0.1130 H     1 <1>   0.1500 
 29 H       -4.2620    -1.4210    -0.8450 H     1 <1>   0.1500 
 30 H        3.5970    -0.9440    -0.6820 H     1 <1>   0.0800 
 31 H        3.9480    -1.3760     0.9590 H     1 <1>   0.0800 
 32 H        5.7540     2.1890    -0.5070 H     1 <1>   0.0800 
 33 H        4.7440     1.3160    -1.6120 H     1 <1>   0.0800 
 34 H       -6.1920     0.0760    -0.5760 H     1 <1>   0.1500 
 35 H        5.8930    -0.2880    -0.1800 H     1 <1>   0.0800 
 36 H        5.3870     0.5580     1.2530 H     1 <1>   0.0800 
@<TRIPOS>BOND
  1   1   2  2   
  2   2   3  am  
  3   2   4  1   
  4   3   5  1   
  5   3  19  1   
  6   4   6  1   
  7   4  20  1   
  8   4  21  1   
  9   5   7  ar  
 10   5   8  ar  
 11   6   9  1   
 12   6  10  1   
 13   6  22  1   
 14   7  11  1   
 15   7  12  ar  
 16   8  13  ar  
 17   8  23  1   
 18   9  14  1   
 19   9  24  1   
 20   9  25  1   
 21  10  15  1   
 22  10  26  1   
 23  10  27  1   
 24  11  16  3   
 25  12  17  ar  
 26  12  28  1   
 27  13  17  ar  
 28  13  29  1   
 29  14  18  1   
 30  14  30  1   
 31  14  31  1   
 32  15  18  1   
 33  15  32  1   
 34  15  33  1   
 35  17  34  1   
 36  18  35  1   
 37  18  36  1   
@<TRIPOS>SUBSTRUCTURE
  1 ****   2 GROUP 4 **** **** 0

# MOE 2024.06 (io_trps.svl 2023.06)
