@<TRIPOS>MOLECULE
NONAME
33 34 1 0 0 
SMALL
USER_CHARGES


@<TRIPOS>ATOM
  1 O        0.4300    -0.6850     0.9870 O.3   1 <1>  -0.5600 
  2 C        0.4860    -1.9510     0.3940 C.3   1 <1>   0.1200 
  3 C        1.6380    -0.2400     1.5360 C.3   1 <1>   0.1200 
  4 C        1.5070    -1.9560    -0.7600 C.3   1 <1>   0.3430 
  5 C        2.7220    -0.1550     0.4450 C.3   1 <1>   0.3430 
  6 N        2.8430    -1.4520    -0.3040 N.4   1 <1>  -0.9590 
  7 C        3.8380    -1.3790    -1.4010 C.3   1 <1>   0.4860 
  8 C        5.2010    -1.1220    -0.7900 C.ar  1 <1>  -0.1440 
  9 C        5.7460    -2.0310     0.1150 C.ar  1 <1>   0.0820 
 10 C        5.9080     0.0210    -1.1320 C.ar  1 <1>  -0.1500 
 11 O        5.0100    -3.1340     0.4230 O.3   1 <1>  -0.3630 
 12 C        6.9980    -1.7790     0.6700 C.ar  1 <1>  -0.1500 
 13 C        7.1500     0.2640    -0.5750 C.ar  1 <1>  -0.1500 
 14 C        5.5850    -4.2160     1.1290 C.3   1 <1>   0.0400 
 15 C        7.6940    -0.6350     0.3240 C.ar  1 <1>  -0.1500 
 16 H       -0.4970    -2.1800     0.0200 H     1 <1>   0.0800 
 17 H        0.7450    -2.6760     1.1460 H     1 <1>   0.0800 
 18 H        1.9320    -0.9120     2.3230 H     1 <1>   0.0800 
 19 H        1.4650     0.7330     1.9630 H     1 <1>   0.0800 
 20 H        1.1290    -1.3270    -1.5490 H     1 <1>   0.0800 
 21 H        1.6030    -2.9570    -1.1480 H     1 <1>   0.0800 
 22 H        3.6660     0.0980     0.8990 H     1 <1>   0.0800 
 23 H        2.4580     0.6370    -0.2360 H     1 <1>   0.0800 
 24 H        3.2560    -2.1410     0.3470 H     1 <1>   0.4500 
 25 H        3.5820    -0.5930    -2.0910 H     1 <1>   0.0800 
 26 H        3.8680    -2.3150    -1.9350 H     1 <1>   0.0800 
 27 H        5.5080     0.7340    -1.8340 H     1 <1>   0.1500 
 28 H        7.4500    -2.4540     1.3720 H     1 <1>   0.1500 
 29 H        7.7000     1.1520    -0.8420 H     1 <1>   0.1500 
 30 H        5.8300    -3.8980     2.1270 H     1 <1>   0.0800 
 31 H        6.4670    -4.5470     0.6080 H     1 <1>   0.0800 
 32 H        4.8680    -5.0160     1.1690 H     1 <1>   0.0800 
 33 H        8.6630    -0.4430     0.7550 H     1 <1>   0.1500 
@<TRIPOS>BOND
  1   1   2  1   
  2   1   3  1   
  3   2   4  1   
  4   2  16  1   
  5   2  17  1   
  6   3   5  1   
  7   3  18  1   
  8   3  19  1   
  9   4   6  1   
 10   4  20  1   
 11   4  21  1   
 12   5   6  1   
 13   5  22  1   
 14   5  23  1   
 15   6   7  1   
 16   6  24  1   
 17   7   8  1   
 18   7  25  1   
 19   7  26  1   
 20   8   9  ar  
 21   8  10  ar  
 22   9  11  1   
 23   9  12  ar  
 24  10  13  ar  
 25  10  27  1   
 26  11  14  1   
 27  12  15  ar  
 28  12  28  1   
 29  13  15  ar  
 30  13  29  1   
 31  14  30  1   
 32  14  31  1   
 33  14  32  1   
 34  15  33  1   
@<TRIPOS>SUBSTRUCTURE
  1 ****   8 GROUP 4 **** **** 0

# MOE 2024.06 (io_trps.svl 2023.06)
