@<TRIPOS>MOLECULE
NONAME
46 47 1 0 0 
SMALL
USER_CHARGES


@<TRIPOS>ATOM
  1 F        0.0960    -0.3470    -0.2750 F     1 <1>  -0.1900 
  2 C       -0.7420     0.6350    -0.0570 C.ar  1 <1>   0.1900 
  3 C       -0.3030     1.9500     0.1470 C.ar  1 <1>   0.0830 
  4 C       -2.0840     0.3000    -0.0390 C.ar  1 <1>  -0.1500 
  5 O        0.9860     2.3970     0.1510 O.3   1 <1>  -0.3630 
  6 C       -1.2680     2.9200     0.3700 C.ar  1 <1>  -0.1500 
  7 C       -3.0260     1.2890     0.1860 C.ar  1 <1>  -0.1500 
  8 C        2.0910     1.5520    -0.0620 C.3   1 <1>   0.1200 
  9 C       -2.6160     2.5970     0.3900 C.ar  1 <1>  -0.1500 
 10 C        3.3570     2.4070     0.0140 C.3   1 <1>  -0.1600 
 11 C        4.6190     1.5640    -0.2120 C.3   1 <1>  -0.1600 
 12 C        5.8800     2.4360    -0.1260 C.3   1 <1>  -0.1600 
 13 C        7.1410     1.5990    -0.3470 C.3   1 <1>   0.3430 
 14 N        8.3550     2.4260    -0.1280 N.4   1 <1>  -0.9590 
 15 C        8.5770     3.5160    -1.1390 C.3   1 <1>   0.3430 
 16 C        9.6040     1.6100     0.0340 C.3   1 <1>   0.3430 
 17 C        9.8070     4.3820    -0.7690 C.3   1 <1>   0.1100 
 18 C       10.8100     2.5050     0.4180 C.3   1 <1>   0.1100 
 19 N       10.4440     3.9380     0.4930 N.3   1 <1>  -0.8100 
 20 C       11.6070     4.7710     0.8290 C.3   1 <1>   0.0300 
 21 H       -2.3840    -0.7200    -0.2000 H     1 <1>   0.1500 
 22 H       -0.9570     3.9370     0.5290 H     1 <1>   0.1500 
 23 H       -4.0750     1.0430     0.2020 H     1 <1>   0.1500 
 24 H        1.9910     1.1010    -1.0340 H     1 <1>   0.0800 
 25 H        2.0930     0.7960     0.7050 H     1 <1>   0.0800 
 26 H       -3.3480     3.3670     0.5650 H     1 <1>   0.1500 
 27 H        3.4000     2.8720     0.9840 H     1 <1>   0.0800 
 28 H        3.2960     3.1780    -0.7350 H     1 <1>   0.0800 
 29 H        4.5630     1.0960    -1.1810 H     1 <1>   0.0800 
 30 H        4.6620     0.7870     0.5340 H     1 <1>   0.0800 
 31 H        5.9190     2.8940     0.8470 H     1 <1>   0.0800 
 32 H        5.8130     3.2080    -0.8720 H     1 <1>   0.0800 
 33 H        7.1440     1.1920    -1.3450 H     1 <1>   0.0800 
 34 H        7.1370     0.7780     0.3520 H     1 <1>   0.0800 
 35 H        8.2850     2.9360     0.7670 H     1 <1>   0.4500 
 36 H        7.7110     4.1550    -1.1880 H     1 <1>   0.0800 
 37 H        8.7250     3.0890    -2.1170 H     1 <1>   0.0800 
 38 H        9.8260     1.0900    -0.8820 H     1 <1>   0.0800 
 39 H        9.4620     0.8710     0.8060 H     1 <1>   0.0800 
 40 H        9.4930     5.4070    -0.6670 H     1 <1>   0.0800 
 41 H       10.5220     4.3430    -1.5740 H     1 <1>   0.0800 
 42 H       11.5960     2.3630    -0.3050 H     1 <1>   0.0800 
 43 H       11.1890     2.1860     1.3740 H     1 <1>   0.0800 
 44 H       11.3070     5.8010     0.9230 H     1 <1>   0.0800 
 45 H       12.3650     4.6960     0.0670 H     1 <1>   0.0800 
 46 H       12.0250     4.4570     1.7700 H     1 <1>   0.0800 
@<TRIPOS>BOND
  1   1   2  1   
  2   2   3  ar  
  3   2   4  ar  
  4   3   5  1   
  5   3   6  ar  
  6   4   7  ar  
  7   4  21  1   
  8   5   8  1   
  9   6   9  ar  
 10   6  22  1   
 11   7   9  ar  
 12   7  23  1   
 13   8  10  1   
 14   8  24  1   
 15   8  25  1   
 16   9  26  1   
 17  10  11  1   
 18  10  27  1   
 19  10  28  1   
 20  11  12  1   
 21  11  29  1   
 22  11  30  1   
 23  12  13  1   
 24  12  31  1   
 25  12  32  1   
 26  13  14  1   
 27  13  33  1   
 28  13  34  1   
 29  14  15  1   
 30  14  16  1   
 31  14  35  1   
 32  15  17  1   
 33  15  36  1   
 34  15  37  1   
 35  16  18  1   
 36  16  38  1   
 37  16  39  1   
 38  17  19  1   
 39  17  40  1   
 40  17  41  1   
 41  18  19  1   
 42  18  42  1   
 43  18  43  1   
 44  19  20  1   
 45  20  44  1   
 46  20  45  1   
 47  20  46  1   
@<TRIPOS>SUBSTRUCTURE
  1 ****  11 GROUP 4 **** **** 0

# MOE 2024.06 (io_trps.svl 2023.06)
