@<TRIPOS>MOLECULE
NONAME
40 42 1 0 0 
SMALL
USER_CHARGES


@<TRIPOS>ATOM
  1 S       -0.0410     0.1010    -1.4840 S.3   1 <1>  -0.3610 
  2 C       -1.4640     0.7660    -0.7750 C.cat 1 <1>   0.8400 
  3 C        1.1110     1.2330    -0.5940 C.3   1 <1>   0.0700 
  4 N       -2.6630     0.3230    -1.0680 N.pl3 1 <1>  -0.6450 
  5 N       -1.2170     1.7340     0.0550 N.pl3 1 <1>  -0.8330 
  6 C        0.2050     2.1480     0.2570 C.3   1 <1>   0.3290 
  7 C       -3.8010     0.8510    -0.4700 C.2   1 <1>   0.2030 
  8 C       -2.3190     2.4810     0.7200 C.3   1 <1>   0.6910 
  9 C       -3.6890     1.8860     0.4000 C.2   1 <1>  -0.1240 
 10 C       -5.0810     0.1380    -0.8790 C.3   1 <1>  -0.1020 
 11 C       -2.2410     3.9340     0.2530 C.ar  1 <1>  -0.1440 
 12 C       -4.7180     2.5620     1.1190 C.2   1 <1>   0.7060 
 13 C       -2.1150     4.9560     1.1860 C.ar  1 <1>  -0.1500 
 14 C       -2.2950     4.2580    -1.0980 C.ar  1 <1>  -0.1500 
 15 O       -4.5290     3.0320     2.2210 O.2   1 <1>  -0.5700 
 16 O       -5.9130     2.6900     0.5490 O.3   1 <1>  -0.4300 
 17 C       -2.0340     6.2750     0.7740 C.ar  1 <1>  -0.1500 
 18 C       -2.2140     5.5770    -1.5080 C.ar  1 <1>  -0.1500 
 19 C       -6.9630     3.3910     1.1790 C.3   1 <1>   0.1200 
 20 C       -2.0810     6.5850    -0.5720 C.ar  1 <1>  -0.1500 
 21 C       -8.1810     3.3400     0.2630 C.3   1 <1>  -0.2400 
 22 H        1.6730     1.7850    -1.3270 H     1 <1>   0.0800 
 23 H        1.7670     0.6330     0.0120 H     1 <1>   0.0800 
 24 H       -2.7360    -0.4440    -1.7410 H     1 <1>   0.4500 
 25 H        0.3400     3.1730    -0.0490 H     1 <1>   0.0800 
 26 H        0.4720     2.0630     1.2980 H     1 <1>   0.0800 
 27 H       -2.1560     2.4340     1.7850 H     1 <1>   0.0800 
 28 H       -4.9440    -0.9280    -0.8360 H     1 <1>   0.0800 
 29 H       -5.3500     0.4110    -1.8840 H     1 <1>   0.0800 
 30 H       -5.9040     0.3760    -0.2320 H     1 <1>   0.0800 
 31 H       -2.0870     4.7440     2.2420 H     1 <1>   0.1500 
 32 H       -2.4000     3.4920    -1.8470 H     1 <1>   0.1500 
 33 H       -1.9380     7.0630     1.5020 H     1 <1>   0.1500 
 34 H       -2.2550     5.8230    -2.5560 H     1 <1>   0.1500 
 35 H       -6.6460     4.4090     1.3420 H     1 <1>   0.0800 
 36 H       -7.1720     2.9220     2.1270 H     1 <1>   0.0800 
 37 H       -2.0190     7.6130    -0.8900 H     1 <1>   0.1500 
 38 H       -7.9570     3.8030    -0.6810 H     1 <1>   0.0800 
 39 H       -8.9970     3.8720     0.7180 H     1 <1>   0.0800 
 40 H       -8.4860     2.3210     0.1040 H     1 <1>   0.0800 
@<TRIPOS>BOND
  1   1   2  1   
  2   1   3  1   
  3   2   4  ar  
  4   2   5  ar  
  5   3   6  1   
  6   3  22  1   
  7   3  23  1   
  8   4   7  1   
  9   4  24  1   
 10   5   6  1   
 11   5   8  1   
 12   6  25  1   
 13   6  26  1   
 14   7   9  2   
 15   7  10  1   
 16   8   9  1   
 17   8  11  1   
 18   8  27  1   
 19   9  12  1   
 20  10  28  1   
 21  10  29  1   
 22  10  30  1   
 23  11  13  ar  
 24  11  14  ar  
 25  12  15  2   
 26  12  16  1   
 27  13  17  ar  
 28  13  31  1   
 29  14  18  ar  
 30  14  32  1   
 31  16  19  1   
 32  17  20  ar  
 33  17  33  1   
 34  18  20  ar  
 35  18  34  1   
 36  19  21  1   
 37  19  35  1   
 38  19  36  1   
 39  20  37  1   
 40  21  38  1   
 41  21  39  1   
 42  21  40  1   
@<TRIPOS>SUBSTRUCTURE
  1 ****   8 GROUP 4 **** **** 0

# MOE 2024.06 (io_trps.svl 2023.06)
