@<TRIPOS>MOLECULE
NONAME
53 56 1 0 0 
SMALL
USER_CHARGES


@<TRIPOS>ATOM
  1 O        0.3660     0.1920     1.8180 O.2   1 <1>  -0.5700 
  2 C        1.1630     1.0960     1.7190 C.2   1 <1>   0.5690 
  3 N        2.4110     1.0060     1.1630 N.am  1 <1>  -0.2370 
  4 C        0.9120     2.4970     2.3020 C.3   1 <1>   0.2510 
  5 C        2.9090    -0.0970     0.4320 C.ar  1 <1>   0.1170 
  6 C        3.1110     2.1500     1.4350 C.2   1 <1>   0.5690 
  7 N       -0.0340     3.3680     1.5430 N.3   1 <1>  -0.8100 
  8 C        2.3110     3.1250     2.2590 C.3   1 <1>  -0.0990 
  9 C        2.7820    -1.3960     0.9140 C.ar  1 <1>  -0.1500 
 10 C        3.5410     0.0910    -0.7930 C.ar  1 <1>  -0.1500 
 11 O        4.2420     2.3960     1.1030 O.2   1 <1>  -0.5700 
 12 C       -0.4040     4.5760     2.3310 C.3   1 <1>   0.1100 
 13 C       -1.2800     2.6480     1.1520 C.3   1 <1>   0.1100 
 14 C        3.2690    -2.4720     0.1940 C.ar  1 <1>  -0.1500 
 15 C        4.0290    -0.9840    -1.5140 C.ar  1 <1>  -0.1500 
 16 C       -1.3860     5.4960     1.5830 C.3   1 <1>   0.2090 
 17 C       -2.2900     3.5490     0.4140 C.3   1 <1>   0.2090 
 18 C        3.8970    -2.2730    -1.0240 C.ar  1 <1>  -0.1430 
 19 N       -2.6240     4.7510     1.2280 N.pl3 1 <1>  -0.8380 
 20 C        4.4310    -3.4530    -1.8150 C.3   1 <1>  -0.0970 
 21 C       -3.6870     5.5310     0.7500 C.ar  1 <1>   0.1000 
 22 C       -3.6650     6.2590    -0.4540 C.ar  1 <1>   0.0830 
 23 C       -4.8320     5.5740     1.5320 C.ar  1 <1>  -0.1500 
 24 O       -2.5340     6.2130    -1.2260 O.3   1 <1>  -0.3630 
 25 C       -4.7820     7.0020    -0.8290 C.ar  1 <1>  -0.1500 
 26 C       -5.9380     6.3130     1.1520 C.ar  1 <1>  -0.1500 
 27 C       -2.4570     6.8780    -2.4660 C.3   1 <1>   0.0400 
 28 C       -5.9120     7.0280    -0.0300 C.ar  1 <1>  -0.1500 
 29 H        0.5710     2.3860     3.3170 H     1 <1>   0.0800 
 30 H        2.7360     3.1830     3.2430 H     1 <1>   0.0800 
 31 H        2.3280     4.0900     1.7880 H     1 <1>   0.0800 
 32 H        2.2950    -1.5710     1.8560 H     1 <1>   0.1500 
 33 H        3.6570     1.0860    -1.1850 H     1 <1>   0.1500 
 34 H        0.4760     5.1470     2.5640 H     1 <1>   0.0800 
 35 H       -0.8650     4.2790     3.2580 H     1 <1>   0.0800 
 36 H       -1.7580     2.2410     2.0260 H     1 <1>   0.0800 
 37 H       -1.0380     1.8330     0.4940 H     1 <1>   0.0800 
 38 H        3.1550    -3.4670     0.5870 H     1 <1>   0.1500 
 39 H        4.5150    -0.8120    -2.4580 H     1 <1>   0.1500 
 40 H       -0.9130     5.8700     0.6910 H     1 <1>   0.0800 
 41 H       -1.6450     6.3340     2.2050 H     1 <1>   0.0800 
 42 H       -3.1900     2.9940     0.2170 H     1 <1>   0.0800 
 43 H       -1.8690     3.8520    -0.5280 H     1 <1>   0.0800 
 44 H        3.6710    -3.8160    -2.4830 H     1 <1>   0.0800 
 45 H        4.7220    -4.2490    -1.1540 H     1 <1>   0.0800 
 46 H        5.2910    -3.1610    -2.3910 H     1 <1>   0.0800 
 47 H       -4.8450     5.0150     2.4490 H     1 <1>   0.1500 
 48 H       -4.7980     7.5700    -1.7390 H     1 <1>   0.1500 
 49 H       -6.8130     6.3300     1.7770 H     1 <1>   0.1500 
 50 H       -1.4890     6.6800    -2.8910 H     1 <1>   0.0800 
 51 H       -2.5750     7.9350    -2.3040 H     1 <1>   0.0800 
 52 H       -3.2250     6.4970    -3.1150 H     1 <1>   0.0800 
 53 H       -6.7700     7.6050    -0.3280 H     1 <1>   0.1500 
@<TRIPOS>BOND
  1   1   2  2   
  2   2   3  am  
  3   2   4  1   
  4   3   5  1   
  5   3   6  am  
  6   4   7  1   
  7   4   8  1   
  8   4  29  1   
  9   5   9  ar  
 10   5  10  ar  
 11   6   8  1   
 12   6  11  2   
 13   7  12  1   
 14   7  13  1   
 15   8  30  1   
 16   8  31  1   
 17   9  14  ar  
 18   9  32  1   
 19  10  15  ar  
 20  10  33  1   
 21  12  16  1   
 22  12  34  1   
 23  12  35  1   
 24  13  17  1   
 25  13  36  1   
 26  13  37  1   
 27  14  18  ar  
 28  14  38  1   
 29  15  18  ar  
 30  15  39  1   
 31  16  19  1   
 32  16  40  1   
 33  16  41  1   
 34  17  19  1   
 35  17  42  1   
 36  17  43  1   
 37  18  20  1   
 38  19  21  1   
 39  20  44  1   
 40  20  45  1   
 41  20  46  1   
 42  21  22  ar  
 43  21  23  ar  
 44  22  24  1   
 45  22  25  ar  
 46  23  26  ar  
 47  23  47  1   
 48  24  27  1   
 49  25  28  ar  
 50  25  48  1   
 51  26  28  ar  
 52  26  49  1   
 53  27  50  1   
 54  27  51  1   
 55  27  52  1   
 56  28  53  1   
@<TRIPOS>SUBSTRUCTURE
  1 ****   7 GROUP 4 **** **** 0

# MOE 2024.06 (io_trps.svl 2023.06)
