@<TRIPOS>MOLECULE
NONAME
50 51 1 0 0 
SMALL
USER_CHARGES


@<TRIPOS>ATOM
  1 F       -1.3830     0.6190    -1.0940 F     1 <1>  -0.3400 
  2 C       -1.9610     1.0570     0.0160 C.3   1 <1>   1.1640 
  3 F       -0.9890     1.4980     0.8040 F     1 <1>  -0.3400 
  4 F       -2.4740    -0.0110     0.6160 F     1 <1>  -0.3400 
  5 C       -3.0420     2.1130    -0.2800 C.ar  1 <1>  -0.1440 
  6 C       -4.2850     1.7270    -0.7750 C.ar  1 <1>  -0.1500 
  7 C       -2.8030     3.4680    -0.0720 C.ar  1 <1>  -0.1500 
  8 C       -5.2710     2.6650    -1.0500 C.ar  1 <1>  -0.1440 
  9 C       -3.7780     4.4080    -0.3500 C.ar  1 <1>  -0.1500 
 10 C       -5.0080     4.0100    -0.8400 C.ar  1 <1>  -0.1500 
 11 C       -6.6280     2.2320    -1.5780 C.3   1 <1>   0.4870 
 12 N       -7.4340     1.6620    -0.4620 N.4   1 <1>  -0.9590 
 13 C       -8.7170     1.0880    -0.9870 C.3   1 <1>   0.3430 
 14 C       -7.6760     2.6740     0.6100 C.3   1 <1>   0.3430 
 15 C       -9.5550     0.4410     0.1240 C.3   1 <1>  -0.0190 
 16 C       -8.4560     2.0350     1.7610 C.3   1 <1>  -0.1600 
 17 C      -10.8800    -0.0120    -0.4820 C.2   1 <1>   0.5690 
 18 C       -9.7840     1.4340     1.2810 C.3   1 <1>  -0.1600 
 19 O      -11.2830     0.6290    -1.4250 O.2   1 <1>  -0.5700 
 20 N      -11.5740    -1.0880     0.0130 N.am  1 <1>  -0.6600 
 21 C      -11.1640    -1.9200     1.1770 C.3   1 <1>   0.1400 
 22 C      -12.8750    -1.4820    -0.5990 C.3   1 <1>   0.1400 
 23 C      -10.3860    -3.1390     0.6860 C.3   1 <1>  -0.2400 
 24 C      -14.0160    -0.7780     0.1310 C.3   1 <1>  -0.2400 
 25 H       -4.4740     0.6800    -0.9510 H     1 <1>   0.1500 
 26 H       -1.8510     3.8060     0.3060 H     1 <1>   0.1500 
 27 H       -3.5730     5.4540    -0.1880 H     1 <1>   0.1500 
 28 H       -5.7470     4.7630    -1.0560 H     1 <1>   0.1500 
 29 H       -6.4880     1.4920    -2.3500 H     1 <1>   0.0800 
 30 H       -7.1390     3.0780    -2.0100 H     1 <1>   0.0800 
 31 H       -6.8770     0.9090    -0.0440 H     1 <1>   0.4500 
 32 H       -8.5140     0.3510    -1.7470 H     1 <1>   0.0800 
 33 H       -9.3010     1.8740    -1.4410 H     1 <1>   0.0800 
 34 H       -8.2410     3.5020     0.2110 H     1 <1>   0.0800 
 35 H       -6.7370     3.0530     0.9830 H     1 <1>   0.0800 
 36 H       -9.0190    -0.4180     0.4780 H     1 <1>   0.0800 
 37 H       -8.6570     2.7870     2.5040 H     1 <1>   0.0800 
 38 H       -7.8510     1.2770     2.2280 H     1 <1>   0.0800 
 39 H      -10.2800     0.9410     2.1000 H     1 <1>   0.0800 
 40 H      -10.4340     2.2260     0.9440 H     1 <1>   0.0800 
 41 H      -12.0390    -2.2440     1.7170 H     1 <1>   0.0800 
 42 H      -10.5620    -1.3490     1.8600 H     1 <1>   0.0800 
 43 H      -13.0010    -2.5490    -0.5420 H     1 <1>   0.0800 
 44 H      -12.8900    -1.2060    -1.6410 H     1 <1>   0.0800 
 45 H      -11.0050    -3.7500     0.0550 H     1 <1>   0.0800 
 46 H      -10.0760    -3.7320     1.5270 H     1 <1>   0.0800 
 47 H       -9.5110    -2.8400     0.1390 H     1 <1>   0.0800 
 48 H      -14.0430    -1.0620     1.1660 H     1 <1>   0.0800 
 49 H      -14.9530    -1.0510    -0.3210 H     1 <1>   0.0800 
 50 H      -13.9020     0.2880     0.0520 H     1 <1>   0.0800 
@<TRIPOS>BOND
  1   1   2  1   
  2   2   3  1   
  3   2   4  1   
  4   2   5  1   
  5   5   6  ar  
  6   5   7  ar  
  7   6   8  ar  
  8   6  25  1   
  9   7   9  ar  
 10   7  26  1   
 11   8  10  ar  
 12   8  11  1   
 13   9  10  ar  
 14   9  27  1   
 15  10  28  1   
 16  11  12  1   
 17  11  29  1   
 18  11  30  1   
 19  12  13  1   
 20  12  14  1   
 21  12  31  1   
 22  13  15  1   
 23  13  32  1   
 24  13  33  1   
 25  14  16  1   
 26  14  34  1   
 27  14  35  1   
 28  15  17  1   
 29  15  18  1   
 30  15  36  1   
 31  16  18  1   
 32  16  37  1   
 33  16  38  1   
 34  17  19  2   
 35  17  20  am  
 36  18  39  1   
 37  18  40  1   
 38  20  21  1   
 39  20  22  1   
 40  21  23  1   
 41  21  41  1   
 42  21  42  1   
 43  22  24  1   
 44  22  43  1   
 45  22  44  1   
 46  23  45  1   
 47  23  46  1   
 48  23  47  1   
 49  24  48  1   
 50  24  49  1   
 51  24  50  1   
@<TRIPOS>SUBSTRUCTURE
  1 ****  12 GROUP 4 **** **** 0

# MOE 2024.06 (io_trps.svl 2023.06)
