@<TRIPOS>MOLECULE
NONAME
30 31 1 0 0 
SMALL
USER_CHARGES


@<TRIPOS>ATOM
  1 BR       0.1650    -0.0740    -1.8000 Br    1 <1>  -0.1110 
  2 C        1.8690    -0.7490    -1.2110 C.ar  1 <1>   0.1110 
  3 C        2.8060    -1.1070    -2.1600 C.ar  1 <1>  -0.1500 
  4 C        2.1080    -0.8570     0.1470 C.ar  1 <1>  -0.1500 
  5 C        4.0230    -1.5870    -1.7140 C.ar  1 <1>   0.1770 
  6 C        3.3330    -1.3430     0.5780 C.ar  1 <1>  -0.1500 
  7 CL       5.2250    -2.0300    -2.9070 Cl    1 <1>  -0.1770 
  8 C        4.3050    -1.7120    -0.3540 C.ar  1 <1>   0.0830 
  9 O        5.5240    -2.1920     0.0060 O.3   1 <1>  -0.3630 
 10 C        6.0520    -1.9540     1.3040 C.3   1 <1>   0.1810 
 11 C        7.5060    -2.4070     1.4300 C.2   1 <1>   0.5690 
 12 O        7.7880    -3.1060     2.3760 O.2   1 <1>  -0.5700 
 13 N        8.4650    -2.0040     0.5370 N.am  1 <1>  -0.6600 
 14 C        8.2420    -1.2060    -0.6890 C.3   1 <1>   0.1400 
 15 C        9.8780    -2.4240     0.6470 C.3   1 <1>   0.1400 
 16 C        9.6420    -0.8790    -1.1960 C.3   1 <1>  -0.1600 
 17 C       10.5100    -2.0250    -0.6830 C.3   1 <1>  -0.1600 
 18 H        2.5990    -1.0150    -3.2100 H     1 <1>   0.1500 
 19 H        1.3480    -0.5690     0.8520 H     1 <1>   0.1500 
 20 H        3.5080    -1.4330     1.6340 H     1 <1>   0.1500 
 21 H        5.4570    -2.4990     2.0130 H     1 <1>   0.0800 
 22 H        5.9930    -0.9010     1.5090 H     1 <1>   0.0800 
 23 H        7.6760    -0.3140    -0.4810 H     1 <1>   0.0800 
 24 H        7.7190    -1.8100    -1.4110 H     1 <1>   0.0800 
 25 H        9.9500    -3.4840     0.8210 H     1 <1>   0.0800 
 26 H       10.3380    -1.8920     1.4620 H     1 <1>   0.0800 
 27 H        9.9650     0.0490    -0.7600 H     1 <1>   0.0800 
 28 H        9.6670    -0.7920    -2.2680 H     1 <1>   0.0800 
 29 H       10.4510    -2.8600    -1.3590 H     1 <1>   0.0800 
 30 H       11.5410    -1.7400    -0.5660 H     1 <1>   0.0800 
@<TRIPOS>BOND
  1   1   2  1   
  2   2   3  ar  
  3   2   4  ar  
  4   3   5  ar  
  5   3  18  1   
  6   4   6  ar  
  7   4  19  1   
  8   5   7  1   
  9   5   8  ar  
 10   6   8  ar  
 11   6  20  1   
 12   8   9  1   
 13   9  10  1   
 14  10  11  1   
 15  10  21  1   
 16  10  22  1   
 17  11  12  2   
 18  11  13  am  
 19  13  14  1   
 20  13  15  1   
 21  14  16  1   
 22  14  23  1   
 23  14  24  1   
 24  15  17  1   
 25  15  25  1   
 26  15  26  1   
 27  16  17  1   
 28  16  27  1   
 29  16  28  1   
 30  17  29  1   
 31  17  30  1   
@<TRIPOS>SUBSTRUCTURE
  1 ****   9 GROUP 4 **** **** 0

# MOE 2024.06 (io_trps.svl 2023.06)
