@<TRIPOS>MOLECULE
NONAME
32 33 1 0 0 
SMALL
USER_CHARGES


@<TRIPOS>ATOM
  1 CL      -0.3730     0.3400     1.0140 Cl    1 <1>  -0.1400 
  2 C       -1.4050    -1.0360     0.7030 C.2   1 <1>   0.1400 
  3 C       -0.8630    -2.2620     0.4480 C.2   1 <1>  -0.1500 
  4 C       -2.7900    -0.8380     0.7290 C.2   1 <1>  -0.1500 
  5 C       -1.6620    -3.4080     0.1780 C.2   1 <1>   0.0140 
  6 C       -3.6010    -1.9100     0.5090 C.2   1 <1>  -0.1360 
  7 C       -1.0530    -4.6520    -0.1170 C.2   1 <1>   0.1000 
  8 C       -3.0850    -3.2060     0.2510 C.2   1 <1>   0.5410 
  9 N       -1.7920    -5.7800    -0.0200 N.pl3 1 <1>  -0.8690 
 10 C        0.3000    -4.7350    -0.5380 C.2   1 <1>  -0.1500 
 11 O       -3.9230    -4.1120     0.1040 O.2   1 <1>  -0.5700 
 12 C       -1.3590    -7.1830    -0.2050 C.3   1 <1>   0.2090 
 13 C        1.2750    -5.6980    -0.4360 C.2   1 <1>  -0.0380 
 14 C       -0.1560    -7.5160     0.6850 C.3   1 <1>   0.2090 
 15 N        1.1080    -6.9290     0.1650 N.pl3 1 <1>  -0.8690 
 16 C        2.6840    -5.3660    -1.0210 C.3   1 <1>   0.8180 
 17 F        3.3760    -6.4980    -1.1980 F     1 <1>  -0.3400 
 18 F        2.5460    -4.8970    -2.2640 F     1 <1>  -0.3400 
 19 C        3.5480    -4.3760    -0.1970 C.3   1 <1>   0.6000 
 20 F        3.7470    -4.7940     1.0540 F     1 <1>  -0.3400 
 21 F        2.9630    -3.1830    -0.0610 F     1 <1>  -0.3400 
 22 H        0.2080    -2.3510     0.4700 H     1 <1>   0.1500 
 23 H       -3.1740     0.1470     0.9270 H     1 <1>   0.1500 
 24 H       -4.6720    -1.8150     0.5250 H     1 <1>   0.1500 
 25 H       -2.8090    -5.6620     0.1440 H     1 <1>   0.4000 
 26 H        0.6060    -3.8400    -1.0460 H     1 <1>   0.1500 
 27 H       -1.1100    -7.3560    -1.2380 H     1 <1>   0.0800 
 28 H       -2.1770    -7.8290     0.0600 H     1 <1>   0.0800 
 29 H       -0.0440    -8.5840     0.7200 H     1 <1>   0.0800 
 30 H       -0.3370    -7.1610     1.6850 H     1 <1>   0.0800 
 31 H        1.9090    -7.5760     0.2170 H     1 <1>   0.4000 
 32 H        4.5110    -4.2180    -0.6450 H     1 <1>   0.0800 
@<TRIPOS>BOND
  1   1   2  1   
  2   2   3  2   
  3   2   4  1   
  4   3   5  1   
  5   3  22  1   
  6   4   6  2   
  7   4  23  1   
  8   5   7  2   
  9   5   8  1   
 10   6   8  1   
 11   6  24  1   
 12   7   9  1   
 13   7  10  1   
 14   8  11  2   
 15   9  12  1   
 16   9  25  1   
 17  10  13  2   
 18  10  26  1   
 19  12  14  1   
 20  12  27  1   
 21  12  28  1   
 22  13  15  1   
 23  13  16  1   
 24  14  15  1   
 25  14  29  1   
 26  14  30  1   
 27  15  31  1   
 28  16  17  1   
 29  16  18  1   
 30  16  19  1   
 31  19  20  1   
 32  19  21  1   
 33  19  32  1   
@<TRIPOS>SUBSTRUCTURE
  1 ****  10 GROUP 4 **** **** 0

# MOE 2024.06 (io_trps.svl 2023.06)
