@<TRIPOS>MOLECULE
NONAME
46 47 1 0 0 
SMALL
USER_CHARGES


@<TRIPOS>ATOM
  1 O        0.5360    -1.0690    -2.5260 O.2   1 <1>  -0.5700 
  2 C        0.8180    -1.6170    -1.4890 C.2   1 <1>   0.5690 
  3 N        1.7440    -1.1350    -0.5990 N.am  1 <1>  -0.5470 
  4 C        0.0910    -2.9220    -1.1320 C.3   1 <1>   0.1710 
  5 C        2.4660     0.0690    -0.5770 C.ar  1 <1>   0.1170 
  6 N       -1.3070    -2.7360    -0.6400 N.3   1 <1>  -0.8100 
  7 C        3.5820     0.1570     0.2480 C.ar  1 <1>  -0.1500 
  8 C        2.1070     1.1890    -1.3220 C.ar  1 <1>  -0.1500 
  9 C       -2.0230    -4.0130    -0.4280 C.3   1 <1>   0.1100 
 10 C       -1.4240    -1.8450     0.5420 C.3   1 <1>   0.1100 
 11 C        4.3250     1.3220     0.3340 C.ar  1 <1>  -0.1430 
 12 C        2.8430     2.3560    -1.2430 C.ar  1 <1>  -0.1500 
 13 C       -3.5090    -3.7870    -0.0470 C.3   1 <1>   0.3430 
 14 C       -2.8990    -1.6210     0.9590 C.3   1 <1>   0.3430 
 15 C        3.9500     2.4240    -0.4150 C.ar  1 <1>  -0.1500 
 16 C        5.5420     1.4030     1.2390 C.3   1 <1>  -0.0970 
 17 N       -3.8390    -2.3240     0.0210 N.4   1 <1>  -0.9590 
 18 C       -5.2810    -2.0640     0.2630 C.3   1 <1>   0.3430 
 19 C       -5.6220    -0.6070    -0.0580 C.3   1 <1>  -0.1600 
 20 C       -7.1300    -0.3580     0.0640 C.3   1 <1>  -0.2400 
 21 H        1.9850    -1.7630     0.1630 H     1 <1>   0.3700 
 22 H        0.6650    -3.4580    -0.3980 H     1 <1>   0.0800 
 23 H        0.0640    -3.5200    -2.0260 H     1 <1>   0.0800 
 24 H        3.8760    -0.6970     0.8290 H     1 <1>   0.1500 
 25 H        1.2510     1.1610    -1.9690 H     1 <1>   0.1500 
 26 H       -1.5390    -4.5830     0.3480 H     1 <1>   0.0800 
 27 H       -1.9850    -4.5980    -1.3320 H     1 <1>   0.0800 
 28 H       -0.9920    -0.8850     0.3130 H     1 <1>   0.0800 
 29 H       -0.8770    -2.2580     1.3730 H     1 <1>   0.0800 
 30 H        2.5540     3.2130    -1.8260 H     1 <1>   0.1500 
 31 H       -3.7070    -4.2550     0.9030 H     1 <1>   0.0800 
 32 H       -4.1320    -4.2680    -0.7840 H     1 <1>   0.0800 
 33 H       -3.0980    -0.5630     0.9580 H     1 <1>   0.0800 
 34 H       -3.0440    -1.9810     1.9640 H     1 <1>   0.0800 
 35 H        4.5160     3.3380    -0.3590 H     1 <1>   0.1500 
 36 H        5.9020     0.4200     1.4840 H     1 <1>   0.0800 
 37 H        5.2850     1.9150     2.1490 H     1 <1>   0.0800 
 38 H        6.3330     1.9410     0.7490 H     1 <1>   0.0800 
 39 H       -3.5660    -1.9680    -0.9110 H     1 <1>   0.4500 
 40 H       -5.5320    -2.2830     1.2880 H     1 <1>   0.0800 
 41 H       -5.8720    -2.7040    -0.3730 H     1 <1>   0.0800 
 42 H       -5.3170    -0.3760    -1.0650 H     1 <1>   0.0800 
 43 H       -5.1150     0.0560     0.6190 H     1 <1>   0.0800 
 44 H       -7.6790    -0.9820    -0.6210 H     1 <1>   0.0800 
 45 H       -7.3530     0.6700    -0.1680 H     1 <1>   0.0800 
 46 H       -7.4730    -0.5580     1.0650 H     1 <1>   0.0800 
@<TRIPOS>BOND
  1   1   2  2   
  2   2   3  am  
  3   2   4  1   
  4   3   5  1   
  5   3  21  1   
  6   4   6  1   
  7   4  22  1   
  8   4  23  1   
  9   5   7  ar  
 10   5   8  ar  
 11   6   9  1   
 12   6  10  1   
 13   7  11  ar  
 14   7  24  1   
 15   8  12  ar  
 16   8  25  1   
 17   9  13  1   
 18   9  26  1   
 19   9  27  1   
 20  10  14  1   
 21  10  28  1   
 22  10  29  1   
 23  11  15  ar  
 24  11  16  1   
 25  12  15  ar  
 26  12  30  1   
 27  13  17  1   
 28  13  31  1   
 29  13  32  1   
 30  14  17  1   
 31  14  33  1   
 32  14  34  1   
 33  15  35  1   
 34  16  36  1   
 35  16  37  1   
 36  16  38  1   
 37  17  18  1   
 38  17  39  1   
 39  18  19  1   
 40  18  40  1   
 41  18  41  1   
 42  19  20  1   
 43  19  42  1   
 44  19  43  1   
 45  20  44  1   
 46  20  45  1   
 47  20  46  1   
@<TRIPOS>SUBSTRUCTURE
  1 ****   2 GROUP 4 **** **** 0

# MOE 2024.06 (io_trps.svl 2023.06)
