@<TRIPOS>MOLECULE
NONAME
43 45 1 0 0 
SMALL
USER_CHARGES


@<TRIPOS>ATOM
  1 O       -0.2840     0.8480     2.1700 O.2   1 <1>  -0.5700 
  2 C       -0.9330     1.1550     1.1890 C.2   1 <1>   0.5440 
  3 N       -1.4630     0.1600     0.3950 N.am  1 <1>  -0.6600 
  4 C       -1.1400     2.5570     0.8790 C.ar  1 <1>   0.0860 
  5 C       -1.2440    -1.2910     0.6740 C.3   1 <1>   0.1400 
  6 C       -2.3500     0.4070    -0.7800 C.3   1 <1>   0.1400 
  7 C       -0.3650     3.2450    -0.0650 C.ar  1 <1>  -0.1440 
  8 C       -2.1540     3.2550     1.5310 C.ar  1 <1>  -0.1500 
  9 C       -2.5830    -2.0460     0.6840 C.3   1 <1>   0.1200 
 10 C       -3.6250    -0.4470    -0.6820 C.3   1 <1>   0.1200 
 11 C       -0.6260     4.5780    -0.3400 C.ar  1 <1>  -0.1500 
 12 C        0.7820     2.5530    -0.7960 C.3   1 <1>  -0.0160 
 13 C       -2.4100     4.5840     1.2540 C.ar  1 <1>  -0.1500 
 14 O       -3.3050    -1.7960    -0.4900 O.3   1 <1>  -0.5600 
 15 C       -1.6450     5.2470     0.3130 C.ar  1 <1>  -0.1500 
 16 C        2.0510     2.5430     0.0610 C.3   1 <1>  -0.0170 
 17 C        3.1580     1.7780    -0.6460 C.ar  1 <1>  -0.1440 
 18 C        3.2830     0.4110    -0.4550 C.ar  1 <1>  -0.1500 
 19 C        4.0440     2.4320    -1.4870 C.ar  1 <1>  -0.1500 
 20 C        4.2830    -0.2960    -1.0980 C.ar  1 <1>  -0.1500 
 21 C        5.0460     1.7260    -2.1310 C.ar  1 <1>  -0.1500 
 22 C        5.1660     0.3610    -1.9380 C.ar  1 <1>  -0.1500 
 23 H       -0.7540    -1.4280     1.6220 H     1 <1>   0.0800 
 24 H       -0.6090    -1.7050    -0.0890 H     1 <1>   0.0800 
 25 H       -1.8220     0.1480    -1.6810 H     1 <1>   0.0800 
 26 H       -2.6270     1.4440    -0.8440 H     1 <1>   0.0800 
 27 H       -2.7450     2.7400     2.2690 H     1 <1>   0.1500 
 28 H       -3.1780    -1.7440     1.5280 H     1 <1>   0.0800 
 29 H       -2.4100    -3.1060     0.7440 H     1 <1>   0.0800 
 30 H       -4.1940    -0.3720    -1.5920 H     1 <1>   0.0800 
 31 H       -4.2390    -0.1190     0.1380 H     1 <1>   0.0800 
 32 H       -0.0320     5.1090    -1.0640 H     1 <1>   0.1500 
 33 H        0.9880     3.0600    -1.7220 H     1 <1>   0.0800 
 34 H        0.5120     1.5420    -1.0460 H     1 <1>   0.0800 
 35 H       -3.2000     5.1030     1.7690 H     1 <1>   0.1500 
 36 H       -1.8390     6.2830     0.0920 H     1 <1>   0.1500 
 37 H        1.8480     2.0810     1.0110 H     1 <1>   0.0800 
 38 H        2.3670     3.5530     0.2540 H     1 <1>   0.0800 
 39 H        2.5990    -0.1060     0.1980 H     1 <1>   0.1500 
 40 H        3.9590     3.4930    -1.6430 H     1 <1>   0.1500 
 41 H        4.3750    -1.3570    -0.9450 H     1 <1>   0.1500 
 42 H        5.7310     2.2390    -2.7820 H     1 <1>   0.1500 
 43 H        5.9440    -0.1880    -2.4380 H     1 <1>   0.1500 
@<TRIPOS>BOND
  1   1   2  2   
  2   2   3  am  
  3   2   4  1   
  4   3   5  1   
  5   3   6  1   
  6   4   7  ar  
  7   4   8  ar  
  8   5   9  1   
  9   5  23  1   
 10   5  24  1   
 11   6  10  1   
 12   6  25  1   
 13   6  26  1   
 14   7  11  ar  
 15   7  12  1   
 16   8  13  ar  
 17   8  27  1   
 18   9  14  1   
 19   9  28  1   
 20   9  29  1   
 21  10  14  1   
 22  10  30  1   
 23  10  31  1   
 24  11  15  ar  
 25  11  32  1   
 26  12  16  1   
 27  12  33  1   
 28  12  34  1   
 29  13  15  ar  
 30  13  35  1   
 31  15  36  1   
 32  16  17  1   
 33  16  37  1   
 34  16  38  1   
 35  17  18  ar  
 36  17  19  ar  
 37  18  20  ar  
 38  18  39  1   
 39  19  21  ar  
 40  19  40  1   
 41  20  22  ar  
 42  20  41  1   
 43  21  22  ar  
 44  21  42  1   
 45  22  43  1   
@<TRIPOS>SUBSTRUCTURE
  1 ****  12 GROUP 4 **** **** 0

# MOE 2024.06 (io_trps.svl 2023.06)
