@<TRIPOS>MOLECULE
NONAME
42 43 1 0 0 
SMALL
USER_CHARGES


@<TRIPOS>ATOM
  1 F       -4.6040    -6.5980    -1.0970 F     1 <1>  -0.1900 
  2 C       -3.6170    -5.9420    -0.5520 C.ar  1 <1>   0.1900 
  3 C       -3.0010    -6.4710     0.5660 C.ar  1 <1>  -0.1500 
  4 C       -3.2230    -4.7430    -1.1120 C.ar  1 <1>  -0.1500 
  5 C       -1.9510    -5.7740     1.1390 C.ar  1 <1>  -0.1500 
  6 C       -2.1720    -4.0520    -0.5330 C.ar  1 <1>  -0.1500 
  7 C       -1.5280    -4.5670     0.5890 C.ar  1 <1>  -0.1430 
  8 C       -0.3640    -3.8140     1.2060 C.3   1 <1>   0.4870 
  9 N        0.8890    -4.5110     0.8520 N.4   1 <1>  -0.9060 
 10 C        1.1490    -4.6000    -0.5980 C.3   1 <1>   0.4860 
 11 C        2.5250    -5.2070    -0.7570 C.ar  1 <1>  -0.1430 
 12 C        3.6370    -4.5480    -0.2420 C.ar  1 <1>   0.0830 
 13 C        2.6730    -6.4190    -1.4130 C.ar  1 <1>  -0.1500 
 14 O        3.3910    -3.3540     0.3770 O.3   1 <1>  -0.3630 
 15 C        4.9100    -5.1290    -0.3590 C.ar  1 <1>   0.0830 
 16 C        3.9270    -6.9810    -1.5510 C.ar  1 <1>  -0.1500 
 17 C        4.2840    -2.2700     0.2190 C.3   1 <1>   0.1200 
 18 O        5.9860    -4.5080     0.2030 O.3   1 <1>  -0.3630 
 19 C        5.0380    -6.3440    -1.0280 C.ar  1 <1>  -0.1500 
 20 C        3.5000    -0.9770     0.4240 C.3   1 <1>  -0.2400 
 21 C        7.2870    -5.0550     0.1500 C.3   1 <1>   0.0400 
 22 H       -3.3460    -7.4060     0.9730 H     1 <1>   0.1500 
 23 H       -3.7370    -4.3640    -1.9790 H     1 <1>   0.1500 
 24 H       -1.4780    -6.1840     2.0160 H     1 <1>   0.1500 
 25 H       -1.8710    -3.1120    -0.9660 H     1 <1>   0.1500 
 26 H       -0.4810    -3.7820     2.2780 H     1 <1>   0.0800 
 27 H       -0.3440    -2.8010     0.8360 H     1 <1>   0.0800 
 28 H        0.8990    -5.4600     1.2340 H     1 <1>   0.4500 
 29 H        1.7150    -4.0230     1.2370 H     1 <1>   0.4500 
 30 H        1.1390    -3.6180    -1.0420 H     1 <1>   0.0800 
 31 H        0.4060    -5.2150    -1.0810 H     1 <1>   0.0800 
 32 H        1.8230    -6.9380    -1.8260 H     1 <1>   0.1500 
 33 H        4.0440    -7.9210    -2.0660 H     1 <1>   0.1500 
 34 H        4.7100    -2.3080    -0.7700 H     1 <1>   0.0800 
 35 H        5.0650    -2.3600     0.9560 H     1 <1>   0.0800 
 36 H        5.9930    -6.8190    -1.1510 H     1 <1>   0.1500 
 37 H        2.7200    -0.8910    -0.3100 H     1 <1>   0.0800 
 38 H        4.1630    -0.1380     0.3120 H     1 <1>   0.0800 
 39 H        3.0820    -0.9450     1.4140 H     1 <1>   0.0800 
 40 H        7.9520    -4.3880     0.6680 H     1 <1>   0.0800 
 41 H        7.5890    -5.1430    -0.8790 H     1 <1>   0.0800 
 42 H        7.2840    -6.0150     0.6350 H     1 <1>   0.0800 
@<TRIPOS>BOND
  1   1   2  1   
  2   2   3  ar  
  3   2   4  ar  
  4   3   5  ar  
  5   3  22  1   
  6   4   6  ar  
  7   4  23  1   
  8   5   7  ar  
  9   5  24  1   
 10   6   7  ar  
 11   6  25  1   
 12   7   8  1   
 13   8   9  1   
 14   8  26  1   
 15   8  27  1   
 16   9  10  1   
 17   9  28  1   
 18   9  29  1   
 19  10  11  1   
 20  10  30  1   
 21  10  31  1   
 22  11  12  ar  
 23  11  13  ar  
 24  12  14  1   
 25  12  15  ar  
 26  13  16  ar  
 27  13  32  1   
 28  14  17  1   
 29  15  18  1   
 30  15  19  ar  
 31  16  19  ar  
 32  16  33  1   
 33  17  20  1   
 34  17  34  1   
 35  17  35  1   
 36  18  21  1   
 37  19  36  1   
 38  20  37  1   
 39  20  38  1   
 40  20  39  1   
 41  21  40  1   
 42  21  41  1   
 43  21  42  1   
@<TRIPOS>SUBSTRUCTURE
  1 ****  10 GROUP 4 **** **** 0

# MOE 2024.06 (io_trps.svl 2023.06)
