@<TRIPOS>MOLECULE
NONAME
38 39 1 0 0 
SMALL
USER_CHARGES


@<TRIPOS>ATOM
  1 S        0.0640    -0.3270     2.0590 S.o2  1 <1>   1.3720 
  2 O       -0.6860    -1.2940     2.8370 O.2   1 <1>  -0.6500 
  3 O        0.8650     0.6400     2.7830 O.2   1 <1>  -0.6500 
  4 C       -1.1050     0.5960     1.0270 C.ar  1 <1>  -0.0090 
  5 C        1.0900    -1.1480     0.7960 C.2   1 <1>   0.1640 
  6 C       -0.6700     1.3580    -0.0520 C.ar  1 <1>  -0.1500 
  7 C       -2.4710     0.5710     1.2890 C.ar  1 <1>  -0.1500 
  8 N        2.3130    -0.5800     0.4130 N.2   1 <1>  -0.5650 
  9 C        0.7620    -2.2960     0.1460 C.2   1 <1>   0.1240 
 10 C       -1.5640     2.0480    -0.8520 C.ar  1 <1>  -0.1500 
 11 C       -3.3700     1.2580     0.4930 C.ar  1 <1>  -0.1500 
 12 C        2.9470    -1.2640    -0.4660 C.2   1 <1>   0.3160 
 13 S        2.0680    -2.7000    -0.9420 S.3   1 <1>  -0.0800 
 14 N       -0.3340    -3.1600     0.1520 N.pl3 1 <1>  -0.8220 
 15 C       -2.9210     2.0000    -0.5850 C.ar  1 <1>  -0.1430 
 16 S        4.5500    -0.9630    -1.2900 S.o2  1 <1>   1.2570 
 17 C       -0.1750    -4.6190    -0.1040 C.3   1 <1>   0.1290 
 18 C       -1.7360    -2.6630     0.1390 C.3   1 <1>   0.1290 
 19 C       -3.9020     2.7540    -1.4640 C.3   1 <1>  -0.0960 
 20 O        5.2000    -2.2160    -1.6090 O.2   1 <1>  -0.6500 
 21 O        4.4040     0.0330    -2.3300 O.2   1 <1>  -0.6500 
 22 C        5.5040    -0.2100     0.0150 C.3   1 <1>  -0.1350 
 23 H        0.3820     1.4220    -0.2750 H     1 <1>   0.1500 
 24 H       -2.8390     0.0040     2.1290 H     1 <1>   0.1500 
 25 H       -1.1980     2.6250    -1.6840 H     1 <1>   0.1500 
 26 H       -4.4220     1.2150     0.7200 H     1 <1>   0.1500 
 27 H       -0.3320    -4.8280    -1.1480 H     1 <1>   0.0800 
 28 H       -0.8900    -5.1720     0.4810 H     1 <1>   0.0800 
 29 H        0.8130    -4.9440     0.1770 H     1 <1>   0.0800 
 30 H       -1.7760    -1.6700    -0.2720 H     1 <1>   0.0800 
 31 H       -2.1310    -2.6570     1.1400 H     1 <1>   0.0800 
 32 H       -2.3500    -3.3010    -0.4730 H     1 <1>   0.0800 
 33 H       -3.4560     3.6630    -1.8270 H     1 <1>   0.0800 
 34 H       -4.7870     3.0090    -0.9110 H     1 <1>   0.0800 
 35 H       -4.1800     2.1450    -2.3050 H     1 <1>   0.0800 
 36 H        5.5930    -0.8800     0.8480 H     1 <1>   0.0800 
 37 H        5.0320     0.6940     0.3480 H     1 <1>   0.0800 
 38 H        6.4880     0.0290    -0.3400 H     1 <1>   0.0800 
@<TRIPOS>BOND
  1   1   2  2   
  2   1   3  2   
  3   1   4  1   
  4   1   5  1   
  5   4   6  ar  
  6   4   7  ar  
  7   5   8  1   
  8   5   9  2   
  9   6  10  ar  
 10   6  23  1   
 11   7  11  ar  
 12   7  24  1   
 13   8  12  2   
 14   9  13  1   
 15   9  14  1   
 16  10  15  ar  
 17  10  25  1   
 18  11  15  ar  
 19  11  26  1   
 20  12  13  1   
 21  12  16  1   
 22  14  17  1   
 23  14  18  1   
 24  15  19  1   
 25  16  20  2   
 26  16  21  2   
 27  16  22  1   
 28  17  27  1   
 29  17  28  1   
 30  17  29  1   
 31  18  30  1   
 32  18  31  1   
 33  18  32  1   
 34  19  33  1   
 35  19  34  1   
 36  19  35  1   
 37  22  36  1   
 38  22  37  1   
 39  22  38  1   
@<TRIPOS>SUBSTRUCTURE
  1 ****   5 GROUP 4 **** **** 0

# MOE 2024.06 (io_trps.svl 2023.06)
