@<TRIPOS>MOLECULE
NONAME
43 44 1 0 0 
SMALL
USER_CHARGES


@<TRIPOS>ATOM
  1 O       -2.1820     2.1010    -0.7200 O.3   1 <1>  -0.5600 
  2 C       -2.0400     0.7290    -0.4610 C.3   1 <1>   0.1200 
  3 C       -2.7540     2.8270     0.3340 C.3   1 <1>   0.1200 
  4 C       -3.3960     0.0840    -0.0840 C.3   1 <1>   0.3430 
  5 C       -4.1690     2.2980     0.6680 C.3   1 <1>   0.3430 
  6 N       -4.5150     1.0850    -0.1550 N.4   1 <1>  -0.9590 
  7 C       -5.8420     0.4720     0.1790 C.3   1 <1>   0.3430 
  8 C       -7.0220     1.3850    -0.1670 C.3   1 <1>   0.1200 
  9 O       -8.1950     0.7070     0.2070 O.3   1 <1>  -0.3630 
 10 C       -9.4180     1.2720     0.0340 C.ar  1 <1>   0.0820 
 11 C       -9.6240     2.5140    -0.5600 C.ar  1 <1>  -0.1500 
 12 C      -10.5080     0.5440     0.4870 C.ar  1 <1>  -0.1500 
 13 C      -10.9090     3.0110    -0.6910 C.ar  1 <1>  -0.1500 
 14 C      -11.7930     1.0420     0.3550 C.ar  1 <1>  -0.1500 
 15 C      -11.9980     2.2840    -0.2380 C.ar  1 <1>   0.0820 
 16 O      -13.2210     2.8510    -0.4090 O.3   1 <1>  -0.3620 
 17 C      -14.3930     2.1950     0.0160 C.3   1 <1>   0.1200 
 18 C      -15.5890     3.0880    -0.3180 C.3   1 <1>  -0.1600 
 19 C      -16.9090     2.4400     0.1160 C.3   1 <1>  -0.2400 
 20 H       -1.3220     0.5990     0.3310 H     1 <1>   0.0800 
 21 H       -1.6440     0.2680    -1.3490 H     1 <1>   0.0800 
 22 H       -2.8040     3.8600     0.0330 H     1 <1>   0.0800 
 23 H       -2.1070     2.7590     1.1920 H     1 <1>   0.0800 
 24 H       -3.3250    -0.3200     0.9120 H     1 <1>   0.0800 
 25 H       -3.5890    -0.7380    -0.7540 H     1 <1>   0.0800 
 26 H       -4.8840     3.0840     0.4870 H     1 <1>   0.0800 
 27 H       -4.2120     2.0590     1.7180 H     1 <1>   0.0800 
 28 H       -4.5080     1.4090    -1.1350 H     1 <1>   0.4500 
 29 H       -5.8780     0.2400     1.2300 H     1 <1>   0.0800 
 30 H       -5.9590    -0.4460    -0.3740 H     1 <1>   0.0800 
 31 H       -7.0670     1.5710    -1.2260 H     1 <1>   0.0800 
 32 H       -6.9830     2.3050     0.3870 H     1 <1>   0.0800 
 33 H       -8.8120     3.1110    -0.9280 H     1 <1>   0.1500 
 34 H      -10.3480    -0.4150     0.9440 H     1 <1>   0.1500 
 35 H      -11.0810     3.9680    -1.1490 H     1 <1>   0.1500 
 36 H      -12.6130     0.4520     0.7170 H     1 <1>   0.1500 
 37 H      -14.3260     2.0320     1.0780 H     1 <1>   0.0800 
 38 H      -14.4640     1.2550    -0.5040 H     1 <1>   0.0800 
 39 H      -15.6110     3.2640    -1.3790 H     1 <1>   0.0800 
 40 H      -15.4740     4.0320     0.1850 H     1 <1>   0.0800 
 41 H      -17.0510     1.5010    -0.3880 H     1 <1>   0.0800 
 42 H      -17.7320     3.0880    -0.1300 H     1 <1>   0.0800 
 43 H      -16.9140     2.2700     1.1780 H     1 <1>   0.0800 
@<TRIPOS>BOND
  1   1   2  1   
  2   1   3  1   
  3   2   4  1   
  4   2  20  1   
  5   2  21  1   
  6   3   5  1   
  7   3  22  1   
  8   3  23  1   
  9   4   6  1   
 10   4  24  1   
 11   4  25  1   
 12   5   6  1   
 13   5  26  1   
 14   5  27  1   
 15   6   7  1   
 16   6  28  1   
 17   7   8  1   
 18   7  29  1   
 19   7  30  1   
 20   8   9  1   
 21   8  31  1   
 22   8  32  1   
 23   9  10  1   
 24  10  11  ar  
 25  10  12  ar  
 26  11  13  ar  
 27  11  33  1   
 28  12  14  ar  
 29  12  34  1   
 30  13  15  ar  
 31  13  35  1   
 32  14  15  ar  
 33  14  36  1   
 34  15  16  1   
 35  16  17  1   
 36  17  18  1   
 37  17  37  1   
 38  17  38  1   
 39  18  19  1   
 40  18  39  1   
 41  18  40  1   
 42  19  41  1   
 43  19  42  1   
 44  19  43  1   
@<TRIPOS>SUBSTRUCTURE
  1 ****  10 GROUP 4 **** **** 0

# MOE 2024.06 (io_trps.svl 2023.06)
