@<TRIPOS>MOLECULE
NONAME
51 53 1 0 0 
SMALL
USER_CHARGES


@<TRIPOS>ATOM
  1 N      -10.3010     4.2660    -1.0620 N.ar  1 <1>  -0.6240 
  2 C       -9.4810     3.7360    -1.9520 C.ar  1 <1>   0.1530 
  3 C       -9.8550     4.2950     0.1820 C.ar  1 <1>   0.1530 
  4 C       -8.2200     3.2420    -1.6590 C.ar  1 <1>  -0.1570 
  5 C       -8.6140     3.8280     0.5800 C.ar  1 <1>  -0.1570 
  6 C       -7.7570     3.2860    -0.3580 C.ar  1 <1>  -0.1510 
  7 C       -6.3810     2.7860     0.0170 C.3   1 <1>   0.3050 
  8 N       -5.4680     3.9140    -0.2010 N.pl3 1 <1>  -0.7180 
  9 C       -4.1480     4.0350    -0.1510 C.cat 1 <1>   1.0690 
 10 N       -3.5700     5.1980    -0.4060 N.pl3 1 <1>  -0.7040 
 11 N       -3.2160     3.1020     0.1340 N.pl3 1 <1>  -0.7670 
 12 C       -2.2060     5.0630    -0.2680 C.ar  1 <1>   0.3030 
 13 C       -1.9740     3.7460     0.0810 C.ar  1 <1>   0.3030 
 14 C       -3.3370     1.6730     0.5530 C.3   1 <1>   0.3480 
 15 C       -1.1650     5.9710    -0.4120 C.ar  1 <1>  -0.1160 
 16 C       -0.6740     3.3040     0.3100 C.ar  1 <1>  -0.1160 
 17 C       -2.9010     0.7040    -0.5790 C.3   1 <1>   0.3370 
 18 C        0.1250     5.5270    -0.1920 C.ar  1 <1>  -0.1570 
 19 C        0.3680     4.2010     0.1690 C.ar  1 <1>  -0.1570 
 20 N       -3.0310    -0.7690    -0.2720 N.4   1 <1>  -0.9610 
 21 C       -2.1810    -1.2260     0.8650 C.3   1 <1>   0.3370 
 22 C       -2.7100    -1.5600    -1.4940 C.3   1 <1>   0.3370 
 23 C       -3.0630    -1.3960     2.0940 C.3   1 <1>  -0.2470 
 24 C       -3.3530    -2.9360    -1.3830 C.3   1 <1>  -0.2470 
 25 H       -9.8340     3.6960    -2.9690 H     1 <1>   0.1430 
 26 H      -10.5170     4.7150     0.9220 H     1 <1>   0.1430 
 27 H       -7.6270     2.8320    -2.4560 H     1 <1>   0.1430 
 28 H       -8.3410     3.8980     1.6180 H     1 <1>   0.1430 
 29 H       -6.1100     1.9520    -0.6080 H     1 <1>   0.0720 
 30 H       -6.3690     2.4880     1.0520 H     1 <1>   0.0720 
 31 H       -6.0110     4.7490    -0.4320 H     1 <1>   0.4450 
 32 H       -4.0340     6.0730    -0.6440 H     1 <1>   0.4450 
 33 H       -4.3460     1.4530     0.8450 H     1 <1>   0.0720 
 34 H       -2.7080     1.5220     1.4130 H     1 <1>   0.0720 
 35 H       -1.3580     6.9940    -0.6870 H     1 <1>   0.1430 
 36 H       -0.4680     2.2890     0.5960 H     1 <1>   0.1430 
 37 H       -1.8740     0.9130    -0.8270 H     1 <1>   0.0720 
 38 H       -3.4970     0.9230    -1.4490 H     1 <1>   0.0720 
 39 H        0.9560     6.2070    -0.2960 H     1 <1>   0.1430 
 40 H        1.3860     3.8860     0.3390 H     1 <1>   0.1430 
 41 H       -4.0040    -1.0160    -0.0390 H     1 <1>   0.4450 
 42 H       -1.3900    -0.5190     1.0600 H     1 <1>   0.0720 
 43 H       -1.7270    -2.1770     0.6320 H     1 <1>   0.0720 
 44 H       -1.6420    -1.6540    -1.6130 H     1 <1>   0.0720 
 45 H       -3.1060    -1.0660    -2.3670 H     1 <1>   0.0720 
 46 H       -3.5230    -0.4750     2.3960 H     1 <1>   0.0720 
 47 H       -2.4570    -1.7440     2.9130 H     1 <1>   0.0720 
 48 H       -3.8210    -2.1390     1.9150 H     1 <1>   0.0720 
 49 H       -2.9500    -3.4990    -0.5610 H     1 <1>   0.0720 
 50 H       -3.1530    -3.4890    -2.2840 H     1 <1>   0.0720 
 51 H       -4.4200    -2.8560    -1.2780 H     1 <1>   0.0720 
@<TRIPOS>BOND
  1   1   2  ar  
  2   1   3  ar  
  3   2   4  ar  
  4   2  25  1   
  5   3   5  ar  
  6   3  26  1   
  7   4   6  ar  
  8   4  27  1   
  9   5   6  ar  
 10   5  28  1   
 11   6   7  1   
 12   7   8  1   
 13   7  29  1   
 14   7  30  1   
 15   8   9  ar  
 16   8  31  1   
 17   9  10  ar  
 18   9  11  ar  
 19  10  12  1   
 20  10  32  1   
 21  11  13  1   
 22  11  14  1   
 23  12  13  ar  
 24  12  15  ar  
 25  13  16  ar  
 26  14  17  1   
 27  14  33  1   
 28  14  34  1   
 29  15  18  ar  
 30  15  35  1   
 31  16  19  ar  
 32  16  36  1   
 33  17  20  1   
 34  17  37  1   
 35  17  38  1   
 36  18  19  ar  
 37  18  39  1   
 38  19  40  1   
 39  20  21  1   
 40  20  22  1   
 41  20  41  1   
 42  21  23  1   
 43  21  42  1   
 44  21  43  1   
 45  22  24  1   
 46  22  44  1   
 47  22  45  1   
 48  23  46  1   
 49  23  47  1   
 50  23  48  1   
 51  24  49  1   
 52  24  50  1   
 53  24  51  1   
@<TRIPOS>SUBSTRUCTURE
  1 ****  11 GROUP 4 **** **** 0

# MOE 2024.06 (io_trps.svl 2023.06)
