@<TRIPOS>MOLECULE
NONAME
41 43 1 0 0 
SMALL
USER_CHARGES


@<TRIPOS>ATOM
  1 O        1.6250    -1.8040     2.7070 O.2   1 <1>  -0.5700 
  2 C        1.3930    -2.2700     1.6250 C.2   1 <1>   0.6590 
  3 O        2.3470    -2.3980     0.7070 O.3   1 <1>  -0.4300 
  4 C        0.0090    -2.7300     1.2290 C.3   1 <1>  -0.0990 
  5 C        3.6800    -2.0170     0.9790 C.3   1 <1>   0.2000 
  6 C       -0.6660    -1.7310     0.2840 C.3   1 <1>  -0.0170 
  7 C        3.7950    -0.4380     0.8220 C.3   1 <1>  -0.0800 
  8 C        4.6110    -2.7700    -0.0610 C.3   1 <1>   0.3430 
  9 C       -2.0520    -2.2210    -0.0930 C.ar  1 <1>  -0.1440 
 10 C        3.4090    -0.1170    -0.6920 C.3   1 <1>  -0.1600 
 11 C        5.3500    -0.1190     0.9020 C.3   1 <1>  -0.1600 
 12 N        5.2060    -1.6860    -0.8990 N.4   1 <1>  -0.9590 
 13 C       -3.1440    -1.8950     0.6970 C.ar  1 <1>  -0.1500 
 14 C       -2.2400    -3.0010    -1.2240 C.ar  1 <1>  -0.1500 
 15 C        4.2490    -0.9490    -1.7490 C.3   1 <1>   0.3430 
 16 C        6.2140    -0.8710    -0.1920 C.3   1 <1>   0.3430 
 17 C       -4.4090    -2.3430     0.3610 C.ar  1 <1>  -0.1500 
 18 C       -3.5050    -3.4500    -1.5610 C.ar  1 <1>  -0.1500 
 19 C       -4.5900    -3.1210    -0.7690 C.ar  1 <1>  -0.1500 
 20 H       -0.5860    -2.8390     2.1180 H     1 <1>   0.0800 
 21 H        0.0800    -3.6920     0.7570 H     1 <1>   0.0800 
 22 H        3.9250    -2.3360     1.9800 H     1 <1>   0.0800 
 23 H       -0.0750    -1.6060    -0.6060 H     1 <1>   0.0800 
 24 H       -0.7430    -0.7700     0.7650 H     1 <1>   0.0800 
 25 H        3.2170     0.1080     1.5510 H     1 <1>   0.0800 
 26 H        4.0370    -3.4540    -0.6640 H     1 <1>   0.0800 
 27 H        5.3910    -3.3100     0.4510 H     1 <1>   0.0800 
 28 H        3.5550     0.9330    -0.8850 H     1 <1>   0.0800 
 29 H        2.3610    -0.3050    -0.8560 H     1 <1>   0.0800 
 30 H        5.7230    -0.3800     1.8800 H     1 <1>   0.0800 
 31 H        5.5080     0.9420     0.7960 H     1 <1>   0.0800 
 32 H        4.6860    -1.1830    -0.2880 H     1 <1>   0.4500 
 33 H       -3.0160    -1.2910     1.5790 H     1 <1>   0.1500 
 34 H       -1.4060    -3.2660    -1.8490 H     1 <1>   0.1500 
 35 H        4.7640    -0.3030    -2.4420 H     1 <1>   0.0800 
 36 H        3.6200    -1.6360    -2.2960 H     1 <1>   0.0800 
 37 H        6.9690    -1.4960     0.2600 H     1 <1>   0.0800 
 38 H        6.6830    -0.1730    -0.8690 H     1 <1>   0.0800 
 39 H       -5.2520    -2.0870     0.9780 H     1 <1>   0.1500 
 40 H       -3.6470    -4.0550    -2.4400 H     1 <1>   0.1500 
 41 H       -5.5740    -3.4700    -1.0310 H     1 <1>   0.1500 
@<TRIPOS>BOND
  1   1   2  2   
  2   2   3  1   
  3   2   4  1   
  4   3   5  1   
  5   4   6  1   
  6   4  20  1   
  7   4  21  1   
  8   5   7  1   
  9   5   8  1   
 10   5  22  1   
 11   6   9  1   
 12   6  23  1   
 13   6  24  1   
 14   7  10  1   
 15   7  11  1   
 16   7  25  1   
 17   8  12  1   
 18   8  26  1   
 19   8  27  1   
 20   9  13  ar  
 21   9  14  ar  
 22  10  15  1   
 23  10  28  1   
 24  10  29  1   
 25  11  16  1   
 26  11  30  1   
 27  11  31  1   
 28  12  15  1   
 29  12  16  1   
 30  12  32  1   
 31  13  17  ar  
 32  13  33  1   
 33  14  18  ar  
 34  14  34  1   
 35  15  35  1   
 36  15  36  1   
 37  16  37  1   
 38  16  38  1   
 39  17  19  ar  
 40  17  39  1   
 41  18  19  ar  
 42  18  40  1   
 43  19  41  1   
@<TRIPOS>SUBSTRUCTURE
  1 ****   3 GROUP 4 **** **** 0

# MOE 2024.06 (io_trps.svl 2023.06)
