@<TRIPOS>MOLECULE
NONAME
56 58 1 0 0 
SMALL
USER_CHARGES


@<TRIPOS>ATOM
  1 O       -1.5790    -2.2750     2.2600 O.2   1 <1>  -0.5700 
  2 C       -2.1090    -1.4650     1.5370 C.2   1 <1>   0.5690 
  3 N       -2.2500    -0.1470     1.8360 N.am  1 <1>  -0.5470 
  4 C       -2.7020    -1.7500     0.1420 C.3   1 <1>   0.4810 
  5 C       -2.8220     0.5410     0.7790 C.ar  1 <1>   0.1170 
  6 C       -1.6770    -2.3590    -0.8310 C.2   1 <1>  -0.1240 
  7 C       -3.9850    -2.5810     0.2400 C.2   1 <1>  -0.1240 
  8 C       -3.0920    -0.3240    -0.2650 C.ar  1 <1>  -0.1440 
  9 C       -3.1130     1.8910     0.6720 C.ar  1 <1>  -0.1500 
 10 C       -1.9460    -3.5840    -1.3770 C.2   1 <1>   0.1770 
 11 C       -0.4960    -1.6100    -1.1190 C.2   1 <1>   0.7060 
 12 C       -4.0630    -3.7790    -0.3820 C.2   1 <1>  -0.0620 
 13 C       -5.0460    -1.9700     0.9840 C.2   1 <1>   0.7060 
 14 C       -3.6470     0.1400    -1.4440 C.ar  1 <1>  -0.1500 
 15 C       -3.6710     2.3610    -0.5060 C.ar  1 <1>  -0.1500 
 16 O       -3.0630    -4.2730    -1.1150 O.3   1 <1>  -0.1530 
 17 N       -1.1350    -4.2500    -2.2440 N.pl3 1 <1>  -0.9000 
 18 O        0.2570    -1.8820    -2.0420 O.2   1 <1>  -0.5700 
 19 O       -0.1860    -0.5550    -0.3530 O.3   1 <1>  -0.4300 
 20 C       -5.2520    -4.7270    -0.3590 C.3   1 <1>  -0.1020 
 21 O       -4.9390    -1.5860     2.1290 O.2   1 <1>  -0.5700 
 22 O       -6.2020    -1.7950     0.3410 O.3   1 <1>  -0.4300 
 23 C       -3.9340     1.4920    -1.5580 C.ar  1 <1>  -0.1500 
 24 C        0.9080     0.3310    -0.4750 C.3   1 <1>   0.2800 
 25 C       -7.2740    -1.0640     0.8880 C.3   1 <1>   0.2000 
 26 C        2.2310    -0.4240    -0.3030 C.3   1 <1>  -0.2400 
 27 C        0.8240     1.0880    -1.8050 C.3   1 <1>  -0.2400 
 28 C        0.7490     1.3240     0.6770 C.3   1 <1>  -0.2400 
 29 C       -8.5440    -1.5340     0.1840 C.3   1 <1>  -0.2400 
 30 C       -7.0150     0.4230     0.6410 C.3   1 <1>  -0.2400 
 31 H       -1.9800     0.2350     2.7410 H     1 <1>   0.3700 
 32 H       -2.9060     2.5550     1.4900 H     1 <1>   0.1500 
 33 H       -3.8570    -0.5330    -2.2580 H     1 <1>   0.1500 
 34 H       -3.9020     3.4080    -0.6090 H     1 <1>   0.1500 
 35 H       -0.2650    -3.8130    -2.5850 H     1 <1>   0.4000 
 36 H       -1.3670    -5.1650    -2.6390 H     1 <1>   0.4000 
 37 H       -4.9310    -5.6980    -0.0240 H     1 <1>   0.0800 
 38 H       -5.6590    -4.8230    -1.3490 H     1 <1>   0.0800 
 39 H       -6.0290    -4.3880     0.3000 H     1 <1>   0.0800 
 40 H       -4.3660     1.8710    -2.4690 H     1 <1>   0.1500 
 41 H       -7.3430    -1.2740     1.9430 H     1 <1>   0.0800 
 42 H        2.4230    -1.0720    -1.1380 H     1 <1>   0.0800 
 43 H        2.2130    -1.0070     0.6000 H     1 <1>   0.0800 
 44 H        3.0460     0.2730    -0.2420 H     1 <1>   0.0800 
 45 H        1.5700     1.8610    -1.8340 H     1 <1>   0.0800 
 46 H        1.0040     0.4330    -2.6370 H     1 <1>   0.0800 
 47 H       -0.1440     1.5430    -1.9150 H     1 <1>   0.0800 
 48 H        0.7540     0.8050     1.6190 H     1 <1>   0.0800 
 49 H       -0.1730     1.8660     0.5770 H     1 <1>   0.0800 
 50 H        1.5580     2.0320     0.6750 H     1 <1>   0.0800 
 51 H       -8.4750    -1.3570    -0.8740 H     1 <1>   0.0800 
 52 H       -9.3940    -1.0000     0.5680 H     1 <1>   0.0800 
 53 H       -8.6950    -2.5830     0.3620 H     1 <1>   0.0800 
 54 H       -6.9030     0.6170    -0.4110 H     1 <1>   0.0800 
 55 H       -6.1240     0.7350     1.1560 H     1 <1>   0.0800 
 56 H       -7.8370     1.0040     1.0140 H     1 <1>   0.0800 
@<TRIPOS>BOND
  1   1   2  2   
  2   2   3  am  
  3   2   4  1   
  4   3   5  1   
  5   3  31  1   
  6   4   6  1   
  7   4   7  1   
  8   4   8  1   
  9   5   8  ar  
 10   5   9  ar  
 11   6  10  2   
 12   6  11  1   
 13   7  12  2   
 14   7  13  1   
 15   8  14  ar  
 16   9  15  ar  
 17   9  32  1   
 18  10  16  1   
 19  10  17  1   
 20  11  18  2   
 21  11  19  1   
 22  12  16  1   
 23  12  20  1   
 24  13  21  2   
 25  13  22  1   
 26  14  23  ar  
 27  14  33  1   
 28  15  23  ar  
 29  15  34  1   
 30  17  35  1   
 31  17  36  1   
 32  19  24  1   
 33  20  37  1   
 34  20  38  1   
 35  20  39  1   
 36  22  25  1   
 37  23  40  1   
 38  24  26  1   
 39  24  27  1   
 40  24  28  1   
 41  25  29  1   
 42  25  30  1   
 43  25  41  1   
 44  26  42  1   
 45  26  43  1   
 46  26  44  1   
 47  27  45  1   
 48  27  46  1   
 49  27  47  1   
 50  28  48  1   
 51  28  49  1   
 52  28  50  1   
 53  29  51  1   
 54  29  52  1   
 55  29  53  1   
 56  30  54  1   
 57  30  55  1   
 58  30  56  1   
@<TRIPOS>SUBSTRUCTURE
  1 ****   4 GROUP 4 **** **** 0

# MOE 2024.06 (io_trps.svl 2023.06)
