@<TRIPOS>MOLECULE
NONAME
53 54 1 0 0 
SMALL
USER_CHARGES


@<TRIPOS>ATOM
  1 O        0.2610     0.0880     0.0000 O.2   1 <1>  -0.5700 
  2 C        0.6510     1.2360    -0.0940 C.2   1 <1>   0.5440 
  3 N       -0.2450     2.2780    -0.0750 N.am  1 <1>  -0.5470 
  4 C        2.0700     1.5230    -0.2010 C.ar  1 <1>   0.0860 
  5 C       -1.6510     2.3650    -0.0350 C.ar  1 <1>   0.1170 
  6 C        3.0170     0.6740     0.3750 C.ar  1 <1>  -0.1500 
  7 C        2.5500     2.6500    -0.8750 C.ar  1 <1>  -0.1500 
  8 C       -2.2190     3.6220     0.1850 C.ar  1 <1>   0.0830 
  9 C       -2.4910     1.2730    -0.2110 C.ar  1 <1>  -0.1500 
 10 C        4.3720     0.9390     0.2970 C.ar  1 <1>  -0.1500 
 11 C        3.9040     2.9210    -0.9560 C.ar  1 <1>  -0.1500 
 12 O       -1.3550     4.6740     0.3390 O.3   1 <1>  -0.3630 
 13 C       -3.6000     3.7670     0.2360 C.ar  1 <1>  -0.1500 
 14 C       -3.8720     1.4160    -0.1540 C.ar  1 <1>   0.0830 
 15 C        4.8180     2.0660    -0.3680 C.ar  1 <1>  -0.1500 
 16 C       -1.8330     5.9640     0.6510 C.3   1 <1>   0.1200 
 17 C       -4.4400     2.6730     0.0710 C.ar  1 <1>   0.1170 
 18 O       -4.7350     0.3630    -0.3120 O.3   1 <1>  -0.3630 
 19 C       -0.6280     6.8860     0.8080 C.3   1 <1>  -0.2400 
 20 N       -5.8470     2.7590     0.1160 N.am  1 <1>  -0.5470 
 21 C       -4.2510    -0.9550    -0.4340 C.3   1 <1>   0.1200 
 22 C       -6.7240     3.7860     0.3260 C.2   1 <1>   0.5690 
 23 C       -5.4510    -1.8920    -0.5190 C.3   1 <1>  -0.2400 
 24 O       -6.3820     4.9270     0.5290 O.2   1 <1>  -0.5700 
 25 C       -8.2200     3.4520     0.2980 C.3   1 <1>  -0.0190 
 26 C       -8.9490     4.2170    -0.8190 C.3   1 <1>  -0.2400 
 27 C       -8.8870     3.7390     1.6540 C.3   1 <1>  -0.2400 
 28 H        0.1770     3.2030     0.0190 H     1 <1>   0.3700 
 29 H        2.6770    -0.2080     0.8920 H     1 <1>   0.1500 
 30 H        1.8590     3.3220    -1.3530 H     1 <1>   0.1500 
 31 H       -2.0510     0.3150    -0.3960 H     1 <1>   0.1500 
 32 H        5.0790     0.2670     0.7520 H     1 <1>   0.1500 
 33 H        4.2510     3.7960    -1.4800 H     1 <1>   0.1500 
 34 H       -4.0380     4.7280     0.4020 H     1 <1>   0.1500 
 35 H        5.8730     2.2750    -0.4300 H     1 <1>   0.1500 
 36 H       -2.3930     5.9090     1.5690 H     1 <1>   0.0800 
 37 H       -2.4660     6.2990    -0.1530 H     1 <1>   0.0800 
 38 H        0.0060     6.5360     1.6030 H     1 <1>   0.0800 
 39 H       -0.9620     7.8790     1.0490 H     1 <1>   0.0800 
 40 H       -0.0690     6.9260    -0.1100 H     1 <1>   0.0800 
 41 H       -6.2710     1.8430    -0.0380 H     1 <1>   0.3700 
 42 H       -3.6500    -1.1820     0.4300 H     1 <1>   0.0800 
 43 H       -3.6540    -1.0200    -1.3290 H     1 <1>   0.0800 
 44 H       -6.0470    -1.8130     0.3730 H     1 <1>   0.0800 
 45 H       -5.1110    -2.9080    -0.6140 H     1 <1>   0.0800 
 46 H       -6.0510    -1.6500    -1.3780 H     1 <1>   0.0800 
 47 H       -8.3280     2.4010     0.0970 H     1 <1>   0.0800 
 48 H       -8.8810     5.2780    -0.6490 H     1 <1>   0.0800 
 49 H       -9.9870     3.9380    -0.8550 H     1 <1>   0.0800 
 50 H       -8.5000     3.9970    -1.7720 H     1 <1>   0.0800 
 51 H       -8.8160     4.7870     1.8880 H     1 <1>   0.0800 
 52 H       -8.3940     3.1840     2.4330 H     1 <1>   0.0800 
 53 H       -9.9240     3.4580     1.6330 H     1 <1>   0.0800 
@<TRIPOS>BOND
  1   1   2  2   
  2   2   3  am  
  3   2   4  1   
  4   3   5  1   
  5   3  28  1   
  6   4   6  ar  
  7   4   7  ar  
  8   5   8  ar  
  9   5   9  ar  
 10   6  10  ar  
 11   6  29  1   
 12   7  11  ar  
 13   7  30  1   
 14   8  12  1   
 15   8  13  ar  
 16   9  14  ar  
 17   9  31  1   
 18  10  15  ar  
 19  10  32  1   
 20  11  15  ar  
 21  11  33  1   
 22  12  16  1   
 23  13  17  ar  
 24  13  34  1   
 25  14  17  ar  
 26  14  18  1   
 27  15  35  1   
 28  16  19  1   
 29  16  36  1   
 30  16  37  1   
 31  17  20  1   
 32  18  21  1   
 33  19  38  1   
 34  19  39  1   
 35  19  40  1   
 36  20  22  am  
 37  20  41  1   
 38  21  23  1   
 39  21  42  1   
 40  21  43  1   
 41  22  24  2   
 42  22  25  1   
 43  23  44  1   
 44  23  45  1   
 45  23  46  1   
 46  25  26  1   
 47  25  27  1   
 48  25  47  1   
 49  26  48  1   
 50  26  49  1   
 51  26  50  1   
 52  27  51  1   
 53  27  52  1   
 54  27  53  1   
@<TRIPOS>SUBSTRUCTURE
  1 ****   5 GROUP 4 **** **** 0

# MOE 2024.06 (io_trps.svl 2023.06)
