@<TRIPOS>MOLECULE
NONAME
56 59 1 0 0 
SMALL
USER_CHARGES


@<TRIPOS>ATOM
  1 O       -1.5390    -2.9590     1.7120 O.2   1 <1>  -0.5700 
  2 C       -1.8050    -2.1920     0.8150 C.2   1 <1>   0.5690 
  3 N       -0.8760    -1.7070    -0.0660 N.am  1 <1>  -0.5470 
  4 C       -3.2630    -1.7110     0.6210 C.3   1 <1>   0.2810 
  5 C        0.5050    -1.9030    -0.2150 C.ar  1 <1>   0.1170 
  6 N       -3.3950    -0.2320     0.7370 N.am  1 <1>  -0.7300 
  7 C       -4.2700    -2.3290     1.5960 C.3   1 <1>  -0.2400 
  8 C        1.2300    -2.8630     0.4830 C.ar  1 <1>  -0.1500 
  9 C        1.1840    -1.0950    -1.1180 C.ar  1 <1>  -0.1500 
 10 C       -3.0440     0.6520    -0.2270 C.2   1 <1>   0.5690 
 11 C        2.5930    -3.0040     0.2870 C.ar  1 <1>  -0.1500 
 12 C        2.5460    -1.2340    -1.3170 C.ar  1 <1>  -0.1500 
 13 O       -2.5180     0.2830    -1.2500 O.2   1 <1>  -0.5700 
 14 C       -3.2700     2.1320     0.0110 C.3   1 <1>  -0.0990 
 15 C        3.2600    -2.1900    -0.6130 C.ar  1 <1>  -0.1430 
 16 C       -4.6520     2.6600    -0.4370 C.3   1 <1>   0.0000 
 17 C        4.7540    -2.3470    -0.8270 C.3   1 <1>  -0.0970 
 18 C       -4.8700     2.4410    -1.9530 C.3   1 <1>  -0.1600 
 19 C       -4.7200     4.1800    -0.1510 C.3   1 <1>  -0.1600 
 20 C       -5.8060     1.9700     0.3300 C.3   1 <1>  -0.1600 
 21 C       -6.2290     3.0140    -2.3980 C.3   1 <1>  -0.0800 
 22 C       -6.0770     4.7630    -0.5870 C.3   1 <1>  -0.0800 
 23 C       -7.1690     2.5420    -0.1040 C.3   1 <1>  -0.0800 
 24 C       -6.2670     4.5230    -2.0960 C.3   1 <1>  -0.1600 
 25 C       -7.3550     2.3130    -1.6160 C.3   1 <1>  -0.1600 
 26 C       -7.2030     4.0540     0.1870 C.3   1 <1>  -0.1600 
 27 H       -1.2710    -1.0060    -0.7090 H     1 <1>   0.3700 
 28 H       -3.5520    -1.9940    -0.3770 H     1 <1>   0.0800 
 29 H       -3.7580     0.1010     1.6300 H     1 <1>   0.3700 
 30 H       -4.0120    -2.0810     2.6110 H     1 <1>   0.0800 
 31 H       -4.2500    -3.4000     1.5000 H     1 <1>   0.0800 
 32 H       -5.2660    -1.9880     1.3770 H     1 <1>   0.0800 
 33 H        0.7380    -3.5090     1.1850 H     1 <1>   0.1500 
 34 H        0.6420    -0.3490    -1.6710 H     1 <1>   0.1500 
 35 H        3.1300    -3.7540     0.8400 H     1 <1>   0.1500 
 36 H        3.0480    -0.5960    -2.0220 H     1 <1>   0.1500 
 37 H       -2.5030     2.6660    -0.5190 H     1 <1>   0.0800 
 38 H       -3.1300     2.3340     1.0570 H     1 <1>   0.0800 
 39 H        5.1930    -1.4110    -1.1230 H     1 <1>   0.0800 
 40 H        4.9360    -3.0760    -1.5970 H     1 <1>   0.0800 
 41 H        5.2310    -2.6730     0.0800 H     1 <1>   0.0800 
 42 H       -4.8420     1.3910    -2.1860 H     1 <1>   0.0800 
 43 H       -4.0810     2.9150    -2.5100 H     1 <1>   0.0800 
 44 H       -3.9320     4.6880    -0.6800 H     1 <1>   0.0800 
 45 H       -4.5770     4.3640     0.8990 H     1 <1>   0.0800 
 46 H       -5.6820     2.1110     1.3890 H     1 <1>   0.0800 
 47 H       -5.8040     0.9130     0.1340 H     1 <1>   0.0800 
 48 H       -6.3640     2.8510    -3.4540 H     1 <1>   0.0800 
 49 H       -6.1030     5.8190    -0.3810 H     1 <1>   0.0800 
 50 H       -7.9600     2.0510     0.4370 H     1 <1>   0.0800 
 51 H       -7.2090     4.9340    -2.4140 H     1 <1>   0.0800 
 52 H       -5.4890     5.0240    -2.6460 H     1 <1>   0.0800 
 53 H       -7.3440     1.2580    -1.8290 H     1 <1>   0.0800 
 54 H       -8.3090     2.6990    -1.9280 H     1 <1>   0.0800 
 55 H       -7.0850     4.2250     1.2430 H     1 <1>   0.0800 
 56 H       -8.1560     4.4590    -0.1050 H     1 <1>   0.0800 
@<TRIPOS>BOND
  1   1   2  2   
  2   2   3  am  
  3   2   4  1   
  4   3   5  1   
  5   3  27  1   
  6   4   6  1   
  7   4   7  1   
  8   4  28  1   
  9   5   8  ar  
 10   5   9  ar  
 11   6  10  am  
 12   6  29  1   
 13   7  30  1   
 14   7  31  1   
 15   7  32  1   
 16   8  11  ar  
 17   8  33  1   
 18   9  12  ar  
 19   9  34  1   
 20  10  13  2   
 21  10  14  1   
 22  11  15  ar  
 23  11  35  1   
 24  12  15  ar  
 25  12  36  1   
 26  14  16  1   
 27  14  37  1   
 28  14  38  1   
 29  15  17  1   
 30  16  18  1   
 31  16  19  1   
 32  16  20  1   
 33  17  39  1   
 34  17  40  1   
 35  17  41  1   
 36  18  21  1   
 37  18  42  1   
 38  18  43  1   
 39  19  22  1   
 40  19  44  1   
 41  19  45  1   
 42  20  23  1   
 43  20  46  1   
 44  20  47  1   
 45  21  24  1   
 46  21  25  1   
 47  21  48  1   
 48  22  24  1   
 49  22  26  1   
 50  22  49  1   
 51  23  25  1   
 52  23  26  1   
 53  23  50  1   
 54  24  51  1   
 55  24  52  1   
 56  25  53  1   
 57  25  54  1   
 58  26  55  1   
 59  26  56  1   
@<TRIPOS>SUBSTRUCTURE
  1 ****  10 GROUP 4 **** **** 0

# MOE 2024.06 (io_trps.svl 2023.06)
