@<TRIPOS>MOLECULE
NONAME
50 52 1 0 0 
SMALL
USER_CHARGES


@<TRIPOS>ATOM
  1 S        0.8010     0.6390     1.3320 S.o2  1 <1>   1.3330 
  2 O        2.0620     1.1930     1.7570 O.2   1 <1>  -0.6500 
  3 O       -0.3440     0.6810     2.2060 O.2   1 <1>  -0.6500 
  4 N        0.3650     1.4470    -0.1390 N.am  1 <1>  -0.6930 
  5 C        1.0240    -1.0590     0.8370 C.3   1 <1>  -0.1350 
  6 C       -0.7460     2.2840    -0.1890 C.ar  1 <1>   0.1990 
  7 C        1.0160     1.0910    -1.4400 C.3   1 <1>   0.2570 
  8 C       -0.6690     3.6450     0.1240 C.ar  1 <1>  -0.1440 
  9 C       -1.9670     1.7510    -0.5860 C.ar  1 <1>  -0.1500 
 10 C        2.5450     1.0160    -1.4640 C.2   1 <1>   0.5690 
 11 C       -1.8050     4.4330     0.0240 C.ar  1 <1>  -0.1500 
 12 C        0.6280     4.3080     0.5800 C.3   1 <1>  -0.0160 
 13 C       -3.0950     2.5440    -0.6820 C.ar  1 <1>  -0.1500 
 14 O        3.0560     0.1750    -2.1650 O.2   1 <1>  -0.5700 
 15 N        3.2850     1.8720    -0.7190 N.am  1 <1>  -0.7300 
 16 C       -3.0130     3.8900    -0.3780 C.ar  1 <1>  -0.1500 
 17 C        1.3920     4.8950    -0.6100 C.3   1 <1>  -0.2400 
 18 C        4.7560     1.9290    -0.6730 C.3   1 <1>   0.2200 
 19 C        5.2470     1.6540     0.7600 C.3   1 <1>  -0.0800 
 20 C        5.2310     3.3710    -0.9230 C.3   1 <1>  -0.1600 
 21 C        5.1000     3.0180     1.4200 C.3   1 <1>  -0.1600 
 22 C        6.7780     1.5060     0.7190 C.3   1 <1>  -0.1600 
 23 C        5.9470     3.7440     0.3880 C.3   1 <1>  -0.0800 
 24 C        7.2590     2.9460     0.4620 C.3   1 <1>  -0.1600 
 25 H        1.8440    -1.1520     0.1530 H     1 <1>   0.0800 
 26 H        0.1320    -1.4310     0.3740 H     1 <1>   0.0800 
 27 H        1.2360    -1.6600     1.6990 H     1 <1>   0.0800 
 28 H        0.6320     0.1410    -1.7650 H     1 <1>   0.0800 
 29 H        0.7250     1.8160    -2.1790 H     1 <1>   0.0800 
 30 H       -2.0340     0.7040    -0.8160 H     1 <1>   0.1500 
 31 H       -1.7560     5.4820     0.2610 H     1 <1>   0.1500 
 32 H        1.2510     3.6080     1.1030 H     1 <1>   0.0800 
 33 H        0.4000     5.0960     1.2760 H     1 <1>   0.0800 
 34 H       -4.0340     2.1170    -0.9890 H     1 <1>   0.1500 
 35 H        2.8270     2.3380     0.0730 H     1 <1>   0.3700 
 36 H       -3.8870     4.5140    -0.4500 H     1 <1>   0.1500 
 37 H        2.3050     5.3510    -0.2730 H     1 <1>   0.0800 
 38 H        1.6310     4.1240    -1.3190 H     1 <1>   0.0800 
 39 H        0.7930     5.6410    -1.1020 H     1 <1>   0.0800 
 40 H        5.1850     1.2370    -1.3800 H     1 <1>   0.0800 
 41 H        4.7450     0.8370     1.2480 H     1 <1>   0.0800 
 42 H        4.4010     4.0310    -1.1000 H     1 <1>   0.0800 
 43 H        5.9020     3.4180    -1.7620 H     1 <1>   0.0800 
 44 H        5.5260     3.0490     2.4090 H     1 <1>   0.0800 
 45 H        4.0810     3.3660     1.4500 H     1 <1>   0.0800 
 46 H        7.0950     0.8280    -0.0550 H     1 <1>   0.0800 
 47 H        7.1430     1.1550     1.6680 H     1 <1>   0.0800 
 48 H        6.0630     4.8030     0.5460 H     1 <1>   0.0800 
 49 H        7.8320     3.0250    -0.4460 H     1 <1>   0.0800 
 50 H        7.8580     3.2890     1.2880 H     1 <1>   0.0800 
@<TRIPOS>BOND
  1   1   2  2   
  2   1   3  2   
  3   1   4  am  
  4   1   5  1   
  5   4   6  1   
  6   4   7  1   
  7   5  25  1   
  8   5  26  1   
  9   5  27  1   
 10   6   8  ar  
 11   6   9  ar  
 12   7  10  1   
 13   7  28  1   
 14   7  29  1   
 15   8  11  ar  
 16   8  12  1   
 17   9  13  ar  
 18   9  30  1   
 19  10  14  2   
 20  10  15  am  
 21  11  16  ar  
 22  11  31  1   
 23  12  17  1   
 24  12  32  1   
 25  12  33  1   
 26  13  16  ar  
 27  13  34  1   
 28  15  18  1   
 29  15  35  1   
 30  16  36  1   
 31  17  37  1   
 32  17  38  1   
 33  17  39  1   
 34  18  19  1   
 35  18  20  1   
 36  18  40  1   
 37  19  21  1   
 38  19  22  1   
 39  19  41  1   
 40  20  23  1   
 41  20  42  1   
 42  20  43  1   
 43  21  23  1   
 44  21  44  1   
 45  21  45  1   
 46  22  24  1   
 47  22  46  1   
 48  22  47  1   
 49  23  24  1   
 50  23  48  1   
 51  24  49  1   
 52  24  50  1   
@<TRIPOS>SUBSTRUCTURE
  1 ****  15 GROUP 4 **** **** 0

# MOE 2024.06 (io_trps.svl 2023.06)
