@<TRIPOS>MOLECULE
NONAME
50 52 1 0 0 
SMALL
USER_CHARGES


@<TRIPOS>ATOM
  1 S        1.3520     0.0300     0.5510 S.o2  1 <1>   1.3330 
  2 O        2.3130     0.5190     1.5100 O.2   1 <1>  -0.6500 
  3 O        1.7400    -1.0140    -0.3650 O.2   1 <1>  -0.6500 
  4 N        0.8280     1.3700    -0.4090 N.am  1 <1>  -0.6930 
  5 C       -0.1460    -0.4720     1.3700 C.3   1 <1>  -0.1350 
  6 C        0.0840     2.4300     0.1240 C.ar  1 <1>   0.1990 
  7 C        1.5950     1.5740    -1.6810 C.3   1 <1>   0.3370 
  8 C        0.4030     3.0210     1.3430 C.ar  1 <1>  -0.1500 
  9 C       -1.0150     2.9280    -0.5680 C.ar  1 <1>  -0.1500 
 10 C        1.9140     3.0630    -2.0000 C.2   1 <1>   0.5690 
 11 C        0.8550     0.8570    -2.8230 C.3   1 <1>  -0.2400 
 12 C       -0.3420     4.0690     1.8490 C.ar  1 <1>  -0.1500 
 13 C       -1.7650     3.9760    -0.0650 C.ar  1 <1>  -0.1500 
 14 O        1.2990     3.6000    -2.8980 O.2   1 <1>  -0.5700 
 15 N        2.8690     3.7650    -1.2980 N.am  1 <1>  -0.6600 
 16 C       -1.4320     4.5550     1.1480 C.ar  1 <1>  -0.1430 
 17 C        3.6730     3.2330    -0.1600 C.3   1 <1>   0.2840 
 18 C        3.0200     5.2350    -1.4640 C.3   1 <1>   0.1400 
 19 C       -2.2480     5.7080     1.7000 C.3   1 <1>  -0.0970 
 20 C        3.5120     4.0850     1.0960 C.ar  1 <1>  -0.1430 
 21 C        2.4090     5.9300    -0.2470 C.3   1 <1>  -0.0170 
 22 C        2.9370     5.3520     1.0600 C.ar  1 <1>  -0.1430 
 23 C        3.9510     3.5710     2.3070 C.ar  1 <1>  -0.1500 
 24 C        2.8160     6.0880     2.2280 C.ar  1 <1>  -0.1500 
 25 C        3.8290     4.3090     3.4710 C.ar  1 <1>  -0.1500 
 26 C        3.2630     5.5700     3.4310 C.ar  1 <1>  -0.1500 
 27 H        0.0390    -1.3360     1.9780 H     1 <1>   0.0800 
 28 H       -0.8980    -0.7150     0.6450 H     1 <1>   0.0800 
 29 H       -0.5120     0.3170     1.9960 H     1 <1>   0.0800 
 30 H        2.5470     1.0840    -1.5820 H     1 <1>   0.0800 
 31 H        1.2510     2.6830     1.9060 H     1 <1>   0.1500 
 32 H       -1.2850     2.4960    -1.5110 H     1 <1>   0.1500 
 33 H        1.4360     0.9280    -3.7240 H     1 <1>   0.0800 
 34 H       -0.0990     1.3140    -3.0080 H     1 <1>   0.0800 
 35 H        0.7140    -0.1830    -2.5950 H     1 <1>   0.0800 
 36 H       -0.0590     4.5090     2.7890 H     1 <1>   0.1500 
 37 H       -2.6080     4.3410    -0.6260 H     1 <1>   0.1500 
 38 H        4.7110     3.2320    -0.4440 H     1 <1>   0.0800 
 39 H        3.3990     2.2220     0.0670 H     1 <1>   0.0800 
 40 H        2.5340     5.5760    -2.3620 H     1 <1>   0.0800 
 41 H        4.0660     5.4770    -1.5360 H     1 <1>   0.0800 
 42 H       -1.6310     6.3490     2.3040 H     1 <1>   0.0800 
 43 H       -3.0520     5.3290     2.3050 H     1 <1>   0.0800 
 44 H       -2.6620     6.2940     0.8990 H     1 <1>   0.0800 
 45 H        1.3400     5.8060    -0.2770 H     1 <1>   0.0800 
 46 H        2.6240     6.9820    -0.2990 H     1 <1>   0.0800 
 47 H        4.3840     2.5860     2.3510 H     1 <1>   0.1500 
 48 H        2.3690     7.0660     2.2060 H     1 <1>   0.1500 
 49 H        4.1730     3.9010     4.4050 H     1 <1>   0.1500 
 50 H        3.1670     6.1460     4.3340 H     1 <1>   0.1500 
@<TRIPOS>BOND
  1   1   2  2   
  2   1   3  2   
  3   1   4  am  
  4   1   5  1   
  5   4   6  1   
  6   4   7  1   
  7   5  27  1   
  8   5  28  1   
  9   5  29  1   
 10   6   8  ar  
 11   6   9  ar  
 12   7  10  1   
 13   7  11  1   
 14   7  30  1   
 15   8  12  ar  
 16   8  31  1   
 17   9  13  ar  
 18   9  32  1   
 19  10  14  2   
 20  10  15  am  
 21  11  33  1   
 22  11  34  1   
 23  11  35  1   
 24  12  16  ar  
 25  12  36  1   
 26  13  16  ar  
 27  13  37  1   
 28  15  17  1   
 29  15  18  1   
 30  16  19  1   
 31  17  20  1   
 32  17  38  1   
 33  17  39  1   
 34  18  21  1   
 35  18  40  1   
 36  18  41  1   
 37  19  42  1   
 38  19  43  1   
 39  19  44  1   
 40  20  22  ar  
 41  20  23  ar  
 42  21  22  1   
 43  21  45  1   
 44  21  46  1   
 45  22  24  ar  
 46  23  25  ar  
 47  23  47  1   
 48  24  26  ar  
 49  24  48  1   
 50  25  26  ar  
 51  25  49  1   
 52  26  50  1   
@<TRIPOS>SUBSTRUCTURE
  1 ****   8 GROUP 4 **** **** 0

# MOE 2024.06 (io_trps.svl 2023.06)
