@<TRIPOS>MOLECULE
NONAME
45 47 1 0 0 
SMALL
USER_CHARGES


@<TRIPOS>ATOM
  1 O       -0.4710     1.0900    -1.2880 O.2   1 <1>  -0.5700 
  2 C       -1.2030     1.6500    -0.5100 C.2   1 <1>   0.6300 
  3 N       -2.3490     1.0900    -0.0650 N.am  1 <1>  -0.7300 
  4 C       -0.8430     3.0410    -0.0110 C.3   1 <1>  -0.1000 
  5 C       -2.8880    -0.1900    -0.5260 C.3   1 <1>   0.3640 
  6 C        0.3580     3.2470     0.8650 C.3   1 <1>  -0.2000 
  7 C       -1.0150     3.4390     1.4290 C.3   1 <1>  -0.2000 
  8 C       -4.4090    -0.1080    -0.4710 C.ar  1 <1>  -0.1440 
  9 C       -2.3360    -1.3070     0.3560 C.3   1 <1>  -0.2400 
 10 C       -5.0870     0.0410     0.7320 C.ar  1 <1>  -0.1500 
 11 C       -5.1430    -0.1730    -1.6450 C.ar  1 <1>  -0.1500 
 12 C       -6.4680     0.1210     0.7560 C.ar  1 <1>  -0.1500 
 13 C       -6.5240    -0.0930    -1.6190 C.ar  1 <1>  -0.1500 
 14 C       -7.2020     0.0540    -0.4190 C.ar  1 <1>  -0.1430 
 15 C       -8.7280     0.1410    -0.4110 C.3   1 <1>   0.0630 
 16 C       -9.2060     1.4950     0.1420 C.3   1 <1>  -0.1600 
 17 C       -9.3500    -1.0250     0.3760 C.3   1 <1>  -0.1600 
 18 C      -10.7390     1.5840     0.1600 C.3   1 <1>  -0.1600 
 19 C      -10.8830    -0.9360     0.3940 C.3   1 <1>  -0.1600 
 20 C      -11.3530     0.4170     0.9450 C.3   1 <1>  -0.1600 
 21 H       -2.9860     1.6290     0.5180 H     1 <1>   0.3700 
 22 H       -1.0260     3.7840    -0.7660 H     1 <1>   0.1000 
 23 H       -2.5700    -0.3600    -1.5420 H     1 <1>   0.0800 
 24 H        0.9790     4.1080     0.6860 H     1 <1>   0.1000 
 25 H        0.9290     2.3810     1.1530 H     1 <1>   0.1000 
 26 H       -1.3700     2.7160     2.1430 H     1 <1>   0.1000 
 27 H       -1.3460     4.4380     1.6530 H     1 <1>   0.1000 
 28 H       -2.5630    -1.1340     1.3910 H     1 <1>   0.0800 
 29 H       -1.2700    -1.3720     0.2320 H     1 <1>   0.0800 
 30 H       -2.7700    -2.2450     0.0590 H     1 <1>   0.0800 
 31 H       -4.5450     0.0960     1.6590 H     1 <1>   0.1500 
 32 H       -4.6420    -0.2840    -2.5910 H     1 <1>   0.1500 
 33 H       -6.9700     0.2340     1.7000 H     1 <1>   0.1500 
 34 H       -7.0690    -0.1470    -2.5450 H     1 <1>   0.1500 
 35 H       -9.0780     0.0670    -1.4260 H     1 <1>   0.0800 
 36 H       -8.8050     2.2880    -0.4650 H     1 <1>   0.0800 
 37 H       -8.8370     1.6280     1.1430 H     1 <1>   0.0800 
 38 H       -8.9880    -1.0140     1.3880 H     1 <1>   0.0800 
 39 H       -9.0480    -1.9560    -0.0710 H     1 <1>   0.0800 
 40 H      -11.1090     1.5670    -0.8510 H     1 <1>   0.0800 
 41 H      -11.0400     2.5170     0.6050 H     1 <1>   0.0800 
 42 H      -11.2830    -1.7310     0.9990 H     1 <1>   0.0800 
 43 H      -11.2600    -1.0630    -0.6070 H     1 <1>   0.0800 
 44 H      -12.4270     0.4740     0.8930 H     1 <1>   0.0800 
 45 H      -11.0690     0.4970     1.9800 H     1 <1>   0.0800 
@<TRIPOS>BOND
  1   1   2  2   
  2   2   3  am  
  3   2   4  1   
  4   3   5  1   
  5   3  21  1   
  6   4   6  1   
  7   4   7  1   
  8   4  22  1   
  9   5   8  1   
 10   5   9  1   
 11   5  23  1   
 12   6   7  1   
 13   6  24  1   
 14   6  25  1   
 15   7  26  1   
 16   7  27  1   
 17   8  10  ar  
 18   8  11  ar  
 19   9  28  1   
 20   9  29  1   
 21   9  30  1   
 22  10  12  ar  
 23  10  31  1   
 24  11  13  ar  
 25  11  32  1   
 26  12  14  ar  
 27  12  33  1   
 28  13  14  ar  
 29  13  34  1   
 30  14  15  1   
 31  15  16  1   
 32  15  17  1   
 33  15  35  1   
 34  16  18  1   
 35  16  36  1   
 36  16  37  1   
 37  17  19  1   
 38  17  38  1   
 39  17  39  1   
 40  18  20  1   
 41  18  40  1   
 42  18  41  1   
 43  19  20  1   
 44  19  42  1   
 45  19  43  1   
 46  20  44  1   
 47  20  45  1   
@<TRIPOS>SUBSTRUCTURE
  1 ****  10 GROUP 4 **** **** 0

# MOE 2024.06 (io_trps.svl 2023.06)
