@<TRIPOS>MOLECULE
NONAME
44 45 1 0 0 
SMALL
USER_CHARGES


@<TRIPOS>ATOM
  1 BR       1.6550    -2.1040     3.8790 Br    1 <1>  -0.1110 
  2 C        2.7790    -1.6270     2.3900 C.ar  1 <1>   0.1110 
  3 C        3.2480    -2.6290     1.5610 C.ar  1 <1>  -0.1500 
  4 C        3.0880    -0.2960     2.1890 C.ar  1 <1>  -0.1500 
  5 C        4.0580    -2.2850     0.4920 C.ar  1 <1>  -0.1500 
  6 C        3.8980     0.0380     1.1180 C.ar  1 <1>  -0.1500 
  7 C        4.3880    -0.9460     0.2690 C.ar  1 <1>   0.0830 
  8 O        5.1830    -0.5180    -0.7450 O.3   1 <1>  -0.3630 
  9 C        5.8070    -1.4140    -1.6550 C.3   1 <1>   0.2610 
 10 C        6.8760    -2.3170    -0.9990 C.2   1 <1>   0.5690 
 11 C        6.3640    -0.5770    -2.8130 C.3   1 <1>  -0.2400 
 12 O        6.8210    -3.4920    -1.2890 O.2   1 <1>  -0.5700 
 13 N        7.8590    -1.8540    -0.1480 N.am  1 <1>  -0.6600 
 14 C        8.9430    -2.7730     0.3300 C.3   1 <1>   0.1400 
 15 C        7.9370    -0.4430     0.3640 C.3   1 <1>   0.1400 
 16 C       10.3240    -2.1020     0.2510 C.3   1 <1>   0.1400 
 17 C        9.0500    -0.2270     1.4020 C.3   1 <1>   0.1400 
 18 N       10.3560    -0.7690     0.9240 N.am  1 <1>  -0.6600 
 19 C       11.5140    -0.0510     1.0330 C.2   1 <1>   0.7800 
 20 O       11.5610     1.0480     1.5520 O.2   1 <1>  -0.5700 
 21 O       12.6250    -0.6020     0.5400 O.3   1 <1>  -0.4300 
 22 C       13.8580     0.0760     0.6110 C.3   1 <1>   0.1200 
 23 C       14.9210    -0.8070    -0.0350 C.3   1 <1>  -0.2400 
 24 H        2.9850    -3.6540     1.7500 H     1 <1>   0.1500 
 25 H        2.7020     0.4570     2.8530 H     1 <1>   0.1500 
 26 H        4.4150    -3.0720    -0.1460 H     1 <1>   0.1500 
 27 H        4.1550     1.0660     0.9330 H     1 <1>   0.1500 
 28 H        5.0330    -2.0450    -2.0520 H     1 <1>   0.0800 
 29 H        7.1210     0.1010    -2.4680 H     1 <1>   0.0800 
 30 H        5.5700    -0.0210    -3.2780 H     1 <1>   0.0800 
 31 H        6.8010    -1.2290    -3.5480 H     1 <1>   0.0800 
 32 H        8.9650    -3.6730    -0.2610 H     1 <1>   0.0800 
 33 H        8.7400    -3.0580     1.3470 H     1 <1>   0.0800 
 34 H        7.0040    -0.1750     0.8240 H     1 <1>   0.0800 
 35 H        8.1090     0.2240    -0.4610 H     1 <1>   0.0800 
 36 H       10.5900    -1.9760    -0.7840 H     1 <1>   0.0800 
 37 H       11.0570    -2.7460     0.7040 H     1 <1>   0.0800 
 38 H        8.7820    -0.7190     2.3200 H     1 <1>   0.0800 
 39 H        9.1350     0.8260     1.6100 H     1 <1>   0.0800 
 40 H       14.0860     0.2620     1.6470 H     1 <1>   0.0800 
 41 H       13.7620     1.0130     0.0870 H     1 <1>   0.0800 
 42 H       14.9970    -1.7410     0.4930 H     1 <1>   0.0800 
 43 H       15.8750    -0.3120     0.0050 H     1 <1>   0.0800 
 44 H       14.6730    -0.9930    -1.0640 H     1 <1>   0.0800 
@<TRIPOS>BOND
  1   1   2  1   
  2   2   3  ar  
  3   2   4  ar  
  4   3   5  ar  
  5   3  24  1   
  6   4   6  ar  
  7   4  25  1   
  8   5   7  ar  
  9   5  26  1   
 10   6   7  ar  
 11   6  27  1   
 12   7   8  1   
 13   8   9  1   
 14   9  10  1   
 15   9  11  1   
 16   9  28  1   
 17  10  12  2   
 18  10  13  am  
 19  11  29  1   
 20  11  30  1   
 21  11  31  1   
 22  13  14  1   
 23  13  15  1   
 24  14  16  1   
 25  14  32  1   
 26  14  33  1   
 27  15  17  1   
 28  15  34  1   
 29  15  35  1   
 30  16  18  1   
 31  16  36  1   
 32  16  37  1   
 33  17  18  1   
 34  17  38  1   
 35  17  39  1   
 36  18  19  am  
 37  19  20  2   
 38  19  21  1   
 39  21  22  1   
 40  22  23  1   
 41  22  40  1   
 42  22  41  1   
 43  23  42  1   
 44  23  43  1   
 45  23  44  1   
@<TRIPOS>SUBSTRUCTURE
  1 ****  15 GROUP 4 **** **** 0

# MOE 2024.06 (io_trps.svl 2023.06)
