@<TRIPOS>MOLECULE
NONAME
50 51 1 0 0 
SMALL
USER_CHARGES


@<TRIPOS>ATOM
  1 O        0.1450     1.1140    -1.5840 O.2   1 <1>  -0.5700 
  2 C        0.6110     1.5960    -0.5650 C.2   1 <1>   0.6340 
  3 O       -0.1930     2.1930     0.3280 O.3   1 <1>  -0.0500 
  4 C        2.0260     1.5620    -0.2610 C.ar  1 <1>   0.0860 
  5 N       -1.5980     2.3370     0.1780 N.3   1 <1>  -0.6400 
  6 C        2.9360     0.9620    -1.1390 C.ar  1 <1>  -0.1500 
  7 C        2.5550     2.1190     0.9100 C.ar  1 <1>  -0.1500 
  8 C       -2.3760     1.4310     1.0810 C.3   1 <1>   0.2700 
  9 C       -2.0180     3.7540    -0.0710 C.3   1 <1>   0.2700 
 10 C        4.2890     0.9240    -0.8690 C.ar  1 <1>  -0.1500 
 11 C        3.9080     2.0820     1.1820 C.ar  1 <1>  -0.1500 
 12 C       -3.8280     1.9230     1.2120 C.3   1 <1>  -0.1600 
 13 C       -1.7370     1.3300     2.4740 C.3   1 <1>  -0.2400 
 14 C       -2.3640     0.0430     0.4310 C.3   1 <1>  -0.2400 
 15 C       -3.5320     3.8320    -0.3920 C.3   1 <1>  -0.1600 
 16 C       -1.2310     4.2910    -1.2760 C.3   1 <1>  -0.2400 
 17 C       -1.6780     4.6200     1.1510 C.3   1 <1>  -0.2400 
 18 C        4.7940     1.4880     0.2950 C.ar  1 <1>   0.1000 
 19 C       -4.2980     2.5410    -0.1030 C.3   1 <1>   0.2000 
 20 N        6.1430     1.4580     0.5620 N.pl3 1 <1>  -0.9000 
 21 O       -5.6680     2.8600     0.0010 O.3   1 <1>  -0.4300 
 22 C       -6.6830     2.0360    -0.2340 C.2   1 <1>   0.6590 
 23 O       -7.8000     2.3530     0.0700 O.2   1 <1>  -0.5700 
 24 C       -6.4340     0.6990    -0.9010 C.3   1 <1>  -0.1790 
 25 H        2.5680     0.5190    -2.0490 H     1 <1>   0.1500 
 26 H        1.9010     2.5900     1.6230 H     1 <1>   0.1500 
 27 H        4.9630     0.4540    -1.5600 H     1 <1>   0.1500 
 28 H        4.2880     2.5140     2.0900 H     1 <1>   0.1500 
 29 H       -3.8960     2.6640     1.9870 H     1 <1>   0.0800 
 30 H       -4.4630     1.1050     1.4960 H     1 <1>   0.0800 
 31 H       -1.6430     2.3000     2.9230 H     1 <1>   0.0800 
 32 H       -0.7660     0.8730     2.4230 H     1 <1>   0.0800 
 33 H       -2.3500     0.7220     3.1140 H     1 <1>   0.0800 
 34 H       -2.7510     0.0880    -0.5700 H     1 <1>   0.0800 
 35 H       -2.9560    -0.6500     1.0000 H     1 <1>   0.0800 
 36 H       -1.3610    -0.3410     0.3840 H     1 <1>   0.0800 
 37 H       -3.6790     4.0670    -1.4310 H     1 <1>   0.0800 
 38 H       -3.9720     4.6350     0.1710 H     1 <1>   0.0800 
 39 H       -0.1830     4.3670    -1.0540 H     1 <1>   0.0800 
 40 H       -1.5800     5.2710    -1.5430 H     1 <1>   0.0800 
 41 H       -1.3620     3.6380    -2.1210 H     1 <1>   0.0800 
 42 H       -2.2620     4.3300     2.0030 H     1 <1>   0.0800 
 43 H       -1.8940     5.6520     0.9420 H     1 <1>   0.0800 
 44 H       -0.6360     4.5420     1.3970 H     1 <1>   0.0800 
 45 H       -4.1480     1.8600    -0.9220 H     1 <1>   0.0800 
 46 H        6.5240     2.0940     1.2680 H     1 <1>   0.4000 
 47 H        6.7950     1.2560    -0.2010 H     1 <1>   0.4000 
 48 H       -5.7830     0.0960    -0.2990 H     1 <1>   0.0800 
 49 H       -6.0000     0.8510    -1.8710 H     1 <1>   0.0800 
 50 H       -7.3680     0.1820    -1.0210 H     1 <1>   0.0800 
@<TRIPOS>BOND
  1   1   2  2   
  2   2   3  1   
  3   2   4  1   
  4   3   5  1   
  5   4   6  ar  
  6   4   7  ar  
  7   5   8  1   
  8   5   9  1   
  9   6  10  ar  
 10   6  25  1   
 11   7  11  ar  
 12   7  26  1   
 13   8  12  1   
 14   8  13  1   
 15   8  14  1   
 16   9  15  1   
 17   9  16  1   
 18   9  17  1   
 19  10  18  ar  
 20  10  27  1   
 21  11  18  ar  
 22  11  28  1   
 23  12  19  1   
 24  12  29  1   
 25  12  30  1   
 26  13  31  1   
 27  13  32  1   
 28  13  33  1   
 29  14  34  1   
 30  14  35  1   
 31  14  36  1   
 32  15  19  1   
 33  15  37  1   
 34  15  38  1   
 35  16  39  1   
 36  16  40  1   
 37  16  41  1   
 38  17  42  1   
 39  17  43  1   
 40  17  44  1   
 41  18  20  1   
 42  19  21  1   
 43  19  45  1   
 44  20  46  1   
 45  20  47  1   
 46  21  22  1   
 47  22  23  2   
 48  22  24  1   
 49  24  48  1   
 50  24  49  1   
 51  24  50  1   
@<TRIPOS>SUBSTRUCTURE
  1 ****   5 GROUP 4 **** **** 0

# MOE 2024.06 (io_trps.svl 2023.06)
