@<TRIPOS>MOLECULE
NONAME
32 33 1 0 0 
SMALL
USER_CHARGES


@<TRIPOS>ATOM
  1 O        0.9150    -1.1800    -1.1760 O.3   1 <1>  -0.5600 
  2 C        1.5110     0.0610    -0.8960 C.3   1 <1>   0.1200 
  3 C        0.5090    -1.8930    -0.0390 C.3   1 <1>   0.1200 
  4 C        2.6920    -0.0840     0.0930 C.3   1 <1>   0.3430 
  5 C        1.7180    -2.2280     0.8660 C.3   1 <1>   0.3430 
  6 N        2.9620    -1.5280     0.4040 N.4   1 <1>  -0.9590 
  7 C        4.1410    -1.7440     1.2830 C.3   1 <1>   0.4860 
  8 C        5.3550    -1.1110     0.6300 C.ar  1 <1>  -0.1440 
  9 C        5.9800    -1.6810    -0.4790 C.ar  1 <1>  -0.1440 
 10 C        5.8410     0.0780     1.1570 C.ar  1 <1>  -0.1500 
 11 C        7.0660    -1.0340    -1.0490 C.ar  1 <1>  -0.1500 
 12 C        5.5260    -2.9970    -1.1000 C.3   1 <1>  -0.0970 
 13 C        6.9270     0.7110     0.5820 C.ar  1 <1>  -0.1500 
 14 C        7.5380     0.1550    -0.5250 C.ar  1 <1>  -0.1500 
 15 H        0.7610     0.7230    -0.4980 H     1 <1>   0.0800 
 16 H        1.8600     0.4710    -1.8280 H     1 <1>   0.0800 
 17 H        0.0290    -2.7980    -0.3700 H     1 <1>   0.0800 
 18 H       -0.2180    -1.3040     0.4940 H     1 <1>   0.0800 
 19 H        2.4610     0.4520     0.9980 H     1 <1>   0.0800 
 20 H        3.5670     0.3730    -0.3410 H     1 <1>   0.0800 
 21 H        1.8740    -3.2940     0.8580 H     1 <1>   0.0800 
 22 H        1.4830    -1.9410     1.8780 H     1 <1>   0.0800 
 23 H        3.1930    -1.9340    -0.5140 H     1 <1>   0.4500 
 24 H        4.3170    -2.7980     1.4200 H     1 <1>   0.0800 
 25 H        3.9720    -1.2980     2.2490 H     1 <1>   0.0800 
 26 H        5.3850     0.5290     2.0220 H     1 <1>   0.1500 
 27 H        7.5610    -1.4530    -1.9090 H     1 <1>   0.1500 
 28 H        4.6790    -2.8370    -1.7420 H     1 <1>   0.0800 
 29 H        5.2750    -3.7180    -0.3430 H     1 <1>   0.0800 
 30 H        6.3160    -3.4210    -1.6950 H     1 <1>   0.0800 
 31 H        7.3020     1.6330     0.9940 H     1 <1>   0.1500 
 32 H        8.3840     0.6450    -0.9770 H     1 <1>   0.1500 
@<TRIPOS>BOND
  1   1   2  1   
  2   1   3  1   
  3   2   4  1   
  4   2  15  1   
  5   2  16  1   
  6   3   5  1   
  7   3  17  1   
  8   3  18  1   
  9   4   6  1   
 10   4  19  1   
 11   4  20  1   
 12   5   6  1   
 13   5  21  1   
 14   5  22  1   
 15   6   7  1   
 16   6  23  1   
 17   7   8  1   
 18   7  24  1   
 19   7  25  1   
 20   8   9  ar  
 21   8  10  ar  
 22   9  11  ar  
 23   9  12  1   
 24  10  13  ar  
 25  10  26  1   
 26  11  14  ar  
 27  11  27  1   
 28  12  28  1   
 29  12  29  1   
 30  12  30  1   
 31  13  14  ar  
 32  13  31  1   
 33  14  32  1   
@<TRIPOS>SUBSTRUCTURE
  1 ****   8 GROUP 4 **** **** 0

# MOE 2024.06 (io_trps.svl 2023.06)
