@<TRIPOS>MOLECULE
NONAME
39 40 1 0 0 
SMALL
USER_CHARGES


@<TRIPOS>ATOM
  1 CL       3.3840     0.8750    -1.8180 Cl    1 <1>  -0.1770 
  2 C        2.7900    -0.3520    -0.7140 C.ar  1 <1>   0.1770 
  3 C        3.4980    -0.8120     0.4100 C.ar  1 <1>   0.0820 
  4 C        1.5360    -0.8530    -1.0140 C.ar  1 <1>  -0.1500 
  5 O        4.7350    -0.4240     0.8290 O.3   1 <1>  -0.3630 
  6 C        2.9030    -1.7750     1.2170 C.ar  1 <1>  -0.1500 
  7 C        0.9780    -1.8120    -0.1930 C.ar  1 <1>   0.1770 
  8 C        5.6220     0.3470     0.0580 C.3   1 <1>   0.1200 
  9 C        1.6480    -2.2790     0.9220 C.ar  1 <1>  -0.1500 
 10 CL      -0.6040    -2.4460    -0.5690 Cl    1 <1>  -0.1770 
 11 C        6.9700     0.3650     0.7800 C.3   1 <1>  -0.1600 
 12 C        8.0050     1.2030     0.0140 C.3   1 <1>  -0.1600 
 13 C        9.3460     1.2070     0.7520 C.3   1 <1>   0.3430 
 14 N       10.3770     1.9280    -0.0410 N.4   1 <1>  -0.9590 
 15 C       11.7700     1.6670     0.4570 C.3   1 <1>   0.3430 
 16 C       10.1420     3.4090    -0.1680 C.3   1 <1>   0.3430 
 17 C       12.8250     2.4150    -0.3920 C.3   1 <1>   0.1200 
 18 C       11.2810     4.1000    -0.9550 C.3   1 <1>   0.1200 
 19 O       12.2220     3.1660    -1.4110 O.3   1 <1>  -0.5600 
 20 H        0.9980    -0.5000    -1.8740 H     1 <1>   0.1500 
 21 H        3.4340    -2.1310     2.0820 H     1 <1>   0.1500 
 22 H        5.2210     1.3420    -0.0210 H     1 <1>   0.0800 
 23 H        5.7140    -0.1080    -0.9140 H     1 <1>   0.0800 
 24 H        1.1910    -3.0250     1.5480 H     1 <1>   0.1500 
 25 H        7.3210    -0.6490     0.8760 H     1 <1>   0.0800 
 26 H        6.8260     0.7760     1.7650 H     1 <1>   0.0800 
 27 H        7.6310     2.2070    -0.0810 H     1 <1>   0.0800 
 28 H        8.1350     0.7830    -0.9680 H     1 <1>   0.0800 
 29 H        9.6580     0.1860     0.9040 H     1 <1>   0.0800 
 30 H        9.2310     1.6690     1.7200 H     1 <1>   0.0800 
 31 H       10.3740     1.5730    -1.0100 H     1 <1>   0.4500 
 32 H       11.9820     0.6110     0.4270 H     1 <1>   0.0800 
 33 H       11.8590     1.9860     1.4830 H     1 <1>   0.0800 
 34 H       10.0720     3.8570     0.8090 H     1 <1>   0.0800 
 35 H        9.2100     3.5930    -0.6760 H     1 <1>   0.0800 
 36 H       13.4930     1.7100    -0.8580 H     1 <1>   0.0800 
 37 H       13.4120     3.0760     0.2230 H     1 <1>   0.0800 
 38 H       11.7850     4.8260    -0.3390 H     1 <1>   0.0800 
 39 H       10.8810     4.6100    -1.8140 H     1 <1>   0.0800 
@<TRIPOS>BOND
  1   1   2  1   
  2   2   3  ar  
  3   2   4  ar  
  4   3   5  1   
  5   3   6  ar  
  6   4   7  ar  
  7   4  20  1   
  8   5   8  1   
  9   6   9  ar  
 10   6  21  1   
 11   7   9  ar  
 12   7  10  1   
 13   8  11  1   
 14   8  22  1   
 15   8  23  1   
 16   9  24  1   
 17  11  12  1   
 18  11  25  1   
 19  11  26  1   
 20  12  13  1   
 21  12  27  1   
 22  12  28  1   
 23  13  14  1   
 24  13  29  1   
 25  13  30  1   
 26  14  15  1   
 27  14  16  1   
 28  14  31  1   
 29  15  17  1   
 30  15  32  1   
 31  15  33  1   
 32  16  18  1   
 33  16  34  1   
 34  16  35  1   
 35  17  19  1   
 36  17  36  1   
 37  17  37  1   
 38  18  19  1   
 39  18  38  1   
 40  18  39  1   
@<TRIPOS>SUBSTRUCTURE
  1 ****   8 GROUP 4 **** **** 0

# MOE 2024.06 (io_trps.svl 2023.06)
