@<TRIPOS>MOLECULE
NONAME
52 53 1 0 0 
SMALL
USER_CHARGES


@<TRIPOS>ATOM
  1 O       -0.1890    -7.1590    -0.1730 O.3   1 <1>  -0.3630 
  2 C        1.1670    -7.2480    -0.0950 C.ar  1 <1>   0.0830 
  3 C       -0.8740    -5.9490     0.0060 C.3   1 <1>   0.1200 
  4 C        1.7470    -8.5140    -0.1950 C.ar  1 <1>   0.0820 
  5 C        1.9850    -6.1370     0.0780 C.ar  1 <1>  -0.1500 
  6 C       -2.3630    -6.2730    -0.0890 C.3   1 <1>  -0.1600 
  7 O        0.9140    -9.5830    -0.3640 O.3   1 <1>  -0.3630 
  8 C        3.1300    -8.6440    -0.1190 C.ar  1 <1>  -0.1500 
  9 C        3.3580    -6.2880     0.1520 C.ar  1 <1>  -0.1500 
 10 C       -3.2110    -5.0230     0.1240 C.3   1 <1>   0.3430 
 11 C        1.4120   -10.8930    -0.5190 C.3   1 <1>   0.0400 
 12 C        3.9600    -7.5390     0.0550 C.ar  1 <1>   0.0280 
 13 N       -4.6530    -5.3360    -0.0790 N.4   1 <1>  -0.9590 
 14 C        5.3950    -7.7170     0.1300 C.2   1 <1>  -0.1780 
 15 C       -5.4450    -4.0790    -0.2470 C.3   1 <1>   0.3430 
 16 C       -5.2120    -6.1860     1.0170 C.3   1 <1>   0.3430 
 17 C        6.3550    -6.7770     0.1320 C.2   1 <1>  -0.2880 
 18 C       -6.9050    -4.4040    -0.5960 C.3   1 <1>  -0.0800 
 19 C       -6.6580    -6.5620     0.6930 C.3   1 <1>  -0.1600 
 20 C        7.8420    -7.0660     0.2170 C.3   1 <1>  -0.1020 
 21 C       -7.5320    -5.3220     0.4640 C.3   1 <1>  -0.1600 
 22 C       -7.7270    -3.1150    -0.7300 C.3   1 <1>  -0.2400 
 23 H       -0.6160    -5.5580     0.9760 H     1 <1>   0.0800 
 24 H       -0.5670    -5.2700    -0.7720 H     1 <1>   0.0800 
 25 H        1.5800    -5.1480     0.1580 H     1 <1>   0.1500 
 26 H       -2.5570    -6.6840    -1.0650 H     1 <1>   0.0800 
 27 H       -2.5880    -7.0100     0.6610 H     1 <1>   0.0800 
 28 H        3.5920    -9.6070    -0.1930 H     1 <1>   0.1500 
 29 H        3.9680    -5.4150     0.2910 H     1 <1>   0.1500 
 30 H       -2.9040    -4.2720    -0.5870 H     1 <1>   0.0800 
 31 H       -3.0520    -4.6320     1.1160 H     1 <1>   0.0800 
 32 H        0.5740   -11.5530    -0.6550 H     1 <1>   0.0800 
 33 H        1.9530   -11.1680     0.3690 H     1 <1>   0.0800 
 34 H        2.0460   -10.9250    -1.3870 H     1 <1>   0.0800 
 35 H       -4.7440    -5.8710    -0.9530 H     1 <1>   0.4500 
 36 H        5.6900    -8.7500     0.1890 H     1 <1>   0.1500 
 37 H       -5.4170    -3.5070     0.6660 H     1 <1>   0.0800 
 38 H       -5.0190    -3.4780    -1.0350 H     1 <1>   0.0800 
 39 H       -4.6300    -7.0870     1.1270 H     1 <1>   0.0800 
 40 H       -5.1800    -5.6470     1.9500 H     1 <1>   0.0800 
 41 H        6.1470    -5.7230     0.0700 H     1 <1>   0.1500 
 42 H       -6.9240    -4.9050    -1.5490 H     1 <1>   0.0800 
 43 H       -6.6770    -7.1930    -0.1790 H     1 <1>   0.0800 
 44 H       -7.0630    -7.1350     1.5100 H     1 <1>   0.0800 
 45 H        8.2580    -6.5960     1.0900 H     1 <1>   0.0800 
 46 H        8.3410    -6.6810    -0.6550 H     1 <1>   0.0800 
 47 H        8.0240    -8.1240     0.2770 H     1 <1>   0.0800 
 48 H       -7.6390    -4.7870     1.3930 H     1 <1>   0.0800 
 49 H       -8.5160    -5.6280     0.1490 H     1 <1>   0.0800 
 50 H       -7.7420    -2.5670     0.1970 H     1 <1>   0.0800 
 51 H       -8.7430    -3.3470    -1.0010 H     1 <1>   0.0800 
 52 H       -7.3170    -2.4810    -1.4970 H     1 <1>   0.0800 
@<TRIPOS>BOND
  1   1   2  1   
  2   1   3  1   
  3   2   4  ar  
  4   2   5  ar  
  5   3   6  1   
  6   3  23  1   
  7   3  24  1   
  8   4   7  1   
  9   4   8  ar  
 10   5   9  ar  
 11   5  25  1   
 12   6  10  1   
 13   6  26  1   
 14   6  27  1   
 15   7  11  1   
 16   8  12  ar  
 17   8  28  1   
 18   9  12  ar  
 19   9  29  1   
 20  10  13  1   
 21  10  30  1   
 22  10  31  1   
 23  11  32  1   
 24  11  33  1   
 25  11  34  1   
 26  12  14  1   
 27  13  15  1   
 28  13  16  1   
 29  13  35  1   
 30  14  17  2   
 31  14  36  1   
 32  15  18  1   
 33  15  37  1   
 34  15  38  1   
 35  16  19  1   
 36  16  39  1   
 37  16  40  1   
 38  17  20  1   
 39  17  41  1   
 40  18  21  1   
 41  18  22  1   
 42  18  42  1   
 43  19  21  1   
 44  19  43  1   
 45  19  44  1   
 46  20  45  1   
 47  20  46  1   
 48  20  47  1   
 49  21  48  1   
 50  21  49  1   
 51  22  50  1   
 52  22  51  1   
 53  22  52  1   
@<TRIPOS>SUBSTRUCTURE
  1 ****   1 GROUP 4 **** **** 0

# MOE 2024.06 (io_trps.svl 2023.06)
