@<TRIPOS>MOLECULE
NONAME
43 43 1 0 0 
SMALL
USER_CHARGES


@<TRIPOS>ATOM
  1 S        0.2430    -0.3770     0.0210 S.o2  1 <1>   1.3330 
  2 O       -1.0370    -1.0130     0.2030 O.2   1 <1>  -0.6500 
  3 O        1.3550    -1.1210    -0.5270 O.2   1 <1>  -0.6500 
  4 N        0.0350     1.0280    -0.9690 N.am  1 <1>  -0.6930 
  5 C        0.7640     0.3490     1.5610 C.3   1 <1>  -0.1350 
  6 C       -0.9180     2.0050    -0.6850 C.ar  1 <1>   0.1990 
  7 C        1.0230     1.2630    -2.0690 C.3   1 <1>   0.2570 
  8 C       -2.2690     1.6910    -0.6130 C.ar  1 <1>  -0.1500 
  9 C       -0.5390     3.3230    -0.4610 C.ar  1 <1>  -0.1500 
 10 C        2.4070     1.7220    -1.5910 C.2   1 <1>   0.5690 
 11 C       -3.2230     2.6500    -0.3150 C.ar  1 <1>  -0.1440 
 12 C       -1.4810     4.2900    -0.1670 C.ar  1 <1>  -0.1500 
 13 O        2.6990     2.8910    -1.6720 O.2   1 <1>  -0.5700 
 14 N        3.2790     0.8110    -1.0810 N.am  1 <1>  -0.7300 
 15 C       -2.8270     3.9640    -0.0890 C.ar  1 <1>  -0.1430 
 16 C       -4.6860     2.2370    -0.2440 C.3   1 <1>  -0.0970 
 17 C        4.6730     1.0960    -0.6590 C.3   1 <1>   0.1400 
 18 C       -3.8350     5.0550     0.2390 C.3   1 <1>  -0.0970 
 19 C        4.6920     1.7980     0.6980 C.3   1 <1>   0.1200 
 20 O        6.0120     1.8860     1.1310 O.3   1 <1>  -0.5600 
 21 C        6.1710     2.5930     2.3180 C.3   1 <1>   0.0400 
 22 H        0.9680    -0.4200     2.2790 H     1 <1>   0.0800 
 23 H       -0.0090     0.9840     1.9470 H     1 <1>   0.0800 
 24 H        1.6500     0.9340     1.4150 H     1 <1>   0.0800 
 25 H        0.6340     2.0140    -2.7330 H     1 <1>   0.0800 
 26 H        1.1360     0.3590    -2.6390 H     1 <1>   0.0800 
 27 H       -2.5730     0.6770    -0.7980 H     1 <1>   0.1500 
 28 H        0.4980     3.6010    -0.5120 H     1 <1>   0.1500 
 29 H       -1.1580     5.3020     0.0010 H     1 <1>   0.1500 
 30 H        2.9580    -0.1650    -0.9690 H     1 <1>   0.3700 
 31 H       -4.7990     1.1830    -0.4270 H     1 <1>   0.0800 
 32 H       -5.2560     2.7710    -0.9820 H     1 <1>   0.0800 
 33 H       -5.0830     2.4520     0.7320 H     1 <1>   0.0800 
 34 H        5.1440     1.7310    -1.3910 H     1 <1>   0.0800 
 35 H        5.2190     0.1700    -0.5960 H     1 <1>   0.0800 
 36 H       -4.3550     4.8140     1.1490 H     1 <1>   0.0800 
 37 H       -4.5480     5.1490    -0.5590 H     1 <1>   0.0800 
 38 H       -3.3480     6.0040     0.3700 H     1 <1>   0.0800 
 39 H        4.1370     1.2290     1.4230 H     1 <1>   0.0800 
 40 H        4.2870     2.7910     0.6040 H     1 <1>   0.0800 
 41 H        7.2180     2.6030     2.5640 H     1 <1>   0.0800 
 42 H        5.6180     2.1040     3.1010 H     1 <1>   0.0800 
 43 H        5.8230     3.6030     2.1790 H     1 <1>   0.0800 
@<TRIPOS>BOND
  1   1   2  2   
  2   1   3  2   
  3   1   4  am  
  4   1   5  1   
  5   4   6  1   
  6   4   7  1   
  7   5  22  1   
  8   5  23  1   
  9   5  24  1   
 10   6   8  ar  
 11   6   9  ar  
 12   7  10  1   
 13   7  25  1   
 14   7  26  1   
 15   8  11  ar  
 16   8  27  1   
 17   9  12  ar  
 18   9  28  1   
 19  10  13  2   
 20  10  14  am  
 21  11  15  ar  
 22  11  16  1   
 23  12  15  ar  
 24  12  29  1   
 25  14  17  1   
 26  14  30  1   
 27  15  18  1   
 28  16  31  1   
 29  16  32  1   
 30  16  33  1   
 31  17  19  1   
 32  17  34  1   
 33  17  35  1   
 34  18  36  1   
 35  18  37  1   
 36  18  38  1   
 37  19  20  1   
 38  19  39  1   
 39  19  40  1   
 40  20  21  1   
 41  21  41  1   
 42  21  42  1   
 43  21  43  1   
@<TRIPOS>SUBSTRUCTURE
  1 ****   4 GROUP 4 **** **** 0

# MOE 2024.06 (io_trps.svl 2023.06)
