@<TRIPOS>MOLECULE
NONAME
35 36 1 0 0 
SMALL
USER_CHARGES


@<TRIPOS>ATOM
  1 F        1.1950    -1.4530    -1.5720 F     1 <1>  -0.1900 
  2 C        0.6380    -2.1630    -0.6240 C.ar  1 <1>   0.1900 
  3 C       -0.6210    -2.6960    -0.8430 C.ar  1 <1>   0.1900 
  4 C        1.3140    -2.3620     0.5790 C.ar  1 <1>   0.0860 
  5 F       -1.2150    -2.4910    -1.9930 F     1 <1>  -0.1900 
  6 C       -1.2730    -3.4440     0.1250 C.ar  1 <1>  -0.1440 
  7 C        2.6360    -1.8330     0.8410 C.2   1 <1>   0.5440 
  8 C        0.6420    -3.1090     1.5510 C.ar  1 <1>  -0.1500 
  9 C       -0.6200    -3.6410     1.3330 C.ar  1 <1>  -0.1500 
 10 C       -2.6580    -4.0280    -0.1180 C.3   1 <1>  -0.0960 
 11 O        2.8380    -1.2930     1.9120 O.2   1 <1>  -0.5700 
 12 N        3.6730    -1.9950    -0.0580 N.am  1 <1>  -0.6600 
 13 C        4.8830    -1.1280    -0.1710 C.3   1 <1>   0.2200 
 14 C        3.8450    -3.2840    -0.7810 C.3   1 <1>   0.1400 
 15 C        6.0560    -1.8400     0.5130 C.3   1 <1>  -0.1600 
 16 C        4.6900     0.3020     0.3420 C.3   1 <1>  -0.2400 
 17 C        5.0120    -4.0540    -0.1490 C.3   1 <1>  -0.1600 
 18 C        6.3040    -3.2210    -0.1170 C.3   1 <1>  -0.1600 
 19 H        1.1290    -3.2680     2.4990 H     1 <1>   0.1500 
 20 H       -1.0930    -4.2110     2.1160 H     1 <1>   0.1500 
 21 H       -3.3590    -3.2370    -0.3190 H     1 <1>   0.0800 
 22 H       -3.0020    -4.5790     0.7390 H     1 <1>   0.0800 
 23 H       -2.6340    -4.6910    -0.9640 H     1 <1>   0.0800 
 24 H        5.1130    -1.0440    -1.2200 H     1 <1>   0.0800 
 25 H        4.0490    -3.0830    -1.8190 H     1 <1>   0.0800 
 26 H        2.9510    -3.8800    -0.7250 H     1 <1>   0.0800 
 27 H        5.8340    -1.9470     1.5610 H     1 <1>   0.0800 
 28 H        6.9450    -1.2410     0.4230 H     1 <1>   0.0800 
 29 H        4.6370     0.3250     1.4150 H     1 <1>   0.0800 
 30 H        3.7920     0.7250    -0.0720 H     1 <1>   0.0800 
 31 H        5.5230     0.9090     0.0400 H     1 <1>   0.0800 
 32 H        5.1810    -4.9620    -0.7000 H     1 <1>   0.0800 
 33 H        4.7380    -4.3270     0.8560 H     1 <1>   0.0800 
 34 H        7.0610    -3.7440     0.4410 H     1 <1>   0.0800 
 35 H        6.6650    -3.0900    -1.1230 H     1 <1>   0.0800 
@<TRIPOS>BOND
  1   1   2  1   
  2   2   3  ar  
  3   2   4  ar  
  4   3   5  1   
  5   3   6  ar  
  6   4   7  1   
  7   4   8  ar  
  8   6   9  ar  
  9   6  10  1   
 10   7  11  2   
 11   7  12  am  
 12   8   9  ar  
 13   8  19  1   
 14   9  20  1   
 15  10  21  1   
 16  10  22  1   
 17  10  23  1   
 18  12  13  1   
 19  12  14  1   
 20  13  15  1   
 21  13  16  1   
 22  13  24  1   
 23  14  17  1   
 24  14  25  1   
 25  14  26  1   
 26  15  18  1   
 27  15  27  1   
 28  15  28  1   
 29  16  29  1   
 30  16  30  1   
 31  16  31  1   
 32  17  18  1   
 33  17  32  1   
 34  17  33  1   
 35  18  34  1   
 36  18  35  1   
@<TRIPOS>SUBSTRUCTURE
  1 ****   4 GROUP 4 **** **** 0

# MOE 2024.06 (io_trps.svl 2023.06)
