@<TRIPOS>MOLECULE
NONAME
41 41 1 0 0 
SMALL
USER_CHARGES


@<TRIPOS>ATOM
  1 O       -0.3770     7.8040     0.4710 O.2   1 <1>  -0.5700 
  2 C       -0.2560     6.9600    -0.3820 C.2   1 <1>   0.6590 
  3 O        0.5810     7.0730    -1.3970 O.3   1 <1>  -0.4300 
  4 C       -1.0700     5.6920    -0.3240 C.3   1 <1>  -0.0990 
  5 C        1.4170     8.2020    -1.5650 C.3   1 <1>   0.0400 
  6 C       -2.4240     5.9530     0.3380 C.3   1 <1>   0.5660 
  7 N       -2.2880     6.3530     1.7460 N.4   1 <1>  -0.8530 
  8 C       -3.3380     4.7410     0.3250 C.ar  1 <1>  -0.1430 
  9 C       -4.6490     4.9080    -0.0930 C.ar  1 <1>  -0.1500 
 10 C       -2.9240     3.4790     0.7300 C.ar  1 <1>  -0.1500 
 11 C       -5.5500     3.8580    -0.1090 C.ar  1 <1>   0.0830 
 12 C       -3.8090     2.4160     0.7170 C.ar  1 <1>  -0.1500 
 13 O       -6.7920     4.2170    -0.5440 O.3   1 <1>  -0.3630 
 14 C       -5.1300     2.5810     0.3040 C.ar  1 <1>   0.0830 
 15 C       -7.8350     3.2970    -0.7800 C.3   1 <1>   0.1200 
 16 O       -6.0020     1.5330     0.3060 O.3   1 <1>  -0.3630 
 17 C       -9.0210     4.0600    -1.3710 C.3   1 <1>  -0.1600 
 18 C       -5.6220     0.2170     0.6470 C.3   1 <1>   0.0400 
 19 C      -10.2000     3.1240    -1.6520 C.3   1 <1>  -0.2400 
 20 H       -0.5110     4.9380     0.1960 H     1 <1>   0.0800 
 21 H       -1.2370     5.3500    -1.3300 H     1 <1>   0.0800 
 22 H        2.0030     8.0640    -2.4560 H     1 <1>   0.0800 
 23 H        2.0640     8.2900    -0.7090 H     1 <1>   0.0800 
 24 H        0.8040     9.0820    -1.6600 H     1 <1>   0.0800 
 25 H       -2.9090     6.7510    -0.2040 H     1 <1>   0.0800 
 26 H       -1.9350     5.5780     2.3120 H     1 <1>   0.4500 
 27 H       -3.1990     6.6350     2.1170 H     1 <1>   0.4500 
 28 H       -1.6300     7.1510     1.7950 H     1 <1>   0.4500 
 29 H       -5.0100     5.8680    -0.4200 H     1 <1>   0.1500 
 30 H       -1.9160     3.2900     1.0590 H     1 <1>   0.1500 
 31 H       -3.4470     1.4570     1.0380 H     1 <1>   0.1500 
 32 H       -8.1060     2.8430     0.1570 H     1 <1>   0.0800 
 33 H       -7.4820     2.5500    -1.4690 H     1 <1>   0.0800 
 34 H       -8.7160     4.5320    -2.2890 H     1 <1>   0.0800 
 35 H       -9.3320     4.8230    -0.6780 H     1 <1>   0.0800 
 36 H       -6.4830    -0.4180     0.5370 H     1 <1>   0.0800 
 37 H       -5.2890     0.2010     1.6700 H     1 <1>   0.0800 
 38 H       -4.8440    -0.1080    -0.0210 H     1 <1>   0.0800 
 39 H       -9.9160     2.3610    -2.3560 H     1 <1>   0.0800 
 40 H      -11.0220     3.6810    -2.0670 H     1 <1>   0.0800 
 41 H      -10.5320     2.6520    -0.7430 H     1 <1>   0.0800 
@<TRIPOS>BOND
  1   1   2  2   
  2   2   3  1   
  3   2   4  1   
  4   3   5  1   
  5   4   6  1   
  6   4  20  1   
  7   4  21  1   
  8   5  22  1   
  9   5  23  1   
 10   5  24  1   
 11   6   7  1   
 12   6   8  1   
 13   6  25  1   
 14   7  26  1   
 15   7  27  1   
 16   7  28  1   
 17   8   9  ar  
 18   8  10  ar  
 19   9  11  ar  
 20   9  29  1   
 21  10  12  ar  
 22  10  30  1   
 23  11  13  1   
 24  11  14  ar  
 25  12  14  ar  
 26  12  31  1   
 27  13  15  1   
 28  14  16  1   
 29  15  17  1   
 30  15  32  1   
 31  15  33  1   
 32  16  18  1   
 33  17  19  1   
 34  17  34  1   
 35  17  35  1   
 36  18  36  1   
 37  18  37  1   
 38  18  38  1   
 39  19  39  1   
 40  19  40  1   
 41  19  41  1   
@<TRIPOS>SUBSTRUCTURE
  1 ****   9 GROUP 4 **** **** 0

# MOE 2024.06 (io_trps.svl 2023.06)
