@<TRIPOS>MOLECULE
NONAME
46 47 1 0 0 
SMALL
USER_CHARGES


@<TRIPOS>ATOM
  1 CL      -3.5220     1.2320    -4.2850 Cl    1 <1>  -0.1770 
  2 C       -3.3780     1.4210    -2.5550 C.ar  1 <1>   0.1770 
  3 C       -2.4640     2.3040    -2.0050 C.ar  1 <1>   0.1770 
  4 C       -4.2080     0.6710    -1.7410 C.ar  1 <1>  -0.1500 
  5 CL      -1.4170     3.2620    -3.0230 Cl    1 <1>  -0.1770 
  6 C       -2.3730     2.4390    -0.6320 C.ar  1 <1>  -0.1500 
  7 C       -4.1330     0.8110    -0.3590 C.ar  1 <1>  -0.1440 
  8 C       -3.2040     1.6910     0.1880 C.ar  1 <1>  -0.1500 
  9 C       -5.0560     0.0100     0.5420 C.3   1 <1>   0.4870 
 10 N       -6.4300     0.5950     0.4420 N.4   1 <1>  -0.9590 
 11 C       -6.4410     1.9600     1.0590 C.3   1 <1>   0.4860 
 12 C       -7.4810    -0.3370     1.0140 C.3   1 <1>   0.3430 
 13 C       -7.7200     2.6520     0.6430 C.ar  1 <1>  -0.1430 
 14 C       -8.6560    -0.6850     0.0470 C.3   1 <1>   0.3430 
 15 C       -7.9200     3.0140    -0.6830 C.ar  1 <1>  -0.1500 
 16 C       -8.6970     2.9390     1.5860 C.ar  1 <1>  -0.1500 
 17 N       -9.6760     0.4070    -0.1680 N.4   1 <1>  -0.9590 
 18 C       -9.0990     3.6270    -1.0650 C.ar  1 <1>  -0.1500 
 19 C       -9.8730     3.5590     1.2010 C.ar  1 <1>  -0.1500 
 20 C      -10.7430     0.3910     0.8880 C.3   1 <1>   0.2630 
 21 C      -10.3360     0.2810    -1.5090 C.3   1 <1>   0.2630 
 22 C      -10.0770     3.8960    -0.1250 C.ar  1 <1>  -0.1500 
 23 H       -4.8910    -0.0140    -2.2120 H     1 <1>   0.1500 
 24 H       -1.6520     3.1240    -0.2160 H     1 <1>   0.1500 
 25 H       -3.1060     1.8080     1.2560 H     1 <1>   0.1500 
 26 H       -4.7020     0.0390     1.5610 H     1 <1>   0.0800 
 27 H       -5.0590    -1.0170     0.2130 H     1 <1>   0.0800 
 28 H       -6.5910     0.7500    -0.5600 H     1 <1>   0.4500 
 29 H       -5.6050     2.5430     0.7060 H     1 <1>   0.0800 
 30 H       -6.3800     1.8950     2.1330 H     1 <1>   0.0800 
 31 H       -7.8830     0.0710     1.9260 H     1 <1>   0.0800 
 32 H       -7.0030    -1.2680     1.2760 H     1 <1>   0.0800 
 33 H       -9.1670    -1.5520     0.4350 H     1 <1>   0.0800 
 34 H       -8.2350    -0.9740    -0.9010 H     1 <1>   0.0800 
 35 H       -7.1610     2.8460    -1.4320 H     1 <1>   0.1500 
 36 H       -8.5540     2.7050     2.6300 H     1 <1>   0.1500 
 37 H       -9.2400     1.3540    -0.1360 H     1 <1>   0.4500 
 38 H       -9.2530     3.9210    -2.0920 H     1 <1>   0.1500 
 39 H      -10.6270     3.8000     1.9350 H     1 <1>   0.1500 
 40 H      -11.2760    -0.5460     0.8760 H     1 <1>   0.0800 
 41 H      -11.4500     1.1870     0.7110 H     1 <1>   0.0800 
 42 H      -10.3140     0.5360     1.8660 H     1 <1>   0.0800 
 43 H      -10.8560    -0.6600    -1.5890 H     1 <1>   0.0800 
 44 H       -9.6060     0.3420    -2.2990 H     1 <1>   0.0800 
 45 H      -11.0500     1.0780    -1.6480 H     1 <1>   0.0800 
 46 H      -10.9890     4.3910    -0.4210 H     1 <1>   0.1500 
@<TRIPOS>BOND
  1   1   2  1   
  2   2   3  ar  
  3   2   4  ar  
  4   3   5  1   
  5   3   6  ar  
  6   4   7  ar  
  7   4  23  1   
  8   6   8  ar  
  9   6  24  1   
 10   7   8  ar  
 11   7   9  1   
 12   8  25  1   
 13   9  10  1   
 14   9  26  1   
 15   9  27  1   
 16  10  11  1   
 17  10  12  1   
 18  10  28  1   
 19  11  13  1   
 20  11  29  1   
 21  11  30  1   
 22  12  14  1   
 23  12  31  1   
 24  12  32  1   
 25  13  15  ar  
 26  13  16  ar  
 27  14  17  1   
 28  14  33  1   
 29  14  34  1   
 30  15  18  ar  
 31  15  35  1   
 32  16  19  ar  
 33  16  36  1   
 34  17  20  1   
 35  17  21  1   
 36  17  37  1   
 37  18  22  ar  
 38  18  38  1   
 39  19  22  ar  
 40  19  39  1   
 41  20  40  1   
 42  20  41  1   
 43  20  42  1   
 44  21  43  1   
 45  21  44  1   
 46  21  45  1   
 47  22  46  1   
@<TRIPOS>SUBSTRUCTURE
  1 ****  10 GROUP 4 **** **** 0

# MOE 2024.06 (io_trps.svl 2023.06)
