@<TRIPOS>MOLECULE
NONAME
34 34 1 0 0 
SMALL
USER_CHARGES


@<TRIPOS>ATOM
  1 O       -0.7250    -0.1560    -1.5400 O.2   1 <1>  -0.5700 
  2 C       -1.5360     0.5030    -0.9130 C.2   1 <1>   0.6900 
  3 N       -1.3210     1.8520    -0.6880 N.am  1 <1>  -0.4200 
  4 N       -2.6940    -0.0890    -0.4270 N.am  1 <1>  -0.4690 
  5 C       -2.2800     2.6210    -0.0520 C.2   1 <1>   0.6160 
  6 C       -0.0450     2.4900    -1.1290 C.3   1 <1>   0.1400 
  7 C       -3.6550     0.6610     0.2310 C.2   1 <1>  -0.0410 
  8 C       -2.8920    -1.5520    -0.5750 C.3   1 <1>   0.2780 
  9 O       -2.1040     3.8190     0.0950 O.2   1 <1>  -0.5700 
 10 C       -3.4750     1.9850     0.4220 C.2   1 <1>  -0.1240 
 11 C        0.9510     2.6570     0.0380 C.3   1 <1>  -0.0800 
 12 C       -2.5300    -2.2390     0.7300 C.2   1 <1>  -0.2880 
 13 C       -4.5190     2.8320     1.1410 C.3   1 <1>  -0.1020 
 14 C        2.2160     3.3700    -0.4560 C.3   1 <1>  -0.2400 
 15 C        1.3380     1.3140     0.6770 C.3   1 <1>  -0.2400 
 16 C       -1.5410    -3.1260     0.8810 C.2   1 <1>  -0.3000 
 17 H       -0.2670     3.4570    -1.5470 H     1 <1>   0.0800 
 18 H        0.4110     1.9070    -1.9100 H     1 <1>   0.0800 
 19 H       -4.5340     0.1420     0.5760 H     1 <1>   0.1500 
 20 H       -2.2870    -1.9380    -1.3770 H     1 <1>   0.0800 
 21 H       -3.9210    -1.7490    -0.8180 H     1 <1>   0.0800 
 22 H        0.4940     3.2800     0.7890 H     1 <1>   0.0800 
 23 H       -3.1590    -1.9330     1.5470 H     1 <1>   0.1500 
 24 H       -4.0830     3.2860     2.0130 H     1 <1>   0.0800 
 25 H       -5.3600     2.2370     1.4460 H     1 <1>   0.0800 
 26 H       -4.8670     3.6140     0.4880 H     1 <1>   0.0800 
 27 H        2.7140     2.7830    -1.2080 H     1 <1>   0.0800 
 28 H        2.8970     3.5300     0.3610 H     1 <1>   0.0800 
 29 H        1.9650     4.3280    -0.8760 H     1 <1>   0.0800 
 30 H        1.7430     0.6450    -0.0630 H     1 <1>   0.0800 
 31 H        0.4800     0.8450     1.1260 H     1 <1>   0.0800 
 32 H        2.0740     1.4630     1.4470 H     1 <1>   0.0800 
 33 H       -1.2970    -3.6020     1.8160 H     1 <1>   0.1500 
 34 H       -0.8880    -3.4460     0.0870 H     1 <1>   0.1500 
@<TRIPOS>BOND
  1   1   2  2   
  2   2   3  am  
  3   2   4  am  
  4   3   5  am  
  5   3   6  1   
  6   4   7  1   
  7   4   8  1   
  8   5   9  2   
  9   5  10  1   
 10   6  11  1   
 11   6  17  1   
 12   6  18  1   
 13   7  10  2   
 14   7  19  1   
 15   8  12  1   
 16   8  20  1   
 17   8  21  1   
 18  10  13  1   
 19  11  14  1   
 20  11  15  1   
 21  11  22  1   
 22  12  16  2   
 23  12  23  1   
 24  13  24  1   
 25  13  25  1   
 26  13  26  1   
 27  14  27  1   
 28  14  28  1   
 29  14  29  1   
 30  15  30  1   
 31  15  31  1   
 32  15  32  1   
 33  16  33  1   
 34  16  34  1   
@<TRIPOS>SUBSTRUCTURE
  1 ****   2 GROUP 4 **** **** 0

# MOE 2024.06 (io_trps.svl 2023.06)
