@<TRIPOS>MOLECULE
NONAME
32 34 1 0 0 
SMALL
USER_CHARGES


@<TRIPOS>ATOM
  1 BR       0.7600     1.1990     0.1200 Br    1 <1>  -0.1110 
  2 C        2.0310    -0.2500     0.1040 C.ar  1 <1>   0.1110 
  3 C        3.3710     0.0360     0.1270 C.ar  1 <1>  -0.1500 
  4 C        1.5410    -1.5530     0.0700 C.ar  1 <1>  -0.1500 
  5 C        4.2710    -1.0360     0.1140 C.ar  1 <1>   0.0000 
  6 C        2.4330    -2.6050     0.0570 C.ar  1 <1>  -0.1500 
  7 C        3.8150    -2.3590     0.0760 C.ar  1 <1>  -0.1520 
  8 C        5.6660    -1.0880     0.1370 C.2   1 <1>  -0.1810 
  9 N        4.9380    -3.1970     0.0700 N.pl3 1 <1>   0.0480 
 10 C        6.0770    -2.3940     0.1210 C.2   1 <1>  -0.2370 
 11 C        6.6240     0.0840     0.1840 C.3   1 <1>   0.0210 
 12 C        5.0500    -4.6880    -0.0160 C.3   1 <1>   0.0960 
 13 C        7.4450    -2.8060     0.1670 C.2   1 <1>   0.4740 
 14 C        7.9670    -0.3400    -0.4220 C.3   1 <1>  -0.1600 
 15 C        3.7570    -5.4860    -0.1980 C.3   1 <1>  -0.2400 
 16 N        7.8320    -4.0590     0.2300 N.2   1 <1>  -0.8000 
 17 C        8.4770    -1.6660     0.1790 C.3   1 <1>  -0.0990 
 18 O        9.0400    -4.2550     0.3100 O.3   1 <1>  -0.6500 
 19 H        3.7320     1.0460     0.1570 H     1 <1>   0.1500 
 20 H        0.4800    -1.7210     0.0540 H     1 <1>   0.1500 
 21 H        2.0440    -3.6000     0.0350 H     1 <1>   0.1500 
 22 H        6.2220     0.9130    -0.3680 H     1 <1>   0.0800 
 23 H        6.7600     0.3810     1.2090 H     1 <1>   0.0800 
 24 H        5.7020    -4.9100    -0.8430 H     1 <1>   0.0800 
 25 H        5.5480    -5.0270     0.8760 H     1 <1>   0.0800 
 26 H        8.7000     0.4320    -0.2780 H     1 <1>   0.0800 
 27 H        7.8340    -0.4840    -1.4810 H     1 <1>   0.0800 
 28 H        3.2400    -5.1650    -1.0840 H     1 <1>   0.0800 
 29 H        3.1350    -5.3900     0.6740 H     1 <1>   0.0800 
 30 H        4.0060    -6.5250    -0.3120 H     1 <1>   0.0800 
 31 H        8.7790    -1.5220     1.1980 H     1 <1>   0.0800 
 32 H        9.3440    -1.9730    -0.3760 H     1 <1>   0.0800 
@<TRIPOS>BOND
  1   1   2  1   
  2   2   3  ar  
  3   2   4  ar  
  4   3   5  ar  
  5   3  19  1   
  6   4   6  ar  
  7   4  20  1   
  8   5   7  ar  
  9   5   8  1   
 10   6   7  ar  
 11   6  21  1   
 12   7   9  1   
 13   8  10  2   
 14   8  11  1   
 15   9  10  1   
 16   9  12  1   
 17  10  13  1   
 18  11  14  1   
 19  11  22  1   
 20  11  23  1   
 21  12  15  1   
 22  12  24  1   
 23  12  25  1   
 24  13  16  2   
 25  13  17  1   
 26  14  17  1   
 27  14  26  1   
 28  14  27  1   
 29  15  28  1   
 30  15  29  1   
 31  15  30  1   
 32  16  18  1   
 33  17  31  1   
 34  17  32  1   
@<TRIPOS>SUBSTRUCTURE
  1 ****  10 GROUP 4 **** **** 0

# MOE 2024.06 (io_trps.svl 2023.06)
