@<TRIPOS>MOLECULE
NONAME
44 46 1 0 0 
SMALL
USER_CHARGES


@<TRIPOS>ATOM
  1 O        0.4320     0.1190     0.3150 O.3   1 <1>  -0.5600 
  2 C        0.3470     1.4460    -0.1020 C.3   1 <1>   0.2000 
  3 C        1.4340    -0.6200    -0.3150 C.3   1 <1>   0.2640 
  4 C        1.5790     2.1950     0.4160 C.3   1 <1>  -0.0160 
  5 C       -0.9620     2.0450     0.4300 C.3   1 <1>  -0.1600 
  6 C        2.7810     0.0900    -0.2250 C.ar  1 <1>  -0.1440 
  7 C        2.8530     1.4340     0.1090 C.ar  1 <1>   0.1660 
  8 C       -2.2050     1.3240    -0.1140 C.3   1 <1>  -0.1600 
  9 C        3.9510    -0.5930    -0.4860 C.ar  1 <1>  -0.1500 
 10 N        3.9770     2.1210     0.1930 N.ar  1 <1>  -0.6200 
 11 C       -3.4910     1.9800     0.3950 C.3   1 <1>  -0.2400 
 12 C        5.1430     0.1020    -0.4010 C.ar  1 <1>   0.0730 
 13 C        5.1030     1.4610    -0.0570 C.ar  1 <1>   0.4100 
 14 C        6.3850    -0.5570    -0.6640 C.1   1 <1>   0.4840 
 15 N        6.2630     2.2060     0.0460 N.pl3 1 <1>  -0.8380 
 16 N        7.3480    -1.1380    -0.8620 N.1   1 <1>  -0.5570 
 17 C        6.2940     3.5720    -0.5350 C.3   1 <1>   0.2090 
 18 C        7.0820     2.0650     1.2760 C.3   1 <1>   0.2090 
 19 C        7.7400     3.9330    -0.8900 C.3   1 <1>  -0.1600 
 20 C        8.5410     2.3940     0.9440 C.3   1 <1>  -0.1600 
 21 C        8.6760     3.7920     0.3210 C.3   1 <1>  -0.1600 
 22 H        0.3350     1.4610    -1.1800 H     1 <1>   0.0800 
 23 H        1.1510    -0.7640    -1.3440 H     1 <1>   0.0800 
 24 H        1.4810    -1.5780     0.1720 H     1 <1>   0.0800 
 25 H        1.5060     2.3300     1.4790 H     1 <1>   0.0800 
 26 H        1.6230     3.1670    -0.0410 H     1 <1>   0.0800 
 27 H       -1.0080     3.0810     0.1440 H     1 <1>   0.0800 
 28 H       -0.9590     2.0010     1.5050 H     1 <1>   0.0800 
 29 H       -2.1890     0.2920     0.1970 H     1 <1>   0.0800 
 30 H       -2.1960     1.3460    -1.1900 H     1 <1>   0.0800 
 31 H        3.9410    -1.6370    -0.7490 H     1 <1>   0.1500 
 32 H       -3.5280     1.9470     1.4700 H     1 <1>   0.0800 
 33 H       -4.3480     1.4580     0.0080 H     1 <1>   0.0800 
 34 H       -3.5430     3.0060     0.0770 H     1 <1>   0.0800 
 35 H        5.8980     4.2720     0.1810 H     1 <1>   0.0800 
 36 H        5.6790     3.6050    -1.4190 H     1 <1>   0.0800 
 37 H        7.0100     1.0610     1.6580 H     1 <1>   0.0800 
 38 H        6.7110     2.7410     2.0270 H     1 <1>   0.0800 
 39 H        7.7740     4.9420    -1.2610 H     1 <1>   0.0800 
 40 H        8.0700     3.2800    -1.6800 H     1 <1>   0.0800 
 41 H        8.9120     1.6520     0.2580 H     1 <1>   0.0800 
 42 H        9.1310     2.3380     1.8410 H     1 <1>   0.0800 
 43 H        8.4200     4.5360     1.0560 H     1 <1>   0.0800 
 44 H        9.6950     3.9590     0.0160 H     1 <1>   0.0800 
@<TRIPOS>BOND
  1   1   2  1   
  2   1   3  1   
  3   2   4  1   
  4   2   5  1   
  5   2  22  1   
  6   3   6  1   
  7   3  23  1   
  8   3  24  1   
  9   4   7  1   
 10   4  25  1   
 11   4  26  1   
 12   5   8  1   
 13   5  27  1   
 14   5  28  1   
 15   6   7  ar  
 16   6   9  ar  
 17   7  10  ar  
 18   8  11  1   
 19   8  29  1   
 20   8  30  1   
 21   9  12  ar  
 22   9  31  1   
 23  10  13  ar  
 24  11  32  1   
 25  11  33  1   
 26  11  34  1   
 27  12  13  ar  
 28  12  14  1   
 29  13  15  1   
 30  14  16  3   
 31  15  17  1   
 32  15  18  1   
 33  17  19  1   
 34  17  35  1   
 35  17  36  1   
 36  18  20  1   
 37  18  37  1   
 38  18  38  1   
 39  19  21  1   
 40  19  39  1   
 41  19  40  1   
 42  20  21  1   
 43  20  41  1   
 44  20  42  1   
 45  21  43  1   
 46  21  44  1   
@<TRIPOS>SUBSTRUCTURE
  1 ****  10 GROUP 4 **** **** 0

# MOE 2024.06 (io_trps.svl 2023.06)
