@<TRIPOS>MOLECULE
NONAME
34 36 1 0 0 
SMALL
USER_CHARGES


@<TRIPOS>ATOM
  1 O        0.7440    -0.5760     0.9560 O.3   1 <1>  -0.3630 
  2 C        0.0500    -1.6100     0.4740 C.ar  1 <1>   0.0830 
  3 C        1.7900    -0.3140     0.0200 C.3   1 <1>   0.4000 
  4 C        0.5750    -2.0160    -0.7160 C.ar  1 <1>   0.0830 
  5 C       -1.0470    -2.2340     1.0320 C.ar  1 <1>  -0.1500 
  6 O        1.6260    -1.2560    -1.0380 O.3   1 <1>  -0.3630 
  7 C        0.0330    -3.0730    -1.4180 C.ar  1 <1>  -0.1500 
  8 C       -1.6200    -3.2980     0.3390 C.ar  1 <1>  -0.1440 
  9 C       -1.0740    -3.7150    -0.8770 C.ar  1 <1>  -0.1500 
 10 C       -2.8410    -3.9950     0.9070 C.3   1 <1>   0.4870 
 11 N       -4.0410    -3.5470     0.1500 N.4   1 <1>  -0.9590 
 12 C       -4.2970    -2.0860     0.3340 C.3   1 <1>   0.3430 
 13 C       -5.2350    -4.3740     0.4800 C.3   1 <1>   0.3430 
 14 C       -5.4510    -1.6480    -0.5700 C.3   1 <1>  -0.1600 
 15 C       -6.4030    -3.9770    -0.4240 C.3   1 <1>  -0.1600 
 16 C       -6.7170    -2.4790    -0.3240 C.3   1 <1>  -0.1600 
 17 H        2.7440    -0.4640     0.4930 H     1 <1>   0.0800 
 18 H        1.6900     0.6850    -0.3660 H     1 <1>   0.0800 
 19 H       -1.4220    -1.8830     1.9770 H     1 <1>   0.1500 
 20 H        0.4700    -3.3790    -2.3530 H     1 <1>   0.1500 
 21 H       -1.4970    -4.5450    -1.4170 H     1 <1>   0.1500 
 22 H       -2.9490    -3.7580     1.9530 H     1 <1>   0.0800 
 23 H       -2.7160    -5.0610     0.8090 H     1 <1>   0.0800 
 24 H       -3.8260    -3.6770    -0.8460 H     1 <1>   0.4500 
 25 H       -3.4150    -1.5180     0.0830 H     1 <1>   0.0800 
 26 H       -4.5500    -1.8850     1.3630 H     1 <1>   0.0800 
 27 H       -5.5130    -4.2200     1.5110 H     1 <1>   0.0800 
 28 H       -5.0140    -5.4200     0.3400 H     1 <1>   0.0800 
 29 H       -5.1480    -1.7340    -1.6000 H     1 <1>   0.0800 
 30 H       -5.6650    -0.6090    -0.3860 H     1 <1>   0.0800 
 31 H       -7.2750    -4.5410    -0.1410 H     1 <1>   0.0800 
 32 H       -6.1710    -4.2360    -1.4430 H     1 <1>   0.0800 
 33 H       -7.4740    -2.2130    -1.0440 H     1 <1>   0.0800 
 34 H       -7.1070    -2.2570     0.6560 H     1 <1>   0.0800 
@<TRIPOS>BOND
  1   1   2  1   
  2   1   3  1   
  3   2   4  ar  
  4   2   5  ar  
  5   3   6  1   
  6   3  17  1   
  7   3  18  1   
  8   4   6  1   
  9   4   7  ar  
 10   5   8  ar  
 11   5  19  1   
 12   7   9  ar  
 13   7  20  1   
 14   8   9  ar  
 15   8  10  1   
 16   9  21  1   
 17  10  11  1   
 18  10  22  1   
 19  10  23  1   
 20  11  12  1   
 21  11  13  1   
 22  11  24  1   
 23  12  14  1   
 24  12  25  1   
 25  12  26  1   
 26  13  15  1   
 27  13  27  1   
 28  13  28  1   
 29  14  16  1   
 30  14  29  1   
 31  14  30  1   
 32  15  16  1   
 33  15  31  1   
 34  15  32  1   
 35  16  33  1   
 36  16  34  1   
@<TRIPOS>SUBSTRUCTURE
  1 ****   8 GROUP 4 **** **** 0

# MOE 2024.06 (io_trps.svl 2023.06)
