@<TRIPOS>MOLECULE
NONAME
48 50 1 0 0 
SMALL
USER_CHARGES


@<TRIPOS>ATOM
  1 O       -0.3730     0.1910    -0.5210 O.2   1 <1>  -0.5700 
  2 C       -0.8510     1.2250    -0.0960 C.2   1 <1>   0.5440 
  3 N       -0.0890     2.3630    -0.0330 N.am  1 <1>  -0.5470 
  4 C       -2.2420     1.2750     0.3230 C.ar  1 <1>   0.0860 
  5 C        1.2480     2.6740    -0.3250 C.ar  1 <1>   0.1170 
  6 C       -2.7000     2.2010     1.2640 C.ar  1 <1>  -0.1500 
  7 C       -3.1830     0.3920    -0.2080 C.ar  1 <1>  -0.1500 
  8 C        1.5800     4.0370    -0.3400 C.ar  1 <1>   0.1000 
  9 C        2.2300     1.7260    -0.5810 C.ar  1 <1>  -0.1500 
 10 C       -4.0300     2.2500     1.6410 C.ar  1 <1>  -0.1500 
 11 C       -4.5130     0.4370     0.1670 C.ar  1 <1>  -0.1500 
 12 N        0.5910     5.0050    -0.0740 N.pl3 1 <1>  -0.8380 
 13 C        2.8870     4.4100    -0.6290 C.ar  1 <1>  -0.1500 
 14 C        3.5290     2.1140    -0.8610 C.ar  1 <1>  -0.1500 
 15 C       -4.9470     1.3710     1.0920 C.ar  1 <1>  -0.1430 
 16 C        0.7730     5.9050     1.1100 C.3   1 <1>   0.2090 
 17 C       -0.0680     5.6390    -1.2610 C.3   1 <1>   0.2090 
 18 C        3.8570     3.4570    -0.8870 C.ar  1 <1>  -0.1500 
 19 C       -6.4070     1.4210     1.5050 C.3   1 <1>  -0.0970 
 20 C        1.3130     7.3020     0.7430 C.3   1 <1>   0.1400 
 21 C        0.5360     7.0100    -1.6030 C.3   1 <1>   0.1400 
 22 N        0.5600     7.9000    -0.4020 N.am  1 <1>  -0.6600 
 23 C       -0.1440     9.0740    -0.3740 C.2   1 <1>   0.5690 
 24 O       -0.8260     9.4340    -1.3030 O.2   1 <1>  -0.5700 
 25 C       -0.0960     9.9720     0.8390 C.3   1 <1>  -0.1790 
 26 H       -0.5890     3.2290     0.1780 H     1 <1>   0.3700 
 27 H       -2.0090     2.8890     1.7170 H     1 <1>   0.1500 
 28 H       -2.8580    -0.3400    -0.9270 H     1 <1>   0.1500 
 29 H        1.9870     0.6800    -0.5630 H     1 <1>   0.1500 
 30 H       -4.3510     2.9760     2.3680 H     1 <1>   0.1500 
 31 H       -5.2090    -0.2610    -0.2650 H     1 <1>   0.1500 
 32 H        3.1480     5.4490    -0.6590 H     1 <1>   0.1500 
 33 H        4.2790     1.3680    -1.0590 H     1 <1>   0.1500 
 34 H        1.4430     5.4390     1.8120 H     1 <1>   0.0800 
 35 H       -0.1780     6.0220     1.6000 H     1 <1>   0.0800 
 36 H       -1.1180     5.7630    -1.0570 H     1 <1>   0.0800 
 37 H        0.0250     4.9890    -2.1140 H     1 <1>   0.0800 
 38 H        4.8660     3.7590    -1.1090 H     1 <1>   0.1500 
 39 H       -6.6870     2.4230     1.7790 H     1 <1>   0.0800 
 40 H       -6.5690     0.7730     2.3470 H     1 <1>   0.0800 
 41 H       -7.0380     1.1030     0.6950 H     1 <1>   0.0800 
 42 H        2.3500     7.2190     0.4700 H     1 <1>   0.0800 
 43 H        1.2610     7.9310     1.6110 H     1 <1>   0.0800 
 44 H       -0.0370     7.4570    -2.3970 H     1 <1>   0.0800 
 45 H        1.5400     6.8740    -1.9630 H     1 <1>   0.0800 
 46 H       -0.5500     9.4790     1.6770 H     1 <1>   0.0800 
 47 H       -0.6370    10.8790     0.6390 H     1 <1>   0.0800 
 48 H        0.9220    10.2250     1.0670 H     1 <1>   0.0800 
@<TRIPOS>BOND
  1   1   2  2   
  2   2   3  am  
  3   2   4  1   
  4   3   5  1   
  5   3  26  1   
  6   4   6  ar  
  7   4   7  ar  
  8   5   8  ar  
  9   5   9  ar  
 10   6  10  ar  
 11   6  27  1   
 12   7  11  ar  
 13   7  28  1   
 14   8  12  1   
 15   8  13  ar  
 16   9  14  ar  
 17   9  29  1   
 18  10  15  ar  
 19  10  30  1   
 20  11  15  ar  
 21  11  31  1   
 22  12  16  1   
 23  12  17  1   
 24  13  18  ar  
 25  13  32  1   
 26  14  18  ar  
 27  14  33  1   
 28  15  19  1   
 29  16  20  1   
 30  16  34  1   
 31  16  35  1   
 32  17  21  1   
 33  17  36  1   
 34  17  37  1   
 35  18  38  1   
 36  19  39  1   
 37  19  40  1   
 38  19  41  1   
 39  20  22  1   
 40  20  42  1   
 41  20  43  1   
 42  21  22  1   
 43  21  44  1   
 44  21  45  1   
 45  22  23  am  
 46  23  24  2   
 47  23  25  1   
 48  25  46  1   
 49  25  47  1   
 50  25  48  1   
@<TRIPOS>SUBSTRUCTURE
  1 ****  12 GROUP 4 **** **** 0

# MOE 2024.06 (io_trps.svl 2023.06)
