@<TRIPOS>MOLECULE
NONAME
60 63 1 0 0 
SMALL
USER_CHARGES


@<TRIPOS>ATOM
  1 O        2.3800     1.3280     1.8690 O.2   1 <1>  -0.5700 
  2 C        1.3960     2.0200     1.6330 C.2   1 <1>   0.5440 
  3 N        1.5350     3.2590     1.0250 N.am  1 <1>  -0.2980 
  4 C        0.0630     1.5630     1.9050 C.ar  1 <1>   0.0860 
  5 N        0.5040     3.9380     0.4450 N.2   1 <1>  -0.5120 
  6 C        2.8520     3.9540     1.0080 C.3   1 <1>   0.1400 
  7 C       -1.0040     2.3110     1.3850 C.ar  1 <1>   0.0860 
  8 C       -0.2000     0.4190     2.6660 C.ar  1 <1>  -0.1500 
  9 C       -0.7040     3.4840     0.5950 C.2   1 <1>   0.2780 
 10 C        3.4460     3.9920    -0.4020 C.3   1 <1>  -0.0990 
 11 C       -2.3090     1.8810     1.6690 C.ar  1 <1>  -0.1500 
 12 C       -1.4910     0.0110     2.9170 C.ar  1 <1>  -0.1500 
 13 C       -1.7800     4.1950    -0.0540 C.ar  1 <1>   0.0860 
 14 C        3.7160     2.6000    -0.9160 C.2   1 <1>   0.5690 
 15 C       -2.5510     0.7490     2.4160 C.ar  1 <1>  -0.1500 
 16 C       -2.5460     3.6070    -1.0610 C.ar  1 <1>  -0.1500 
 17 C       -2.0860     5.5060     0.3060 C.ar  1 <1>  -0.1500 
 18 O        4.8160     2.1240    -0.7850 O.2   1 <1>  -0.5700 
 19 N        2.7020     1.8980    -1.4790 N.am  1 <1>  -0.7300 
 20 C       -3.5830     4.2930    -1.6670 C.ar  1 <1>  -0.1500 
 21 C       -3.1220     6.1950    -0.2970 C.ar  1 <1>  -0.1500 
 22 C        2.8170     0.5730    -2.1550 C.3   1 <1>   0.1400 
 23 C       -3.8800     5.5900    -1.2860 C.ar  1 <1>  -0.1430 
 24 C        2.7410    -0.6080    -1.1620 C.3   1 <1>   0.3430 
 25 C       -5.0170     6.3460    -1.9510 C.3   1 <1>  -0.0970 
 26 N        3.7720    -0.5100    -0.0900 N.4   1 <1>  -0.9590 
 27 C        5.1730    -0.7670    -0.5680 C.3   1 <1>   0.3430 
 28 C        3.4610    -1.3400     1.1180 C.3   1 <1>   0.3430 
 29 C        6.1830    -0.6390     0.5870 C.3   1 <1>   0.1200 
 30 C        4.5550    -1.1840     2.1920 C.3   1 <1>   0.1200 
 31 O        5.8130    -1.4720     1.6500 O.3   1 <1>  -0.5600 
 32 H        3.5380     3.4700     1.6820 H     1 <1>   0.0800 
 33 H        2.7060     4.9610     1.3580 H     1 <1>   0.0800 
 34 H        0.6220    -0.1440     3.0720 H     1 <1>   0.1500 
 35 H        4.3720     4.5350    -0.3770 H     1 <1>   0.0800 
 36 H        2.7820     4.5110    -1.0680 H     1 <1>   0.0800 
 37 H       -3.1540     2.4420     1.3080 H     1 <1>   0.1500 
 38 H       -1.6850    -0.8700     3.5060 H     1 <1>   0.1500 
 39 H       -3.5620     0.4360     2.6200 H     1 <1>   0.1500 
 40 H       -2.3270     2.6030    -1.3740 H     1 <1>   0.1500 
 41 H       -1.4990     5.9870     1.0690 H     1 <1>   0.1500 
 42 H        1.7780     2.3510    -1.4890 H     1 <1>   0.3700 
 43 H       -4.1610     3.8160    -2.4400 H     1 <1>   0.1500 
 44 H       -3.3350     7.2060     0.0030 H     1 <1>   0.1500 
 45 H        3.7490     0.5320    -2.6930 H     1 <1>   0.0800 
 46 H        2.0240     0.4810    -2.8770 H     1 <1>   0.0800 
 47 H        2.8570    -1.5360    -1.6950 H     1 <1>   0.0800 
 48 H        1.7610    -0.6040    -0.7140 H     1 <1>   0.0800 
 49 H       -4.6510     6.8620    -2.8200 H     1 <1>   0.0800 
 50 H       -5.4400     7.0650    -1.2730 H     1 <1>   0.0800 
 51 H       -5.7940     5.6670    -2.2530 H     1 <1>   0.0800 
 52 H        3.7610     0.4830     0.2220 H     1 <1>   0.4500 
 53 H        5.4340    -0.0610    -1.3390 H     1 <1>   0.0800 
 54 H        5.2460    -1.7590    -0.9800 H     1 <1>   0.0800 
 55 H        3.3930    -2.3790     0.8440 H     1 <1>   0.0800 
 56 H        2.5150    -1.0380     1.5350 H     1 <1>   0.0800 
 57 H        6.2330     0.3780     0.9390 H     1 <1>   0.0800 
 58 H        7.1630    -0.9370     0.2590 H     1 <1>   0.0800 
 59 H        4.3810    -1.8700     3.0020 H     1 <1>   0.0800 
 60 H        4.5660    -0.1820     2.5860 H     1 <1>   0.0800 
@<TRIPOS>BOND
  1   1   2  2   
  2   2   3  am  
  3   2   4  1   
  4   3   5  1   
  5   3   6  1   
  6   4   7  ar  
  7   4   8  ar  
  8   5   9  2   
  9   6  10  1   
 10   6  32  1   
 11   6  33  1   
 12   7   9  1   
 13   7  11  ar  
 14   8  12  ar  
 15   8  34  1   
 16   9  13  1   
 17  10  14  1   
 18  10  35  1   
 19  10  36  1   
 20  11  15  ar  
 21  11  37  1   
 22  12  15  ar  
 23  12  38  1   
 24  13  16  ar  
 25  13  17  ar  
 26  14  18  2   
 27  14  19  am  
 28  15  39  1   
 29  16  20  ar  
 30  16  40  1   
 31  17  21  ar  
 32  17  41  1   
 33  19  22  1   
 34  19  42  1   
 35  20  23  ar  
 36  20  43  1   
 37  21  23  ar  
 38  21  44  1   
 39  22  24  1   
 40  22  45  1   
 41  22  46  1   
 42  23  25  1   
 43  24  26  1   
 44  24  47  1   
 45  24  48  1   
 46  25  49  1   
 47  25  50  1   
 48  25  51  1   
 49  26  27  1   
 50  26  28  1   
 51  26  52  1   
 52  27  29  1   
 53  27  53  1   
 54  27  54  1   
 55  28  30  1   
 56  28  55  1   
 57  28  56  1   
 58  29  31  1   
 59  29  57  1   
 60  29  58  1   
 61  30  31  1   
 62  30  59  1   
 63  30  60  1   
@<TRIPOS>SUBSTRUCTURE
  1 ****   2 GROUP 4 **** **** 0

# MOE 2024.06 (io_trps.svl 2023.06)
