@<TRIPOS>MOLECULE
NONAME
41 42 1 0 0 
SMALL
USER_CHARGES


@<TRIPOS>ATOM
  1 O       -0.6420    -2.6460    -2.0110 O.2   1 <1>  -0.5700 
  2 C       -0.1550    -2.1760    -1.0100 C.2   1 <1>   0.5690 
  3 N       -0.8370    -1.4430    -0.0810 N.am  1 <1>  -0.5470 
  4 C        1.3330    -2.3980    -0.7320 C.3   1 <1>   0.1710 
  5 C       -2.1710    -1.0260     0.0340 C.ar  1 <1>   0.1170 
  6 N        1.9390    -1.3650     0.1610 N.3   1 <1>  -0.8100 
  7 C       -3.1800    -1.4340    -0.8320 C.ar  1 <1>  -0.1500 
  8 C       -2.5070    -0.1610     1.0680 C.ar  1 <1>  -0.1500 
  9 C        2.1310    -0.0860    -0.5610 C.3   1 <1>   0.1100 
 10 C        3.2420    -1.8220     0.6840 C.3   1 <1>   0.1100 
 11 C       -4.4790    -0.9890    -0.6690 C.ar  1 <1>  -0.1500 
 12 C       -3.8060     0.2850     1.2320 C.ar  1 <1>  -0.1500 
 13 C        2.8310     0.9560     0.3320 C.3   1 <1>   0.1200 
 14 C        3.9080    -0.7320     1.5430 C.3   1 <1>   0.1200 
 15 C       -4.8080    -0.1240     0.3640 C.ar  1 <1>  -0.1430 
 16 O        4.0450     0.4520     0.8110 O.3   1 <1>  -0.5600 
 17 C       -6.2490     0.3560     0.5280 C.3   1 <1>   0.0630 
 18 C       -6.3380     1.8780     0.3800 C.3   1 <1>  -0.2400 
 19 C       -6.8260    -0.0950     1.8730 C.3   1 <1>  -0.2400 
 20 H       -0.1990    -1.1020     0.6440 H     1 <1>   0.3700 
 21 H        1.8610    -2.4340    -1.6690 H     1 <1>   0.0800 
 22 H        1.4220    -3.3640    -0.2680 H     1 <1>   0.0800 
 23 H       -2.9580    -2.1050    -1.6410 H     1 <1>   0.1500 
 24 H       -1.7480     0.1680     1.7520 H     1 <1>   0.1500 
 25 H        1.1790     0.3060    -0.8740 H     1 <1>   0.0800 
 26 H        2.7320    -0.2430    -1.4410 H     1 <1>   0.0800 
 27 H        3.9010    -2.0740    -0.1300 H     1 <1>   0.0800 
 28 H        3.0990    -2.7030     1.2860 H     1 <1>   0.0800 
 29 H       -5.2350    -1.3240    -1.3580 H     1 <1>   0.1500 
 30 H       -4.0340     0.9540     2.0420 H     1 <1>   0.1500 
 31 H        2.2090     1.2140     1.1710 H     1 <1>   0.0800 
 32 H        3.0440     1.8470    -0.2310 H     1 <1>   0.0800 
 33 H        4.8910    -1.0440     1.8470 H     1 <1>   0.0800 
 34 H        3.3190    -0.5300     2.4200 H     1 <1>   0.0800 
 35 H       -6.8500    -0.0840    -0.2500 H     1 <1>   0.0800 
 36 H       -5.7940     2.3720     1.1640 H     1 <1>   0.0800 
 37 H       -7.3640     2.1970     0.4190 H     1 <1>   0.0800 
 38 H       -5.9220     2.1770    -0.5660 H     1 <1>   0.0800 
 39 H       -6.2920     0.3560     2.6900 H     1 <1>   0.0800 
 40 H       -6.7480    -1.1640     1.9620 H     1 <1>   0.0800 
 41 H       -7.8630     0.1800     1.9450 H     1 <1>   0.0800 
@<TRIPOS>BOND
  1   1   2  2   
  2   2   3  am  
  3   2   4  1   
  4   3   5  1   
  5   3  20  1   
  6   4   6  1   
  7   4  21  1   
  8   4  22  1   
  9   5   7  ar  
 10   5   8  ar  
 11   6   9  1   
 12   6  10  1   
 13   7  11  ar  
 14   7  23  1   
 15   8  12  ar  
 16   8  24  1   
 17   9  13  1   
 18   9  25  1   
 19   9  26  1   
 20  10  14  1   
 21  10  27  1   
 22  10  28  1   
 23  11  15  ar  
 24  11  29  1   
 25  12  15  ar  
 26  12  30  1   
 27  13  16  1   
 28  13  31  1   
 29  13  32  1   
 30  14  16  1   
 31  14  33  1   
 32  14  34  1   
 33  15  17  1   
 34  17  18  1   
 35  17  19  1   
 36  17  35  1   
 37  18  36  1   
 38  18  37  1   
 39  18  38  1   
 40  19  39  1   
 41  19  40  1   
 42  19  41  1   
@<TRIPOS>SUBSTRUCTURE
  1 ****   3 GROUP 4 **** **** 0

# MOE 2024.06 (io_trps.svl 2023.06)
