@<TRIPOS>MOLECULE
NONAME
47 48 1 0 0 
SMALL
USER_CHARGES


@<TRIPOS>ATOM
  1 S       -0.8650     0.6610     1.0860 S.o2  1 <1>   1.4470 
  2 O        0.1650    -0.3220     1.3450 O.2   1 <1>  -0.6500 
  3 O       -1.3310     1.4780     2.1860 O.2   1 <1>  -0.6500 
  4 N       -0.2740     1.7400    -0.0850 N.am  1 <1>  -0.8490 
  5 C       -2.2770    -0.1470     0.2590 C.ar  1 <1>  -0.0090 
  6 C        1.0490     2.2580     0.2860 C.3   1 <1>   0.1960 
  7 C       -1.2450     2.8080    -0.3560 C.3   1 <1>   0.1960 
  8 C       -2.1400    -0.9890    -0.8480 C.ar  1 <1>  -0.1440 
  9 C       -3.5620     0.0930     0.7320 C.ar  1 <1>  -0.1500 
 10 C        1.8400     2.6380    -0.9690 C.3   1 <1>  -0.1600 
 11 C       -0.8870     3.6580    -1.5810 C.3   1 <1>  -0.1600 
 12 C       -3.2610    -1.5540    -1.4350 C.ar  1 <1>  -0.1500 
 13 C       -0.7750    -1.3120    -1.4470 C.3   1 <1>  -0.0970 
 14 C       -4.7040    -0.4630     0.1610 C.ar  1 <1>   0.0860 
 15 C        1.6530     4.0840    -1.4550 C.3   1 <1>  -0.1600 
 16 C        0.2400     4.6650    -1.3090 C.3   1 <1>  -0.1600 
 17 C       -4.5230    -1.2940    -0.9400 C.ar  1 <1>  -0.1500 
 18 C       -6.0210    -0.1770     0.6990 C.2   1 <1>   0.5440 
 19 O       -6.2670     0.9020     1.2000 O.2   1 <1>  -0.5700 
 20 N       -7.0070    -1.1190     0.6650 N.am  1 <1>  -0.7300 
 21 C       -8.3610    -0.9290     1.1960 C.3   1 <1>   0.2780 
 22 C       -9.2680    -1.8850     0.4540 C.2   1 <1>  -0.2880 
 23 C       -9.9110    -2.9240     0.9970 C.2   1 <1>  -0.3000 
 24 H        1.6110     1.4860     0.7830 H     1 <1>   0.0800 
 25 H        0.9650     3.0850     0.9720 H     1 <1>   0.0800 
 26 H       -1.3540     3.4390     0.5110 H     1 <1>   0.0800 
 27 H       -2.2060     2.3630    -0.5510 H     1 <1>   0.0800 
 28 H       -3.6940     0.7420     1.5830 H     1 <1>   0.1500 
 29 H        1.5880     1.9500    -1.7570 H     1 <1>   0.0800 
 30 H        2.8860     2.4980    -0.7610 H     1 <1>   0.0800 
 31 H       -1.7670     4.2210    -1.8400 H     1 <1>   0.0800 
 32 H       -0.6560     3.0280    -2.4220 H     1 <1>   0.0800 
 33 H       -3.1570    -2.2020    -2.2890 H     1 <1>   0.1500 
 34 H       -0.1790    -1.8600    -0.7390 H     1 <1>   0.0800 
 35 H       -0.2550    -0.4100    -1.7150 H     1 <1>   0.0800 
 36 H       -0.8720    -1.9120    -2.3340 H     1 <1>   0.0800 
 37 H        1.9390     4.1220    -2.4920 H     1 <1>   0.0800 
 38 H        2.3330     4.7240    -0.9190 H     1 <1>   0.0800 
 39 H        0.1200     5.0730    -0.3200 H     1 <1>   0.0800 
 40 H        0.1470     5.4860    -1.9980 H     1 <1>   0.0800 
 41 H       -5.3780    -1.7350    -1.4210 H     1 <1>   0.1500 
 42 H       -6.7990    -2.0740     0.3780 H     1 <1>   0.3700 
 43 H       -8.6810     0.0890     1.0490 H     1 <1>   0.0800 
 44 H       -8.3630    -1.1450     2.2510 H     1 <1>   0.0800 
 45 H       -9.3490    -1.6350    -0.5910 H     1 <1>   0.1500 
 46 H      -10.5530    -3.5880     0.4430 H     1 <1>   0.1500 
 47 H       -9.8520    -3.2000     2.0360 H     1 <1>   0.1500 
@<TRIPOS>BOND
  1   1   2  2   
  2   1   3  2   
  3   1   4  am  
  4   1   5  1   
  5   4   6  1   
  6   4   7  1   
  7   5   8  ar  
  8   5   9  ar  
  9   6  10  1   
 10   6  24  1   
 11   6  25  1   
 12   7  11  1   
 13   7  26  1   
 14   7  27  1   
 15   8  12  ar  
 16   8  13  1   
 17   9  14  ar  
 18   9  28  1   
 19  10  15  1   
 20  10  29  1   
 21  10  30  1   
 22  11  16  1   
 23  11  31  1   
 24  11  32  1   
 25  12  17  ar  
 26  12  33  1   
 27  13  34  1   
 28  13  35  1   
 29  13  36  1   
 30  14  17  ar  
 31  14  18  1   
 32  15  16  1   
 33  15  37  1   
 34  15  38  1   
 35  16  39  1   
 36  16  40  1   
 37  17  41  1   
 38  18  19  2   
 39  18  20  am  
 40  20  21  1   
 41  20  42  1   
 42  21  22  1   
 43  21  43  1   
 44  21  44  1   
 45  22  23  2   
 46  22  45  1   
 47  23  46  1   
 48  23  47  1   
@<TRIPOS>SUBSTRUCTURE
  1 ****   5 GROUP 4 **** **** 0

# MOE 2024.06 (io_trps.svl 2023.06)
