@<TRIPOS>MOLECULE
NONAME
47 48 1 0 0 
SMALL
USER_CHARGES


@<TRIPOS>ATOM
  1 O        1.1320    -0.4380    -1.5050 O.3   1 <1>  -0.3630 
  2 C        0.5940    -1.4880    -0.8320 C.ar  1 <1>   0.0830 
  3 C        2.0430     0.4650    -0.9170 C.3   1 <1>   0.1200 
  4 C        0.6980    -1.6720     0.5440 C.ar  1 <1>  -0.1500 
  5 C       -0.0970    -2.4200    -1.5890 C.ar  1 <1>  -0.1500 
  6 C        3.4210    -0.2030    -0.8140 C.3   1 <1>  -0.1600 
  7 C        0.1220    -2.7810     1.1410 C.ar  1 <1>  -0.1500 
  8 C       -0.6710    -3.5270    -0.9890 C.ar  1 <1>  -0.1500 
  9 C        4.4710     0.7540    -0.2360 C.3   1 <1>  -0.1600 
 10 C       -0.5620    -3.7150     0.3800 C.ar  1 <1>  -0.1430 
 11 C        5.8420     0.0690    -0.1490 C.3   1 <1>  -0.1600 
 12 C       -1.1920    -4.9310     1.0400 C.3   1 <1>  -0.0170 
 13 C        6.8960     1.0180     0.4220 C.3   1 <1>   0.3430 
 14 C       -2.6260    -4.6240     1.4750 C.3   1 <1>  -0.2400 
 15 N        8.1970     0.3120     0.5750 N.4   1 <1>  -0.9590 
 16 C        9.1930     1.1040     1.3370 C.3   1 <1>   0.3430 
 17 C        8.8570    -0.0370    -0.7080 C.3   1 <1>   0.3430 
 18 C       10.5280     0.4570     0.9960 C.3   1 <1>  -0.1600 
 19 C       10.3150    -0.2680    -0.3360 C.3   1 <1>  -0.1600 
 20 H        1.6630     0.7850     0.0360 H     1 <1>   0.0800 
 21 H        2.0970     1.3210    -1.5660 H     1 <1>   0.0800 
 22 H        1.2150    -0.9690     1.1650 H     1 <1>   0.1500 
 23 H       -0.1810    -2.2740    -2.6500 H     1 <1>   0.1500 
 24 H        3.7200    -0.5160    -1.8000 H     1 <1>   0.0800 
 25 H        3.3480    -1.0760    -0.1890 H     1 <1>   0.0800 
 26 H        0.2070    -2.9140     2.2050 H     1 <1>   0.1500 
 27 H       -1.2030    -4.2400    -1.5920 H     1 <1>   0.1500 
 28 H        4.1580     1.0720     0.7450 H     1 <1>   0.0800 
 29 H        4.5390     1.6260    -0.8660 H     1 <1>   0.0800 
 30 H        6.1290    -0.2500    -1.1360 H     1 <1>   0.0800 
 31 H        5.7570    -0.7980     0.4840 H     1 <1>   0.0800 
 32 H       -0.6080    -5.2220     1.8960 H     1 <1>   0.0800 
 33 H       -1.1930    -5.7580     0.3510 H     1 <1>   0.0800 
 34 H        6.5620     1.3710     1.3850 H     1 <1>   0.0800 
 35 H        7.0120     1.8710    -0.2270 H     1 <1>   0.0800 
 36 H       -2.6340    -3.8090     2.1770 H     1 <1>   0.0800 
 37 H       -3.0660    -5.4880     1.9410 H     1 <1>   0.0800 
 38 H       -3.2210    -4.3480     0.6220 H     1 <1>   0.0800 
 39 H        8.0420    -0.5640     1.0920 H     1 <1>   0.4500 
 40 H        8.9980     1.0830     2.3970 H     1 <1>   0.0800 
 41 H        9.1900     2.1250     0.9910 H     1 <1>   0.0800 
 42 H        8.7880     0.7930    -1.3930 H     1 <1>   0.0800 
 43 H        8.4160    -0.9120    -1.1610 H     1 <1>   0.0800 
 44 H       10.8010    -0.2440     1.7660 H     1 <1>   0.0800 
 45 H       11.3010     1.2040     0.9260 H     1 <1>   0.0800 
 46 H       10.9630     0.1120    -1.1070 H     1 <1>   0.0800 
 47 H       10.5020    -1.3230    -0.2240 H     1 <1>   0.0800 
@<TRIPOS>BOND
  1   1   2  1   
  2   1   3  1   
  3   2   4  ar  
  4   2   5  ar  
  5   3   6  1   
  6   3  20  1   
  7   3  21  1   
  8   4   7  ar  
  9   4  22  1   
 10   5   8  ar  
 11   5  23  1   
 12   6   9  1   
 13   6  24  1   
 14   6  25  1   
 15   7  10  ar  
 16   7  26  1   
 17   8  10  ar  
 18   8  27  1   
 19   9  11  1   
 20   9  28  1   
 21   9  29  1   
 22  10  12  1   
 23  11  13  1   
 24  11  30  1   
 25  11  31  1   
 26  12  14  1   
 27  12  32  1   
 28  12  33  1   
 29  13  15  1   
 30  13  34  1   
 31  13  35  1   
 32  14  36  1   
 33  14  37  1   
 34  14  38  1   
 35  15  16  1   
 36  15  17  1   
 37  15  39  1   
 38  16  18  1   
 39  16  40  1   
 40  16  41  1   
 41  17  19  1   
 42  17  42  1   
 43  17  43  1   
 44  18  19  1   
 45  18  44  1   
 46  18  45  1   
 47  19  46  1   
 48  19  47  1   
@<TRIPOS>SUBSTRUCTURE
  1 ****   6 GROUP 4 **** **** 0

# MOE 2024.06 (io_trps.svl 2023.06)
