@<TRIPOS>MOLECULE
NONAME
39 40 1 0 0 
SMALL
USER_CHARGES


@<TRIPOS>ATOM
  1 S        1.5130     1.8650    -2.0020 S.3   1 <1>  -0.4600 
  2 C       -0.1550     1.1640    -1.8080 C.3   1 <1>   0.2140 
  3 C        2.6050     0.4050    -2.2110 C.3   1 <1>   0.1310 
  4 C       -0.4120     0.9030    -0.3300 C.ar  1 <1>  -0.1440 
  5 C        2.2240    -0.7750    -1.3170 C.2   1 <1>   0.5690 
  6 C       -0.7470    -0.3770     0.0990 C.ar  1 <1>  -0.1500 
  7 C       -0.3130     1.9370     0.5940 C.ar  1 <1>  -0.1500 
  8 O        1.6120    -1.6550    -1.8790 O.2   1 <1>  -0.5700 
  9 N        2.5760    -0.8140     0.0210 N.am  1 <1>  -0.6600 
 10 C       -0.9750    -0.6290     1.4410 C.ar  1 <1>  -0.1500 
 11 C       -0.5380     1.6980     1.9400 C.ar  1 <1>  -0.1500 
 12 C        2.4300    -1.9700     0.9740 C.3   1 <1>   0.2200 
 13 C        3.0510     0.4060     0.7430 C.3   1 <1>   0.1400 
 14 C       -0.8630     0.4150     2.3370 C.ar  1 <1>   0.1900 
 15 C        3.8070    -2.2800     1.5830 C.3   1 <1>  -0.1600 
 16 C        1.8350    -3.2580     0.3960 C.3   1 <1>  -0.2400 
 17 C        4.4360     0.1480     1.3410 C.3   1 <1>  -0.1600 
 18 F       -1.0680     0.1820     3.6060 F     1 <1>  -0.1900 
 19 C        4.4140    -1.0580     2.2860 C.3   1 <1>  -0.1600 
 20 H       -0.2070     0.2670    -2.3990 H     1 <1>   0.0800 
 21 H       -0.8480     1.8920    -2.1910 H     1 <1>   0.0800 
 22 H        3.6110     0.7230    -2.0130 H     1 <1>   0.0800 
 23 H        2.5280     0.1130    -3.2420 H     1 <1>   0.0800 
 24 H       -0.8190    -1.1830    -0.6120 H     1 <1>   0.1500 
 25 H       -0.0570     2.9290     0.2640 H     1 <1>   0.1500 
 26 H       -1.2300    -1.6140     1.7850 H     1 <1>   0.1500 
 27 H       -0.4630     2.4860     2.6660 H     1 <1>   0.1500 
 28 H        1.7760    -1.6520     1.7690 H     1 <1>   0.0800 
 29 H        2.3520     0.6370     1.5290 H     1 <1>   0.0800 
 30 H        3.1010     1.2650     0.1030 H     1 <1>   0.0800 
 31 H        4.4670    -2.6130     0.8000 H     1 <1>   0.0800 
 32 H        3.7150    -3.0800     2.2950 H     1 <1>   0.0800 
 33 H        2.4410    -3.6260    -0.4130 H     1 <1>   0.0800 
 34 H        0.8340    -3.0820     0.0480 H     1 <1>   0.0800 
 35 H        1.7880    -4.0160     1.1560 H     1 <1>   0.0800 
 36 H        4.7600     1.0210     1.8800 H     1 <1>   0.0800 
 37 H        5.1360    -0.0240     0.5420 H     1 <1>   0.0800 
 38 H        5.4140    -1.2850     2.6150 H     1 <1>   0.0800 
 39 H        3.8230    -0.8190     3.1540 H     1 <1>   0.0800 
@<TRIPOS>BOND
  1   1   2  1   
  2   1   3  1   
  3   2   4  1   
  4   2  20  1   
  5   2  21  1   
  6   3   5  1   
  7   3  22  1   
  8   3  23  1   
  9   4   6  ar  
 10   4   7  ar  
 11   5   8  2   
 12   5   9  am  
 13   6  10  ar  
 14   6  24  1   
 15   7  11  ar  
 16   7  25  1   
 17   9  12  1   
 18   9  13  1   
 19  10  14  ar  
 20  10  26  1   
 21  11  14  ar  
 22  11  27  1   
 23  12  15  1   
 24  12  16  1   
 25  12  28  1   
 26  13  17  1   
 27  13  29  1   
 28  13  30  1   
 29  14  18  1   
 30  15  19  1   
 31  15  31  1   
 32  15  32  1   
 33  16  33  1   
 34  16  34  1   
 35  16  35  1   
 36  17  19  1   
 37  17  36  1   
 38  17  37  1   
 39  19  38  1   
 40  19  39  1   
@<TRIPOS>SUBSTRUCTURE
  1 ****   9 GROUP 4 **** **** 0

# MOE 2024.06 (io_trps.svl 2023.06)
