@<TRIPOS>MOLECULE
NONAME
44 46 1 0 0 
SMALL
USER_CHARGES


@<TRIPOS>ATOM
  1 O       -0.6140     0.8710    -0.9820 O.2   1 <1>  -0.5700 
  2 C       -1.5880     1.2740    -0.3730 C.2   1 <1>   0.7060 
  3 O       -2.7310     0.6170    -0.5890 O.3   1 <1>  -0.2320 
  4 C       -1.5890     2.3880     0.5450 C.2   1 <1>   0.0290 
  5 C       -3.9110     0.9290    -0.0040 C.ar  1 <1>   0.0830 
  6 C       -0.3680     3.1210     0.8070 C.2   1 <1>   0.6160 
  7 C       -2.7670     2.7220     1.1470 C.2   1 <1>  -0.1780 
  8 C       -5.0520     0.1820    -0.2970 C.ar  1 <1>   0.0830 
  9 C       -3.9650     2.0010     0.8890 C.ar  1 <1>   0.0280 
 10 O       -0.3990     4.0900     1.5430 O.2   1 <1>  -0.5700 
 11 N        0.8350     2.7760     0.2670 N.am  1 <1>  -0.7300 
 12 O       -4.9250    -0.8500    -1.1760 O.3   1 <1>  -0.3630 
 13 C       -6.2570     0.5140     0.3110 C.ar  1 <1>  -0.1500 
 14 C       -5.1870     2.3140     1.4860 C.ar  1 <1>  -0.1500 
 15 C        2.1170     3.4860     0.4290 C.3   1 <1>   0.2200 
 16 C       -6.0220    -1.6610    -1.5320 C.3   1 <1>   0.0400 
 17 C       -6.3190     1.5790     1.2000 C.ar  1 <1>  -0.1500 
 18 C        2.6520     3.9350    -0.9480 C.3   1 <1>  -0.0800 
 19 C        3.0970     2.5420     1.1330 C.3   1 <1>  -0.1600 
 20 C        4.0470     4.5700    -0.8000 C.3   1 <1>  -0.1600 
 21 C        1.7040     4.9280    -1.6410 C.3   1 <1>  -0.2400 
 22 C        4.4860     3.1810     1.2720 C.3   1 <1>  -0.1600 
 23 C        5.0270     3.6240    -0.0930 C.3   1 <1>  -0.1600 
 24 H       -2.8260     3.5460     1.8390 H     1 <1>   0.1500 
 25 H        0.8550     1.9790    -0.3830 H     1 <1>   0.3700 
 26 H       -7.1570    -0.0360     0.1120 H     1 <1>   0.1500 
 27 H       -5.2430     3.1380     2.1760 H     1 <1>   0.1500 
 28 H        1.9730     4.3580     1.0460 H     1 <1>   0.0800 
 29 H       -5.6770    -2.4000    -2.2320 H     1 <1>   0.0800 
 30 H       -6.7760    -1.0470    -1.9910 H     1 <1>   0.0800 
 31 H       -6.4010    -2.1450    -0.6480 H     1 <1>   0.0800 
 32 H       -7.2560     1.8290     1.6660 H     1 <1>   0.1500 
 33 H        2.7510     3.0630    -1.5730 H     1 <1>   0.0800 
 34 H        3.1860     1.6300     0.5690 H     1 <1>   0.0800 
 35 H        2.7180     2.3040     2.1110 H     1 <1>   0.0800 
 36 H        3.9670     5.4830    -0.2340 H     1 <1>   0.0800 
 37 H        4.4360     4.8190    -1.7720 H     1 <1>   0.0800 
 38 H        1.5490     5.7940    -1.0220 H     1 <1>   0.0800 
 39 H        0.7500     4.4700    -1.8310 H     1 <1>   0.0800 
 40 H        2.1160     5.2450    -2.5830 H     1 <1>   0.0800 
 41 H        5.1650     2.4760     1.7180 H     1 <1>   0.0800 
 42 H        4.4210     4.0360     1.9240 H     1 <1>   0.0800 
 43 H        5.9730     4.1200     0.0390 H     1 <1>   0.0800 
 44 H        5.1940     2.7570    -0.7100 H     1 <1>   0.0800 
@<TRIPOS>BOND
  1   1   2  2   
  2   2   3  1   
  3   2   4  1   
  4   3   5  1   
  5   4   6  1   
  6   4   7  2   
  7   5   8  ar  
  8   5   9  ar  
  9   6  10  2   
 10   6  11  am  
 11   7   9  1   
 12   7  24  1   
 13   8  12  1   
 14   8  13  ar  
 15   9  14  ar  
 16  11  15  1   
 17  11  25  1   
 18  12  16  1   
 19  13  17  ar  
 20  13  26  1   
 21  14  17  ar  
 22  14  27  1   
 23  15  18  1   
 24  15  19  1   
 25  15  28  1   
 26  16  29  1   
 27  16  30  1   
 28  16  31  1   
 29  17  32  1   
 30  18  20  1   
 31  18  21  1   
 32  18  33  1   
 33  19  22  1   
 34  19  34  1   
 35  19  35  1   
 36  20  23  1   
 37  20  36  1   
 38  20  37  1   
 39  21  38  1   
 40  21  39  1   
 41  21  40  1   
 42  22  23  1   
 43  22  41  1   
 44  22  42  1   
 45  23  43  1   
 46  23  44  1   
@<TRIPOS>SUBSTRUCTURE
  1 ****   4 GROUP 4 **** **** 0

# MOE 2024.06 (io_trps.svl 2023.06)
