@<TRIPOS>MOLECULE
NONAME
33 34 1 0 0 
SMALL
USER_CHARGES


@<TRIPOS>ATOM
  1 S        0.1020     2.1430    -0.3130 S.3   1 <1>  -0.3710 
  2 C       -1.6790     2.2430    -0.4820 C.2   1 <1>   0.6510 
  3 C        0.4950     0.3430    -0.1890 C.3   1 <1>   0.1500 
  4 N       -2.3240     1.1380    -0.5380 N.2   1 <1>  -0.6290 
  5 N       -2.2360     3.5050    -0.5400 N.am  1 <1>  -0.4200 
  6 C        0.2920    -0.0800     1.2660 C.3   1 <1>  -0.2400 
  7 C        1.9440     0.1720    -0.6400 C.3   1 <1>  -0.2400 
  8 C       -3.6930     1.1830    -0.6610 C.ar  1 <1>   0.1790 
  9 C       -3.6060     3.6050    -0.6560 C.2   1 <1>   0.5440 
 10 C       -1.4160     4.7510    -0.4680 C.3   1 <1>   0.1400 
 11 C       -4.3820     2.3990    -0.7240 C.ar  1 <1>   0.0860 
 12 C       -4.4040    -0.0120    -0.7220 C.ar  1 <1>  -0.1500 
 13 O       -4.1400     4.7030    -0.7000 O.2   1 <1>  -0.5700 
 14 C       -1.2170     5.1640     0.9910 C.3   1 <1>  -0.2400 
 15 C       -5.7750     2.3790    -0.8470 C.ar  1 <1>  -0.1500 
 16 C       -5.7780    -0.0150    -0.8440 C.ar  1 <1>  -0.1500 
 17 C       -6.4670     1.1870    -0.9070 C.ar  1 <1>  -0.1500 
 18 H       -0.1690    -0.1880    -0.8490 H     1 <1>   0.0800 
 19 H        0.9250     0.4960     1.9170 H     1 <1>   0.0800 
 20 H        0.5300    -1.1220     1.3830 H     1 <1>   0.0800 
 21 H       -0.7330     0.0680     1.5540 H     1 <1>   0.0800 
 22 H        2.0540     0.5070    -1.6560 H     1 <1>   0.0800 
 23 H        2.6040     0.7430    -0.0110 H     1 <1>   0.0800 
 24 H        2.2260    -0.8640    -0.5890 H     1 <1>   0.0800 
 25 H       -1.9140     5.5450    -0.9980 H     1 <1>   0.0800 
 26 H       -0.4650     4.6090    -0.9500 H     1 <1>   0.0800 
 27 H       -3.8600    -0.9370    -0.6730 H     1 <1>   0.1500 
 28 H       -2.1700     5.3540     1.4550 H     1 <1>   0.0800 
 29 H       -0.6340     6.0660     1.0340 H     1 <1>   0.0800 
 30 H       -0.6980     4.3970     1.5370 H     1 <1>   0.0800 
 31 H       -6.3070     3.3140    -0.8950 H     1 <1>   0.1500 
 32 H       -6.3170    -0.9460    -0.8910 H     1 <1>   0.1500 
 33 H       -7.5400     1.1850    -1.0020 H     1 <1>   0.1500 
@<TRIPOS>BOND
  1   1   2  1   
  2   1   3  1   
  3   2   4  2   
  4   2   5  1   
  5   3   6  1   
  6   3   7  1   
  7   3  18  1   
  8   4   8  1   
  9   5   9  am  
 10   5  10  1   
 11   6  19  1   
 12   6  20  1   
 13   6  21  1   
 14   7  22  1   
 15   7  23  1   
 16   7  24  1   
 17   8  11  ar  
 18   8  12  ar  
 19   9  11  1   
 20   9  13  2   
 21  10  14  1   
 22  10  25  1   
 23  10  26  1   
 24  11  15  ar  
 25  12  16  ar  
 26  12  27  1   
 27  14  28  1   
 28  14  29  1   
 29  14  30  1   
 30  15  17  ar  
 31  15  31  1   
 32  16  17  ar  
 33  16  32  1   
 34  17  33  1   
@<TRIPOS>SUBSTRUCTURE
  1 ****   2 GROUP 4 **** **** 0

# MOE 2024.06 (io_trps.svl 2023.06)
