@<TRIPOS>MOLECULE
NONAME
36 38 1 0 0 
SMALL
USER_CHARGES


@<TRIPOS>ATOM
  1 S        0.0990    -0.3420     1.0380 S.3   1 <1>  -0.0800 
  2 C        1.3130    -1.2370     0.1850 C.2   1 <1>   0.4420 
  3 C       -1.0780    -1.1100     0.0250 C.2   1 <1>   0.1980 
  4 N        0.8120    -1.9840    -0.7300 N.2   1 <1>  -0.3380 
  5 N        2.6190    -1.0330     0.5640 N.am  1 <1>  -0.4940 
  6 N       -0.5500    -1.9110    -0.8110 N.2   1 <1>  -0.3380 
  7 C       -2.5420    -0.7540     0.2520 C.3   1 <1>   0.1000 
  8 C        3.7660    -1.5980     0.1070 C.2   1 <1>   0.6900 
  9 C       -3.5270    -1.5420    -0.6120 C.3   1 <1>  -0.1600 
 10 C       -2.8690     0.7000    -0.0880 C.3   1 <1>  -0.1600 
 11 O        4.7710    -0.9270     0.1540 O.2   1 <1>  -0.5700 
 12 N        3.8600    -2.8640    -0.3810 N.am  1 <1>  -0.5470 
 13 C       -4.8110    -0.7120    -0.6000 C.3   1 <1>  -0.1600 
 14 C       -4.3810     0.7350    -0.3310 C.3   1 <1>  -0.1600 
 15 C        3.1120    -4.0310    -0.1360 C.ar  1 <1>   0.1170 
 16 C        3.0530    -5.0550    -1.0800 C.ar  1 <1>   0.1900 
 17 C        2.4210    -4.2320     1.0560 C.ar  1 <1>  -0.1500 
 18 F        3.7150    -4.9230    -2.2040 F     1 <1>  -0.1900 
 19 C        2.3330    -6.2180    -0.8860 C.ar  1 <1>  -0.1500 
 20 C        1.6930    -5.3920     1.2710 C.ar  1 <1>  -0.1500 
 21 C        1.6440    -6.3840     0.3040 C.ar  1 <1>  -0.1500 
 22 H        2.8040    -0.1870     1.0940 H     1 <1>   0.3700 
 23 H       -2.7840    -0.9300     1.2860 H     1 <1>   0.0800 
 24 H       -3.6810    -2.5400    -0.2380 H     1 <1>   0.0800 
 25 H       -3.1550    -1.6000    -1.6210 H     1 <1>   0.0800 
 26 H       -2.3590     0.9740    -0.9970 H     1 <1>   0.0800 
 27 H       -2.5720     1.3740     0.6970 H     1 <1>   0.0800 
 28 H        4.6730    -2.9870    -0.9830 H     1 <1>   0.3700 
 29 H       -5.4550    -1.0500     0.1950 H     1 <1>   0.0800 
 30 H       -5.3390    -0.8020    -1.5350 H     1 <1>   0.0800 
 31 H       -4.6150     1.3720    -1.1670 H     1 <1>   0.0800 
 32 H       -4.8910     1.1080     0.5420 H     1 <1>   0.0800 
 33 H        2.4510    -3.4810     1.8230 H     1 <1>   0.1500 
 34 H        2.3140    -6.9740    -1.6500 H     1 <1>   0.1500 
 35 H        1.1580    -5.5240     2.1960 H     1 <1>   0.1500 
 36 H        1.0730    -7.2800     0.4760 H     1 <1>   0.1500 
@<TRIPOS>BOND
  1   1   2  1   
  2   1   3  1   
  3   2   4  2   
  4   2   5  1   
  5   3   6  2   
  6   3   7  1   
  7   4   6  1   
  8   5   8  am  
  9   5  22  1   
 10   7   9  1   
 11   7  10  1   
 12   7  23  1   
 13   8  11  2   
 14   8  12  am  
 15   9  13  1   
 16   9  24  1   
 17   9  25  1   
 18  10  14  1   
 19  10  26  1   
 20  10  27  1   
 21  12  15  1   
 22  12  28  1   
 23  13  14  1   
 24  13  29  1   
 25  13  30  1   
 26  14  31  1   
 27  14  32  1   
 28  15  16  ar  
 29  15  17  ar  
 30  16  18  1   
 31  16  19  ar  
 32  17  20  ar  
 33  17  33  1   
 34  19  21  ar  
 35  19  34  1   
 36  20  21  ar  
 37  20  35  1   
 38  21  36  1   
@<TRIPOS>SUBSTRUCTURE
  1 ****   4 GROUP 4 **** **** 0

# MOE 2024.06 (io_trps.svl 2023.06)
