@<TRIPOS>MOLECULE
NONAME
49 51 1 0 0 
SMALL
USER_CHARGES


@<TRIPOS>ATOM
  1 O       -7.0780     7.2280     0.5770 O.2   1 <1>  -0.5750 
  2 C       -6.0340     6.6900     0.3240 C.2   1 <1>   0.6550 
  3 O       -5.1410     6.3860     1.2660 O.3   1 <1>  -0.4360 
  4 C       -5.6490     6.3120    -1.1090 C.3   1 <1>   0.4090 
  5 C       -5.3660     6.7250     2.6240 C.3   1 <1>   0.0320 
  6 N       -5.6550     4.8320    -1.4030 N.pl3 1 <1>  -0.7670 
  7 C       -4.8760     3.8800    -0.8930 C.cat 1 <1>   1.0690 
  8 C       -6.4250     4.2500    -2.4010 C.ar  1 <1>   0.3020 
  9 N       -4.0180     4.0770     0.0810 N.pl3 1 <1>  -0.8400 
 10 N       -5.0820     2.7030    -1.4960 N.pl3 1 <1>  -0.7670 
 11 C       -6.0530     2.9180    -2.4740 C.ar  1 <1>   0.3020 
 12 C       -7.4070     4.7590    -3.2470 C.ar  1 <1>  -0.1170 
 13 C       -4.4050     1.3890    -1.2900 C.3   1 <1>   0.3480 
 14 C       -6.6330     2.0700    -3.4130 C.ar  1 <1>  -0.1170 
 15 C       -7.9900     3.9140    -4.1710 C.ar  1 <1>  -0.1580 
 16 C       -5.3580     0.3410    -0.6540 C.3   1 <1>   0.3370 
 17 C       -7.6020     2.5770    -4.2560 C.ar  1 <1>  -0.1580 
 18 N       -4.8450    -1.0760    -0.6640 N.4   1 <1>  -0.9610 
 19 C       -5.9280    -2.0130    -0.2280 C.3   1 <1>   0.3370 
 20 C       -3.6220    -1.2860     0.1730 C.3   1 <1>   0.3370 
 21 C       -5.4720    -3.4570    -0.4410 C.3   1 <1>  -0.1680 
 22 C       -3.1010    -2.7090    -0.0310 C.3   1 <1>  -0.1680 
 23 C       -4.1690    -3.7550     0.3100 C.3   1 <1>  -0.1680 
 24 H       -4.6670     6.7050    -1.3070 H     1 <1>   0.0720 
 25 H       -6.3300     6.8150    -1.7710 H     1 <1>   0.0720 
 26 H       -4.5240     6.3980     3.2090 H     1 <1>   0.0720 
 27 H       -6.2650     6.2390     2.9640 H     1 <1>   0.0720 
 28 H       -5.4750     7.7940     2.7050 H     1 <1>   0.0720 
 29 H       -3.3700     3.3850     0.4380 H     1 <1>   0.4440 
 30 H       -4.0110     4.9620     0.6000 H     1 <1>   0.4440 
 31 H       -7.7140     5.7870    -3.1880 H     1 <1>   0.1420 
 32 H       -3.5410     1.5180    -0.6620 H     1 <1>   0.0720 
 33 H       -4.0700     1.0280    -2.2480 H     1 <1>   0.0720 
 34 H       -6.3380     1.0410    -3.4950 H     1 <1>   0.1420 
 35 H       -8.7520     4.2850    -4.8380 H     1 <1>   0.1420 
 36 H       -6.2870     0.3670    -1.1990 H     1 <1>   0.0720 
 37 H       -5.5670     0.6320     0.3620 H     1 <1>   0.0720 
 38 H       -8.0700     1.9430    -4.9940 H     1 <1>   0.1420 
 39 H       -4.6050    -1.3750    -1.6210 H     1 <1>   0.4440 
 40 H       -6.8250    -1.8380    -0.8000 H     1 <1>   0.0720 
 41 H       -6.1520    -1.8570     0.8150 H     1 <1>   0.0720 
 42 H       -3.8600    -1.1390     1.2140 H     1 <1>   0.0720 
 43 H       -2.8500    -0.5890    -0.1070 H     1 <1>   0.0720 
 44 H       -5.3430    -3.6430    -1.4930 H     1 <1>   0.0720 
 45 H       -6.2420    -4.1240    -0.0900 H     1 <1>   0.0720 
 46 H       -2.2430    -2.8640     0.6000 H     1 <1>   0.0720 
 47 H       -2.7770    -2.8340    -1.0490 H     1 <1>   0.0720 
 48 H       -3.8140    -4.7400     0.0520 H     1 <1>   0.0720 
 49 H       -4.3560    -3.7440     1.3710 H     1 <1>   0.0720 
@<TRIPOS>BOND
  1   1   2  2   
  2   2   3  1   
  3   2   4  1   
  4   3   5  1   
  5   4   6  1   
  6   4  24  1   
  7   4  25  1   
  8   5  26  1   
  9   5  27  1   
 10   5  28  1   
 11   6   7  ar  
 12   6   8  1   
 13   7   9  ar  
 14   7  10  ar  
 15   8  11  ar  
 16   8  12  ar  
 17   9  29  1   
 18   9  30  1   
 19  10  11  1   
 20  10  13  1   
 21  11  14  ar  
 22  12  15  ar  
 23  12  31  1   
 24  13  16  1   
 25  13  32  1   
 26  13  33  1   
 27  14  17  ar  
 28  14  34  1   
 29  15  17  ar  
 30  15  35  1   
 31  16  18  1   
 32  16  36  1   
 33  16  37  1   
 34  17  38  1   
 35  18  19  1   
 36  18  20  1   
 37  18  39  1   
 38  19  21  1   
 39  19  40  1   
 40  19  41  1   
 41  20  22  1   
 42  20  42  1   
 43  20  43  1   
 44  21  23  1   
 45  21  44  1   
 46  21  45  1   
 47  22  23  1   
 48  22  46  1   
 49  22  47  1   
 50  23  48  1   
 51  23  49  1   
@<TRIPOS>SUBSTRUCTURE
  1 ****  10 GROUP 4 **** **** 0

# MOE 2024.06 (io_trps.svl 2023.06)
