@<TRIPOS>MOLECULE
NONAME
50 53 1 0 0 
SMALL
USER_CHARGES


@<TRIPOS>ATOM
  1 O        1.4980    -0.8030     2.4040 O.2   1 <1>  -0.5700 
  2 C        2.0330    -0.3810     1.4150 C.2   1 <1>   0.6590 
  3 O        2.1000     0.9350     1.2260 O.3   1 <1>  -0.4300 
  4 C        2.6580    -1.3340     0.3830 C.3   1 <1>  -0.0190 
  5 C        2.4710     1.5970     0.0400 C.3   1 <1>   0.1200 
  6 C        2.0070    -2.7320     0.4040 C.3   1 <1>  -0.1600 
  7 C        4.1740    -1.4840     0.6120 C.3   1 <1>  -0.1600 
  8 C        2.3810     3.0980     0.2970 C.3   1 <1>  -0.2400 
  9 C        2.6410    -3.6650    -0.6290 C.3   1 <1>   0.2090 
 10 C        4.8190    -2.4160    -0.4170 C.3   1 <1>   0.2090 
 11 N        4.1150    -3.7240    -0.4240 N.pl3 1 <1>  -0.8380 
 12 C        4.7020    -4.8410     0.1330 C.ar  1 <1>   0.4100 
 13 N        4.0340    -5.5050     1.0470 N.ar  1 <1>  -0.6200 
 14 C        5.9810    -5.2660    -0.2490 C.ar  1 <1>   0.0000 
 15 C        4.6530    -6.5570     1.5960 C.ar  1 <1>   0.4700 
 16 C        6.5150    -6.3560     0.3760 C.ar  1 <1>   0.1050 
 17 C        6.9600    -4.8780    -1.1710 C.2   1 <1>   0.1390 
 18 N        5.8460    -7.0290     1.3320 N.ar  1 <1>  -0.5670 
 19 N        7.7660    -6.5640    -0.1650 N.pl3 1 <1>   0.5930 
 20 N        8.0150    -5.6160    -1.1280 N.2   1 <1>  -0.7070 
 21 C        8.7180    -7.5690     0.1780 C.ar  1 <1>  -0.0230 
 22 C       10.0820    -7.2850     0.1520 C.ar  1 <1>  -0.1500 
 23 C        8.3220    -8.8550     0.5390 C.ar  1 <1>  -0.1500 
 24 C       11.0250    -8.2440     0.4830 C.ar  1 <1>  -0.1440 
 25 C        9.2570    -9.8180     0.8700 C.ar  1 <1>  -0.1500 
 26 C       10.6060    -9.5140     0.8430 C.ar  1 <1>  -0.1500 
 27 C       12.5070    -7.9160     0.4480 C.3   1 <1>  -0.0970 
 28 H        2.4940    -0.9320    -0.5990 H     1 <1>   0.0800 
 29 H        1.7900     1.3070    -0.7420 H     1 <1>   0.0800 
 30 H        3.4780     1.3190    -0.2170 H     1 <1>   0.0800 
 31 H        0.9530    -2.6490     0.2070 H     1 <1>   0.0800 
 32 H        2.1210    -3.1770     1.3780 H     1 <1>   0.0800 
 33 H        4.3480    -1.8880     1.5950 H     1 <1>   0.0800 
 34 H        4.6560    -0.5250     0.5670 H     1 <1>   0.0800 
 35 H        1.3760     3.3680     0.5660 H     1 <1>   0.0800 
 36 H        2.6550     3.6390    -0.5910 H     1 <1>   0.0800 
 37 H        3.0510     3.3790     1.0900 H     1 <1>   0.0800 
 38 H        2.4400    -3.3060    -1.6240 H     1 <1>   0.0800 
 39 H        2.2130    -4.6500    -0.5420 H     1 <1>   0.0800 
 40 H        5.8570    -2.5510    -0.1650 H     1 <1>   0.0800 
 41 H        4.7620    -1.9810    -1.4010 H     1 <1>   0.0800 
 42 H        4.0870    -7.0740     2.3530 H     1 <1>   0.1500 
 43 H        6.8340    -4.0480    -1.8460 H     1 <1>   0.1500 
 44 H       10.4050    -6.2980    -0.1360 H     1 <1>   0.1500 
 45 H        7.2770    -9.1120     0.5620 H     1 <1>   0.1500 
 46 H        8.9360   -10.8060     1.1490 H     1 <1>   0.1500 
 47 H       11.3280   -10.2690     1.1010 H     1 <1>   0.1500 
 48 H       12.6620    -6.8520     0.4540 H     1 <1>   0.0800 
 49 H       12.9490    -8.3250    -0.4420 H     1 <1>   0.0800 
 50 H       13.0000    -8.3350     1.3070 H     1 <1>   0.0800 
@<TRIPOS>BOND
  1   1   2  2   
  2   2   3  1   
  3   2   4  1   
  4   3   5  1   
  5   4   6  1   
  6   4   7  1   
  7   4  28  1   
  8   5   8  1   
  9   5  29  1   
 10   5  30  1   
 11   6   9  1   
 12   6  31  1   
 13   6  32  1   
 14   7  10  1   
 15   7  33  1   
 16   7  34  1   
 17   8  35  1   
 18   8  36  1   
 19   8  37  1   
 20   9  11  1   
 21   9  38  1   
 22   9  39  1   
 23  10  11  1   
 24  10  40  1   
 25  10  41  1   
 26  11  12  1   
 27  12  13  ar  
 28  12  14  ar  
 29  13  15  ar  
 30  14  16  ar  
 31  14  17  1   
 32  15  18  ar  
 33  15  42  1   
 34  16  18  ar  
 35  16  19  1   
 36  17  20  2   
 37  17  43  1   
 38  19  20  1   
 39  19  21  1   
 40  21  22  ar  
 41  21  23  ar  
 42  22  24  ar  
 43  22  44  1   
 44  23  25  ar  
 45  23  45  1   
 46  24  26  ar  
 47  24  27  1   
 48  25  26  ar  
 49  25  46  1   
 50  26  47  1   
 51  27  48  1   
 52  27  49  1   
 53  27  50  1   
@<TRIPOS>SUBSTRUCTURE
  1 ****  14 GROUP 4 **** **** 0

# MOE 2024.06 (io_trps.svl 2023.06)
