@<TRIPOS>MOLECULE
NONAME
33 33 1 0 0 
SMALL
USER_CHARGES


@<TRIPOS>ATOM
  1 O        0.7140    -2.7610    -2.5940 O.2   1 <1>  -0.5700 
  2 C        0.0110    -2.4550    -1.6610 C.2   1 <1>   0.5690 
  3 N        0.4880    -1.7330    -0.6160 N.am  1 <1>  -0.7300 
  4 C       -1.4490    -2.8950    -1.6690 C.3   1 <1>   0.1810 
  5 C        1.8690    -1.2680    -0.4530 C.3   1 <1>   0.2780 
  6 O       -2.1260    -2.4730    -0.4910 O.3   1 <1>  -0.3630 
  7 C        2.2110    -1.3810     1.0160 C.2   1 <1>  -0.2880 
  8 C       -3.4350    -2.7670    -0.2770 C.ar  1 <1>   0.0830 
  9 C        2.5000    -0.3580     1.8270 C.2   1 <1>  -0.3000 
 10 C       -4.0050    -2.3390     0.9180 C.ar  1 <1>  -0.1430 
 11 C       -4.2130    -3.4680    -1.1960 C.ar  1 <1>  -0.1500 
 12 C       -5.3370    -2.6160     1.1800 C.ar  1 <1>  -0.1500 
 13 C       -3.1800    -1.5700     1.9410 C.3   1 <1>  -0.0970 
 14 C       -5.5410    -3.7380    -0.9210 C.ar  1 <1>  -0.1500 
 15 C       -6.1100    -3.3160     0.2680 C.ar  1 <1>  -0.1430 
 16 C       -7.5680    -3.6090     0.5710 C.3   1 <1>  -0.0970 
 17 H       -0.1500    -1.5020     0.1500 H     1 <1>   0.3700 
 18 H       -1.4950    -3.9660    -1.7210 H     1 <1>   0.0800 
 19 H       -1.9430    -2.4610    -2.5180 H     1 <1>   0.0800 
 20 H        1.9410    -0.2450    -0.7810 H     1 <1>   0.0800 
 21 H        2.5390    -1.8700    -1.0440 H     1 <1>   0.0800 
 22 H        2.1970    -2.4030     1.3540 H     1 <1>   0.1500 
 23 H        2.7410    -0.4700     2.8710 H     1 <1>   0.1500 
 24 H        2.5230     0.6740     1.5210 H     1 <1>   0.1500 
 25 H       -3.8100    -3.8130    -2.1280 H     1 <1>   0.1500 
 26 H       -5.7810    -2.2860     2.1030 H     1 <1>   0.1500 
 27 H       -2.8140    -0.6590     1.5010 H     1 <1>   0.0800 
 28 H       -2.3420    -2.1660     2.2540 H     1 <1>   0.0800 
 29 H       -3.7670    -1.3210     2.8060 H     1 <1>   0.0800 
 30 H       -6.1330    -4.2800    -1.6390 H     1 <1>   0.1500 
 31 H       -7.7030    -3.7870     1.6230 H     1 <1>   0.0800 
 32 H       -7.8980    -4.4820     0.0360 H     1 <1>   0.0800 
 33 H       -8.1760    -2.7720     0.2790 H     1 <1>   0.0800 
@<TRIPOS>BOND
  1   1   2  2   
  2   2   3  am  
  3   2   4  1   
  4   3   5  1   
  5   3  17  1   
  6   4   6  1   
  7   4  18  1   
  8   4  19  1   
  9   5   7  1   
 10   5  20  1   
 11   5  21  1   
 12   6   8  1   
 13   7   9  2   
 14   7  22  1   
 15   8  10  ar  
 16   8  11  ar  
 17   9  23  1   
 18   9  24  1   
 19  10  12  ar  
 20  10  13  1   
 21  11  14  ar  
 22  11  25  1   
 23  12  15  ar  
 24  12  26  1   
 25  13  27  1   
 26  13  28  1   
 27  13  29  1   
 28  14  15  ar  
 29  14  30  1   
 30  15  16  1   
 31  16  31  1   
 32  16  32  1   
 33  16  33  1   
@<TRIPOS>SUBSTRUCTURE
  1 ****   6 GROUP 4 **** **** 0

# MOE 2024.06 (io_trps.svl 2023.06)
