@<TRIPOS>MOLECULE
NONAME
53 55 1 0 0 
SMALL
USER_CHARGES


@<TRIPOS>ATOM
  1 O        1.1270    -4.7670    -0.4320 O.3   1 <1>  -0.3630 
  2 C       -0.1870    -4.9930    -0.1780 C.ar  1 <1>   0.0830 
  3 C        1.7670    -3.5880     0.0060 C.3   1 <1>   0.1200 
  4 C       -0.9930    -4.1340     0.5650 C.ar  1 <1>  -0.1500 
  5 C       -0.7300    -6.1550    -0.7010 C.ar  1 <1>  -0.1500 
  6 C        3.2270    -3.6310    -0.4600 C.3   1 <1>   0.2000 
  7 C       -2.3270    -4.4400     0.7780 C.ar  1 <1>  -0.1440 
  8 C       -2.0620    -6.4680    -0.4930 C.ar  1 <1>  -0.1440 
  9 O        3.7920    -4.8460    -0.0680 O.3   1 <1>  -0.6800 
 10 C        4.0740    -2.4760     0.1160 C.3   1 <1>   0.3430 
 11 C       -2.8550    -5.6050     0.2450 C.ar  1 <1>  -0.1500 
 12 C       -3.2150    -3.5090     1.5840 C.3   1 <1>  -0.0970 
 13 C       -2.6600    -7.7390    -1.0680 C.3   1 <1>  -0.0970 
 14 N        5.5240    -2.8410     0.1260 N.4   1 <1>  -0.9590 
 15 C        6.3170    -2.0970     1.1680 C.3   1 <1>   0.3430 
 16 C        6.1660    -2.7480    -1.2350 C.3   1 <1>   0.3430 
 17 C        7.8050    -2.5050     1.1820 C.3   1 <1>   0.2090 
 18 C        7.6530    -3.1580    -1.2140 C.3   1 <1>   0.2090 
 19 N        8.4130    -2.3990    -0.1770 N.pl3 1 <1>  -0.8380 
 20 C        9.7720    -2.6240    -0.2020 C.ar  1 <1>   0.4100 
 21 N       10.1670    -3.8510     0.1110 N.ar  1 <1>  -0.6200 
 22 C       10.6420    -1.5930    -0.5410 C.ar  1 <1>  -0.1500 
 23 C       11.4750    -4.0530     0.0840 C.ar  1 <1>   0.1600 
 24 C       11.9980    -1.8180    -0.5650 C.ar  1 <1>  -0.1500 
 25 C       12.4180    -3.0920    -0.2400 C.ar  1 <1>  -0.1500 
 26 H        1.7090    -3.5500     1.0800 H     1 <1>   0.0800 
 27 H        1.2530    -2.7440    -0.4210 H     1 <1>   0.0800 
 28 H       -0.6050    -3.2270     0.9840 H     1 <1>   0.1500 
 29 H       -0.1020    -6.8120    -1.2740 H     1 <1>   0.1500 
 30 H        3.2480    -3.5940    -1.5360 H     1 <1>   0.0800 
 31 H        3.1240    -5.5590    -0.2140 H     1 <1>   0.4000 
 32 H        3.7480    -2.3010     1.1280 H     1 <1>   0.0800 
 33 H        3.9090    -1.5720    -0.4460 H     1 <1>   0.0800 
 34 H       -3.8920    -5.8430     0.4060 H     1 <1>   0.1500 
 35 H       -2.6280    -2.8940     2.2410 H     1 <1>   0.0800 
 36 H       -3.9050    -4.0790     2.1810 H     1 <1>   0.0800 
 37 H       -3.7740    -2.8740     0.9200 H     1 <1>   0.0800 
 38 H       -1.8870    -8.4100    -1.3990 H     1 <1>   0.0800 
 39 H       -3.2910    -7.4990    -1.9040 H     1 <1>   0.0800 
 40 H       -3.2480    -8.2410    -0.3210 H     1 <1>   0.0800 
 41 H        5.5180    -3.8510     0.3720 H     1 <1>   0.4500 
 42 H        5.8990    -2.2750     2.1440 H     1 <1>   0.0800 
 43 H        6.2650    -1.0390     0.9720 H     1 <1>   0.0800 
 44 H        6.1050    -1.7350    -1.5950 H     1 <1>   0.0800 
 45 H        5.6420    -3.3830    -1.9300 H     1 <1>   0.0800 
 46 H        7.8990    -3.5160     1.5410 H     1 <1>   0.0800 
 47 H        8.3450    -1.8660     1.8600 H     1 <1>   0.0800 
 48 H        8.0890    -2.9690    -2.1810 H     1 <1>   0.0800 
 49 H        7.7340    -4.2150    -1.0200 H     1 <1>   0.0800 
 50 H       10.2370    -0.6290    -0.7810 H     1 <1>   0.1500 
 51 H       11.8180    -5.0420     0.3350 H     1 <1>   0.1500 
 52 H       12.6980    -1.0420    -0.8230 H     1 <1>   0.1500 
 53 H       13.4650    -3.3380    -0.2380 H     1 <1>   0.1500 
@<TRIPOS>BOND
  1   1   2  1   
  2   1   3  1   
  3   2   4  ar  
  4   2   5  ar  
  5   3   6  1   
  6   3  26  1   
  7   3  27  1   
  8   4   7  ar  
  9   4  28  1   
 10   5   8  ar  
 11   5  29  1   
 12   6   9  1   
 13   6  10  1   
 14   6  30  1   
 15   7  11  ar  
 16   7  12  1   
 17   8  11  ar  
 18   8  13  1   
 19   9  31  1   
 20  10  14  1   
 21  10  32  1   
 22  10  33  1   
 23  11  34  1   
 24  12  35  1   
 25  12  36  1   
 26  12  37  1   
 27  13  38  1   
 28  13  39  1   
 29  13  40  1   
 30  14  15  1   
 31  14  16  1   
 32  14  41  1   
 33  15  17  1   
 34  15  42  1   
 35  15  43  1   
 36  16  18  1   
 37  16  44  1   
 38  16  45  1   
 39  17  19  1   
 40  17  46  1   
 41  17  47  1   
 42  18  19  1   
 43  18  48  1   
 44  18  49  1   
 45  19  20  1   
 46  20  21  ar  
 47  20  22  ar  
 48  21  23  ar  
 49  22  24  ar  
 50  22  50  1   
 51  23  25  ar  
 52  23  51  1   
 53  24  25  ar  
 54  24  52  1   
 55  25  53  1   
@<TRIPOS>SUBSTRUCTURE
  1 ****   6 GROUP 4 **** **** 0

# MOE 2024.06 (io_trps.svl 2023.06)
