@<TRIPOS>MOLECULE
NONAME
52 53 1 0 0 
SMALL
USER_CHARGES


@<TRIPOS>ATOM
  1 O       -0.3760    -8.0700    -0.1520 O.3   1 <1>  -0.3630 
  2 C       -1.5770    -7.4490    -0.0530 C.ar  1 <1>   0.0830 
  3 C        0.8310    -7.3530    -0.0200 C.3   1 <1>   0.1200 
  4 C       -2.7030    -8.2510    -0.1280 C.ar  1 <1>  -0.1500 
  5 C       -1.7310    -6.0760     0.1180 C.ar  1 <1>  -0.1500 
  6 C        1.9870    -8.3460    -0.1640 C.3   1 <1>   0.1100 
  7 C       -3.9680    -7.6980    -0.0330 C.ar  1 <1>  -0.1500 
  8 C       -2.9980    -5.5280     0.2130 C.ar  1 <1>  -0.1500 
  9 N        3.3050    -7.6870    -0.0230 N.3   1 <1>  -0.8100 
 10 C       -4.1280    -6.3310     0.1390 C.ar  1 <1>  -0.1430 
 11 C        3.6120    -7.3430     1.3900 C.3   1 <1>   0.1100 
 12 C        4.3770    -8.5470    -0.5820 C.3   1 <1>   0.1100 
 13 C       -5.5320    -5.7340     0.2420 C.3   1 <1>   0.0630 
 14 C        5.0360    -6.7570     1.5690 C.3   1 <1>   0.3430 
 15 C        5.7770    -7.8900    -0.4860 C.3   1 <1>   0.3430 
 16 C       -5.7930    -4.7860    -0.9440 C.3   1 <1>  -0.1600 
 17 C       -5.7160    -5.0450     1.6010 C.3   1 <1>  -0.2400 
 18 N        5.7210    -6.5800     0.2480 N.4   1 <1>  -0.9590 
 19 C       -7.2460    -4.2960    -1.0280 C.3   1 <1>  -0.2400 
 20 C        7.0210    -5.8750     0.3590 C.3   1 <1>   0.3430 
 21 C        7.4680    -5.3970    -1.0170 C.3   1 <1>  -0.2400 
 22 H        0.8330    -6.8890     0.9490 H     1 <1>   0.0800 
 23 H        0.8720    -6.6140    -0.8000 H     1 <1>   0.0800 
 24 H       -2.5840    -9.3100    -0.2610 H     1 <1>   0.1500 
 25 H       -0.8840    -5.4200     0.1770 H     1 <1>   0.1500 
 26 H        1.9110    -8.7840    -1.1460 H     1 <1>   0.0800 
 27 H        1.8830    -9.1300     0.5670 H     1 <1>   0.0800 
 28 H       -4.8270    -8.3420    -0.0940 H     1 <1>   0.1500 
 29 H       -3.1010    -4.4650     0.3440 H     1 <1>   0.1500 
 30 H        3.5160    -8.2190     2.0110 H     1 <1>   0.0800 
 31 H        2.9000    -6.6190     1.7460 H     1 <1>   0.0800 
 32 H        4.1660    -8.7540    -1.6180 H     1 <1>   0.0800 
 33 H        4.3940    -9.4910    -0.0630 H     1 <1>   0.0800 
 34 H       -6.2450    -6.5390     0.1850 H     1 <1>   0.0800 
 35 H        5.6120    -7.4180     2.1950 H     1 <1>   0.0800 
 36 H        4.9600    -5.8090     2.0760 H     1 <1>   0.0800 
 37 H        6.1500    -7.7340    -1.4840 H     1 <1>   0.0800 
 38 H        6.4510    -8.5660     0.0140 H     1 <1>   0.0800 
 39 H       -5.5580    -5.3110    -1.8540 H     1 <1>   0.0800 
 40 H       -5.1370    -3.9360    -0.8830 H     1 <1>   0.0800 
 41 H       -5.1040    -4.1640     1.6700 H     1 <1>   0.0800 
 42 H       -5.4350    -5.7200     2.3900 H     1 <1>   0.0800 
 43 H       -6.7430    -4.7660     1.7490 H     1 <1>   0.0800 
 44 H        5.0580    -6.0140    -0.3040 H     1 <1>   0.4500 
 45 H       -7.9240    -5.1300    -1.0630 H     1 <1>   0.0800 
 46 H       -7.3800    -3.7110    -1.9210 H     1 <1>   0.0800 
 47 H       -7.4930    -3.6780    -0.1840 H     1 <1>   0.0800 
 48 H        7.7650    -6.5290     0.7850 H     1 <1>   0.0800 
 49 H        6.9130    -5.0190     1.0070 H     1 <1>   0.0800 
 50 H        7.6870    -6.2220    -1.6690 H     1 <1>   0.0800 
 51 H        8.3680    -4.8170    -0.9120 H     1 <1>   0.0800 
 52 H        6.7190    -4.7670    -1.4650 H     1 <1>   0.0800 
@<TRIPOS>BOND
  1   1   2  1   
  2   1   3  1   
  3   2   4  ar  
  4   2   5  ar  
  5   3   6  1   
  6   3  22  1   
  7   3  23  1   
  8   4   7  ar  
  9   4  24  1   
 10   5   8  ar  
 11   5  25  1   
 12   6   9  1   
 13   6  26  1   
 14   6  27  1   
 15   7  10  ar  
 16   7  28  1   
 17   8  10  ar  
 18   8  29  1   
 19   9  11  1   
 20   9  12  1   
 21  10  13  1   
 22  11  14  1   
 23  11  30  1   
 24  11  31  1   
 25  12  15  1   
 26  12  32  1   
 27  12  33  1   
 28  13  16  1   
 29  13  17  1   
 30  13  34  1   
 31  14  18  1   
 32  14  35  1   
 33  14  36  1   
 34  15  18  1   
 35  15  37  1   
 36  15  38  1   
 37  16  19  1   
 38  16  39  1   
 39  16  40  1   
 40  17  41  1   
 41  17  42  1   
 42  17  43  1   
 43  18  20  1   
 44  18  44  1   
 45  19  45  1   
 46  19  46  1   
 47  19  47  1   
 48  20  21  1   
 49  20  48  1   
 50  20  49  1   
 51  21  50  1   
 52  21  51  1   
 53  21  52  1   
@<TRIPOS>SUBSTRUCTURE
  1 ****   3 GROUP 4 **** **** 0

# MOE 2024.06 (io_trps.svl 2023.06)
