@<TRIPOS>MOLECULE
NONAME
46 47 1 0 0 
SMALL
USER_CHARGES


@<TRIPOS>ATOM
  1 S       -7.1980    -4.7540    -0.0690 S.o2  1 <1>   1.4470 
  2 O       -7.7530    -4.5210     1.2420 O.2   1 <1>  -0.6500 
  3 O       -7.7800    -4.1370    -1.2350 O.2   1 <1>  -0.6500 
  4 N       -7.5120    -6.3580    -0.3140 N.am  1 <1>  -0.9780 
  5 C       -5.3840    -4.6330    -0.0700 C.ar  1 <1>  -0.0090 
  6 C       -4.6770    -4.4180    -1.2470 C.ar  1 <1>  -0.1500 
  7 C       -4.6510    -4.7790     1.1020 C.ar  1 <1>  -0.1500 
  8 C       -3.2940    -4.3460    -1.2560 C.ar  1 <1>  -0.1500 
  9 C       -3.2680    -4.7090     1.1030 C.ar  1 <1>  -0.1500 
 10 C       -2.5780    -4.4900    -0.0790 C.ar  1 <1>  -0.1430 
 11 C       -1.0600    -4.4150    -0.0840 C.3   1 <1>  -0.0170 
 12 C       -0.6190    -2.9670     0.1310 C.3   1 <1>   0.3430 
 13 N        0.8670    -2.8560     0.1310 N.4   1 <1>  -0.9060 
 14 C        1.3560    -1.4770     0.3370 C.3   1 <1>   0.4860 
 15 C        2.8640    -1.5600     0.3260 C.ar  1 <1>  -0.1430 
 16 C        3.5560    -1.8250     1.4990 C.ar  1 <1>  -0.1500 
 17 C        3.5680    -1.3830    -0.8580 C.ar  1 <1>  -0.1500 
 18 C        4.9350    -1.9220     1.4830 C.ar  1 <1>  -0.1500 
 19 C        4.9490    -1.4800    -0.8720 C.ar  1 <1>  -0.1500 
 20 C        5.6410    -1.7540     0.3040 C.ar  1 <1>   0.0830 
 21 O        6.9880    -1.8690     0.3820 O.3   1 <1>  -0.3620 
 22 C        7.8160    -1.6510    -0.7370 C.3   1 <1>   0.1200 
 23 C        9.2650    -1.8250    -0.2930 C.3   1 <1>  -0.2400 
 24 H       -8.1210    -6.3530    -1.1290 H     1 <1>   0.4200 
 25 H       -8.1020    -6.6020     0.4780 H     1 <1>   0.4200 
 26 H       -5.2200    -4.3080    -2.1720 H     1 <1>   0.1500 
 27 H       -5.1740    -4.9530     2.0280 H     1 <1>   0.1500 
 28 H       -2.7900    -4.1850    -2.1940 H     1 <1>   0.1500 
 29 H       -2.7430    -4.8340     2.0350 H     1 <1>   0.1500 
 30 H       -0.6920    -4.7810    -1.0270 H     1 <1>   0.0800 
 31 H       -0.6730    -5.0430     0.7000 H     1 <1>   0.0800 
 32 H       -1.0150    -2.6170     1.0720 H     1 <1>   0.0800 
 33 H       -1.0350    -2.3550    -0.6540 H     1 <1>   0.0800 
 34 H        1.2680    -3.1940    -0.7530 H     1 <1>   0.4500 
 35 H        1.2870    -3.4410     0.8650 H     1 <1>   0.4500 
 36 H        1.0160    -1.0880     1.2840 H     1 <1>   0.0800 
 37 H        1.0150    -0.8280    -0.4530 H     1 <1>   0.0800 
 38 H        3.0420    -1.9540     2.4370 H     1 <1>   0.1500 
 39 H        3.0590    -1.1650    -1.7820 H     1 <1>   0.1500 
 40 H        5.4820    -2.1270     2.3880 H     1 <1>   0.1500 
 41 H        5.4720    -1.3380    -1.8000 H     1 <1>   0.1500 
 42 H        7.6470    -0.6510    -1.0980 H     1 <1>   0.0800 
 43 H        7.5630    -2.3720    -1.4960 H     1 <1>   0.0800 
 44 H        9.5040    -1.1110     0.4750 H     1 <1>   0.0800 
 45 H        9.9240    -1.6650    -1.1270 H     1 <1>   0.0800 
 46 H        9.4190    -2.8210     0.0810 H     1 <1>   0.0800 
@<TRIPOS>BOND
  1   1   2  2   
  2   1   3  2   
  3   1   4  am  
  4   1   5  1   
  5   4  24  1   
  6   4  25  1   
  7   5   6  ar  
  8   5   7  ar  
  9   6   8  ar  
 10   6  26  1   
 11   7   9  ar  
 12   7  27  1   
 13   8  10  ar  
 14   8  28  1   
 15   9  10  ar  
 16   9  29  1   
 17  10  11  1   
 18  11  12  1   
 19  11  30  1   
 20  11  31  1   
 21  12  13  1   
 22  12  32  1   
 23  12  33  1   
 24  13  14  1   
 25  13  34  1   
 26  13  35  1   
 27  14  15  1   
 28  14  36  1   
 29  14  37  1   
 30  15  16  ar  
 31  15  17  ar  
 32  16  18  ar  
 33  16  38  1   
 34  17  19  ar  
 35  17  39  1   
 36  18  20  ar  
 37  18  40  1   
 38  19  20  ar  
 39  19  41  1   
 40  20  21  1   
 41  21  22  1   
 42  22  23  1   
 43  22  42  1   
 44  22  43  1   
 45  23  44  1   
 46  23  45  1   
 47  23  46  1   
@<TRIPOS>SUBSTRUCTURE
  1 ****  12 GROUP 4 **** **** 0

# MOE 2024.06 (io_trps.svl 2023.06)
