@<TRIPOS>MOLECULE
NONAME
34 35 1 0 0 
SMALL
USER_CHARGES


@<TRIPOS>ATOM
  1 CL      -1.4510    -1.1310    -2.5710 Cl    1 <1>  -0.1770 
  2 C       -1.3490    -0.0750    -1.1840 C.ar  1 <1>   0.1770 
  3 C       -2.1070    -0.3140    -0.0430 C.ar  1 <1>  -0.0090 
  4 C       -0.4670     0.9900    -1.2740 C.ar  1 <1>  -0.1500 
  5 S       -3.2770    -1.6890     0.0490 S.o2  1 <1>   1.4470 
  6 C       -1.9350     0.5520     1.0330 C.ar  1 <1>  -0.1500 
  7 C       -0.3120     1.8440    -0.1960 C.ar  1 <1>  -0.1500 
  8 O       -4.1800    -1.6140    -1.0770 O.2   1 <1>  -0.6500 
  9 O       -3.8560    -1.7460     1.3740 O.2   1 <1>  -0.6500 
 10 N       -2.3710    -3.1210    -0.1260 N.am  1 <1>  -0.8490 
 11 C       -1.0490     1.6100     0.9490 C.ar  1 <1>   0.1770 
 12 C       -1.5690    -3.4370     1.0840 C.3   1 <1>   0.2570 
 13 C       -3.2370    -4.2550    -0.4670 C.3   1 <1>   0.1160 
 14 CL      -0.8610     2.6780     2.3140 Cl    1 <1>  -0.1770 
 15 C       -0.3480    -2.5330     1.2670 C.2   1 <1>   0.5690 
 16 O       -0.1850    -1.9690     2.3220 O.2   1 <1>  -0.5700 
 17 N        0.5030    -2.3870     0.2160 N.am  1 <1>  -0.5790 
 18 C        1.7330    -1.5840     0.2070 C.3   1 <1>   0.0490 
 19 C        2.2200    -1.0610    -1.1030 C.3   1 <1>  -0.2000 
 20 C        2.9490    -2.1780    -0.4200 C.3   1 <1>  -0.2000 
 21 H        0.0950     1.1430    -2.1780 H     1 <1>   0.1500 
 22 H       -2.4880     0.4050     1.9460 H     1 <1>   0.1500 
 23 H        0.3680     2.6760    -0.2370 H     1 <1>   0.1500 
 24 H       -1.1940    -4.4420     1.0080 H     1 <1>   0.0800 
 25 H       -2.1780    -3.3920     1.9700 H     1 <1>   0.0800 
 26 H       -3.7520    -4.0610    -1.3930 H     1 <1>   0.0800 
 27 H       -3.9700    -4.4160     0.3080 H     1 <1>   0.0800 
 28 H       -2.6530    -5.1500    -0.5940 H     1 <1>   0.0800 
 29 H        0.2550    -2.8230    -0.6760 H     1 <1>   0.3700 
 30 H        1.8530    -0.9760     1.0910 H     1 <1>   0.1000 
 31 H        2.6900    -0.0940    -1.1310 H     1 <1>   0.1000 
 32 H        1.6650    -1.2790    -1.9980 H     1 <1>   0.1000 
 33 H        2.8910    -3.1710    -0.8290 H     1 <1>   0.1000 
 34 H        3.9090    -1.9660     0.0180 H     1 <1>   0.1000 
@<TRIPOS>BOND
  1   1   2  1   
  2   2   3  ar  
  3   2   4  ar  
  4   3   5  1   
  5   3   6  ar  
  6   4   7  ar  
  7   4  21  1   
  8   5   8  2   
  9   5   9  2   
 10   5  10  am  
 11   6  11  ar  
 12   6  22  1   
 13   7  11  ar  
 14   7  23  1   
 15  10  12  1   
 16  10  13  1   
 17  11  14  1   
 18  12  15  1   
 19  12  24  1   
 20  12  25  1   
 21  13  26  1   
 22  13  27  1   
 23  13  28  1   
 24  15  16  2   
 25  15  17  am  
 26  17  18  1   
 27  17  29  1   
 28  18  19  1   
 29  18  20  1   
 30  18  30  1   
 31  19  20  1   
 32  19  31  1   
 33  19  32  1   
 34  20  33  1   
 35  20  34  1   
@<TRIPOS>SUBSTRUCTURE
  1 ****   3 GROUP 4 **** **** 0

# MOE 2024.06 (io_trps.svl 2023.06)
