@<TRIPOS>MOLECULE
NONAME
40 42 1 0 0 
SMALL
USER_CHARGES


@<TRIPOS>ATOM
  1 CL       0.8590     1.2970     2.6410 Cl    1 <1>  -0.1770 
  2 C        1.9530     1.4230     1.2880 C.ar  1 <1>   0.1770 
  3 C        3.1420     0.7250     1.3130 C.ar  1 <1>  -0.1500 
  4 C        1.6080     2.2220     0.2130 C.ar  1 <1>  -0.1500 
  5 C        4.0190     0.8180     0.2420 C.ar  1 <1>   0.1000 
  6 C        2.4790     2.3200    -0.8600 C.ar  1 <1>  -0.1500 
  7 N        5.2150     0.1110     0.2720 N.pl3 1 <1>  -0.8380 
  8 C        3.6750     1.6220    -0.8420 C.ar  1 <1>  -0.1500 
  9 C        6.4650     0.9200     0.3710 C.3   1 <1>   0.2090 
 10 C        5.3080    -1.0700    -0.6330 C.3   1 <1>   0.2090 
 11 C        7.6640     0.0230     0.7430 C.3   1 <1>   0.3430 
 12 C        6.5160    -1.9540    -0.2520 C.3   1 <1>   0.3430 
 13 N        7.8060    -1.1720    -0.1750 N.4   1 <1>  -0.9590 
 14 C        8.9500    -2.0350     0.2220 C.3   1 <1>   0.4860 
 15 C       10.2300    -1.2310     0.0910 C.ar  1 <1>  -0.1430 
 16 C       10.7450    -0.9330    -1.1640 C.ar  1 <1>  -0.1500 
 17 C       10.8960    -0.7790     1.2260 C.ar  1 <1>  -0.1500 
 18 C       11.9010    -0.1800    -1.2490 C.ar  1 <1>   0.1900 
 19 C       12.0560    -0.0270     1.1160 C.ar  1 <1>  -0.1500 
 20 F       12.3730     0.1060    -2.4310 F     1 <1>  -0.1900 
 21 C       12.5680     0.2820    -0.1320 C.ar  1 <1>  -0.1500 
 22 H        3.3880     0.1120     2.1580 H     1 <1>   0.1500 
 23 H        0.6740     2.7560     0.2200 H     1 <1>   0.1500 
 24 H        2.2230     2.9390    -1.7030 H     1 <1>   0.1500 
 25 H        4.3450     1.7020    -1.6770 H     1 <1>   0.1500 
 26 H        6.3380     1.6770     1.1260 H     1 <1>   0.0800 
 27 H        6.6540     1.4150    -0.5660 H     1 <1>   0.0800 
 28 H        5.3990    -0.7400    -1.6530 H     1 <1>   0.0800 
 29 H        4.4030    -1.6490    -0.5520 H     1 <1>   0.0800 
 30 H        7.5230    -0.3160     1.7560 H     1 <1>   0.0800 
 31 H        8.5640     0.6160     0.7170 H     1 <1>   0.0800 
 32 H        6.6080    -2.7480    -0.9740 H     1 <1>   0.0800 
 33 H        6.3080    -2.4000     0.7060 H     1 <1>   0.0800 
 34 H        8.0170    -0.8020    -1.1100 H     1 <1>   0.4500 
 35 H        9.0070    -2.8990    -0.4210 H     1 <1>   0.0800 
 36 H        8.8290    -2.3730     1.2380 H     1 <1>   0.0800 
 37 H       10.2810    -1.2690    -2.0740 H     1 <1>   0.1500 
 38 H       10.5250    -1.0080     2.2120 H     1 <1>   0.1500 
 39 H       12.5660     0.3170     2.0020 H     1 <1>   0.1500 
 40 H       13.4670     0.8640    -0.2410 H     1 <1>   0.1500 
@<TRIPOS>BOND
  1   1   2  1   
  2   2   3  ar  
  3   2   4  ar  
  4   3   5  ar  
  5   3  22  1   
  6   4   6  ar  
  7   4  23  1   
  8   5   7  1   
  9   5   8  ar  
 10   6   8  ar  
 11   6  24  1   
 12   7   9  1   
 13   7  10  1   
 14   8  25  1   
 15   9  11  1   
 16   9  26  1   
 17   9  27  1   
 18  10  12  1   
 19  10  28  1   
 20  10  29  1   
 21  11  13  1   
 22  11  30  1   
 23  11  31  1   
 24  12  13  1   
 25  12  32  1   
 26  12  33  1   
 27  13  14  1   
 28  13  34  1   
 29  14  15  1   
 30  14  35  1   
 31  14  36  1   
 32  15  16  ar  
 33  15  17  ar  
 34  16  18  ar  
 35  16  37  1   
 36  17  19  ar  
 37  17  38  1   
 38  18  20  1   
 39  18  21  ar  
 40  19  21  ar  
 41  19  39  1   
 42  21  40  1   
@<TRIPOS>SUBSTRUCTURE
  1 ****  11 GROUP 4 **** **** 0

# MOE 2024.06 (io_trps.svl 2023.06)
