@<TRIPOS>MOLECULE
NONAME
35 36 1 0 0 
SMALL
USER_CHARGES


@<TRIPOS>ATOM
  1 S        0.2300    -0.0720    -0.2520 S.o2  1 <1>   1.4470 
  2 O        0.8610    -0.4220     0.9990 O.2   1 <1>  -0.6500 
  3 O        0.9600    -0.1820    -1.4960 O.2   1 <1>  -0.6500 
  4 N       -0.0800     1.5630    -0.0180 N.am  1 <1>  -0.9140 
  5 C       -1.4140    -0.8250    -0.4080 C.ar  1 <1>  -0.0090 
  6 C        0.9420     2.4470    -0.5750 C.3   1 <1>   0.1160 
  7 C       -1.5460    -2.2090    -0.3630 C.ar  1 <1>   0.0830 
  8 C       -2.5620    -0.0620    -0.5940 C.ar  1 <1>  -0.1500 
  9 O       -0.4200    -2.9380    -0.2010 O.3   1 <1>  -0.3630 
 10 C       -2.8020    -2.7970    -0.4890 C.ar  1 <1>  -0.1500 
 11 C       -3.8340    -0.6210    -0.7120 C.ar  1 <1>   0.0860 
 12 C       -0.4120    -4.3480    -0.1620 C.3   1 <1>   0.0400 
 13 C       -3.9240    -2.0120    -0.6620 C.ar  1 <1>  -0.1500 
 14 C       -5.0040     0.2210    -0.8810 C.2   1 <1>   0.5440 
 15 O       -4.9160     1.2890    -1.4570 O.2   1 <1>  -0.5700 
 16 N       -6.2160    -0.1680    -0.3780 N.am  1 <1>  -0.5790 
 17 C       -7.4720     0.5870    -0.4820 C.3   1 <1>   0.0490 
 18 C       -8.3870     0.5890     0.6970 C.3   1 <1>  -0.2000 
 19 C       -8.7500    -0.1820    -0.5360 C.3   1 <1>  -0.2000 
 20 H       -0.0380     1.6460     0.9970 H     1 <1>   0.4200 
 21 H        0.9490     2.3710    -1.6500 H     1 <1>   0.0800 
 22 H        1.9160     2.1760    -0.2000 H     1 <1>   0.0800 
 23 H        0.7300     3.4670    -0.3040 H     1 <1>   0.0800 
 24 H       -2.4820     1.0100    -0.6540 H     1 <1>   0.1500 
 25 H       -2.9200    -3.8640    -0.4600 H     1 <1>   0.1500 
 26 H        0.6060    -4.6700    -0.0320 H     1 <1>   0.0800 
 27 H       -0.7970    -4.7260    -1.0930 H     1 <1>   0.0800 
 28 H       -1.0080    -4.6790     0.6690 H     1 <1>   0.0800 
 29 H       -4.8830    -2.4880    -0.7720 H     1 <1>   0.1500 
 30 H       -6.2700    -1.0060     0.1970 H     1 <1>   0.3700 
 31 H       -7.3850     1.4880    -1.0700 H     1 <1>   0.1000 
 32 H       -8.9380     1.4870     0.9170 H     1 <1>   0.1000 
 33 H       -8.0970     0.0550     1.5840 H     1 <1>   0.1000 
 34 H       -8.7150    -1.2560    -0.5130 H     1 <1>   0.1000 
 35 H       -9.5490     0.1930    -1.1530 H     1 <1>   0.1000 
@<TRIPOS>BOND
  1   1   2  2   
  2   1   3  2   
  3   1   4  am  
  4   1   5  1   
  5   4   6  1   
  6   4  20  1   
  7   5   7  ar  
  8   5   8  ar  
  9   6  21  1   
 10   6  22  1   
 11   6  23  1   
 12   7   9  1   
 13   7  10  ar  
 14   8  11  ar  
 15   8  24  1   
 16   9  12  1   
 17  10  13  ar  
 18  10  25  1   
 19  11  13  ar  
 20  11  14  1   
 21  12  26  1   
 22  12  27  1   
 23  12  28  1   
 24  13  29  1   
 25  14  15  2   
 26  14  16  am  
 27  16  17  1   
 28  16  30  1   
 29  17  18  1   
 30  17  19  1   
 31  17  31  1   
 32  18  19  1   
 33  18  32  1   
 34  18  33  1   
 35  19  34  1   
 36  19  35  1   
@<TRIPOS>SUBSTRUCTURE
  1 ****   8 GROUP 4 **** **** 0

# MOE 2024.06 (io_trps.svl 2023.06)
