@<TRIPOS>MOLECULE
NONAME
53 54 1 0 0 
SMALL
USER_CHARGES


@<TRIPOS>ATOM
  1 S        0.6090     0.0840    -1.1830 S.o2  1 <1>   1.3330 
  2 O        0.4730    -0.5360     0.1090 O.2   1 <1>  -0.6500 
  3 O        1.8710     0.0200    -1.8830 O.2   1 <1>  -0.6500 
  4 N        0.2180     1.7600    -1.0220 N.am  1 <1>  -0.6930 
  5 C       -0.6760    -0.4990    -2.2670 C.3   1 <1>  -0.1350 
  6 C       -0.7820     2.1470    -0.1320 C.ar  1 <1>   0.1990 
  7 C        1.2950     2.7350    -1.3940 C.3   1 <1>   0.3370 
  8 C       -0.5240     2.2940     1.2250 C.ar  1 <1>  -0.1500 
  9 C       -2.0670     2.3980    -0.5980 C.ar  1 <1>  -0.1500 
 10 C        2.4380     2.8190    -0.3530 C.2   1 <1>   0.5690 
 11 C        0.6730     4.1030    -1.7230 C.3   1 <1>  -0.2400 
 12 C       -1.5270     2.6800     2.0950 C.ar  1 <1>  -0.1500 
 13 C       -3.0760     2.7830     0.2670 C.ar  1 <1>  -0.1500 
 14 O        2.4610     3.7300     0.4430 O.2   1 <1>  -0.5700 
 15 N        3.4100     1.8560    -0.3800 N.am  1 <1>  -0.5470 
 16 C       -2.8080     2.9260     1.6260 C.ar  1 <1>   0.0830 
 17 C        4.5280     1.7290     0.4580 C.ar  1 <1>   0.1170 
 18 O       -3.7350     3.3000     2.5480 O.3   1 <1>  -0.3630 
 19 C        5.6380     2.5710     0.3260 C.ar  1 <1>  -0.1430 
 20 C        4.5420     0.7200     1.4240 C.ar  1 <1>  -0.1440 
 21 C       -5.0610     3.5890     2.1670 C.3   1 <1>   0.0400 
 22 C        6.7340     2.3930     1.1560 C.ar  1 <1>  -0.1500 
 23 C        5.7030     3.6860    -0.7150 C.3   1 <1>  -0.0170 
 24 C        5.6470     0.5610     2.2430 C.ar  1 <1>  -0.1500 
 25 C        3.3530    -0.2150     1.6040 C.3   1 <1>  -0.0970 
 26 C        6.7410     1.3940     2.1110 C.ar  1 <1>  -0.1500 
 27 C        6.0980     3.1320    -2.0870 C.3   1 <1>  -0.2400 
 28 H       -0.5330    -1.5400    -2.4770 H     1 <1>   0.0800 
 29 H       -0.6590     0.0460    -3.1900 H     1 <1>   0.0800 
 30 H       -1.6350    -0.3720    -1.8040 H     1 <1>   0.0800 
 31 H        1.7440     2.3960    -2.3100 H     1 <1>   0.0800 
 32 H        0.4660     2.1050     1.6020 H     1 <1>   0.1500 
 33 H       -2.2730     2.2950    -1.6470 H     1 <1>   0.1500 
 34 H        0.2460     4.5490    -0.8420 H     1 <1>   0.0800 
 35 H       -0.0830     4.0010    -2.4790 H     1 <1>   0.0800 
 36 H        1.4370     4.7650    -2.0880 H     1 <1>   0.0800 
 37 H       -1.3210     2.7920     3.1440 H     1 <1>   0.1500 
 38 H       -4.0560     2.9680    -0.1290 H     1 <1>   0.1500 
 39 H        3.2100     1.0320    -0.9610 H     1 <1>   0.3700 
 40 H       -5.6090     3.8660     3.0500 H     1 <1>   0.0800 
 41 H       -5.4980     2.7090     1.7280 H     1 <1>   0.0800 
 42 H       -5.0540     4.4080     1.4700 H     1 <1>   0.0800 
 43 H        7.5930     3.0330     1.0630 H     1 <1>   0.1500 
 44 H        6.4260     4.4220    -0.4120 H     1 <1>   0.0800 
 45 H        4.7580     4.1930    -0.7810 H     1 <1>   0.0800 
 46 H        5.6640    -0.2130     2.9900 H     1 <1>   0.1500 
 47 H        3.2040    -0.8000     0.7150 H     1 <1>   0.0800 
 48 H        2.4630     0.3560     1.7990 H     1 <1>   0.0800 
 49 H        3.5060    -0.8870     2.4290 H     1 <1>   0.0800 
 50 H        7.5970     1.2660     2.7510 H     1 <1>   0.1500 
 51 H        7.0560     2.6470    -2.0260 H     1 <1>   0.0800 
 52 H        6.1560     3.9290    -2.8050 H     1 <1>   0.0800 
 53 H        5.3710     2.4140    -2.4220 H     1 <1>   0.0800 
@<TRIPOS>BOND
  1   1   2  2   
  2   1   3  2   
  3   1   4  am  
  4   1   5  1   
  5   4   6  1   
  6   4   7  1   
  7   5  28  1   
  8   5  29  1   
  9   5  30  1   
 10   6   8  ar  
 11   6   9  ar  
 12   7  10  1   
 13   7  11  1   
 14   7  31  1   
 15   8  12  ar  
 16   8  32  1   
 17   9  13  ar  
 18   9  33  1   
 19  10  14  2   
 20  10  15  am  
 21  11  34  1   
 22  11  35  1   
 23  11  36  1   
 24  12  16  ar  
 25  12  37  1   
 26  13  16  ar  
 27  13  38  1   
 28  15  17  1   
 29  15  39  1   
 30  16  18  1   
 31  17  19  ar  
 32  17  20  ar  
 33  18  21  1   
 34  19  22  ar  
 35  19  23  1   
 36  20  24  ar  
 37  20  25  1   
 38  21  40  1   
 39  21  41  1   
 40  21  42  1   
 41  22  26  ar  
 42  22  43  1   
 43  23  27  1   
 44  23  44  1   
 45  23  45  1   
 46  24  26  ar  
 47  24  46  1   
 48  25  47  1   
 49  25  48  1   
 50  25  49  1   
 51  26  50  1   
 52  27  51  1   
 53  27  52  1   
 54  27  53  1   
@<TRIPOS>SUBSTRUCTURE
  1 ****  10 GROUP 4 **** **** 0

# MOE 2024.06 (io_trps.svl 2023.06)
