@<TRIPOS>MOLECULE
NONAME
38 39 1 0 0 
SMALL
USER_CHARGES


@<TRIPOS>ATOM
  1 S       -0.2310    -0.6150    -1.2930 S.3   1 <1>  -0.0800 
  2 C        0.3500     1.0440    -1.2890 C.2   1 <1>   0.1660 
  3 C       -1.8330    -0.1340    -0.7510 C.2   1 <1>  -0.0450 
  4 N        1.6300     1.3020    -1.6690 N.2   1 <1>  -0.5760 
  5 C       -0.6540     1.9010    -0.9300 C.2   1 <1>  -0.0860 
  6 C       -2.8760    -1.0730    -0.4960 C.2   1 <1>   0.5940 
  7 C       -1.8750     1.2140    -0.6270 C.2   1 <1>  -0.1810 
  8 C        2.6580     0.7180    -1.1670 C.2   1 <1>   0.4400 
  9 C       -0.4920     3.3250    -0.8480 C.2   1 <1>   0.8060 
 10 O       -2.7980    -2.2700    -0.6160 O.2   1 <1>  -0.5700 
 11 C       -4.1850    -0.4700    -0.0030 C.3   1 <1>  -0.0990 
 12 C       -3.1690     1.8950    -0.1940 C.3   1 <1>   0.0210 
 13 N        2.7830    -0.0700    -0.0490 N.pl3 1 <1>  -0.7880 
 14 O       -0.0460     4.0200    -1.7390 O.2   1 <1>  -0.5700 
 15 O       -0.8950     3.9110     0.2890 O.3   1 <1>  -0.4300 
 16 C       -4.3860     0.9890    -0.4770 C.3   1 <1>  -0.1600 
 17 C        1.8790    -0.0210     1.1350 C.3   1 <1>   0.1290 
 18 C        3.9870    -0.9180     0.1300 C.3   1 <1>   0.1290 
 19 C       -0.7400     5.2940     0.5320 C.3   1 <1>   0.1200 
 20 C        0.6690     5.5470     1.0640 C.3   1 <1>  -0.2400 
 21 H        3.5850     0.8840    -1.6880 H     1 <1>   0.0600 
 22 H       -5.0000    -1.0780    -0.3520 H     1 <1>   0.0800 
 23 H       -4.1810    -0.5060     1.0710 H     1 <1>   0.0800 
 24 H       -3.1120     2.1160     0.8580 H     1 <1>   0.0800 
 25 H       -3.2950     2.8230    -0.7250 H     1 <1>   0.0800 
 26 H       -4.5570     0.9780    -1.5400 H     1 <1>   0.0800 
 27 H       -5.2630     1.4060    -0.0120 H     1 <1>   0.0800 
 28 H        1.2610     0.8580     1.1030 H     1 <1>   0.0800 
 29 H        2.4600     0.0150     2.0390 H     1 <1>   0.0800 
 30 H        1.2540    -0.8960     1.1540 H     1 <1>   0.0800 
 31 H        3.6890    -1.9260     0.3640 H     1 <1>   0.0800 
 32 H        4.5920    -0.5310     0.9320 H     1 <1>   0.0800 
 33 H        4.5730    -0.9350    -0.7730 H     1 <1>   0.0800 
 34 H       -0.9250     5.8430    -0.3770 H     1 <1>   0.0800 
 35 H       -1.4730     5.5800     1.2670 H     1 <1>   0.0800 
 36 H        1.4020     5.2750     0.3240 H     1 <1>   0.0800 
 37 H        0.8360     4.9800     1.9630 H     1 <1>   0.0800 
 38 H        0.7890     6.5910     1.2890 H     1 <1>   0.0800 
@<TRIPOS>BOND
  1   1   2  1   
  2   1   3  1   
  3   2   4  1   
  4   2   5  2   
  5   3   6  1   
  6   3   7  2   
  7   4   8  2   
  8   5   7  1   
  9   5   9  1   
 10   6  10  2   
 11   6  11  1   
 12   7  12  1   
 13   8  13  1   
 14   8  21  1   
 15   9  14  2   
 16   9  15  1   
 17  11  16  1   
 18  11  22  1   
 19  11  23  1   
 20  12  16  1   
 21  12  24  1   
 22  12  25  1   
 23  13  17  1   
 24  13  18  1   
 25  15  19  1   
 26  16  26  1   
 27  16  27  1   
 28  17  28  1   
 29  17  29  1   
 30  17  30  1   
 31  18  31  1   
 32  18  32  1   
 33  18  33  1   
 34  19  20  1   
 35  19  34  1   
 36  19  35  1   
 37  20  36  1   
 38  20  37  1   
 39  20  38  1   
@<TRIPOS>SUBSTRUCTURE
  1 ****   5 GROUP 4 **** **** 0

# MOE 2024.06 (io_trps.svl 2023.06)
