@<TRIPOS>MOLECULE
NONAME
42 43 1 0 0 
SMALL
USER_CHARGES


@<TRIPOS>ATOM
  1 O       -6.2450     3.7860     0.3790 O.co2 1 <1>  -0.9000 
  2 C       -7.0100     2.9320    -0.1140 C.2   1 <1>   1.0330 
  3 O       -8.1450     3.2850    -0.4500 O.co2 1 <1>  -0.9000 
  4 C       -6.5220     1.5730    -0.3080 C.2   1 <1>  -0.2330 
  5 C       -5.3260     1.0170     0.2190 C.2   1 <1>  -0.1810 
  6 C       -7.0660     0.5460    -1.0190 C.2   1 <1>  -0.0400 
  7 C       -5.2670    -0.2600    -0.2130 C.2   1 <1>  -0.0400 
  8 C       -4.3300     1.7420     1.1020 C.3   1 <1>   0.5240 
  9 O       -6.3130    -0.5280    -0.9590 O.3   1 <1>  -0.2800 
 10 C       -8.3430     0.4540    -1.8300 C.3   1 <1>  -0.0600 
 11 C       -4.2380    -1.3550     0.0110 C.3   1 <1>   0.0200 
 12 N       -3.7630     2.8800     0.3490 N.4   1 <1>  -0.9590 
 13 C       -4.5720    -2.2460     1.2230 C.3   1 <1>  -0.0800 
 14 C       -3.2710     2.5890    -1.0070 C.3   1 <1>   0.3430 
 15 C       -2.8090     3.7430     1.0660 C.3   1 <1>   0.3430 
 16 C       -3.4230    -3.2260     1.4950 C.3   1 <1>  -0.2400 
 17 C       -5.8770    -3.0300     1.0230 C.3   1 <1>  -0.2400 
 18 C       -2.4630     3.8270    -1.3520 C.3   1 <1>  -0.1600 
 19 C       -1.8840     4.2970    -0.0150 C.3   1 <1>  -0.1600 
 20 H       -3.5480     1.0670     1.4030 H     1 <1>   0.0800 
 21 H       -4.8400     2.1070     1.9780 H     1 <1>   0.0800 
 22 H       -8.8650     1.3920    -1.8420 H     1 <1>   0.0800 
 23 H       -8.9860    -0.2920    -1.4030 H     1 <1>   0.0800 
 24 H       -8.1090     0.1790    -2.8420 H     1 <1>   0.0800 
 25 H       -3.2790    -0.8970     0.1670 H     1 <1>   0.0800 
 26 H       -4.1690    -1.9560    -0.8800 H     1 <1>   0.0800 
 27 H       -4.6270     3.4670     0.2120 H     1 <1>   0.4500 
 28 H       -4.6900    -1.6140     2.0880 H     1 <1>   0.0800 
 29 H       -4.0880     2.4300    -1.6950 H     1 <1>   0.0800 
 30 H       -2.6350     1.7200    -0.9890 H     1 <1>   0.0800 
 31 H       -2.2430     3.1750     1.7860 H     1 <1>   0.0800 
 32 H       -3.3400     4.5380     1.5680 H     1 <1>   0.0800 
 33 H       -3.2790    -3.8830     0.6550 H     1 <1>   0.0800 
 34 H       -3.6430    -3.8260     2.3610 H     1 <1>   0.0800 
 35 H       -2.5060    -2.6950     1.6800 H     1 <1>   0.0800 
 36 H       -5.8240    -3.6380     0.1380 H     1 <1>   0.0800 
 37 H       -6.7100    -2.3560     0.9230 H     1 <1>   0.0800 
 38 H       -6.0670    -3.6670     1.8680 H     1 <1>   0.0800 
 39 H       -3.1320     4.5730    -1.7480 H     1 <1>   0.0800 
 40 H       -1.7030     3.6160    -2.0820 H     1 <1>   0.0800 
 41 H       -0.8980     3.8930     0.1280 H     1 <1>   0.0800 
 42 H       -1.8280     5.3710     0.0370 H     1 <1>   0.0800 
@<TRIPOS>BOND
  1   1   2  ar  
  2   2   3  ar  
  3   2   4  1   
  4   4   5  1   
  5   4   6  2   
  6   5   7  2   
  7   5   8  1   
  8   6   9  1   
  9   6  10  1   
 10   7   9  1   
 11   7  11  1   
 12   8  12  1   
 13   8  20  1   
 14   8  21  1   
 15  10  22  1   
 16  10  23  1   
 17  10  24  1   
 18  11  13  1   
 19  11  25  1   
 20  11  26  1   
 21  12  14  1   
 22  12  15  1   
 23  12  27  1   
 24  13  16  1   
 25  13  17  1   
 26  13  28  1   
 27  14  18  1   
 28  14  29  1   
 29  14  30  1   
 30  15  19  1   
 31  15  31  1   
 32  15  32  1   
 33  16  33  1   
 34  16  34  1   
 35  16  35  1   
 36  17  36  1   
 37  17  37  1   
 38  17  38  1   
 39  18  19  1   
 40  18  39  1   
 41  18  40  1   
 42  19  41  1   
 43  19  42  1   
@<TRIPOS>SUBSTRUCTURE
  1 ****   5 GROUP 4 **** **** 0

# MOE 2024.06 (io_trps.svl 2023.06)
