@<TRIPOS>MOLECULE
NONAME
47 48 1 0 0 
SMALL
USER_CHARGES


@<TRIPOS>ATOM
  1 S        0.0020     0.2820     0.3440 S.o2  1 <1>   1.4470 
  2 O       -0.3120     0.1520     1.7510 O.2   1 <1>  -0.6500 
  3 O        0.3560    -0.8990    -0.4130 O.2   1 <1>  -0.6500 
  4 N       -1.3670     0.9510    -0.3990 N.am  1 <1>  -0.8490 
  5 C        1.2720     1.5540     0.0940 C.ar  1 <1>  -0.0090 
  6 C       -1.8590     2.1390     0.3180 C.3   1 <1>   0.1960 
  7 C       -2.4320    -0.0480    -0.5280 C.3   1 <1>   0.1960 
  8 C        1.7470     1.8460    -1.1790 C.ar  1 <1>  -0.1500 
  9 C        1.7870     2.2840     1.1610 C.ar  1 <1>  -0.1500 
 10 C       -2.9880     2.8120    -0.4740 C.3   1 <1>  -0.0190 
 11 C       -3.6080     0.5250    -1.3290 C.3   1 <1>  -0.1600 
 12 C        2.6980     2.8300    -1.3820 C.ar  1 <1>  -0.1500 
 13 C        2.7380     3.2720     0.9690 C.ar  1 <1>  -0.1500 
 14 C       -3.4660     4.0690     0.2370 C.2   1 <1>   0.5690 
 15 C       -4.1430     1.8210    -0.7030 C.3   1 <1>  -0.1600 
 16 C        3.2000     3.5510    -0.3130 C.ar  1 <1>   0.0830 
 17 O       -3.4510     4.1140     1.4440 O.2   1 <1>  -0.5700 
 18 N       -3.9030     5.1100    -0.5170 N.am  1 <1>  -0.7300 
 19 O        4.1260     4.5000    -0.5940 O.3   1 <1>  -0.3630 
 20 C       -4.4210     6.3850     0.0150 C.3   1 <1>   0.1400 
 21 C        4.7090     5.2840     0.4200 C.3   1 <1>   0.1200 
 22 C       -5.7500     6.6890    -0.6650 C.3   1 <1>  -0.2400 
 23 C        5.7030     6.2400    -0.2330 C.3   1 <1>  -0.2400 
 24 H       -1.0600     2.8490     0.4460 H     1 <1>   0.0800 
 25 H       -2.2140     1.8570     1.2980 H     1 <1>   0.0800 
 26 H       -2.7650    -0.3570     0.4500 H     1 <1>   0.0800 
 27 H       -2.0560    -0.9180    -1.0430 H     1 <1>   0.0800 
 28 H        1.3640     1.2930    -2.0210 H     1 <1>   0.1500 
 29 H        1.4350     2.0770     2.1590 H     1 <1>   0.1500 
 30 H       -2.5830     3.1050    -1.4250 H     1 <1>   0.0800 
 31 H       -4.3950    -0.2060    -1.3760 H     1 <1>   0.0800 
 32 H       -3.2770     0.7150    -2.3350 H     1 <1>   0.0800 
 33 H        3.0580     3.0460    -2.3730 H     1 <1>   0.1500 
 34 H        3.1050     3.8080     1.8240 H     1 <1>   0.1500 
 35 H       -4.8870     2.2600    -1.3440 H     1 <1>   0.0800 
 36 H       -4.6080     1.5950     0.2420 H     1 <1>   0.0800 
 37 H       -3.9030     5.0330    -1.5350 H     1 <1>   0.3700 
 38 H       -3.7110     7.1700    -0.1820 H     1 <1>   0.0800 
 39 H       -4.5610     6.3110     1.0820 H     1 <1>   0.0800 
 40 H        5.2100     4.6290     1.1120 H     1 <1>   0.0800 
 41 H        3.9280     5.8310     0.9200 H     1 <1>   0.0800 
 42 H       -5.6180     6.7950    -1.7260 H     1 <1>   0.0800 
 43 H       -6.1470     7.6110    -0.2780 H     1 <1>   0.0800 
 44 H       -6.4580     5.9050    -0.4630 H     1 <1>   0.0800 
 45 H        6.4690     5.6840    -0.7430 H     1 <1>   0.0800 
 46 H        6.1660     6.8540     0.5180 H     1 <1>   0.0800 
 47 H        5.1960     6.8780    -0.9340 H     1 <1>   0.0800 
@<TRIPOS>BOND
  1   1   2  2   
  2   1   3  2   
  3   1   4  am  
  4   1   5  1   
  5   4   6  1   
  6   4   7  1   
  7   5   8  ar  
  8   5   9  ar  
  9   6  10  1   
 10   6  24  1   
 11   6  25  1   
 12   7  11  1   
 13   7  26  1   
 14   7  27  1   
 15   8  12  ar  
 16   8  28  1   
 17   9  13  ar  
 18   9  29  1   
 19  10  14  1   
 20  10  15  1   
 21  10  30  1   
 22  11  15  1   
 23  11  31  1   
 24  11  32  1   
 25  12  16  ar  
 26  12  33  1   
 27  13  16  ar  
 28  13  34  1   
 29  14  17  2   
 30  14  18  am  
 31  15  35  1   
 32  15  36  1   
 33  16  19  1   
 34  18  20  1   
 35  18  37  1   
 36  19  21  1   
 37  20  22  1   
 38  20  38  1   
 39  20  39  1   
 40  21  23  1   
 41  21  40  1   
 42  21  41  1   
 43  22  42  1   
 44  22  43  1   
 45  22  44  1   
 46  23  45  1   
 47  23  46  1   
 48  23  47  1   
@<TRIPOS>SUBSTRUCTURE
  1 ****   6 GROUP 4 **** **** 0

# MOE 2024.06 (io_trps.svl 2023.06)
