@<TRIPOS>MOLECULE
NONAME
50 52 1 0 0 
SMALL
USER_CHARGES


@<TRIPOS>ATOM
  1 S        0.6540     0.2070     1.2150 S.o2  1 <1>   1.4470 
  2 O        1.3630     0.0960     2.4730 O.2   1 <1>  -0.6500 
  3 O       -0.5010     1.0740     1.1250 O.2   1 <1>  -0.6500 
  4 N        1.7750     0.7710     0.0780 N.am  1 <1>  -0.8490 
  5 C        0.2280    -1.4390     0.5810 C.ar  1 <1>  -0.0090 
  6 C        2.0160     2.2140     0.2390 C.3   1 <1>   0.1960 
  7 C        3.0550     0.0450     0.1450 C.3   1 <1>   0.1960 
  8 C        0.4080    -2.5810     1.3540 C.ar  1 <1>  -0.1500 
  9 C       -0.2790    -1.5960    -0.7030 C.ar  1 <1>  -0.1500 
 10 C        3.0160     2.7420    -0.8080 C.3   1 <1>   0.1100 
 11 C        4.0470     0.5620    -0.9120 C.3   1 <1>   0.1100 
 12 C        0.0990    -3.8370     0.8610 C.ar  1 <1>  -0.1500 
 13 C       -0.5910    -2.8480    -1.2050 C.ar  1 <1>  -0.1500 
 14 N        4.3010     2.0140    -0.7520 N.3   1 <1>  -0.8100 
 15 C       -0.4000    -3.9710    -0.4220 C.ar  1 <1>  -0.1500 
 16 C        5.2420     2.5090    -1.8020 C.3   1 <1>   0.1710 
 17 C        6.6910     2.0690    -1.5850 C.2   1 <1>   0.5690 
 18 O        7.4320     2.0050    -2.5350 O.2   1 <1>  -0.5700 
 19 N        7.0420     1.7730    -0.2980 N.am  1 <1>  -0.5470 
 20 C        8.2260     1.3230     0.3050 C.ar  1 <1>   0.1170 
 21 C        9.3810     1.0150    -0.4050 C.ar  1 <1>  -0.1500 
 22 C        8.2400     1.1690     1.6870 C.ar  1 <1>  -0.1500 
 23 C       10.5200     0.5640     0.2400 C.ar  1 <1>   0.0820 
 24 C        9.3730     0.7210     2.3430 C.ar  1 <1>  -0.1500 
 25 O       11.5960     0.2870    -0.5400 O.3   1 <1>  -0.3630 
 26 C       10.5150     0.4180     1.6240 C.ar  1 <1>  -0.1500 
 27 C       12.8090    -0.1680     0.0150 C.3   1 <1>   0.0400 
 28 H        2.3960     2.4150     1.2270 H     1 <1>   0.0800 
 29 H        1.0870     2.7480     0.1270 H     1 <1>   0.0800 
 30 H        2.8850    -1.0050    -0.0250 H     1 <1>   0.0800 
 31 H        3.4980     0.1580     1.1210 H     1 <1>   0.0800 
 32 H        0.7930    -2.4880     2.3560 H     1 <1>   0.1500 
 33 H       -0.4300    -0.7240    -1.3170 H     1 <1>   0.1500 
 34 H        3.1890     3.7880    -0.6230 H     1 <1>   0.0800 
 35 H        2.5770     2.6420    -1.7870 H     1 <1>   0.0800 
 36 H        3.6440     0.3630    -1.8910 H     1 <1>   0.0800 
 37 H        4.9700     0.0160    -0.8160 H     1 <1>   0.0800 
 38 H        0.2450    -4.7090     1.4750 H     1 <1>   0.1500 
 39 H       -0.9830    -2.9470    -2.2030 H     1 <1>   0.1500 
 40 H       -0.6420    -4.9460    -0.8080 H     1 <1>   0.1500 
 41 H        5.2390     3.5840    -1.8040 H     1 <1>   0.0800 
 42 H        4.9200     2.1780    -2.7740 H     1 <1>   0.0800 
 43 H        6.2340     1.8670     0.3240 H     1 <1>   0.3700 
 44 H        9.4100     1.1190    -1.4720 H     1 <1>   0.1500 
 45 H        7.3600     1.4030     2.2570 H     1 <1>   0.1500 
 46 H        9.3660     0.6090     3.4130 H     1 <1>   0.1500 
 47 H       11.3820     0.0720     2.1540 H     1 <1>   0.1500 
 48 H       13.5090    -0.3150    -0.7880 H     1 <1>   0.0800 
 49 H       12.6330    -1.1010     0.5220 H     1 <1>   0.0800 
 50 H       13.1830     0.5770     0.6950 H     1 <1>   0.0800 
@<TRIPOS>BOND
  1   1   2  2   
  2   1   3  2   
  3   1   4  am  
  4   1   5  1   
  5   4   6  1   
  6   4   7  1   
  7   5   8  ar  
  8   5   9  ar  
  9   6  10  1   
 10   6  28  1   
 11   6  29  1   
 12   7  11  1   
 13   7  30  1   
 14   7  31  1   
 15   8  12  ar  
 16   8  32  1   
 17   9  13  ar  
 18   9  33  1   
 19  10  14  1   
 20  10  34  1   
 21  10  35  1   
 22  11  14  1   
 23  11  36  1   
 24  11  37  1   
 25  12  15  ar  
 26  12  38  1   
 27  13  15  ar  
 28  13  39  1   
 29  14  16  1   
 30  15  40  1   
 31  16  17  1   
 32  16  41  1   
 33  16  42  1   
 34  17  18  2   
 35  17  19  am  
 36  19  20  1   
 37  19  43  1   
 38  20  21  ar  
 39  20  22  ar  
 40  21  23  ar  
 41  21  44  1   
 42  22  24  ar  
 43  22  45  1   
 44  23  25  1   
 45  23  26  ar  
 46  24  26  ar  
 47  24  46  1   
 48  25  27  1   
 49  26  47  1   
 50  27  48  1   
 51  27  49  1   
 52  27  50  1   
@<TRIPOS>SUBSTRUCTURE
  1 ****  11 GROUP 4 **** **** 0

# MOE 2024.06 (io_trps.svl 2023.06)
