@<TRIPOS>MOLECULE
NONAME
52 54 1 0 0 
SMALL
USER_CHARGES


@<TRIPOS>ATOM
  1 CL       0.9500    -0.1710    -3.0400 Cl    1 <1>  -0.1770 
  2 C        1.9420    -0.7080    -1.7080 C.ar  1 <1>   0.1770 
  3 C        3.1180    -0.0420    -1.4300 C.ar  1 <1>  -0.1500 
  4 C        1.5310    -1.7910    -0.9530 C.ar  1 <1>  -0.1500 
  5 C        3.9140    -0.4610    -0.3730 C.ar  1 <1>   0.1000 
  6 C        2.3210    -2.2140     0.1030 C.ar  1 <1>  -0.1500 
  7 N        5.0980     0.2130    -0.0990 N.pl3 1 <1>  -0.8380 
  8 C        3.5030    -1.5520     0.3880 C.ar  1 <1>  -0.1500 
  9 C        6.3610    -0.5050    -0.4150 C.3   1 <1>   0.2090 
 10 C        5.1350     1.0140     1.1550 C.3   1 <1>   0.2090 
 11 C        7.5410     0.4890    -0.4480 C.3   1 <1>   0.3430 
 12 C        6.3210     2.0010     1.1180 C.3   1 <1>   0.3430 
 13 N        7.6510     1.3300     0.8170 N.4   1 <1>  -0.9590 
 14 C        8.7850     2.3060     0.8470 C.3   1 <1>   0.4230 
 15 C        8.7670     3.2730    -0.3450 C.3   1 <1>  -0.1600 
 16 C       10.1250     1.5690     0.9070 C.3   1 <1>  -0.1600 
 17 C        9.9390     4.2530    -0.2600 C.3   1 <1>   0.3430 
 18 C       11.2860     2.5630     0.9800 C.3   1 <1>   0.3430 
 19 N       11.2280     3.5070    -0.1780 N.4   1 <1>  -0.9590 
 20 C       12.3640     4.4800    -0.1420 C.3   1 <1>   0.3430 
 21 C       13.6820     3.7800    -0.4810 C.3   1 <1>  -0.1600 
 22 C       14.8280     4.7950    -0.5670 C.3   1 <1>  -0.2400 
 23 H        3.4150     0.7960    -2.0300 H     1 <1>   0.1500 
 24 H        0.6090    -2.2920    -1.1920 H     1 <1>   0.1500 
 25 H        2.0130    -3.0570     0.6990 H     1 <1>   0.1500 
 26 H        4.1090    -1.8870     1.2090 H     1 <1>   0.1500 
 27 H        6.2650    -0.9830    -1.3760 H     1 <1>   0.0800 
 28 H        6.5390    -1.2720     0.3190 H     1 <1>   0.0800 
 29 H        5.2200     0.3590     2.0040 H     1 <1>   0.0800 
 30 H        4.2130     1.5630     1.2510 H     1 <1>   0.0800 
 31 H        7.3930     1.1330    -1.2990 H     1 <1>   0.0800 
 32 H        8.4500    -0.0660    -0.6070 H     1 <1>   0.0800 
 33 H        6.3710     2.5130     2.0650 H     1 <1>   0.0800 
 34 H        6.1050     2.7340     0.3580 H     1 <1>   0.0800 
 35 H        7.7930     0.6590     1.5850 H     1 <1>   0.4500 
 36 H        8.6960     2.8910     1.7490 H     1 <1>   0.0800 
 37 H        7.8570     3.8460    -0.3450 H     1 <1>   0.0800 
 38 H        8.8330     2.7470    -1.2800 H     1 <1>   0.0800 
 39 H       10.2670     0.9420     0.0460 H     1 <1>   0.0800 
 40 H       10.1590     0.9490     1.7860 H     1 <1>   0.0800 
 41 H        9.8260     4.8820     0.6110 H     1 <1>   0.0800 
 42 H        9.9390     4.8910    -1.1310 H     1 <1>   0.0800 
 43 H       12.2200     2.0220     0.9690 H     1 <1>   0.0800 
 44 H       11.2360     3.1180     1.9040 H     1 <1>   0.0800 
 45 H       11.3530     2.9710    -1.0500 H     1 <1>   0.4500 
 46 H       12.4340     4.9430     0.8300 H     1 <1>   0.0800 
 47 H       12.1980     5.2590    -0.8700 H     1 <1>   0.0800 
 48 H       13.6010     3.2800    -1.4310 H     1 <1>   0.0800 
 49 H       13.9350     3.0570     0.2740 H     1 <1>   0.0800 
 50 H       14.6380     5.5260    -1.3340 H     1 <1>   0.0800 
 51 H       15.7480     4.2900    -0.8080 H     1 <1>   0.0800 
 52 H       14.9630     5.3040     0.3720 H     1 <1>   0.0800 
@<TRIPOS>BOND
  1   1   2  1   
  2   2   3  ar  
  3   2   4  ar  
  4   3   5  ar  
  5   3  23  1   
  6   4   6  ar  
  7   4  24  1   
  8   5   7  1   
  9   5   8  ar  
 10   6   8  ar  
 11   6  25  1   
 12   7   9  1   
 13   7  10  1   
 14   8  26  1   
 15   9  11  1   
 16   9  27  1   
 17   9  28  1   
 18  10  12  1   
 19  10  29  1   
 20  10  30  1   
 21  11  13  1   
 22  11  31  1   
 23  11  32  1   
 24  12  13  1   
 25  12  33  1   
 26  12  34  1   
 27  13  14  1   
 28  13  35  1   
 29  14  15  1   
 30  14  16  1   
 31  14  36  1   
 32  15  17  1   
 33  15  37  1   
 34  15  38  1   
 35  16  18  1   
 36  16  39  1   
 37  16  40  1   
 38  17  19  1   
 39  17  41  1   
 40  17  42  1   
 41  18  19  1   
 42  18  43  1   
 43  18  44  1   
 44  19  20  1   
 45  19  45  1   
 46  20  21  1   
 47  20  46  1   
 48  20  47  1   
 49  21  22  1   
 50  21  48  1   
 51  21  49  1   
 52  22  50  1   
 53  22  51  1   
 54  22  52  1   
@<TRIPOS>SUBSTRUCTURE
  1 ****  11 GROUP 4 **** **** 0

# MOE 2024.06 (io_trps.svl 2023.06)
