@<TRIPOS>MOLECULE
NONAME
44 45 1 0 0 
SMALL
USER_CHARGES


@<TRIPOS>ATOM
  1 CL       1.1910     0.7800     1.9970 Cl    1 <1>  -0.1770 
  2 C        0.6450     2.2470     1.2230 C.ar  1 <1>   0.1770 
  3 C       -0.7050     2.4420     1.0140 C.ar  1 <1>  -0.1500 
  4 C        1.5800     3.1860     0.8330 C.ar  1 <1>  -0.1500 
  5 C       -1.1500     3.6070     0.3990 C.ar  1 <1>   0.1170 
  6 C        1.1520     4.3490     0.2150 C.ar  1 <1>  -0.1500 
  7 N       -2.5070     3.8800     0.1480 N.am  1 <1>  -0.5470 
  8 C       -0.2070     4.5630    -0.0050 C.ar  1 <1>   0.0830 
  9 C       -3.6680     3.2910     0.5430 C.2   1 <1>   0.6900 
 10 O       -0.6880     5.6900    -0.6140 O.3   1 <1>  -0.3630 
 11 O       -3.6980     2.3310     1.2870 O.2   1 <1>  -0.5700 
 12 N       -4.8300     3.8090     0.0740 N.am  1 <1>  -0.7300 
 13 C        0.1770     6.7290    -1.0190 C.3   1 <1>   0.0400 
 14 C       -6.1520     3.2980     0.4570 C.3   1 <1>   0.2200 
 15 C       -6.5610     2.1840    -0.5030 C.3   1 <1>  -0.1600 
 16 C       -7.1720     4.4320     0.4390 C.3   1 <1>  -0.1600 
 17 C       -7.9560     1.6760    -0.1580 C.3   1 <1>   0.3430 
 18 C       -8.5620     3.8910     0.7700 C.3   1 <1>   0.3430 
 19 N       -8.9340     2.8090    -0.1900 N.4   1 <1>  -0.9590 
 20 C      -10.3250     2.3490     0.0680 C.3   1 <1>   0.3430 
 21 C      -10.8490     1.5860    -1.1430 C.3   1 <1>  -0.2400 
 22 H       -1.3910     1.6810     1.3320 H     1 <1>   0.1500 
 23 H        2.6250     3.0040     1.0110 H     1 <1>   0.1500 
 24 H        1.8920     5.0670    -0.0840 H     1 <1>   0.1500 
 25 H       -2.6190     4.7580    -0.3540 H     1 <1>   0.3700 
 26 H       -4.7910     4.5230    -0.6500 H     1 <1>   0.3700 
 27 H       -0.4200     7.5120    -1.4530 H     1 <1>   0.0800 
 28 H        0.8650     6.3470    -1.7530 H     1 <1>   0.0800 
 29 H        0.7000     7.1060    -0.1580 H     1 <1>   0.0800 
 30 H       -6.0920     2.8960     1.4580 H     1 <1>   0.0800 
 31 H       -5.8640     1.3690    -0.4130 H     1 <1>   0.0800 
 32 H       -6.5410     2.5320    -1.5210 H     1 <1>   0.0800 
 33 H       -7.1920     4.9110    -0.5230 H     1 <1>   0.0800 
 34 H       -6.8990     5.1650     1.1780 H     1 <1>   0.0800 
 35 H       -7.9430     1.2310     0.8240 H     1 <1>   0.0800 
 36 H       -8.2410     0.9160    -0.8680 H     1 <1>   0.0800 
 37 H       -9.2790     4.6950     0.7180 H     1 <1>   0.0800 
 38 H       -8.5640     3.5020     1.7760 H     1 <1>   0.0800 
 39 H       -8.9140     3.2100    -1.1370 H     1 <1>   0.4500 
 40 H      -10.9630     3.2020     0.2410 H     1 <1>   0.0800 
 41 H      -10.3560     1.7220     0.9450 H     1 <1>   0.0800 
 42 H      -10.8060     2.1940    -2.0290 H     1 <1>   0.0800 
 43 H      -11.8790     1.3240    -0.9730 H     1 <1>   0.0800 
 44 H      -10.3060     0.6720    -1.3020 H     1 <1>   0.0800 
@<TRIPOS>BOND
  1   1   2  1   
  2   2   3  ar  
  3   2   4  ar  
  4   3   5  ar  
  5   3  22  1   
  6   4   6  ar  
  7   4  23  1   
  8   5   7  1   
  9   5   8  ar  
 10   6   8  ar  
 11   6  24  1   
 12   7   9  am  
 13   7  25  1   
 14   8  10  1   
 15   9  11  2   
 16   9  12  am  
 17  10  13  1   
 18  12  14  1   
 19  12  26  1   
 20  13  27  1   
 21  13  28  1   
 22  13  29  1   
 23  14  15  1   
 24  14  16  1   
 25  14  30  1   
 26  15  17  1   
 27  15  31  1   
 28  15  32  1   
 29  16  18  1   
 30  16  33  1   
 31  16  34  1   
 32  17  19  1   
 33  17  35  1   
 34  17  36  1   
 35  18  19  1   
 36  18  37  1   
 37  18  38  1   
 38  19  20  1   
 39  19  39  1   
 40  20  21  1   
 41  20  40  1   
 42  20  41  1   
 43  21  42  1   
 44  21  43  1   
 45  21  44  1   
@<TRIPOS>SUBSTRUCTURE
  1 ****   9 GROUP 4 **** **** 0

# MOE 2024.06 (io_trps.svl 2023.06)
