@<TRIPOS>MOLECULE
NONAME
37 38 1 0 0 
SMALL
USER_CHARGES


@<TRIPOS>ATOM
  1 S       -0.0010     0.2350     0.2110 S.o2  1 <1>   1.4470 
  2 O       -0.4220    -0.4100    -1.0150 O.2   1 <1>  -0.6500 
  3 O       -0.5380    -0.2260     1.4730 O.2   1 <1>  -0.6500 
  4 N       -0.4110     1.8780     0.0620 N.am  1 <1>  -0.8490 
  5 C        1.8110     0.2610     0.3080 C.ar  1 <1>  -0.0090 
  6 C       -1.8310     2.1140     0.3300 C.3   1 <1>   0.1160 
  7 C       -0.0420     2.4460    -1.2380 C.3   1 <1>   0.1160 
  8 C        2.5900    -0.5850    -0.4740 C.ar  1 <1>  -0.1500 
  9 C        2.4710     1.1250     1.1730 C.ar  1 <1>  -0.1500 
 10 C        3.9720    -0.5600    -0.4020 C.ar  1 <1>  -0.1500 
 11 C        3.8520     1.1540     1.2480 C.ar  1 <1>  -0.1500 
 12 C        4.6270     0.3140     0.4560 C.ar  1 <1>   0.1170 
 13 N        6.0270     0.3000     0.4980 N.am  1 <1>  -0.5470 
 14 C        6.9210     1.2720     0.8660 C.2   1 <1>   0.5770 
 15 O        6.5880     2.3760     1.2220 O.2   1 <1>  -0.5700 
 16 C        8.4030     0.9230     0.8240 C.3   1 <1>   0.0530 
 17 C        9.3580     2.0830     0.4240 C.3   1 <1>   0.0000 
 18 C        8.8780     0.2020    -0.4680 C.3   1 <1>   0.0000 
 19 C       10.1860     1.0280    -0.3530 C.3   1 <1>   0.0000 
 20 H       -2.0770     1.7860     1.3260 H     1 <1>   0.0800 
 21 H       -2.4410     1.5700    -0.3730 H     1 <1>   0.0800 
 22 H       -2.0550     3.1640     0.2570 H     1 <1>   0.0800 
 23 H        1.0120     2.3160    -1.4150 H     1 <1>   0.0800 
 24 H       -0.2570     3.5010    -1.2540 H     1 <1>   0.0800 
 25 H       -0.5900     1.9640    -2.0320 H     1 <1>   0.0800 
 26 H        2.1050    -1.2700    -1.1500 H     1 <1>   0.1500 
 27 H        1.8920     1.7860     1.7960 H     1 <1>   0.1500 
 28 H        4.5430    -1.2240    -1.0240 H     1 <1>   0.1500 
 29 H        4.3240     1.8350     1.9330 H     1 <1>   0.1500 
 30 H        6.4520    -0.5610     0.1600 H     1 <1>   0.3700 
 31 H        8.7380     0.4160     1.7140 H     1 <1>   0.0000 
 32 H        9.8810     2.5230     1.2540 H     1 <1>   0.0000 
 33 H        8.9010     2.8060    -0.2300 H     1 <1>   0.0000 
 34 H        8.3020     0.4660    -1.3390 H     1 <1>   0.0000 
 35 H        9.0200    -0.8570    -0.3490 H     1 <1>   0.0000 
 36 H       10.9290     0.5470     0.2610 H     1 <1>   0.0000 
 37 H       10.5650     1.3790    -1.2960 H     1 <1>   0.0000 
@<TRIPOS>BOND
  1   1   2  2   
  2   1   3  2   
  3   1   4  am  
  4   1   5  1   
  5   4   6  1   
  6   4   7  1   
  7   5   8  ar  
  8   5   9  ar  
  9   6  20  1   
 10   6  21  1   
 11   6  22  1   
 12   7  23  1   
 13   7  24  1   
 14   7  25  1   
 15   8  10  ar  
 16   8  26  1   
 17   9  11  ar  
 18   9  27  1   
 19  10  12  ar  
 20  10  28  1   
 21  11  12  ar  
 22  11  29  1   
 23  12  13  1   
 24  13  14  am  
 25  13  30  1   
 26  14  15  2   
 27  14  16  1   
 28  16  17  1   
 29  16  18  1   
 30  16  31  1   
 31  17  19  1   
 32  17  32  1   
 33  17  33  1   
 34  18  19  1   
 35  18  34  1   
 36  18  35  1   
 37  19  36  1   
 38  19  37  1   
@<TRIPOS>SUBSTRUCTURE
  1 ****  12 GROUP 4 **** **** 0

# MOE 2024.06 (io_trps.svl 2023.06)
