@<TRIPOS>MOLECULE
NONAME
44 45 1 0 0 
SMALL
USER_CHARGES


@<TRIPOS>ATOM
  1 O        1.4300    -1.7820    -0.9180 O.3   1 <1>  -0.3630 
  2 C        0.5190    -2.5850    -0.3250 C.ar  1 <1>   0.0830 
  3 C        2.3870    -1.2080    -0.0600 C.3   1 <1>   0.1200 
  4 C       -0.6690    -2.0410     0.1570 C.ar  1 <1>  -0.1440 
  5 C        0.7750    -3.9500    -0.2120 C.ar  1 <1>  -0.1440 
  6 C        3.2920    -0.3010    -0.8940 C.3   1 <1>  -0.1600 
  7 C       -1.5850    -2.8700     0.7840 C.ar  1 <1>  -0.1500 
  8 C       -0.9840    -0.5590     0.0040 C.3   1 <1>  -0.0960 
  9 C       -0.1550    -4.7600     0.4180 C.ar  1 <1>  -0.1500 
 10 C        2.0490    -4.5670    -0.7720 C.3   1 <1>  -0.0970 
 11 C        4.3510     0.3790    -0.0160 C.3   1 <1>  -0.1600 
 12 C       -1.3280    -4.2230     0.9170 C.ar  1 <1>  -0.1500 
 13 C        5.2620     1.2960    -0.8390 C.3   1 <1>   0.0210 
 14 C        6.2820     1.9670     0.0650 C.2   1 <1>  -0.1810 
 15 C        6.1280     3.1800     0.7350 C.2   1 <1>   0.1080 
 16 C        7.5190     1.5420     0.4030 C.2   1 <1>  -0.3320 
 17 N        7.1740     3.4930     1.4310 N.2   1 <1>  -0.7070 
 18 C        4.9080     4.0710     0.6880 C.3   1 <1>  -0.0590 
 19 N        8.0340     2.4810     1.2240 N.pl3 1 <1>   0.3000 
 20 C        8.2740     0.2860     0.0040 C.3   1 <1>  -0.0600 
 21 H        2.9500    -2.0000     0.4000 H     1 <1>   0.0800 
 22 H        1.8710    -0.6460     0.6980 H     1 <1>   0.0800 
 23 H        2.6860     0.4480    -1.3740 H     1 <1>   0.0800 
 24 H        3.7760    -0.8930    -1.6510 H     1 <1>   0.0800 
 25 H       -2.5050    -2.4680     1.1700 H     1 <1>   0.1500 
 26 H       -0.4680     0.0050     0.7580 H     1 <1>   0.0800 
 27 H       -2.0400    -0.3820     0.1000 H     1 <1>   0.0800 
 28 H       -0.6720    -0.2130    -0.9660 H     1 <1>   0.0800 
 29 H        0.0270    -5.8150     0.5220 H     1 <1>   0.1500 
 30 H        2.2780    -4.1370    -1.7310 H     1 <1>   0.0800 
 31 H        1.9360    -5.6280    -0.8980 H     1 <1>   0.0800 
 32 H        2.8690    -4.3830    -0.1030 H     1 <1>   0.0800 
 33 H        4.9560    -0.3680     0.4690 H     1 <1>   0.0800 
 34 H        3.8670     0.9600     0.7500 H     1 <1>   0.0800 
 35 H       -2.0440    -4.8590     1.4060 H     1 <1>   0.1500 
 36 H        4.6780     2.0460    -1.3410 H     1 <1>   0.0800 
 37 H        5.7730     0.7230    -1.5910 H     1 <1>   0.0800 
 38 H        4.0170     3.4870     0.8180 H     1 <1>   0.0800 
 39 H        4.8690     4.5790    -0.2570 H     1 <1>   0.0800 
 40 H        4.9620     4.8020     1.4740 H     1 <1>   0.0800 
 41 H        8.9630     2.4610     1.6590 H     1 <1>   0.2700 
 42 H        7.6620    -0.3440    -0.6150 H     1 <1>   0.0800 
 43 H        8.5540    -0.2710     0.8810 H     1 <1>   0.0800 
 44 H        9.1620     0.5460    -0.5440 H     1 <1>   0.0800 
@<TRIPOS>BOND
  1   1   2  1   
  2   1   3  1   
  3   2   4  ar  
  4   2   5  ar  
  5   3   6  1   
  6   3  21  1   
  7   3  22  1   
  8   4   7  ar  
  9   4   8  1   
 10   5   9  ar  
 11   5  10  1   
 12   6  11  1   
 13   6  23  1   
 14   6  24  1   
 15   7  12  ar  
 16   7  25  1   
 17   8  26  1   
 18   8  27  1   
 19   8  28  1   
 20   9  12  ar  
 21   9  29  1   
 22  10  30  1   
 23  10  31  1   
 24  10  32  1   
 25  11  13  1   
 26  11  33  1   
 27  11  34  1   
 28  12  35  1   
 29  13  14  1   
 30  13  36  1   
 31  13  37  1   
 32  14  15  1   
 33  14  16  2   
 34  15  17  2   
 35  15  18  1   
 36  16  19  1   
 37  16  20  1   
 38  17  19  1   
 39  18  38  1   
 40  18  39  1   
 41  18  40  1   
 42  19  41  1   
 43  20  42  1   
 44  20  43  1   
 45  20  44  1   
@<TRIPOS>SUBSTRUCTURE
  1 ****   6 GROUP 4 **** **** 0

# MOE 2024.06 (io_trps.svl 2023.06)
