@<TRIPOS>MOLECULE
NONAME
31 32 1 0 0 
SMALL
USER_CHARGES


@<TRIPOS>ATOM
  1 S        0.0670     0.3230     0.3490 S.3   1 <1>  -0.2860 
  2 C       -1.5990     0.6540    -0.2140 C.2   1 <1>   0.2420 
  3 C        1.0760     1.4190    -0.7420 C.3   1 <1>   0.2500 
  4 N       -1.9090     1.5060    -1.1260 N.2   1 <1>  -0.3380 
  5 N       -2.6460     0.0220     0.2930 N.pl3 1 <1>   0.0330 
  6 C        2.5350     1.2990    -0.3410 C.2   1 <1>  -0.0400 
  7 N       -3.2420     1.4430    -1.2380 N.2   1 <1>  -0.3380 
  8 C       -3.6600     0.5600    -0.3900 C.2   1 <1>   0.0060 
  9 O        3.1820     0.1840    -0.5930 O.3   1 <1>  -0.2800 
 10 C        3.3540     2.1850     0.2640 C.2   1 <1>  -0.1500 
 11 C       -5.1140     0.1720    -0.1890 C.3   1 <1>   0.0200 
 12 C        4.4360     0.2970    -0.1620 C.2   1 <1>   0.0550 
 13 C        4.5840     1.5390     0.3820 C.2   1 <1>  -0.1500 
 14 C       -5.6090     0.5520     1.2100 C.3   1 <1>  -0.2400 
 15 C        5.3840    -0.7820    -0.3020 C.2   1 <1>   0.8050 
 16 O        5.1390    -1.8530    -0.8240 O.2   1 <1>  -0.5700 
 17 O        6.6170    -0.5720     0.1790 O.3   1 <1>  -0.4300 
 18 C        7.6260    -1.5610     0.0990 C.3   1 <1>   0.0400 
 19 H        0.7120     2.4220    -0.6070 H     1 <1>   0.0800 
 20 H        0.9190     1.1010    -1.7570 H     1 <1>   0.0800 
 21 H       -2.6470    -0.6910     1.0220 H     1 <1>   0.2700 
 22 H        3.1340     3.1840     0.5980 H     1 <1>   0.1500 
 23 H       -5.2270    -0.8860    -0.3460 H     1 <1>   0.0800 
 24 H       -5.7130     0.6800    -0.9260 H     1 <1>   0.0800 
 25 H        5.4710     1.9590     0.8240 H     1 <1>   0.1500 
 26 H       -5.0570     0.0250     1.9680 H     1 <1>   0.0800 
 27 H       -6.6510     0.3060     1.3100 H     1 <1>   0.0800 
 28 H       -5.4900     1.6100     1.3660 H     1 <1>   0.0800 
 29 H        8.5230    -1.1710     0.5470 H     1 <1>   0.0800 
 30 H        7.8020    -1.7970    -0.9360 H     1 <1>   0.0800 
 31 H        7.2980    -2.4390     0.6290 H     1 <1>   0.0800 
@<TRIPOS>BOND
  1   1   2  1   
  2   1   3  1   
  3   2   4  2   
  4   2   5  1   
  5   3   6  1   
  6   3  19  1   
  7   3  20  1   
  8   4   7  1   
  9   5   8  1   
 10   5  21  1   
 11   6   9  1   
 12   6  10  2   
 13   7   8  2   
 14   8  11  1   
 15   9  12  1   
 16  10  13  1   
 17  10  22  1   
 18  11  14  1   
 19  11  23  1   
 20  11  24  1   
 21  12  13  2   
 22  12  15  1   
 23  13  25  1   
 24  14  26  1   
 25  14  27  1   
 26  14  28  1   
 27  15  16  2   
 28  15  17  1   
 29  17  18  1   
 30  18  29  1   
 31  18  30  1   
 32  18  31  1   
@<TRIPOS>SUBSTRUCTURE
  1 ****   3 GROUP 4 **** **** 0

# MOE 2024.06 (io_trps.svl 2023.06)
