@<TRIPOS>MOLECULE
NONAME
53 54 1 0 0 
SMALL
USER_CHARGES


@<TRIPOS>ATOM
  1 O       -2.1270    -2.2890    -0.5620 O.3   1 <1>  -0.3630 
  2 C       -3.4820    -2.2180    -0.5330 C.ar  1 <1>   0.0830 
  3 C       -1.4400    -3.3950    -0.0080 C.3   1 <1>   0.1200 
  4 C       -4.3010    -3.2220    -0.0250 C.ar  1 <1>  -0.1500 
  5 C       -4.0580    -1.0660    -1.0440 C.ar  1 <1>  -0.1500 
  6 C        0.0700    -3.1830    -0.1750 C.3   1 <1>   0.2000 
  7 C       -5.6760    -3.0650    -0.0340 C.ar  1 <1>  -0.1500 
  8 C       -5.4330    -0.9120    -1.0500 C.ar  1 <1>  -0.1500 
  9 O        0.3310    -2.9260    -1.5160 O.3   1 <1>  -0.6800 
 10 C        0.8830    -4.4020     0.3280 C.3   1 <1>   0.1100 
 11 C       -6.2500    -1.9120    -0.5460 C.ar  1 <1>  -0.1430 
 12 N        2.3130    -4.4200    -0.0680 N.3   1 <1>  -0.8100 
 13 C       -7.7610    -1.7430    -0.5510 C.3   1 <1>  -0.0170 
 14 C        2.9900    -5.6670     0.3220 C.3   1 <1>   0.1100 
 15 C        3.0720    -3.2220     0.3400 C.3   1 <1>   0.1100 
 16 C       -8.2330    -1.0810     0.7490 C.3   1 <1>  -0.1600 
 17 C        4.4200    -5.7200    -0.2540 C.3   1 <1>   0.3430 
 18 C        4.5010    -3.2560    -0.2350 C.3   1 <1>   0.3430 
 19 C       -9.7540    -0.8980     0.7690 C.3   1 <1>  -0.2400 
 20 N        5.2330    -4.5180     0.1460 N.4   1 <1>  -0.9590 
 21 C        6.5910    -4.5830    -0.4490 C.3   1 <1>   0.3430 
 22 C        7.5060    -3.5810     0.2460 C.3   1 <1>  -0.2400 
 23 H       -1.7510    -4.2850    -0.5260 H     1 <1>   0.0800 
 24 H       -1.6960    -3.4660     1.0340 H     1 <1>   0.0800 
 25 H       -3.8950    -4.1300     0.3770 H     1 <1>   0.1500 
 26 H       -3.4260    -0.2910    -1.4350 H     1 <1>   0.1500 
 27 H        0.3530    -2.3090     0.3850 H     1 <1>   0.0800 
 28 H       -6.3020    -3.8450     0.3620 H     1 <1>   0.1500 
 29 H       -5.8650    -0.0110    -1.4480 H     1 <1>   0.1500 
 30 H       -0.3820    -2.3480    -1.8620 H     1 <1>   0.4000 
 31 H        0.4150    -5.2880    -0.0650 H     1 <1>   0.0800 
 32 H        0.8070    -4.4470     1.4010 H     1 <1>   0.0800 
 33 H       -8.2310    -2.7050    -0.6610 H     1 <1>   0.0800 
 34 H       -8.0530    -1.1400    -1.3930 H     1 <1>   0.0800 
 35 H        2.4340    -6.5060    -0.0640 H     1 <1>   0.0800 
 36 H        3.0220    -5.7530     1.3940 H     1 <1>   0.0800 
 37 H        3.1050    -3.1500     1.4140 H     1 <1>   0.0800 
 38 H        2.5860    -2.3410    -0.0410 H     1 <1>   0.0800 
 39 H       -7.7560    -0.1210     0.8520 H     1 <1>   0.0800 
 40 H       -7.9350    -1.6890     1.5860 H     1 <1>   0.0800 
 41 H        4.3450    -5.7630    -1.3290 H     1 <1>   0.0800 
 42 H        4.9040    -6.6210     0.0830 H     1 <1>   0.0800 
 43 H        5.0400    -2.3940     0.1170 H     1 <1>   0.0800 
 44 H        4.4290    -3.1890    -1.3080 H     1 <1>   0.0800 
 45 H      -10.0690    -0.2730    -0.0480 H     1 <1>   0.0800 
 46 H      -10.0550    -0.4330     1.6900 H     1 <1>   0.0800 
 47 H      -10.2490    -1.8500     0.6890 H     1 <1>   0.0800 
 48 H        5.3200    -4.5300     1.1690 H     1 <1>   0.4500 
 49 H        6.5450    -4.3740    -1.5060 H     1 <1>   0.0800 
 50 H        6.9970    -5.5740    -0.3180 H     1 <1>   0.0800 
 51 H        7.1930    -2.5690     0.0650 H     1 <1>   0.0800 
 52 H        8.5020    -3.6880    -0.1450 H     1 <1>   0.0800 
 53 H        7.5460    -3.7680     1.3050 H     1 <1>   0.0800 
@<TRIPOS>BOND
  1   1   2  1   
  2   1   3  1   
  3   2   4  ar  
  4   2   5  ar  
  5   3   6  1   
  6   3  23  1   
  7   3  24  1   
  8   4   7  ar  
  9   4  25  1   
 10   5   8  ar  
 11   5  26  1   
 12   6   9  1   
 13   6  10  1   
 14   6  27  1   
 15   7  11  ar  
 16   7  28  1   
 17   8  11  ar  
 18   8  29  1   
 19   9  30  1   
 20  10  12  1   
 21  10  31  1   
 22  10  32  1   
 23  11  13  1   
 24  12  14  1   
 25  12  15  1   
 26  13  16  1   
 27  13  33  1   
 28  13  34  1   
 29  14  17  1   
 30  14  35  1   
 31  14  36  1   
 32  15  18  1   
 33  15  37  1   
 34  15  38  1   
 35  16  19  1   
 36  16  39  1   
 37  16  40  1   
 38  17  20  1   
 39  17  41  1   
 40  17  42  1   
 41  18  20  1   
 42  18  43  1   
 43  18  44  1   
 44  19  45  1   
 45  19  46  1   
 46  19  47  1   
 47  20  21  1   
 48  20  48  1   
 49  21  22  1   
 50  21  49  1   
 51  21  50  1   
 52  22  51  1   
 53  22  52  1   
 54  22  53  1   
@<TRIPOS>SUBSTRUCTURE
  1 ****   3 GROUP 4 **** **** 0

# MOE 2024.06 (io_trps.svl 2023.06)
