@<TRIPOS>MOLECULE
NONAME
50 52 1 0 0 
SMALL
USER_CHARGES


@<TRIPOS>ATOM
  1 O       -0.4190    -0.4660     1.7080 O.2   1 <1>  -0.5700 
  2 C        0.0840    -1.0520     0.7640 C.2   1 <1>   0.5440 
  3 N        0.4150    -0.3340    -0.3590 N.am  1 <1>  -0.6600 
  4 C        0.3140    -2.4790     0.8320 C.ar  1 <1>   0.0860 
  5 C        0.2820    -0.8850    -1.7250 C.3   1 <1>   0.1400 
  6 C        0.4810     1.1440    -0.3870 C.3   1 <1>   0.1400 
  7 C       -0.7140    -3.3690     1.1810 C.ar  1 <1>   0.1170 
  8 C        1.5790    -2.9970     0.5480 C.ar  1 <1>  -0.1500 
  9 C        0.5830     0.2890    -2.6490 C.3   1 <1>  -0.1600 
 10 C        0.2170     1.5290    -1.8380 C.3   1 <1>  -0.1600 
 11 N       -1.9900    -2.8580     1.4530 N.am  1 <1>  -0.5470 
 12 C       -0.4380    -4.7340     1.2430 C.ar  1 <1>  -0.1500 
 13 C        1.8350    -4.3520     0.6050 C.ar  1 <1>  -0.1500 
 14 C       -3.2430    -3.4100     1.3920 C.2   1 <1>   0.5690 
 15 C        0.8200    -5.2240     0.9560 C.ar  1 <1>  -0.1500 
 16 O       -3.4490    -4.5850     1.1980 O.2   1 <1>  -0.5700 
 17 C       -4.4470    -2.4730     1.5470 C.3   1 <1>   0.2610 
 18 O       -4.2060    -1.2290     0.9060 O.3   1 <1>  -0.3630 
 19 C       -4.7570    -2.1650     3.0150 C.3   1 <1>  -0.2400 
 20 C       -4.0070    -1.1200    -0.4370 C.ar  1 <1>   0.0820 
 21 C       -3.5720     0.1100    -0.9210 C.ar  1 <1>  -0.1440 
 22 C       -4.2160    -2.1730    -1.3260 C.ar  1 <1>  -0.1500 
 23 C       -3.3600     0.2770    -2.2800 C.ar  1 <1>  -0.1500 
 24 C       -3.3260     1.2700     0.0330 C.3   1 <1>  -0.0970 
 25 C       -3.9910    -1.9980    -2.6790 C.ar  1 <1>  -0.1500 
 26 C       -3.5650    -0.7720    -3.1580 C.ar  1 <1>  -0.1500 
 27 H       -0.7310    -1.2250    -1.8680 H     1 <1>   0.0800 
 28 H        0.9670    -1.6990    -1.8880 H     1 <1>   0.0800 
 29 H        1.4680     1.4530    -0.0880 H     1 <1>   0.0800 
 30 H       -0.2460     1.5820     0.2760 H     1 <1>   0.0800 
 31 H        2.3700    -2.3170     0.2820 H     1 <1>   0.1500 
 32 H        0.0290     0.2220    -3.5690 H     1 <1>   0.0800 
 33 H        1.6350     0.2960    -2.8720 H     1 <1>   0.0800 
 34 H        0.7850     2.3930    -2.1300 H     1 <1>   0.0800 
 35 H       -0.8290     1.7460    -1.9520 H     1 <1>   0.0800 
 36 H       -1.9980    -1.8360     1.5830 H     1 <1>   0.3700 
 37 H       -1.2120    -5.4250     1.5210 H     1 <1>   0.1500 
 38 H        2.8170    -4.7310     0.3830 H     1 <1>   0.1500 
 39 H        1.0100    -6.2820     1.0070 H     1 <1>   0.1500 
 40 H       -5.3120    -2.9190     1.0900 H     1 <1>   0.0800 
 41 H       -3.9140    -1.6870     3.4830 H     1 <1>   0.0800 
 42 H       -4.9690    -3.0790     3.5400 H     1 <1>   0.0800 
 43 H       -5.6170    -1.5230     3.0830 H     1 <1>   0.0800 
 44 H       -4.5520    -3.1370    -0.9930 H     1 <1>   0.1500 
 45 H       -3.0360     1.2270    -2.6660 H     1 <1>   0.1500 
 46 H       -2.5880     0.9900     0.7640 H     1 <1>   0.0800 
 47 H       -4.2380     1.5200     0.5450 H     1 <1>   0.0800 
 48 H       -2.9760     2.1400    -0.4910 H     1 <1>   0.0800 
 49 H       -4.1520    -2.8150    -3.3610 H     1 <1>   0.1500 
 50 H       -3.3970    -0.6350    -4.2110 H     1 <1>   0.1500 
@<TRIPOS>BOND
  1   1   2  2   
  2   2   3  am  
  3   2   4  1   
  4   3   5  1   
  5   3   6  1   
  6   4   7  ar  
  7   4   8  ar  
  8   5   9  1   
  9   5  27  1   
 10   5  28  1   
 11   6  10  1   
 12   6  29  1   
 13   6  30  1   
 14   7  11  1   
 15   7  12  ar  
 16   8  13  ar  
 17   8  31  1   
 18   9  10  1   
 19   9  32  1   
 20   9  33  1   
 21  10  34  1   
 22  10  35  1   
 23  11  14  am  
 24  11  36  1   
 25  12  15  ar  
 26  12  37  1   
 27  13  15  ar  
 28  13  38  1   
 29  14  16  2   
 30  14  17  1   
 31  15  39  1   
 32  17  18  1   
 33  17  19  1   
 34  17  40  1   
 35  18  20  1   
 36  19  41  1   
 37  19  42  1   
 38  19  43  1   
 39  20  21  ar  
 40  20  22  ar  
 41  21  23  ar  
 42  21  24  1   
 43  22  25  ar  
 44  22  44  1   
 45  23  26  ar  
 46  23  45  1   
 47  24  46  1   
 48  24  47  1   
 49  24  48  1   
 50  25  26  ar  
 51  25  49  1   
 52  26  50  1   
@<TRIPOS>SUBSTRUCTURE
  1 ****  11 GROUP 4 **** **** 0

# MOE 2024.06 (io_trps.svl 2023.06)
