@<TRIPOS>MOLECULE
NONAME
45 47 1 0 0 
SMALL
USER_CHARGES


@<TRIPOS>ATOM
  1 O       -1.0080     0.7850    -0.7570 O.2   1 <1>  -0.5700 
  2 C       -1.4700     1.8030    -0.2730 C.2   1 <1>   0.7150 
  3 N       -2.6700     1.7180     0.4080 N.am  1 <1>  -0.6600 
  4 C       -0.7670     3.0620    -0.4030 C.2   1 <1>   0.0550 
  5 C       -3.2620     0.3970     0.7930 C.3   1 <1>   0.1400 
  6 C       -3.6370     2.8560     0.4960 C.3   1 <1>   0.1400 
  7 O       -0.1740     3.4060    -1.5430 O.3   1 <1>  -0.2800 
  8 C       -0.5720     4.0680     0.4980 C.2   1 <1>  -0.1500 
  9 C       -4.5290     0.1040    -0.0220 C.3   1 <1>   0.1400 
 10 C       -4.9190     2.5570    -0.2980 C.3   1 <1>   0.1400 
 11 C        0.3850     4.5850    -1.3950 C.2   1 <1>  -0.0100 
 12 C        0.1740     5.0540    -0.1480 C.2   1 <1>  -0.1500 
 13 N       -5.5020     1.2350     0.0910 N.am  1 <1>  -0.6600 
 14 C       -6.8060     1.0280     0.4810 C.2   1 <1>   0.5690 
 15 O       -7.1960    -0.0710     0.8020 O.2   1 <1>  -0.5700 
 16 C       -7.8130     2.1730     0.5710 C.3   1 <1>   0.1810 
 17 O       -7.9540     2.8480    -0.6710 O.3   1 <1>  -0.3630 
 18 C       -8.7550     3.9400    -0.6760 C.ar  1 <1>   0.0830 
 19 C       -8.3960     5.1320    -0.0360 C.ar  1 <1>   0.0830 
 20 C       -9.9540     3.8450    -1.3630 C.ar  1 <1>  -0.1500 
 21 O       -7.1910     5.1970     0.6040 O.3   1 <1>  -0.3630 
 22 C       -9.2780     6.2100    -0.0860 C.ar  1 <1>  -0.1500 
 23 C      -10.8180     4.9240    -1.4060 C.ar  1 <1>  -0.1500 
 24 C       -6.7400     6.3940     1.1990 C.3   1 <1>   0.0400 
 25 C      -10.4800     6.1040    -0.7650 C.ar  1 <1>  -0.1500 
 26 H       -3.5130     0.4130     1.8390 H     1 <1>   0.0800 
 27 H       -2.5510    -0.3980     0.6420 H     1 <1>   0.0800 
 28 H       -3.2020     3.7600     0.1100 H     1 <1>   0.0800 
 29 H       -3.8910     3.0230     1.5280 H     1 <1>   0.0800 
 30 H       -0.9100     4.1090     1.5180 H     1 <1>   0.1500 
 31 H       -4.9690    -0.8140     0.3260 H     1 <1>   0.0800 
 32 H       -4.2620    -0.0310    -1.0560 H     1 <1>   0.0800 
 33 H       -4.6900     2.5410    -1.3500 H     1 <1>   0.0800 
 34 H       -5.6160     3.3550    -0.1310 H     1 <1>   0.0800 
 35 H        0.9160     5.0190    -2.2260 H     1 <1>   0.1500 
 36 H        0.5040     5.9840     0.2830 H     1 <1>   0.1500 
 37 H       -7.4910     2.8690     1.3200 H     1 <1>   0.0800 
 38 H       -8.7770     1.7830     0.8440 H     1 <1>   0.0800 
 39 H      -10.2050     2.9260    -1.8600 H     1 <1>   0.1500 
 40 H       -9.0510     7.1420     0.3940 H     1 <1>   0.1500 
 41 H      -11.7510     4.8460    -1.9380 H     1 <1>   0.1500 
 42 H       -5.7650     6.2170     1.6130 H     1 <1>   0.0800 
 43 H       -7.4230     6.6750     1.9820 H     1 <1>   0.0800 
 44 H       -6.6830     7.1590     0.4440 H     1 <1>   0.0800 
 45 H      -11.1550     6.9420    -0.7990 H     1 <1>   0.1500 
@<TRIPOS>BOND
  1   1   2  2   
  2   2   3  am  
  3   2   4  1   
  4   3   5  1   
  5   3   6  1   
  6   4   7  1   
  7   4   8  2   
  8   5   9  1   
  9   5  26  1   
 10   5  27  1   
 11   6  10  1   
 12   6  28  1   
 13   6  29  1   
 14   7  11  1   
 15   8  12  1   
 16   8  30  1   
 17   9  13  1   
 18   9  31  1   
 19   9  32  1   
 20  10  13  1   
 21  10  33  1   
 22  10  34  1   
 23  11  12  2   
 24  11  35  1   
 25  12  36  1   
 26  13  14  am  
 27  14  15  2   
 28  14  16  1   
 29  16  17  1   
 30  16  37  1   
 31  16  38  1   
 32  17  18  1   
 33  18  19  ar  
 34  18  20  ar  
 35  19  21  1   
 36  19  22  ar  
 37  20  23  ar  
 38  20  39  1   
 39  21  24  1   
 40  22  25  ar  
 41  22  40  1   
 42  23  25  ar  
 43  23  41  1   
 44  24  42  1   
 45  24  43  1   
 46  24  44  1   
 47  25  45  1   
@<TRIPOS>SUBSTRUCTURE
  1 ****  10 GROUP 4 **** **** 0

# MOE 2024.06 (io_trps.svl 2023.06)
