@<TRIPOS>MOLECULE
NONAME
38 39 1 0 0 
SMALL
USER_CHARGES


@<TRIPOS>ATOM
  1 O       -0.1930     0.4380    -0.2850 O.3   1 <1>  -0.3630 
  2 C       -1.0750    -0.5660    -0.5100 C.ar  1 <1>   0.0830 
  3 C        0.6260     0.4560     0.8610 C.3   1 <1>   0.1200 
  4 C       -1.1220    -1.7400     0.2380 C.ar  1 <1>  -0.1500 
  5 C       -1.9690    -0.3860    -1.5520 C.ar  1 <1>  -0.1500 
  6 C        1.4070     1.7660     0.8610 C.3   1 <1>  -0.2400 
  7 C       -2.0550    -2.7230    -0.0580 C.ar  1 <1>  -0.1430 
  8 C       -2.9080    -1.3580    -1.8440 C.ar  1 <1>  -0.1500 
  9 C       -2.9510    -2.5230    -1.0980 C.ar  1 <1>  -0.1500 
 10 C       -2.0940    -4.0190     0.7390 C.3   1 <1>  -0.0170 
 11 C       -1.5110    -5.1950    -0.0680 C.3   1 <1>  -0.0800 
 12 C       -1.5870    -6.5040     0.7370 C.3   1 <1>  -0.1600 
 13 C       -0.0560    -4.9320    -0.5030 C.3   1 <1>  -0.1600 
 14 C       -0.9630    -7.6760    -0.0240 C.3   1 <1>   0.3430 
 15 C        0.5420    -6.1280    -1.2430 C.3   1 <1>   0.3430 
 16 N        0.4410    -7.3420    -0.3890 N.4   1 <1>  -0.9060 
 17 H        1.2950    -0.3850     0.8150 H     1 <1>   0.0800 
 18 H       -0.0050     0.3890     1.7310 H     1 <1>   0.0800 
 19 H       -0.4360    -1.8960     1.0470 H     1 <1>   0.1500 
 20 H       -1.9270     0.5220    -2.1260 H     1 <1>   0.1500 
 21 H        2.0200     1.8310    -0.0200 H     1 <1>   0.0800 
 22 H        2.0430     1.8120     1.7260 H     1 <1>   0.0800 
 23 H        0.7290     2.6000     0.8890 H     1 <1>   0.0800 
 24 H       -3.6040    -1.2060    -2.6510 H     1 <1>   0.1500 
 25 H       -3.6890    -3.2690    -1.3330 H     1 <1>   0.1500 
 26 H       -3.1170    -4.2290     1.0010 H     1 <1>   0.0800 
 27 H       -1.5490    -3.8940     1.6590 H     1 <1>   0.0800 
 28 H       -2.1110    -5.3100    -0.9560 H     1 <1>   0.0800 
 29 H       -2.6180    -6.7370     0.9420 H     1 <1>   0.0800 
 30 H       -1.0900    -6.3900     1.6850 H     1 <1>   0.0800 
 31 H        0.5540    -4.6940     0.3510 H     1 <1>   0.0800 
 32 H       -0.0240    -4.0820    -1.1640 H     1 <1>   0.0800 
 33 H       -1.5360    -7.8680    -0.9180 H     1 <1>   0.0800 
 34 H       -0.9870    -8.5620     0.5900 H     1 <1>   0.0800 
 35 H        1.5740    -5.9250    -1.4840 H     1 <1>   0.0800 
 36 H        0.0040    -6.2820    -2.1650 H     1 <1>   0.0800 
 37 H        0.8740    -8.1400    -0.8720 H     1 <1>   0.4500 
 38 H        0.9780    -7.1840     0.4720 H     1 <1>   0.4500 
@<TRIPOS>BOND
  1   1   2  1   
  2   1   3  1   
  3   2   4  ar  
  4   2   5  ar  
  5   3   6  1   
  6   3  17  1   
  7   3  18  1   
  8   4   7  ar  
  9   4  19  1   
 10   5   8  ar  
 11   5  20  1   
 12   6  21  1   
 13   6  22  1   
 14   6  23  1   
 15   7   9  ar  
 16   7  10  1   
 17   8   9  ar  
 18   8  24  1   
 19   9  25  1   
 20  10  11  1   
 21  10  26  1   
 22  10  27  1   
 23  11  12  1   
 24  11  13  1   
 25  11  28  1   
 26  12  14  1   
 27  12  29  1   
 28  12  30  1   
 29  13  15  1   
 30  13  31  1   
 31  13  32  1   
 32  14  16  1   
 33  14  33  1   
 34  14  34  1   
 35  15  16  1   
 36  15  35  1   
 37  15  36  1   
 38  16  37  1   
 39  16  38  1   
@<TRIPOS>SUBSTRUCTURE
  1 ****   7 GROUP 4 **** **** 0

# MOE 2024.06 (io_trps.svl 2023.06)
