@<TRIPOS>MOLECULE
NONAME
40 42 1 0 0 
SMALL
USER_CHARGES


@<TRIPOS>ATOM
  1 F       -0.2920     0.2620     0.7020 F     1 <1>  -0.1900 
  2 C       -0.7790    -0.9530     0.6470 C.ar  1 <1>   0.1900 
  3 C        0.0880    -2.0520     0.6630 C.ar  1 <1>   0.1170 
  4 C       -2.1530    -1.0840     0.6040 C.ar  1 <1>  -0.1500 
  5 N        1.4850    -1.9390     0.6900 N.am  1 <1>  -0.5470 
  6 C       -0.4780    -3.3250     0.6600 C.ar  1 <1>  -0.1500 
  7 C       -2.6640    -2.3670     0.5910 C.ar  1 <1>   0.1900 
  8 C        2.2870    -1.3180    -0.2160 C.2   1 <1>   0.6900 
  9 C       -1.8540    -3.4890     0.6220 C.ar  1 <1>  -0.1500 
 10 F       -3.9600    -2.5270     0.5530 F     1 <1>  -0.1900 
 11 O        1.8280    -0.7470    -1.1870 O.2   1 <1>  -0.5700 
 12 N        3.6370    -1.3730    -0.0340 N.am  1 <1>  -0.6600 
 13 C        4.3570    -2.5140    -0.6690 C.3   1 <1>   0.3640 
 14 C        4.3380    -0.0650    -0.1580 C.3   1 <1>   0.1400 
 15 C        3.6370    -3.8330    -0.4000 C.ar  1 <1>  -0.1430 
 16 C        5.8190    -2.5880    -0.1900 C.3   1 <1>  -0.1600 
 17 C        5.7730    -0.1500     0.3660 C.3   1 <1>  -0.1600 
 18 C        3.5420    -4.3490     0.8860 C.ar  1 <1>   0.1600 
 19 C        3.0380    -4.5260    -1.4340 C.ar  1 <1>  -0.1500 
 20 C        6.5550    -1.2530    -0.3520 C.3   1 <1>  -0.1600 
 21 N        2.9080    -5.4630     1.2140 N.ar  1 <1>  -0.6200 
 22 C        2.3870    -5.6970    -1.1130 C.ar  1 <1>  -0.1500 
 23 C        2.3530    -6.1160     0.2050 C.ar  1 <1>   0.1600 
 24 H       -2.7960    -0.2250     0.5870 H     1 <1>   0.1500 
 25 H        1.9840    -2.5990     1.2800 H     1 <1>   0.3700 
 26 H        0.1660    -4.1870     0.6800 H     1 <1>   0.1500 
 27 H       -2.2960    -4.4690     0.6150 H     1 <1>   0.1500 
 28 H        4.3640    -2.3360    -1.7320 H     1 <1>   0.0800 
 29 H        3.7930     0.6820     0.3950 H     1 <1>   0.0800 
 30 H        4.3450     0.2310    -1.1940 H     1 <1>   0.0800 
 31 H        6.3320    -3.3490    -0.7510 H     1 <1>   0.0800 
 32 H        5.8520    -2.8730     0.8450 H     1 <1>   0.0800 
 33 H        5.7510    -0.3390     1.4250 H     1 <1>   0.0800 
 34 H        6.2610     0.7970     0.2130 H     1 <1>   0.0800 
 35 H        4.0040    -3.8110     1.6960 H     1 <1>   0.1500 
 36 H        3.0690    -4.1690    -2.4500 H     1 <1>   0.1500 
 37 H        6.6460    -1.0120    -1.3970 H     1 <1>   0.0800 
 38 H        7.5460    -1.3290     0.0620 H     1 <1>   0.0800 
 39 H        1.9070    -6.2810    -1.8780 H     1 <1>   0.1500 
 40 H        1.8420    -7.0330     0.4430 H     1 <1>   0.1500 
@<TRIPOS>BOND
  1   1   2  1   
  2   2   3  ar  
  3   2   4  ar  
  4   3   5  1   
  5   3   6  ar  
  6   4   7  ar  
  7   4  24  1   
  8   5   8  am  
  9   5  25  1   
 10   6   9  ar  
 11   6  26  1   
 12   7   9  ar  
 13   7  10  1   
 14   8  11  2   
 15   8  12  am  
 16   9  27  1   
 17  12  13  1   
 18  12  14  1   
 19  13  15  1   
 20  13  16  1   
 21  13  28  1   
 22  14  17  1   
 23  14  29  1   
 24  14  30  1   
 25  15  18  ar  
 26  15  19  ar  
 27  16  20  1   
 28  16  31  1   
 29  16  32  1   
 30  17  20  1   
 31  17  33  1   
 32  17  34  1   
 33  18  21  ar  
 34  18  35  1   
 35  19  22  ar  
 36  19  36  1   
 37  20  37  1   
 38  20  38  1   
 39  21  23  ar  
 40  22  23  ar  
 41  22  39  1   
 42  23  40  1   
@<TRIPOS>SUBSTRUCTURE
  1 ****   5 GROUP 4 **** **** 0

# MOE 2024.06 (io_trps.svl 2023.06)
