@<TRIPOS>MOLECULE
NONAME
33 35 1 0 0 
SMALL
USER_CHARGES


@<TRIPOS>ATOM
  1 O       -1.2200    -0.4530    -0.2380 O.3   1 <1>  -0.5600 
  2 C       -1.1190     0.9210     0.0190 C.3   1 <1>   0.1200 
  3 C       -2.2640    -0.8020    -1.1100 C.3   1 <1>   0.1200 
  4 C       -2.3980     1.4510     0.7080 C.3   1 <1>   0.3430 
  5 C       -3.6230    -0.2440    -0.6270 C.3   1 <1>   0.3430 
  6 N       -3.4920     0.4260     0.7120 N.4   1 <1>  -0.9590 
  7 C       -4.7800     0.9200     1.2620 C.3   1 <1>   0.5240 
  8 C       -5.7110    -0.2630     1.3840 C.2   1 <1>  -0.1810 
  9 C       -6.6850    -0.5970     0.4170 C.ar  1 <1>   0.0000 
 10 C       -5.7740    -1.1890     2.3740 C.2   1 <1>  -0.3020 
 11 C       -7.2980    -1.7600     0.8710 C.ar  1 <1>  -0.1520 
 12 C       -7.1000    -0.0270    -0.7930 C.ar  1 <1>  -0.1500 
 13 N       -6.7420    -2.1060     2.0750 N.pl3 1 <1>   0.0330 
 14 C       -8.3070    -2.3790     0.1290 C.ar  1 <1>  -0.1500 
 15 C       -8.0940    -0.6380    -1.5230 C.ar  1 <1>  -0.1500 
 16 C       -8.6950    -1.8150    -1.0630 C.ar  1 <1>  -0.1500 
 17 H       -0.9450     1.4320    -0.9120 H     1 <1>   0.0800 
 18 H       -0.2630     1.0770     0.6530 H     1 <1>   0.0800 
 19 H       -2.3040    -1.8770    -1.1550 H     1 <1>   0.0800 
 20 H       -2.0290    -0.4350    -2.0940 H     1 <1>   0.0800 
 21 H       -2.7240     2.3410     0.1940 H     1 <1>   0.0800 
 22 H       -2.1570     1.7310     1.7210 H     1 <1>   0.0800 
 23 H       -4.3310    -1.0550    -0.5730 H     1 <1>   0.0800 
 24 H       -3.9930     0.4580    -1.3560 H     1 <1>   0.0800 
 25 H       -3.1760    -0.3300     1.3360 H     1 <1>   0.4500 
 26 H       -5.2120     1.6660     0.6160 H     1 <1>   0.0800 
 27 H       -4.6240     1.3510     2.2370 H     1 <1>   0.0800 
 28 H       -5.1960    -1.2660     3.2790 H     1 <1>   0.1500 
 29 H       -6.6520     0.8820    -1.1470 H     1 <1>   0.1500 
 30 H       -7.0250    -2.9130     2.6440 H     1 <1>   0.2700 
 31 H       -8.7700    -3.2810     0.4910 H     1 <1>   0.1500 
 32 H       -8.4280    -0.2160    -2.4560 H     1 <1>   0.1500 
 33 H       -9.4710    -2.2730    -1.6530 H     1 <1>   0.1500 
@<TRIPOS>BOND
  1   1   2  1   
  2   1   3  1   
  3   2   4  1   
  4   2  17  1   
  5   2  18  1   
  6   3   5  1   
  7   3  19  1   
  8   3  20  1   
  9   4   6  1   
 10   4  21  1   
 11   4  22  1   
 12   5   6  1   
 13   5  23  1   
 14   5  24  1   
 15   6   7  1   
 16   6  25  1   
 17   7   8  1   
 18   7  26  1   
 19   7  27  1   
 20   8   9  1   
 21   8  10  2   
 22   9  11  ar  
 23   9  12  ar  
 24  10  13  1   
 25  10  28  1   
 26  11  13  1   
 27  11  14  ar  
 28  12  15  ar  
 29  12  29  1   
 30  13  30  1   
 31  14  16  ar  
 32  14  31  1   
 33  15  16  ar  
 34  15  32  1   
 35  16  33  1   
@<TRIPOS>SUBSTRUCTURE
  1 ****   8 GROUP 4 **** **** 0

# MOE 2024.06 (io_trps.svl 2023.06)
