@<TRIPOS>MOLECULE
NONAME
33 34 1 0 0 
SMALL
USER_CHARGES


@<TRIPOS>ATOM
  1 I       -0.7970     0.0480    -2.6340 I     1 <1>  -0.0810 
  2 C       -2.0840     0.8140    -1.1210 C.ar  1 <1>   0.0810 
  3 C       -3.1820     0.0640    -0.7440 C.ar  1 <1>  -0.1500 
  4 C       -1.7870     2.0410    -0.5580 C.ar  1 <1>  -0.1500 
  5 C       -4.0210     0.5630     0.2430 C.ar  1 <1>  -0.1440 
  6 C       -2.6290     2.5320     0.4240 C.ar  1 <1>  -0.1500 
  7 C       -3.7380     1.7960     0.8190 C.ar  1 <1>  -0.1500 
  8 C       -5.2380    -0.2260     0.6910 C.3   1 <1>   0.3390 
  9 N       -6.4150     0.4430     0.1960 N.am  1 <1>  -0.9140 
 10 S       -7.7420    -0.5420     0.3200 S.o2  1 <1>   1.5760 
 11 O       -7.9500    -0.8660     1.7100 O.2   1 <1>  -0.6500 
 12 O       -7.5630    -1.5590    -0.6860 O.2   1 <1>  -0.6500 
 13 N       -8.9070     0.5490    -0.2010 N.am  1 <1>  -0.8490 
 14 C      -10.1590    -0.1370    -0.5450 C.3   1 <1>   0.1960 
 15 C       -9.1810     1.5880     0.8050 C.3   1 <1>   0.1960 
 16 C      -11.2350     0.8670    -0.9980 C.3   1 <1>   0.1200 
 17 C      -10.2770     2.5530     0.3160 C.3   1 <1>   0.1200 
 18 O      -11.4390     1.8470    -0.0190 O.3   1 <1>  -0.5600 
 19 H       -3.3730    -0.8850    -1.2130 H     1 <1>   0.1500 
 20 H       -0.9240     2.5980    -0.8760 H     1 <1>   0.1500 
 21 H       -2.4260     3.4850     0.8810 H     1 <1>   0.1500 
 22 H       -4.3900     2.1900     1.5790 H     1 <1>   0.1500 
 23 H       -5.2730    -0.2750     1.7670 H     1 <1>   0.0800 
 24 H       -5.1800    -1.2320     0.3050 H     1 <1>   0.0800 
 25 H       -6.2950     0.5290    -0.8080 H     1 <1>   0.4200 
 26 H      -10.5270    -0.6870     0.3070 H     1 <1>   0.0800 
 27 H       -9.9780    -0.8390    -1.3420 H     1 <1>   0.0800 
 28 H       -8.2830     2.1490     1.0000 H     1 <1>   0.0800 
 29 H       -9.5020     1.1400     1.7310 H     1 <1>   0.0800 
 30 H      -12.1710     0.3640    -1.1600 H     1 <1>   0.0800 
 31 H      -10.9360     1.3500    -1.9120 H     1 <1>   0.0800 
 32 H       -9.9410     3.0960    -0.5500 H     1 <1>   0.0800 
 33 H      -10.5300     3.2540     1.0910 H     1 <1>   0.0800 
@<TRIPOS>BOND
  1   1   2  1   
  2   2   3  ar  
  3   2   4  ar  
  4   3   5  ar  
  5   3  19  1   
  6   4   6  ar  
  7   4  20  1   
  8   5   7  ar  
  9   5   8  1   
 10   6   7  ar  
 11   6  21  1   
 12   7  22  1   
 13   8   9  1   
 14   8  23  1   
 15   8  24  1   
 16   9  10  am  
 17   9  25  1   
 18  10  11  2   
 19  10  12  2   
 20  10  13  am  
 21  13  14  1   
 22  13  15  1   
 23  14  16  1   
 24  14  26  1   
 25  14  27  1   
 26  15  17  1   
 27  15  28  1   
 28  15  29  1   
 29  16  18  1   
 30  16  30  1   
 31  16  31  1   
 32  17  18  1   
 33  17  32  1   
 34  17  33  1   
@<TRIPOS>SUBSTRUCTURE
  1 ****   9 GROUP 4 **** **** 0

# MOE 2024.06 (io_trps.svl 2023.06)
