@<TRIPOS>MOLECULE
NONAME
49 51 1 0 0 
SMALL
USER_CHARGES


@<TRIPOS>ATOM
  1 CL       0.3180     1.3970     0.2730 Cl    1 <1>  -0.1770 
  2 C       -0.7410     2.7520    -0.0060 C.ar  1 <1>   0.1770 
  3 C       -1.0970     3.0840    -1.2990 C.ar  1 <1>  -0.1500 
  4 C       -1.2120     3.4810     1.0700 C.ar  1 <1>  -0.1500 
  5 C       -1.9420     4.1590    -1.5130 C.ar  1 <1>  -0.1500 
  6 C       -2.0560     4.5540     0.8430 C.ar  1 <1>  -0.1500 
  7 C       -2.4490     4.9100    -0.4500 C.ar  1 <1>   0.0860 
  8 C       -3.3430     6.0260    -0.6970 C.2   1 <1>   0.5440 
  9 O       -3.0010     6.8950    -1.4780 O.2   1 <1>  -0.5700 
 10 N       -4.5900     6.1300    -0.0850 N.am  1 <1>  -0.4690 
 11 C       -5.3130     7.3380    -0.0460 C.2   1 <1>  -0.0290 
 12 C       -5.2960     4.9000     0.3820 C.3   1 <1>   0.1400 
 13 C       -6.5740     7.4890    -0.4890 C.2   1 <1>  -0.2880 
 14 C       -4.5700     8.5460     0.5390 C.3   1 <1>  -0.0220 
 15 C       -5.7180     4.0200    -0.8020 C.3   1 <1>  -0.1600 
 16 C       -7.2920     8.8210    -0.4730 C.3   1 <1>   0.5610 
 17 C       -5.4640     9.8010     0.5710 C.3   1 <1>   0.4230 
 18 C       -6.5250     2.8060    -0.3260 C.3   1 <1>  -0.1600 
 19 N       -6.2320     9.8190    -0.6990 N.4   1 <1>  -0.9590 
 20 C       -7.7780     9.1140     0.9430 C.3   1 <1>  -0.1600 
 21 C       -6.5530     9.7100     1.6510 C.3   1 <1>  -0.1600 
 22 C       -6.9400     1.9260    -1.5080 C.3   1 <1>  -0.2400 
 23 C       -6.7360    11.1700    -1.0860 C.3   1 <1>   0.2630 
 24 H       -0.7140     2.5080    -2.1230 H     1 <1>   0.1500 
 25 H       -0.9140     3.2080     2.0670 H     1 <1>   0.1500 
 26 H       -2.2170     4.4300    -2.5190 H     1 <1>   0.1500 
 27 H       -2.4150     5.1300     1.6790 H     1 <1>   0.1500 
 28 H       -6.1690     5.1860     0.9440 H     1 <1>   0.0800 
 29 H       -4.6620     4.3390     1.0450 H     1 <1>   0.0800 
 30 H       -7.1680     6.6890    -0.8930 H     1 <1>   0.1500 
 31 H       -3.7050     8.7740    -0.0540 H     1 <1>   0.0800 
 32 H       -4.2220     8.3160     1.5300 H     1 <1>   0.0800 
 33 H       -4.8460     3.6720    -1.3260 H     1 <1>   0.0800 
 34 H       -6.3150     4.5950    -1.4870 H     1 <1>   0.0800 
 35 H       -8.0680     8.8680    -1.2210 H     1 <1>   0.0800 
 36 H       -4.8590    10.6850     0.6930 H     1 <1>   0.0800 
 37 H       -7.4080     3.1340     0.1960 H     1 <1>   0.0800 
 38 H       -5.9310     2.2200     0.3560 H     1 <1>   0.0800 
 39 H       -5.6240     9.4260    -1.4330 H     1 <1>   0.4500 
 40 H       -8.1300     8.2200     1.4270 H     1 <1>   0.0800 
 41 H       -8.5840     9.8260     0.9120 H     1 <1>   0.0800 
 42 H       -6.7780    10.6940     2.0250 H     1 <1>   0.0800 
 43 H       -6.2370     9.1010     2.4800 H     1 <1>   0.0800 
 44 H       -7.5540     2.4810    -2.1950 H     1 <1>   0.0800 
 45 H       -7.5020     1.0790    -1.1570 H     1 <1>   0.0800 
 46 H       -6.0730     1.5650    -2.0330 H     1 <1>   0.0800 
 47 H       -7.3750    11.5690    -0.3140 H     1 <1>   0.0800 
 48 H       -7.2980    11.1090    -2.0040 H     1 <1>   0.0800 
 49 H       -5.9100    11.8470    -1.2340 H     1 <1>   0.0800 
@<TRIPOS>BOND
  1   1   2  1   
  2   2   3  ar  
  3   2   4  ar  
  4   3   5  ar  
  5   3  24  1   
  6   4   6  ar  
  7   4  25  1   
  8   5   7  ar  
  9   5  26  1   
 10   6   7  ar  
 11   6  27  1   
 12   7   8  1   
 13   8   9  2   
 14   8  10  am  
 15  10  11  1   
 16  10  12  1   
 17  11  13  2   
 18  11  14  1   
 19  12  15  1   
 20  12  28  1   
 21  12  29  1   
 22  13  16  1   
 23  13  30  1   
 24  14  17  1   
 25  14  31  1   
 26  14  32  1   
 27  15  18  1   
 28  15  33  1   
 29  15  34  1   
 30  16  19  1   
 31  16  20  1   
 32  16  35  1   
 33  17  19  1   
 34  17  21  1   
 35  17  36  1   
 36  18  22  1   
 37  18  37  1   
 38  18  38  1   
 39  19  23  1   
 40  19  39  1   
 41  20  21  1   
 42  20  40  1   
 43  20  41  1   
 44  21  42  1   
 45  21  43  1   
 46  22  44  1   
 47  22  45  1   
 48  22  46  1   
 49  23  47  1   
 50  23  48  1   
 51  23  49  1   
@<TRIPOS>SUBSTRUCTURE
  1 ****  10 GROUP 4 **** **** 0

# MOE 2024.06 (io_trps.svl 2023.06)
