@<TRIPOS>MOLECULE
NONAME
36 37 1 0 0 
SMALL
USER_CHARGES


@<TRIPOS>ATOM
  1 S       -0.0750     0.3010    -0.8020 S.3   1 <1>   0.1810 
  2 N        1.5330     0.8600    -0.8210 N.2   1 <1>  -0.5100 
  3 C        0.3510    -1.3430    -0.4120 C.2   1 <1>   0.1040 
  4 C        2.3010    -0.1220    -0.5560 C.2   1 <1>   0.1080 
  5 N       -0.6020    -2.3350    -0.2520 N.am  1 <1>  -0.4940 
  6 C        1.7090    -1.4130    -0.3110 C.2   1 <1>  -0.0860 
  7 C        3.7970     0.1400    -0.5210 C.3   1 <1>  -0.0590 
  8 C       -1.9720    -2.3600    -0.3650 C.2   1 <1>   0.7160 
  9 C        2.4000    -2.6360    -0.0050 C.2   1 <1>   0.8060 
 10 O       -2.5860    -1.3380    -0.5880 O.2   1 <1>  -0.5700 
 11 C       -2.6500    -3.6180    -0.1880 C.2   1 <1>  -0.0860 
 12 O        1.8170    -3.7020     0.1090 O.2   1 <1>  -0.5700 
 13 O        3.7250    -2.6260     0.1670 O.3   1 <1>  -0.4300 
 14 C       -2.2660    -4.8970    -0.4090 C.2   1 <1>  -0.0400 
 15 C       -3.9360    -3.8100     0.3000 C.2   1 <1>   0.1080 
 16 C        4.4500    -3.7960     0.4760 C.3   1 <1>   0.1200 
 17 O       -3.1950    -5.7580    -0.0720 O.3   1 <1>  -0.0190 
 18 C       -0.9820    -5.4720    -0.9840 C.3   1 <1>  -0.0600 
 19 N       -4.2150    -5.0560     0.3580 N.2   1 <1>  -0.4100 
 20 C       -4.9080    -2.7260     0.7230 C.3   1 <1>  -0.0590 
 21 C        5.9230    -3.4180     0.5970 C.3   1 <1>  -0.2400 
 22 H       -0.2110    -3.2470     0.0050 H     1 <1>   0.3700 
 23 H        4.0010     1.1690    -0.7590 H     1 <1>   0.0800 
 24 H        4.3010    -0.4770    -1.2420 H     1 <1>   0.0800 
 25 H        4.1870    -0.0610     0.4600 H     1 <1>   0.0800 
 26 H        4.3010    -4.5130    -0.3150 H     1 <1>   0.0800 
 27 H        4.0770    -4.1970     1.4040 H     1 <1>   0.0800 
 28 H       -0.3820    -4.7150    -1.4520 H     1 <1>   0.0800 
 29 H       -1.2230    -6.2110    -1.7260 H     1 <1>   0.0800 
 30 H       -0.4110    -5.9440    -0.2040 H     1 <1>   0.0800 
 31 H       -4.4520    -2.0870     1.4570 H     1 <1>   0.0800 
 32 H       -5.7930    -3.1660     1.1460 H     1 <1>   0.0800 
 33 H       -5.1880    -2.1350    -0.1300 H     1 <1>   0.0800 
 34 H        6.2810    -3.0120    -0.3320 H     1 <1>   0.0800 
 35 H        6.5030    -4.2920     0.8330 H     1 <1>   0.0800 
 36 H        6.0590    -2.6960     1.3830 H     1 <1>   0.0800 
@<TRIPOS>BOND
  1   1   2  1   
  2   1   3  1   
  3   2   4  2   
  4   3   5  1   
  5   3   6  2   
  6   4   6  1   
  7   4   7  1   
  8   5   8  am  
  9   5  22  1   
 10   6   9  1   
 11   7  23  1   
 12   7  24  1   
 13   7  25  1   
 14   8  10  2   
 15   8  11  1   
 16   9  12  2   
 17   9  13  1   
 18  11  14  2   
 19  11  15  1   
 20  13  16  1   
 21  14  17  1   
 22  14  18  1   
 23  15  19  2   
 24  15  20  1   
 25  16  21  1   
 26  16  26  1   
 27  16  27  1   
 28  17  19  1   
 29  18  28  1   
 30  18  29  1   
 31  18  30  1   
 32  20  31  1   
 33  20  32  1   
 34  20  33  1   
 35  21  34  1   
 36  21  35  1   
 37  21  36  1   
@<TRIPOS>SUBSTRUCTURE
  1 ****   5 GROUP 4 **** **** 0

# MOE 2024.06 (io_trps.svl 2023.06)
