@<TRIPOS>MOLECULE
NONAME
39 40 1 0 0 
SMALL
USER_CHARGES


@<TRIPOS>ATOM
  1 S       -0.1020    -0.9590     0.2650 S.o2  1 <1>   1.5010 
  2 O       -0.8890    -1.1630     1.4570 O.2   1 <1>  -0.6500 
  3 O        0.2240    -2.0750    -0.5900 O.2   1 <1>  -0.6500 
  4 N       -1.0030     0.0610    -0.7780 N.am  1 <1>  -0.7570 
  5 C        1.3750    -0.0070     0.6230 C.2   1 <1>  -0.0630 
  6 C       -1.9370     0.9840    -0.3250 C.ar  1 <1>   0.1990 
  7 C        1.6480     0.5630     1.8590 C.2   1 <1>   0.1390 
  8 C        2.4330     0.3620    -0.1430 C.2   1 <1>  -0.3020 
  9 C       -3.2710     0.5980    -0.1510 C.ar  1 <1>  -0.1430 
 10 C       -1.5670     2.3090    -0.0630 C.ar  1 <1>  -0.1430 
 11 N        2.7630     1.2290     1.8700 N.2   1 <1>  -0.7070 
 12 N        3.2530     1.1020     0.6260 N.pl3 1 <1>   0.3140 
 13 C       -4.2000     1.5190     0.3020 C.ar  1 <1>  -0.1500 
 14 C       -3.7590    -0.8210    -0.4420 C.3   1 <1>  -0.0170 
 15 C       -2.5120     3.2090     0.3970 C.ar  1 <1>  -0.1500 
 16 C       -0.1490     2.8270    -0.2770 C.3   1 <1>  -0.0970 
 17 C        4.5260     1.7290     0.2160 C.3   1 <1>   0.0960 
 18 C       -3.8240     2.8190     0.5820 C.ar  1 <1>  -0.1500 
 19 C       -4.0900    -0.9910    -1.9270 C.3   1 <1>  -0.2400 
 20 C        4.2750     3.0110    -0.5880 C.3   1 <1>  -0.2400 
 21 H       -1.3300    -0.5260    -1.5360 H     1 <1>   0.4200 
 22 H        1.0030     0.4700     2.7190 H     1 <1>   0.1500 
 23 H        2.6320     0.1390    -1.1750 H     1 <1>   0.1500 
 24 H       -5.2270     1.2310     0.4430 H     1 <1>   0.1500 
 25 H       -4.6420    -1.0240     0.1390 H     1 <1>   0.0800 
 26 H       -3.0250    -1.5470    -0.1440 H     1 <1>   0.0800 
 27 H       -2.2330     4.2260     0.6120 H     1 <1>   0.1500 
 28 H        0.4130     2.7470     0.6350 H     1 <1>   0.0800 
 29 H       -0.1700     3.8610    -0.5690 H     1 <1>   0.0800 
 30 H        0.3540     2.2800    -1.0520 H     1 <1>   0.0800 
 31 H        5.0820     1.0210    -0.3700 H     1 <1>   0.0800 
 32 H        5.0880     1.9560     1.1040 H     1 <1>   0.0800 
 33 H       -4.5520     3.5260     0.9390 H     1 <1>   0.1500 
 34 H       -4.8580    -0.2950    -2.2160 H     1 <1>   0.0800 
 35 H       -4.4430    -1.9900    -2.1140 H     1 <1>   0.0800 
 36 H       -3.2210    -0.8130    -2.5340 H     1 <1>   0.0800 
 37 H        3.7250     2.7920    -1.4860 H     1 <1>   0.0800 
 38 H        5.2140     3.4590    -0.8610 H     1 <1>   0.0800 
 39 H        3.7210     3.7160     0.0080 H     1 <1>   0.0800 
@<TRIPOS>BOND
  1   1   2  2   
  2   1   3  2   
  3   1   4  am  
  4   1   5  1   
  5   4   6  1   
  6   4  21  1   
  7   5   7  1   
  8   5   8  2   
  9   6   9  ar  
 10   6  10  ar  
 11   7  11  2   
 12   7  22  1   
 13   8  12  1   
 14   8  23  1   
 15   9  13  ar  
 16   9  14  1   
 17  10  15  ar  
 18  10  16  1   
 19  11  12  1   
 20  12  17  1   
 21  13  18  ar  
 22  13  24  1   
 23  14  19  1   
 24  14  25  1   
 25  14  26  1   
 26  15  18  ar  
 27  15  27  1   
 28  16  28  1   
 29  16  29  1   
 30  16  30  1   
 31  17  20  1   
 32  17  31  1   
 33  17  32  1   
 34  18  33  1   
 35  19  34  1   
 36  19  35  1   
 37  19  36  1   
 38  20  37  1   
 39  20  38  1   
 40  20  39  1   
@<TRIPOS>SUBSTRUCTURE
  1 ****   4 GROUP 4 **** **** 0

# MOE 2024.06 (io_trps.svl 2023.06)
