@<TRIPOS>MOLECULE
NONAME
47 49 1 0 0 
SMALL
USER_CHARGES


@<TRIPOS>ATOM
  1 S        0.4580    -0.4630     0.9590 S.o2  1 <1>   1.4470 
  2 O        0.3500     0.9750     0.8430 O.2   1 <1>  -0.6500 
  3 O        0.8780    -1.0240     2.2270 O.2   1 <1>  -0.6500 
  4 N        1.6320    -0.9510    -0.1630 N.am  1 <1>  -0.8490 
  5 C       -1.0670    -1.2760     0.3800 C.ar  1 <1>  -0.0090 
  6 C        1.8910    -2.4040    -0.1030 C.3   1 <1>   0.1960 
  7 C        2.8830    -0.1960     0.0300 C.3   1 <1>   0.1960 
  8 C       -1.6800    -0.9820    -0.8420 C.ar  1 <1>  -0.1440 
  9 C       -1.6490    -2.2580     1.1770 C.ar  1 <1>  -0.1500 
 10 C        2.9270    -2.8470    -1.1510 C.3   1 <1>   0.1400 
 11 C        3.9450    -0.5780    -1.0140 C.3   1 <1>   0.1400 
 12 C       -2.8250    -1.6610    -1.2290 C.ar  1 <1>  -0.1500 
 13 C       -1.1260     0.0830    -1.7830 C.3   1 <1>  -0.0960 
 14 C       -2.7920    -2.9370     0.7940 C.ar  1 <1>  -0.1430 
 15 N        4.1820    -2.0520    -1.0090 N.am  1 <1>  -0.6600 
 16 C       -3.3780    -2.6340    -0.4190 C.ar  1 <1>  -0.1500 
 17 C       -3.3950    -4.0010     1.6930 C.3   1 <1>  -0.0970 
 18 C        5.4190    -2.6490    -0.9310 C.2   1 <1>   0.7150 
 19 O        5.5380    -3.7960    -1.3180 O.2   1 <1>  -0.5700 
 20 C        6.5580    -1.9520    -0.4060 C.2   1 <1>  -0.2370 
 21 N        7.8050    -2.0260    -0.9390 N.pl3 1 <1>   0.3140 
 22 C        6.6790    -1.1270     0.6720 C.2   1 <1>  -0.1500 
 23 N        8.6890    -1.2720    -0.2680 N.2   1 <1>  -0.7070 
 24 C        8.2300    -2.8100    -2.1100 C.3   1 <1>   0.0160 
 25 C        8.0060    -0.7420     0.7000 C.2   1 <1>   0.1390 
 26 H        0.9760    -2.9420    -0.2810 H     1 <1>   0.0800 
 27 H        2.2510    -2.6770     0.8750 H     1 <1>   0.0800 
 28 H        3.2710    -0.3760     1.0180 H     1 <1>   0.0800 
 29 H        2.6830     0.8590    -0.0590 H     1 <1>   0.0800 
 30 H       -1.1950    -2.4980     2.1240 H     1 <1>   0.1500 
 31 H        2.5240    -2.7020    -2.1380 H     1 <1>   0.0800 
 32 H        3.1290    -3.8960    -1.0240 H     1 <1>   0.0800 
 33 H        4.8530    -0.0360    -0.8240 H     1 <1>   0.0800 
 34 H        3.5930    -0.2860    -1.9880 H     1 <1>   0.0800 
 35 H       -3.3010    -1.4370    -2.1680 H     1 <1>   0.1500 
 36 H       -1.1440     1.0460    -1.3050 H     1 <1>   0.0800 
 37 H       -1.7120     0.1490    -2.6820 H     1 <1>   0.0800 
 38 H       -0.1150    -0.1500    -2.0640 H     1 <1>   0.0800 
 39 H       -4.2670    -3.1500    -0.7380 H     1 <1>   0.1500 
 40 H       -3.1570    -3.8060     2.7230 H     1 <1>   0.0800 
 41 H       -3.0090    -4.9680     1.4240 H     1 <1>   0.0800 
 42 H       -4.4660    -4.0150     1.5910 H     1 <1>   0.0800 
 43 H        5.9200    -0.8300     1.3720 H     1 <1>   0.1500 
 44 H        8.1770    -3.8560    -1.8700 H     1 <1>   0.0800 
 45 H        9.2410    -2.5500    -2.3630 H     1 <1>   0.0800 
 46 H        7.5830    -2.5940    -2.9390 H     1 <1>   0.0800 
 47 H        8.4410    -0.0820     1.4330 H     1 <1>   0.1500 
@<TRIPOS>BOND
  1   1   2  2   
  2   1   3  2   
  3   1   4  am  
  4   1   5  1   
  5   4   6  1   
  6   4   7  1   
  7   5   8  ar  
  8   5   9  ar  
  9   6  10  1   
 10   6  26  1   
 11   6  27  1   
 12   7  11  1   
 13   7  28  1   
 14   7  29  1   
 15   8  12  ar  
 16   8  13  1   
 17   9  14  ar  
 18   9  30  1   
 19  10  15  1   
 20  10  31  1   
 21  10  32  1   
 22  11  15  1   
 23  11  33  1   
 24  11  34  1   
 25  12  16  ar  
 26  12  35  1   
 27  13  36  1   
 28  13  37  1   
 29  13  38  1   
 30  14  16  ar  
 31  14  17  1   
 32  15  18  am  
 33  16  39  1   
 34  17  40  1   
 35  17  41  1   
 36  17  42  1   
 37  18  19  2   
 38  18  20  1   
 39  20  21  1   
 40  20  22  2   
 41  21  23  1   
 42  21  24  1   
 43  22  25  1   
 44  22  43  1   
 45  23  25  2   
 46  24  44  1   
 47  24  45  1   
 48  24  46  1   
 49  25  47  1   
@<TRIPOS>SUBSTRUCTURE
  1 ****   6 GROUP 4 **** **** 0

# MOE 2024.06 (io_trps.svl 2023.06)
