@<TRIPOS>MOLECULE
NONAME
40 41 1 0 0 
SMALL
USER_CHARGES


@<TRIPOS>ATOM
  1 CL       5.6040     1.1810    -2.4440 Cl    1 <1>  -0.1770 
  2 C        5.4890    -0.3380    -1.5930 C.ar  1 <1>   0.1770 
  3 C        5.4860    -0.3370    -0.2120 C.ar  1 <1>  -0.1500 
  4 C        5.4100    -1.5110    -2.3200 C.ar  1 <1>  -0.1500 
  5 C        5.4240    -1.5530     0.4640 C.ar  1 <1>   0.0830 
  6 C        5.3360    -2.7180    -1.6460 C.ar  1 <1>  -0.1500 
  7 O        5.4500    -1.6740     1.8160 O.3   1 <1>  -0.3630 
  8 C        5.3450    -2.7330    -0.2610 C.ar  1 <1>  -0.1500 
  9 C        5.6290    -0.5600     2.6850 C.3   1 <1>   0.2610 
 10 C        7.0070     0.0990     2.5010 C.2   1 <1>   0.5690 
 11 C        5.4270    -1.0750     4.1130 C.3   1 <1>  -0.2400 
 12 O        7.1300     1.2720     2.7690 O.2   1 <1>  -0.5700 
 13 N        8.0400    -0.6270     2.0000 N.am  1 <1>  -0.7300 
 14 C        9.3000    -0.0660     1.4870 C.3   1 <1>   0.2200 
 15 C        9.1720     0.0870    -0.0480 C.3   1 <1>   0.2000 
 16 C       10.4260    -0.9990     1.9440 C.3   1 <1>  -0.2400 
 17 O        8.9320    -1.1420    -0.6620 O.3   1 <1>  -0.5600 
 18 C       10.3770     0.6450    -0.7950 C.3   1 <1>  -0.1600 
 19 C        9.2080    -1.0610    -2.0240 C.3   1 <1>   0.1200 
 20 C       10.1460     0.1330    -2.2070 C.3   1 <1>  -0.1600 
 21 H        5.5420     0.6060     0.2970 H     1 <1>   0.1500 
 22 H        5.4090    -1.4770    -3.3940 H     1 <1>   0.1500 
 23 H        5.2750    -3.6420    -2.1950 H     1 <1>   0.1500 
 24 H        5.2940    -3.6680     0.2680 H     1 <1>   0.1500 
 25 H        4.8630     0.1590     2.4580 H     1 <1>   0.0800 
 26 H        6.1740    -1.8110     4.3510 H     1 <1>   0.0800 
 27 H        4.4480    -1.5070     4.2160 H     1 <1>   0.0800 
 28 H        5.5180    -0.2590     4.8070 H     1 <1>   0.0800 
 29 H        7.8230    -1.5460     1.5990 H     1 <1>   0.3700 
 30 H        9.4560     0.9080     1.9200 H     1 <1>   0.0800 
 31 H        8.3210     0.7140    -0.2580 H     1 <1>   0.0800 
 32 H       10.3330    -1.9600     1.4700 H     1 <1>   0.0800 
 33 H       10.3860    -1.1230     3.0110 H     1 <1>   0.0800 
 34 H       11.3840    -0.5840     1.6950 H     1 <1>   0.0800 
 35 H       11.2900     0.2330    -0.4060 H     1 <1>   0.0800 
 36 H       10.4170     1.7180    -0.7440 H     1 <1>   0.0800 
 37 H        8.2800    -0.9150    -2.5490 H     1 <1>   0.0800 
 38 H        9.6660    -1.9850    -2.3310 H     1 <1>   0.0800 
 39 H       11.0640    -0.1570    -2.6850 H     1 <1>   0.0800 
 40 H        9.6570     0.8790    -2.8090 H     1 <1>   0.0800 
@<TRIPOS>BOND
  1   1   2  1   
  2   2   3  ar  
  3   2   4  ar  
  4   3   5  ar  
  5   3  21  1   
  6   4   6  ar  
  7   4  22  1   
  8   5   7  1   
  9   5   8  ar  
 10   6   8  ar  
 11   6  23  1   
 12   7   9  1   
 13   8  24  1   
 14   9  10  1   
 15   9  11  1   
 16   9  25  1   
 17  10  12  2   
 18  10  13  am  
 19  11  26  1   
 20  11  27  1   
 21  11  28  1   
 22  13  14  1   
 23  13  29  1   
 24  14  15  1   
 25  14  16  1   
 26  14  30  1   
 27  15  17  1   
 28  15  18  1   
 29  15  31  1   
 30  16  32  1   
 31  16  33  1   
 32  16  34  1   
 33  17  19  1   
 34  18  20  1   
 35  18  35  1   
 36  18  36  1   
 37  19  20  1   
 38  19  37  1   
 39  19  38  1   
 40  20  39  1   
 41  20  40  1   
@<TRIPOS>SUBSTRUCTURE
  1 ****   3 GROUP 4 **** **** 0

# MOE 2024.06 (io_trps.svl 2023.06)
