@<TRIPOS>MOLECULE
NONAME
40 40 1 0 0 
SMALL
USER_CHARGES


@<TRIPOS>ATOM
  1 S        0.9890    -1.1070    -0.8370 S.o2  1 <1>   1.4470 
  2 O        1.3360     0.0850    -0.0900 O.2   1 <1>  -0.6500 
  3 O        1.3340    -1.2050    -2.2330 O.2   1 <1>  -0.6500 
  4 N        1.8110    -2.3830    -0.1270 N.am  1 <1>  -0.9140 
  5 C       -0.7540    -1.5320    -0.5710 C.ar  1 <1>  -0.0090 
  6 C        3.1010    -2.0070     0.4580 C.3   1 <1>   0.3370 
  7 C       -1.5630    -1.9540    -1.6190 C.ar  1 <1>  -0.1500 
  8 C       -1.3190    -1.4600     0.6960 C.ar  1 <1>  -0.1500 
  9 C        4.1240    -1.4310    -0.5600 C.2   1 <1>   0.5690 
 10 C        3.6250    -3.2520     1.1790 C.3   1 <1>  -0.2400 
 11 C       -2.8930    -2.2910    -1.4230 C.ar  1 <1>  -0.1440 
 12 C       -2.6450    -1.7930     0.9120 C.ar  1 <1>  -0.1500 
 13 O        4.8790    -2.1810    -1.1370 O.2   1 <1>  -0.5700 
 14 N        4.1350    -0.0890    -0.7970 N.am  1 <1>  -0.7300 
 15 C       -3.4420    -2.2110    -0.1480 C.ar  1 <1>   0.0830 
 16 C       -3.7410    -2.7460    -2.6030 C.3   1 <1>  -0.0970 
 17 C        4.9930     0.6000    -1.7900 C.3   1 <1>   0.0600 
 18 O       -4.7490    -2.5510    -0.0020 O.3   1 <1>  -0.3630 
 19 C       -5.4010    -2.4920     1.2450 C.3   1 <1>   0.1200 
 20 C       -6.8470    -2.9320     1.0430 C.3   1 <1>  -0.2400 
 21 H        2.0360    -2.9850    -0.9200 H     1 <1>   0.4200 
 22 H        2.9350    -1.2560     1.2110 H     1 <1>   0.0800 
 23 H       -1.1400    -2.0170    -2.6080 H     1 <1>   0.1500 
 24 H       -0.7110    -1.1380     1.5250 H     1 <1>   0.1500 
 25 H        3.7990    -4.0500     0.4780 H     1 <1>   0.0800 
 26 H        2.9210    -3.5760     1.9240 H     1 <1>   0.0800 
 27 H        4.5560    -3.0230     1.6650 H     1 <1>   0.0800 
 28 H       -3.0350    -1.7200     1.9090 H     1 <1>   0.1500 
 29 H        3.3570     0.4730    -0.4190 H     1 <1>   0.3700 
 30 H       -3.1710    -2.7570    -3.5140 H     1 <1>   0.0800 
 31 H       -4.5760    -2.0810    -2.7280 H     1 <1>   0.0800 
 32 H       -4.1160    -3.7370    -2.4200 H     1 <1>   0.0800 
 33 H        5.7560    -0.0680    -2.1540 H     1 <1>   0.0800 
 34 H        5.4650     1.4530    -1.3350 H     1 <1>   0.0800 
 35 H        4.3930     0.9260    -2.6220 H     1 <1>   0.0800 
 36 H       -5.3590    -1.4780     1.6040 H     1 <1>   0.0800 
 37 H       -4.8940    -3.1530     1.9270 H     1 <1>   0.0800 
 38 H       -7.3400    -2.2760     0.3470 H     1 <1>   0.0800 
 39 H       -7.3740    -2.8980     1.9790 H     1 <1>   0.0800 
 40 H       -6.8770    -3.9400     0.6680 H     1 <1>   0.0800 
@<TRIPOS>BOND
  1   1   2  2   
  2   1   3  2   
  3   1   4  am  
  4   1   5  1   
  5   4   6  1   
  6   4  21  1   
  7   5   7  ar  
  8   5   8  ar  
  9   6   9  1   
 10   6  10  1   
 11   6  22  1   
 12   7  11  ar  
 13   7  23  1   
 14   8  12  ar  
 15   8  24  1   
 16   9  13  2   
 17   9  14  am  
 18  10  25  1   
 19  10  26  1   
 20  10  27  1   
 21  11  15  ar  
 22  11  16  1   
 23  12  15  ar  
 24  12  28  1   
 25  14  17  1   
 26  14  29  1   
 27  15  18  1   
 28  16  30  1   
 29  16  31  1   
 30  16  32  1   
 31  17  33  1   
 32  17  34  1   
 33  17  35  1   
 34  18  19  1   
 35  19  20  1   
 36  19  36  1   
 37  19  37  1   
 38  20  38  1   
 39  20  39  1   
 40  20  40  1   
@<TRIPOS>SUBSTRUCTURE
  1 ****   5 GROUP 4 **** **** 0

# MOE 2024.06 (io_trps.svl 2023.06)
