@<TRIPOS>MOLECULE
NONAME
42 43 1 0 0 
SMALL
USER_CHARGES


@<TRIPOS>ATOM
  1 O        0.0580    -0.4160    -1.3980 O.2   1 <1>  -0.5700 
  2 C        0.7470    -1.2310    -0.8300 C.2   1 <1>   0.5690 
  3 N        2.0350    -1.0030    -0.4280 N.am  1 <1>  -0.5470 
  4 C        0.1010    -2.5940    -0.5340 C.3   1 <1>   0.4040 
  5 C        2.8800     0.1200    -0.5160 C.ar  1 <1>   0.1170 
  6 N       -1.4060    -2.5260    -0.4460 N.4   1 <1>  -0.9590 
  7 C        4.1420     0.0190     0.0810 C.ar  1 <1>   0.0830 
  8 C        2.5330     1.3040    -1.1570 C.ar  1 <1>  -0.1500 
  9 C       -1.8800    -1.7540     0.7380 C.3   1 <1>   0.3430 
 10 C       -2.0760    -3.8570    -0.5800 C.3   1 <1>   0.3430 
 11 O        4.4440    -1.1650     0.6970 O.3   1 <1>  -0.3630 
 12 C        5.0260     1.0930     0.0310 C.ar  1 <1>  -0.1500 
 13 C        3.4160     2.3680    -1.2030 C.ar  1 <1>  -0.1500 
 14 C       -3.3510    -1.3500     0.5220 C.3   1 <1>  -0.0800 
 15 C       -3.5300    -3.8130    -0.0820 C.3   1 <1>  -0.1600 
 16 C        5.7020    -1.3660     1.3080 C.3   1 <1>   0.0400 
 17 C        4.6610     2.2640    -0.6100 C.ar  1 <1>  -0.1500 
 18 C       -4.1640    -2.4230    -0.2370 C.3   1 <1>  -0.1600 
 19 C       -3.4440    -0.0010    -0.2070 C.3   1 <1>  -0.2400 
 20 H        2.5350    -1.7580     0.0490 H     1 <1>   0.3700 
 21 H        0.5010    -2.9810     0.3870 H     1 <1>   0.0800 
 22 H        0.3800    -3.2620    -1.3300 H     1 <1>   0.0800 
 23 H       -1.6940    -1.9380    -1.2480 H     1 <1>   0.4500 
 24 H        1.5760     1.4160    -1.6300 H     1 <1>   0.1500 
 25 H       -1.2840    -0.8660     0.8780 H     1 <1>   0.0800 
 26 H       -1.7990    -2.3650     1.6230 H     1 <1>   0.0800 
 27 H       -1.5380    -4.6040    -0.0190 H     1 <1>   0.0800 
 28 H       -2.0670    -4.1500    -1.6180 H     1 <1>   0.0800 
 29 H        5.9990     1.0440     0.4800 H     1 <1>   0.1500 
 30 H        3.1340     3.2790    -1.7030 H     1 <1>   0.1500 
 31 H       -3.7850    -1.2200     1.4990 H     1 <1>   0.0800 
 32 H       -3.5530    -4.1010     0.9560 H     1 <1>   0.0800 
 33 H       -4.1080    -4.5430    -0.6210 H     1 <1>   0.0800 
 34 H        5.7240    -2.3600     1.7170 H     1 <1>   0.0800 
 35 H        5.8290    -0.6460     2.0960 H     1 <1>   0.0800 
 36 H        6.4730    -1.2630     0.5640 H     1 <1>   0.0800 
 37 H        5.3450     3.0940    -0.6490 H     1 <1>   0.1500 
 38 H       -4.2070    -2.1850    -1.2870 H     1 <1>   0.0800 
 39 H       -5.1780    -2.4350     0.1280 H     1 <1>   0.0800 
 40 H       -2.9950    -0.0500    -1.1840 H     1 <1>   0.0800 
 41 H       -2.9420     0.7680     0.3560 H     1 <1>   0.0800 
 42 H       -4.4740     0.2910    -0.3210 H     1 <1>   0.0800 
@<TRIPOS>BOND
  1   1   2  2   
  2   2   3  am  
  3   2   4  1   
  4   3   5  1   
  5   3  20  1   
  6   4   6  1   
  7   4  21  1   
  8   4  22  1   
  9   5   7  ar  
 10   5   8  ar  
 11   6   9  1   
 12   6  10  1   
 13   6  23  1   
 14   7  11  1   
 15   7  12  ar  
 16   8  13  ar  
 17   8  24  1   
 18   9  14  1   
 19   9  25  1   
 20   9  26  1   
 21  10  15  1   
 22  10  27  1   
 23  10  28  1   
 24  11  16  1   
 25  12  17  ar  
 26  12  29  1   
 27  13  17  ar  
 28  13  30  1   
 29  14  18  1   
 30  14  19  1   
 31  14  31  1   
 32  15  18  1   
 33  15  32  1   
 34  15  33  1   
 35  16  34  1   
 36  16  35  1   
 37  16  36  1   
 38  17  37  1   
 39  18  38  1   
 40  18  39  1   
 41  19  40  1   
 42  19  41  1   
 43  19  42  1   
@<TRIPOS>SUBSTRUCTURE
  1 ****   2 GROUP 4 **** **** 0

# MOE 2024.06 (io_trps.svl 2023.06)
