@<TRIPOS>MOLECULE
NONAME
43 45 1 0 0 
SMALL
USER_CHARGES


@<TRIPOS>ATOM
  1 S       -0.0560     0.6050    -0.4720 S.3   1 <1>  -0.0800 
  2 C        0.3990    -1.0150     0.0320 C.2   1 <1>  -0.1400 
  3 C       -0.5900     1.0090     1.1500 C.2   1 <1>  -0.1100 
  4 C        0.1490    -1.1840     1.3450 C.2   1 <1>  -0.1500 
  5 C        0.9770    -1.9220    -1.0410 C.3   1 <1>   0.3200 
  6 C       -0.4160    -0.0340     1.9810 C.2   1 <1>  -0.1500 
  7 N        0.9330    -3.3460    -0.6160 N.am  1 <1>  -0.6600 
  8 C        2.0860    -4.0490    -0.3130 C.2   1 <1>   0.7150 
  9 C       -0.4260    -3.9600    -0.7110 C.3   1 <1>   0.2200 
 10 O        2.1060    -5.2510    -0.5170 O.2   1 <1>  -0.5700 
 11 C        3.2860    -3.4280     0.2180 C.2   1 <1>   0.0550 
 12 C       -0.7700    -4.8240     0.5060 C.3   1 <1>  -0.1600 
 13 C       -0.6040    -4.7460    -2.0190 C.3   1 <1>  -0.1600 
 14 O        3.2890    -2.2130     0.7620 O.3   1 <1>  -0.2800 
 15 C        4.5540    -3.9240     0.2910 C.2   1 <1>  -0.1500 
 16 C       -2.2170    -5.3520     0.3900 C.3   1 <1>   0.2800 
 17 C       -1.5930    -5.9050    -1.8450 C.3   1 <1>   0.1200 
 18 C        4.5050    -1.9250     1.1660 C.2   1 <1>  -0.0100 
 19 C        5.3430    -2.9490     0.9010 C.2   1 <1>  -0.1500 
 20 O       -2.5920    -5.5240    -0.9480 O.3   1 <1>  -0.5600 
 21 C       -3.2130    -4.3420     0.9610 C.3   1 <1>  -0.2400 
 22 C       -2.3860    -6.6980     1.0990 C.3   1 <1>  -0.2400 
 23 H       -0.9820     1.9980     1.3100 H     1 <1>   0.1500 
 24 H        0.3470    -2.0820     1.9030 H     1 <1>   0.1500 
 25 H        1.9840    -1.6190    -1.2680 H     1 <1>   0.0800 
 26 H        0.4000    -1.8120    -1.9430 H     1 <1>   0.0800 
 27 H       -0.6610    -0.0480     3.0290 H     1 <1>   0.1500 
 28 H       -1.1520    -3.1640    -0.7230 H     1 <1>   0.0800 
 29 H       -0.6570    -4.2600     1.4120 H     1 <1>   0.0800 
 30 H       -0.1000    -5.6620     0.5610 H     1 <1>   0.0800 
 31 H        0.3300    -5.1540    -2.3590 H     1 <1>   0.0800 
 32 H       -0.9720    -4.0840    -2.7800 H     1 <1>   0.0800 
 33 H        4.8930    -4.8870    -0.0510 H     1 <1>   0.1500 
 34 H       -1.1000    -6.7820    -1.4610 H     1 <1>   0.0800 
 35 H       -2.0600    -6.1520    -2.7830 H     1 <1>   0.0800 
 36 H        4.6900    -0.9720     1.6320 H     1 <1>   0.1500 
 37 H        6.3960    -3.0270     1.1070 H     1 <1>   0.1500 
 38 H       -3.1330    -3.4010     0.4480 H     1 <1>   0.0800 
 39 H       -3.0220    -4.1770     2.0060 H     1 <1>   0.0800 
 40 H       -4.2170    -4.7110     0.8530 H     1 <1>   0.0800 
 41 H       -1.7140    -7.4310     0.6920 H     1 <1>   0.0800 
 42 H       -3.3960    -7.0490     0.9900 H     1 <1>   0.0800 
 43 H       -2.1730    -6.5910     2.1470 H     1 <1>   0.0800 
@<TRIPOS>BOND
  1   1   2  1   
  2   1   3  1   
  3   2   4  2   
  4   2   5  1   
  5   3   6  2   
  6   3  23  1   
  7   4   6  1   
  8   4  24  1   
  9   5   7  1   
 10   5  25  1   
 11   5  26  1   
 12   6  27  1   
 13   7   8  am  
 14   7   9  1   
 15   8  10  2   
 16   8  11  1   
 17   9  12  1   
 18   9  13  1   
 19   9  28  1   
 20  11  14  1   
 21  11  15  2   
 22  12  16  1   
 23  12  29  1   
 24  12  30  1   
 25  13  17  1   
 26  13  31  1   
 27  13  32  1   
 28  14  18  1   
 29  15  19  1   
 30  15  33  1   
 31  16  20  1   
 32  16  21  1   
 33  16  22  1   
 34  17  20  1   
 35  17  34  1   
 36  17  35  1   
 37  18  19  2   
 38  18  36  1   
 39  19  37  1   
 40  21  38  1   
 41  21  39  1   
 42  21  40  1   
 43  22  41  1   
 44  22  42  1   
 45  22  43  1   
@<TRIPOS>SUBSTRUCTURE
  1 ****   7 GROUP 4 **** **** 0

# MOE 2024.06 (io_trps.svl 2023.06)
