@<TRIPOS>MOLECULE
NONAME
41 42 1 0 0 
SMALL
USER_CHARGES


@<TRIPOS>ATOM
  1 S        2.5200    -0.3740    -2.9740 S.3   1 <1>  -0.3320 
  2 C        3.1560    -0.9460    -1.3870 C.ar  1 <1>   0.1020 
  3 C        2.7880     1.4520    -3.0200 C.3   1 <1>  -0.0100 
  4 C        3.7970    -0.0970    -0.5020 C.ar  1 <1>  -0.1500 
  5 C        2.9760    -2.2840    -1.0840 C.ar  1 <1>  -0.1500 
  6 C        4.2760    -0.5880     0.7070 C.ar  1 <1>   0.1000 
  7 C        3.4380    -2.7760     0.1250 C.ar  1 <1>  -0.1500 
  8 N        4.9390     0.2380     1.6060 N.pl3 1 <1>  -0.8690 
  9 C        4.0800    -1.9300     1.0130 C.ar  1 <1>  -0.1500 
 10 C        6.1560     0.9470     1.1610 C.3   1 <1>   0.2890 
 11 C        7.3490    -0.0200     1.1680 C.3   1 <1>  -0.0170 
 12 C        6.3510     2.1380     2.0950 C.3   1 <1>  -0.2400 
 13 C        8.6000     0.6220     0.5840 C.ar  1 <1>  -0.1430 
 14 C        9.5970     1.1130     1.4130 C.ar  1 <1>  -0.1500 
 15 C        8.7500     0.7200    -0.7910 C.ar  1 <1>  -0.1500 
 16 C       10.7270     1.6990     0.8720 C.ar  1 <1>  -0.1500 
 17 C        9.8800     1.3060    -1.3350 C.ar  1 <1>  -0.1500 
 18 C       10.8780     1.8020    -0.5010 C.ar  1 <1>   0.0830 
 19 O       12.0140     2.3910    -0.9490 O.3   1 <1>  -0.3620 
 20 C       12.2740     2.5280    -2.3280 C.3   1 <1>   0.0400 
 21 H        2.3740     1.8170    -3.9430 H     1 <1>   0.0800 
 22 H        3.8460     1.6340    -2.9770 H     1 <1>   0.0800 
 23 H        2.2790     1.8830    -2.1770 H     1 <1>   0.0800 
 24 H        3.9290     0.9410    -0.7220 H     1 <1>   0.1500 
 25 H        2.4760    -2.9270    -1.7860 H     1 <1>   0.1500 
 26 H        3.2970    -3.8140     0.3720 H     1 <1>   0.1500 
 27 H        5.0690    -0.1710     2.5350 H     1 <1>   0.4000 
 28 H        4.4370    -2.3140     1.9500 H     1 <1>   0.1500 
 29 H        6.0100     1.3130     0.1580 H     1 <1>   0.0800 
 30 H        7.1030    -0.8840     0.5770 H     1 <1>   0.0800 
 31 H        7.5420    -0.3500     2.1720 H     1 <1>   0.0800 
 32 H        6.5350     1.8070     3.1010 H     1 <1>   0.0800 
 33 H        5.4740     2.7590     2.0800 H     1 <1>   0.0800 
 34 H        7.1870     2.7290     1.7690 H     1 <1>   0.0800 
 35 H        9.4990     1.0430     2.4830 H     1 <1>   0.1500 
 36 H        7.9850     0.3380    -1.4450 H     1 <1>   0.1500 
 37 H       11.5010     2.0820     1.5120 H     1 <1>   0.1500 
 38 H        9.9650     1.3660    -2.4030 H     1 <1>   0.1500 
 39 H       13.2260     3.0130    -2.4420 H     1 <1>   0.0800 
 40 H       11.5010     3.1310    -2.7700 H     1 <1>   0.0800 
 41 H       12.3050     1.5500    -2.7750 H     1 <1>   0.0800 
@<TRIPOS>BOND
  1   1   2  1   
  2   1   3  1   
  3   2   4  ar  
  4   2   5  ar  
  5   3  21  1   
  6   3  22  1   
  7   3  23  1   
  8   4   6  ar  
  9   4  24  1   
 10   5   7  ar  
 11   5  25  1   
 12   6   8  1   
 13   6   9  ar  
 14   7   9  ar  
 15   7  26  1   
 16   8  10  1   
 17   8  27  1   
 18   9  28  1   
 19  10  11  1   
 20  10  12  1   
 21  10  29  1   
 22  11  13  1   
 23  11  30  1   
 24  11  31  1   
 25  12  32  1   
 26  12  33  1   
 27  12  34  1   
 28  13  14  ar  
 29  13  15  ar  
 30  14  16  ar  
 31  14  35  1   
 32  15  17  ar  
 33  15  36  1   
 34  16  18  ar  
 35  16  37  1   
 36  17  18  ar  
 37  17  38  1   
 38  18  19  1   
 39  19  20  1   
 40  20  39  1   
 41  20  40  1   
 42  20  41  1   
@<TRIPOS>SUBSTRUCTURE
  1 ****  11 GROUP 4 **** **** 0

# MOE 2024.06 (io_trps.svl 2023.06)
