@<TRIPOS>MOLECULE
NONAME
47 49 1 0 0 
SMALL
USER_CHARGES


@<TRIPOS>ATOM
  1 BR      -0.6170     0.2050     0.2870 Br    1 <1>  -0.1110 
  2 C       -2.0160    -1.0780    -0.0730 C.ar  1 <1>   0.1110 
  3 C       -1.7410    -2.4350     0.0210 C.ar  1 <1>   0.0830 
  4 C       -3.2560    -0.5840    -0.4200 C.ar  1 <1>  -0.1500 
  5 O       -0.4740    -2.7990     0.3760 O.3   1 <1>  -0.3630 
  6 C       -2.7900    -3.3270    -0.2450 C.ar  1 <1>   0.0830 
  7 C       -4.3000    -1.4610    -0.6940 C.ar  1 <1>   0.0280 
  8 C        0.1360    -3.9170    -0.2260 C.3   1 <1>   0.1200 
  9 O       -2.5920    -4.6710    -0.1190 O.3   1 <1>  -0.3630 
 10 C       -4.0320    -2.8260    -0.6210 C.ar  1 <1>  -0.1500 
 11 C       -5.5940    -0.9370    -1.0410 C.2   1 <1>  -0.1780 
 12 C        1.6480    -3.7330    -0.1340 C.3   1 <1>  -0.2400 
 13 C       -3.6680    -5.5210     0.2120 C.3   1 <1>   0.1200 
 14 C       -6.8190    -1.2420    -0.5550 C.2   1 <1>  -0.0380 
 15 C       -3.0890    -6.8650     0.6420 C.3   1 <1>  -0.2400 
 16 N       -7.9530    -0.5370    -0.9630 N.pl3 1 <1>  -0.8380 
 17 C       -7.1140    -2.2620     0.5670 C.3   1 <1>   0.3380 
 18 C       -9.1060    -1.4200    -1.3270 C.3   1 <1>   0.2090 
 19 C       -8.3920     0.3770     0.1360 C.3   1 <1>   0.2090 
 20 O       -7.0750    -3.5390     0.0370 O.3   1 <1>  -0.6800 
 21 C       -8.5510    -1.9790     1.0850 C.3   1 <1>  -0.0800 
 22 C       -9.5580    -2.2070    -0.0730 C.3   1 <1>  -0.1600 
 23 C       -8.6320    -0.4660     1.4160 C.3   1 <1>  -0.1600 
 24 H       -3.4150     0.4770    -0.4730 H     1 <1>   0.1500 
 25 H       -0.1720    -4.7990     0.3070 H     1 <1>   0.0800 
 26 H       -0.1820    -3.9740    -1.2530 H     1 <1>   0.0800 
 27 H       -4.8210    -3.4980    -0.8820 H     1 <1>   0.1500 
 28 H       -5.5490    -0.1610    -1.7830 H     1 <1>   0.1500 
 29 H        1.9490    -3.6670     0.8960 H     1 <1>   0.0800 
 30 H        1.9420    -2.8380    -0.6530 H     1 <1>   0.0800 
 31 H        2.1440    -4.5730    -0.5850 H     1 <1>   0.0800 
 32 H       -4.2280    -5.0720     1.0160 H     1 <1>   0.0800 
 33 H       -4.2950    -5.6380    -0.6550 H     1 <1>   0.0800 
 34 H       -2.4550    -6.7340     1.5000 H     1 <1>   0.0800 
 35 H       -2.5240    -7.2980    -0.1630 H     1 <1>   0.0800 
 36 H       -3.8870    -7.5360     0.9030 H     1 <1>   0.0800 
 37 H       -6.3860    -2.1960     1.3570 H     1 <1>   0.0800 
 38 H       -9.9150    -0.8250    -1.7150 H     1 <1>   0.0800 
 39 H       -8.7910    -2.1000    -2.1000 H     1 <1>   0.0800 
 40 H       -7.6300     1.1180     0.3130 H     1 <1>   0.0800 
 41 H       -9.2960     0.8860    -0.1560 H     1 <1>   0.0800 
 42 H       -7.4370    -3.4690    -0.8650 H     1 <1>   0.4000 
 43 H       -8.7780    -2.5810     1.9470 H     1 <1>   0.0800 
 44 H      -10.5380    -1.8760     0.2210 H     1 <1>   0.0800 
 45 H       -9.6400    -3.2520    -0.3110 H     1 <1>   0.0800 
 46 H       -7.8890    -0.2130     2.1510 H     1 <1>   0.0800 
 47 H       -9.5930    -0.2210     1.8310 H     1 <1>   0.0800 
@<TRIPOS>BOND
  1   1   2  1   
  2   2   3  ar  
  3   2   4  ar  
  4   3   5  1   
  5   3   6  ar  
  6   4   7  ar  
  7   4  24  1   
  8   5   8  1   
  9   6   9  1   
 10   6  10  ar  
 11   7  10  ar  
 12   7  11  1   
 13   8  12  1   
 14   8  25  1   
 15   8  26  1   
 16   9  13  1   
 17  10  27  1   
 18  11  14  2   
 19  11  28  1   
 20  12  29  1   
 21  12  30  1   
 22  12  31  1   
 23  13  15  1   
 24  13  32  1   
 25  13  33  1   
 26  14  16  1   
 27  14  17  1   
 28  15  34  1   
 29  15  35  1   
 30  15  36  1   
 31  16  18  1   
 32  16  19  1   
 33  17  20  1   
 34  17  21  1   
 35  17  37  1   
 36  18  22  1   
 37  18  38  1   
 38  18  39  1   
 39  19  23  1   
 40  19  40  1   
 41  19  41  1   
 42  20  42  1   
 43  21  22  1   
 44  21  23  1   
 45  21  43  1   
 46  22  44  1   
 47  22  45  1   
 48  23  46  1   
 49  23  47  1   
@<TRIPOS>SUBSTRUCTURE
  1 ****  10 GROUP 4 **** **** 0

# MOE 2024.06 (io_trps.svl 2023.06)
