@<TRIPOS>MOLECULE
NONAME
20 21 1 0 0 
SMALL
USER_CHARGES


@<TRIPOS>ATOM
  1 O       -0.5670     0.3260     1.0550 O.co2 1 <1>  -0.9000 
  2 C       -0.5470    -0.7230     0.4280 C.2   1 <1>   0.9060 
  3 O        0.4510    -1.4410     0.2610 O.co2 1 <1>  -0.9000 
  4 C       -1.7700    -1.2550    -0.2070 C.3   1 <1>  -0.1860 
  5 C       -3.1480    -0.7280     0.1890 C.3   1 <1>   0.3380 
  6 C       -1.8570    -2.6910     0.2770 C.3   1 <1>   0.4230 
  7 O       -3.5380    -1.6260     1.1810 O.3   1 <1>  -0.5600 
  8 C       -4.0750    -1.2300    -0.9010 C.2   1 <1>  -0.2880 
  9 N       -1.1190    -3.5350    -0.6840 N.4   1 <1>  -0.8530 
 10 C       -3.3690    -2.8370     0.5350 C.3   1 <1>   0.3380 
 11 C       -4.1930    -2.5400    -0.7040 C.2   1 <1>  -0.2880 
 12 H       -1.6430    -1.1600    -1.2690 H     1 <1>   0.0800 
 13 H       -3.2410     0.2990     0.5060 H     1 <1>   0.0800 
 14 H       -1.3710    -2.7580     1.2380 H     1 <1>   0.0800 
 15 H       -4.4760    -0.5580    -1.6400 H     1 <1>   0.1500 
 16 H       -1.5010    -3.4510    -1.6260 H     1 <1>   0.4500 
 17 H       -1.0180    -4.5010    -0.3750 H     1 <1>   0.4500 
 18 H       -0.1750    -3.0820    -0.6660 H     1 <1>   0.4500 
 19 H       -3.6950    -3.6400     1.1730 H     1 <1>   0.0800 
 20 H       -4.7310    -3.3080    -1.2320 H     1 <1>   0.1500 
@<TRIPOS>BOND
  1   1   2  ar  
  2   2   3  ar  
  3   2   4  1   
  4   4   5  1   
  5   4   6  1   
  6   4  12  1   
  7   5   7  1   
  8   5   8  1   
  9   5  13  1   
 10   6   9  1   
 11   6  10  1   
 12   6  14  1   
 13   7  10  1   
 14   8  11  2   
 15   8  15  1   
 16   9  16  1   
 17   9  17  1   
 18   9  18  1   
 19  10  11  1   
 20  10  19  1   
 21  11  20  1   
@<TRIPOS>SUBSTRUCTURE
  1 ****   4 GROUP 4 **** **** 0

# MOE 2024.06 (io_trps.svl 2023.06)
