@<TRIPOS>MOLECULE
NONAME
46 47 1 0 0 
SMALL
USER_CHARGES


@<TRIPOS>ATOM
  1 O       -0.0620     4.5060     0.9680 O.3   1 <1>  -0.5600 
  2 C       -0.3600     5.1070    -0.2630 C.3   1 <1>   0.2000 
  3 C        0.1020     3.1110     1.0040 C.3   1 <1>   0.2000 
  4 C       -1.6840     4.5430    -0.8450 C.3   1 <1>   0.3430 
  5 C        0.8410     4.9610    -1.2080 C.3   1 <1>  -0.2400 
  6 C       -0.8570     2.3770     0.0290 C.3   1 <1>   0.3430 
  7 C       -0.1500     2.6990     2.4530 C.3   1 <1>  -0.2400 
  8 N       -2.0640     3.2080    -0.2650 N.4   1 <1>  -0.9590 
  9 C       -3.1640     2.5040    -0.9900 C.3   1 <1>   0.3430 
 10 C       -4.5250     3.1480    -0.6540 C.3   1 <1>   0.2000 
 11 O       -4.5200     3.5490     0.6810 O.3   1 <1>  -0.6800 
 12 C       -5.7160     2.2020    -0.8680 C.3   1 <1>   0.1200 
 13 O       -6.8360     2.7840    -0.2780 O.3   1 <1>  -0.5600 
 14 C       -8.0050     2.0280    -0.3550 C.3   1 <1>   0.2630 
 15 C       -9.0990     2.7660     0.3960 C.ar  1 <1>  -0.1430 
 16 C       -9.6830     3.8960    -0.1570 C.ar  1 <1>  -0.1500 
 17 C       -9.5280     2.3200     1.6370 C.ar  1 <1>  -0.1500 
 18 C      -10.6860     4.5700     0.5190 C.ar  1 <1>  -0.1500 
 19 C      -10.5310     2.9920     2.3150 C.ar  1 <1>  -0.1500 
 20 C      -11.1100     4.1170     1.7550 C.ar  1 <1>  -0.1500 
 21 H       -0.4970     6.1570    -0.0660 H     1 <1>   0.0800 
 22 H        1.1240     2.8870     0.7470 H     1 <1>   0.0800 
 23 H       -1.5820     4.4680    -1.9140 H     1 <1>   0.0800 
 24 H       -2.4730     5.2500    -0.6460 H     1 <1>   0.0800 
 25 H        1.0010     3.9430    -1.5080 H     1 <1>   0.0800 
 26 H        1.7280     5.3340    -0.7250 H     1 <1>   0.0800 
 27 H        0.6780     5.5480    -2.0940 H     1 <1>   0.0800 
 28 H       -1.1440     1.4340     0.4620 H     1 <1>   0.0800 
 29 H       -0.3300     2.1700    -0.8870 H     1 <1>   0.0800 
 30 H       -1.1560     2.9380     2.7490 H     1 <1>   0.0800 
 31 H        0.5370     3.2150     3.1020 H     1 <1>   0.0800 
 32 H        0.0060     1.6420     2.5770 H     1 <1>   0.0800 
 33 H       -2.4890     3.4430     0.6570 H     1 <1>   0.4500 
 34 H       -3.1960     1.4760    -0.6700 H     1 <1>   0.0800 
 35 H       -2.9930     2.5160    -2.0540 H     1 <1>   0.0800 
 36 H       -4.6700     4.0280    -1.2560 H     1 <1>   0.0800 
 37 H       -5.4650     3.6850     0.9430 H     1 <1>   0.4000 
 38 H       -5.5340     1.2500    -0.3970 H     1 <1>   0.0800 
 39 H       -5.9090     2.0590    -1.9180 H     1 <1>   0.0800 
 40 H       -7.8290     1.0620     0.0870 H     1 <1>   0.0800 
 41 H       -8.2780     1.9100    -1.3900 H     1 <1>   0.0800 
 42 H       -9.3550     4.2570    -1.1160 H     1 <1>   0.1500 
 43 H       -9.0840     1.4490     2.0860 H     1 <1>   0.1500 
 44 H      -11.1340     5.4450     0.0840 H     1 <1>   0.1500 
 45 H      -10.8590     2.6420     3.2770 H     1 <1>   0.1500 
 46 H      -11.8890     4.6410     2.2820 H     1 <1>   0.1500 
@<TRIPOS>BOND
  1   1   2  1   
  2   1   3  1   
  3   2   4  1   
  4   2   5  1   
  5   2  21  1   
  6   3   6  1   
  7   3   7  1   
  8   3  22  1   
  9   4   8  1   
 10   4  23  1   
 11   4  24  1   
 12   5  25  1   
 13   5  26  1   
 14   5  27  1   
 15   6   8  1   
 16   6  28  1   
 17   6  29  1   
 18   7  30  1   
 19   7  31  1   
 20   7  32  1   
 21   8   9  1   
 22   8  33  1   
 23   9  10  1   
 24   9  34  1   
 25   9  35  1   
 26  10  11  1   
 27  10  12  1   
 28  10  36  1   
 29  11  37  1   
 30  12  13  1   
 31  12  38  1   
 32  12  39  1   
 33  13  14  1   
 34  14  15  1   
 35  14  40  1   
 36  14  41  1   
 37  15  16  ar  
 38  15  17  ar  
 39  16  18  ar  
 40  16  42  1   
 41  17  19  ar  
 42  17  43  1   
 43  18  20  ar  
 44  18  44  1   
 45  19  20  ar  
 46  19  45  1   
 47  20  46  1   
@<TRIPOS>SUBSTRUCTURE
  1 ****  11 GROUP 4 **** **** 0

# MOE 2024.06 (io_trps.svl 2023.06)
