@<TRIPOS>MOLECULE
NONAME
44 45 1 0 0 
SMALL
USER_CHARGES


@<TRIPOS>ATOM
  1 O       -0.5560    -0.4840    -0.0730 O.3   1 <1>  -0.2170 
  2 N       -1.6740    -0.6460    -0.7420 N.2   1 <1>  -0.5130 
  3 C        0.3900    -1.5090    -0.2190 C.3   1 <1>   0.1200 
  4 C       -2.5830     0.2440    -0.6360 C.2   1 <1>   0.4750 
  5 C        1.6440    -1.1230     0.5630 C.3   1 <1>  -0.2400 
  6 C       -2.5850     1.4980     0.0980 C.2   1 <1>  -0.0860 
  7 C       -3.9070    -0.0510    -1.3290 C.3   1 <1>  -0.0990 
  8 C       -3.7870     2.0720     0.5340 C.2   1 <1>   0.1080 
  9 C       -1.6450     2.3890     0.5360 C.2   1 <1>  -0.3320 
 10 C       -5.1000     0.0690    -0.3540 C.3   1 <1>   0.0000 
 11 N       -3.6260     3.1640     1.2050 N.2   1 <1>  -0.7070 
 12 C       -5.1600     1.5050     0.2170 C.3   1 <1>   0.0210 
 13 N       -2.2980     3.3510     1.2150 N.pl3 1 <1>   0.3000 
 14 C       -0.1350     2.4030     0.3340 C.3   1 <1>   0.0200 
 15 C       -4.9510    -0.9470     0.7950 C.3   1 <1>  -0.2400 
 16 C       -6.4050    -0.2440    -1.1030 C.3   1 <1>  -0.2400 
 17 C        0.4280     3.8220     0.1780 C.3   1 <1>  -0.1600 
 18 C        1.9330     3.7930    -0.1180 C.3   1 <1>  -0.1600 
 19 C        2.4920     5.2100    -0.2690 C.3   1 <1>  -0.2400 
 20 H       -0.0430    -2.4180     0.1620 H     1 <1>   0.0800 
 21 H        0.6050    -1.6210    -1.2670 H     1 <1>   0.0800 
 22 H        1.4040    -0.9960     1.6030 H     1 <1>   0.0800 
 23 H        2.0550    -0.2090     0.1720 H     1 <1>   0.0800 
 24 H        2.3810    -1.8990     0.4710 H     1 <1>   0.0800 
 25 H       -4.0230     0.6450    -2.1390 H     1 <1>   0.0800 
 26 H       -3.8790    -1.0410    -1.7500 H     1 <1>   0.0800 
 27 H       -5.7690     1.5350     1.1020 H     1 <1>   0.0800 
 28 H       -5.6080     2.1640    -0.5040 H     1 <1>   0.0800 
 29 H       -1.8670     4.1610     1.6750 H     1 <1>   0.2700 
 30 H        0.3360     1.9110     1.1680 H     1 <1>   0.0800 
 31 H        0.1000     1.8490    -0.5570 H     1 <1>   0.0800 
 32 H       -5.8110    -0.9180     1.4400 H     1 <1>   0.0800 
 33 H       -4.0820    -0.7340     1.3950 H     1 <1>   0.0800 
 34 H       -4.8530    -1.9460     0.4070 H     1 <1>   0.0800 
 35 H       -6.5410     0.4290    -1.9320 H     1 <1>   0.0800 
 36 H       -7.2510    -0.1460    -0.4460 H     1 <1>   0.0800 
 37 H       -6.3890    -1.2500    -1.4860 H     1 <1>   0.0800 
 38 H       -0.0850     4.3160    -0.6290 H     1 <1>   0.0800 
 39 H        0.2600     4.3810     1.0820 H     1 <1>   0.0800 
 40 H        2.4510     3.2910     0.6810 H     1 <1>   0.0800 
 41 H        2.1120     3.2440    -1.0280 H     1 <1>   0.0800 
 42 H        2.3470     5.7720     0.6370 H     1 <1>   0.0800 
 43 H        2.0030     5.7240    -1.0780 H     1 <1>   0.0800 
 44 H        3.5460     5.1690    -0.4800 H     1 <1>   0.0800 
@<TRIPOS>BOND
  1   1   2  1   
  2   1   3  1   
  3   2   4  2   
  4   3   5  1   
  5   3  20  1   
  6   3  21  1   
  7   4   6  1   
  8   4   7  1   
  9   5  22  1   
 10   5  23  1   
 11   5  24  1   
 12   6   8  1   
 13   6   9  2   
 14   7  10  1   
 15   7  25  1   
 16   7  26  1   
 17   8  11  2   
 18   8  12  1   
 19   9  13  1   
 20   9  14  1   
 21  10  12  1   
 22  10  15  1   
 23  10  16  1   
 24  11  13  1   
 25  12  27  1   
 26  12  28  1   
 27  13  29  1   
 28  14  17  1   
 29  14  30  1   
 30  14  31  1   
 31  15  32  1   
 32  15  33  1   
 33  15  34  1   
 34  16  35  1   
 35  16  36  1   
 36  16  37  1   
 37  17  18  1   
 38  17  38  1   
 39  17  39  1   
 40  18  19  1   
 41  18  40  1   
 42  18  41  1   
 43  19  42  1   
 44  19  43  1   
 45  19  44  1   
@<TRIPOS>SUBSTRUCTURE
  1 ****   6 GROUP 4 **** **** 0

# MOE 2024.06 (io_trps.svl 2023.06)
