@<TRIPOS>MOLECULE
NONAME
45 47 1 0 0 
SMALL
USER_CHARGES


@<TRIPOS>ATOM
  1 O        1.6680    -1.0200    -0.1900 O.2   1 <1>  -0.5700 
  2 C        2.5460    -1.6080    -0.7980 C.2   1 <1>   0.7150 
  3 N        3.8480    -1.1710    -0.6510 N.am  1 <1>  -0.6600 
  4 C        2.2180    -2.7280    -1.6580 C.2   1 <1>   0.0550 
  5 C        4.1710     0.1470    -0.0200 C.3   1 <1>   0.1400 
  6 C        5.0310    -2.0780    -0.7580 C.3   1 <1>   0.1400 
  7 O        1.2430    -3.5770    -1.3420 O.3   1 <1>  -0.2800 
  8 C        2.7580    -3.1260    -2.8460 C.2   1 <1>  -0.1500 
  9 C        4.9080    -0.0460     1.3160 C.3   1 <1>   0.1100 
 10 C        5.7420    -2.2010     0.5980 C.3   1 <1>   0.1100 
 11 C        1.1510    -4.4920    -2.2800 C.2   1 <1>  -0.0100 
 12 C        2.0660    -4.2700    -3.2460 C.2   1 <1>  -0.1500 
 13 N        6.1190    -0.8740     1.1410 N.3   1 <1>  -0.8100 
 14 C        6.8720    -1.0140     2.4260 C.3   1 <1>   0.1710 
 15 C        8.2560    -1.6480     2.2520 C.2   1 <1>   0.5690 
 16 O        8.7270    -2.3300     3.1310 O.2   1 <1>  -0.5700 
 17 N        8.8790    -1.4520     1.0660 N.am  1 <1>  -0.7300 
 18 C        9.9240    -2.3240     0.5140 C.3   1 <1>   0.2840 
 19 C        9.2640    -3.1760    -0.5560 C.ar  1 <1>  -0.1440 
 20 C        9.1400    -2.7070    -1.8560 C.ar  1 <1>  -0.1500 
 21 C        8.7530    -4.4230    -0.2310 C.ar  1 <1>  -0.1500 
 22 C        8.5120    -3.4770    -2.8190 C.ar  1 <1>  -0.1500 
 23 C        8.1250    -5.1940    -1.1940 C.ar  1 <1>  -0.1500 
 24 C        8.0030    -4.7210    -2.4880 C.ar  1 <1>  -0.1500 
 25 H        3.2750     0.7200     0.1460 H     1 <1>   0.0800 
 26 H        4.7980     0.7100    -0.6890 H     1 <1>   0.0800 
 27 H        5.7200    -1.6840    -1.4850 H     1 <1>   0.0800 
 28 H        4.7350    -3.0620    -1.0760 H     1 <1>   0.0800 
 29 H        3.5580    -2.6580    -3.3910 H     1 <1>   0.1500 
 30 H        4.2390    -0.5090     2.0220 H     1 <1>   0.0800 
 31 H        5.1860     0.9200     1.7000 H     1 <1>   0.0800 
 32 H        6.6190    -2.8090     0.4640 H     1 <1>   0.0800 
 33 H        5.0930    -2.7110     1.2900 H     1 <1>   0.0800 
 34 H        0.4060    -5.2630    -2.1850 H     1 <1>   0.1500 
 35 H        2.2440    -4.8350    -4.1440 H     1 <1>   0.1500 
 36 H        6.3040    -1.6080     3.1200 H     1 <1>   0.0800 
 37 H        7.0180    -0.0420     2.8600 H     1 <1>   0.0800 
 38 H        8.3020    -0.9790     0.3640 H     1 <1>   0.3700 
 39 H       10.3430    -2.9440     1.2890 H     1 <1>   0.0800 
 40 H       10.7100    -1.7230     0.0910 H     1 <1>   0.0800 
 41 H        9.5300    -1.7400    -2.1220 H     1 <1>   0.1500 
 42 H        8.8400    -4.7930     0.7770 H     1 <1>   0.1500 
 43 H        8.4210    -3.1100    -3.8270 H     1 <1>   0.1500 
 44 H        7.7330    -6.1620    -0.9340 H     1 <1>   0.1500 
 45 H        7.5180    -5.3220    -3.2380 H     1 <1>   0.1500 
@<TRIPOS>BOND
  1   1   2  2   
  2   2   3  am  
  3   2   4  1   
  4   3   5  1   
  5   3   6  1   
  6   4   7  1   
  7   4   8  2   
  8   5   9  1   
  9   5  25  1   
 10   5  26  1   
 11   6  10  1   
 12   6  27  1   
 13   6  28  1   
 14   7  11  1   
 15   8  12  1   
 16   8  29  1   
 17   9  13  1   
 18   9  30  1   
 19   9  31  1   
 20  10  13  1   
 21  10  32  1   
 22  10  33  1   
 23  11  12  2   
 24  11  34  1   
 25  12  35  1   
 26  13  14  1   
 27  14  15  1   
 28  14  36  1   
 29  14  37  1   
 30  15  16  2   
 31  15  17  am  
 32  17  18  1   
 33  17  38  1   
 34  18  19  1   
 35  18  39  1   
 36  18  40  1   
 37  19  20  ar  
 38  19  21  ar  
 39  20  22  ar  
 40  20  41  1   
 41  21  23  ar  
 42  21  42  1   
 43  22  24  ar  
 44  22  43  1   
 45  23  24  ar  
 46  23  44  1   
 47  24  45  1   
@<TRIPOS>SUBSTRUCTURE
  1 ****   6 GROUP 4 **** **** 0

# MOE 2024.06 (io_trps.svl 2023.06)
