@<TRIPOS>MOLECULE
NONAME
49 51 1 0 0 
SMALL
USER_CHARGES


@<TRIPOS>ATOM
  1 O        0.3000    -0.3340    -0.0910 O.2   1 <1>  -0.5700 
  2 C        0.3160    -1.5070     0.2190 C.2   1 <1>   0.7800 
  3 O       -0.7950    -2.2370     0.1400 O.3   1 <1>  -0.4300 
  4 N        1.4630    -2.1360     0.6300 N.am  1 <1>  -0.6600 
  5 C       -2.0150    -1.6530    -0.2620 C.3   1 <1>   0.1200 
  6 C        1.5560    -3.6090     0.8490 C.3   1 <1>   0.1400 
  7 C        2.7570    -1.4000     0.7340 C.3   1 <1>   0.1400 
  8 C       -3.0850    -2.7400    -0.2530 C.3   1 <1>  -0.2400 
  9 C        2.6140    -4.2220    -0.0890 C.3   1 <1>   0.3430 
 10 C        3.8030    -2.0240    -0.2070 C.3   1 <1>   0.3430 
 11 N        3.9410    -3.5130     0.0030 N.4   1 <1>  -0.9590 
 12 C        4.9430    -4.1010    -0.9280 C.3   1 <1>   0.4860 
 13 C        6.2970    -3.4880    -0.6270 C.ar  1 <1>  -0.1440 
 14 C        7.0060    -3.8680     0.5030 C.ar  1 <1>  -0.1500 
 15 C        6.8400    -2.5360    -1.4780 C.ar  1 <1>  -0.1500 
 16 C        8.2310    -3.2900     0.7820 C.ar  1 <1>  -0.1500 
 17 C        8.0660    -1.9640    -1.1910 C.ar  1 <1>  -0.1500 
 18 C        8.7820    -2.3270    -0.0550 C.ar  1 <1>   0.0000 
 19 C       10.0620    -1.7250     0.2420 C.ar  1 <1>   0.0000 
 20 C       11.2070    -2.5050     0.3720 C.ar  1 <1>  -0.1500 
 21 C       10.1870    -0.3480     0.4060 C.ar  1 <1>  -0.1500 
 22 C       12.4340    -1.9330     0.6580 C.ar  1 <1>  -0.1500 
 23 C       11.4100     0.2300     0.6920 C.ar  1 <1>  -0.1500 
 24 C       12.5370    -0.5620     0.8190 C.ar  1 <1>  -0.1500 
 25 H       -1.8910    -1.2420    -1.2500 H     1 <1>   0.0800 
 26 H       -2.2600    -0.8640     0.4300 H     1 <1>   0.0800 
 27 H        0.6080    -4.0850     0.6680 H     1 <1>   0.0800 
 28 H        1.8210    -3.7980     1.8750 H     1 <1>   0.0800 
 29 H        3.1080    -1.4390     1.7500 H     1 <1>   0.0800 
 30 H        2.6280    -0.3620     0.4770 H     1 <1>   0.0800 
 31 H       -2.8260    -3.5250    -0.9400 H     1 <1>   0.0800 
 32 H       -4.0280    -2.3210    -0.5540 H     1 <1>   0.0800 
 33 H       -3.1940    -3.1470     0.7370 H     1 <1>   0.0800 
 34 H        2.2420    -4.1610    -1.0980 H     1 <1>   0.0800 
 35 H        2.7360    -5.2650     0.1550 H     1 <1>   0.0800 
 36 H        4.7520    -1.5390    -0.0440 H     1 <1>   0.0800 
 37 H        3.5030    -1.8260    -1.2230 H     1 <1>   0.0800 
 38 H        4.3170    -3.6400     0.9510 H     1 <1>   0.4500 
 39 H        4.6670    -3.9010    -1.9510 H     1 <1>   0.0800 
 40 H        5.0000    -5.1690    -0.7910 H     1 <1>   0.0800 
 41 H        6.6240    -4.6160     1.1770 H     1 <1>   0.1500 
 42 H        6.3240    -2.2290    -2.3720 H     1 <1>   0.1500 
 43 H        8.7780    -3.5850     1.6620 H     1 <1>   0.1500 
 44 H        8.4870    -1.2290    -1.8560 H     1 <1>   0.1500 
 45 H       11.1370    -3.5700     0.2440 H     1 <1>   0.1500 
 46 H        9.3160     0.2750     0.3130 H     1 <1>   0.1500 
 47 H       13.3090    -2.5520     0.7550 H     1 <1>   0.1500 
 48 H       11.4880     1.2970     0.8160 H     1 <1>   0.1500 
 49 H       13.4900    -0.1150     1.0410 H     1 <1>   0.1500 
@<TRIPOS>BOND
  1   1   2  2   
  2   2   3  1   
  3   2   4  am  
  4   3   5  1   
  5   4   6  1   
  6   4   7  1   
  7   5   8  1   
  8   5  25  1   
  9   5  26  1   
 10   6   9  1   
 11   6  27  1   
 12   6  28  1   
 13   7  10  1   
 14   7  29  1   
 15   7  30  1   
 16   8  31  1   
 17   8  32  1   
 18   8  33  1   
 19   9  11  1   
 20   9  34  1   
 21   9  35  1   
 22  10  11  1   
 23  10  36  1   
 24  10  37  1   
 25  11  12  1   
 26  11  38  1   
 27  12  13  1   
 28  12  39  1   
 29  12  40  1   
 30  13  14  ar  
 31  13  15  ar  
 32  14  16  ar  
 33  14  41  1   
 34  15  17  ar  
 35  15  42  1   
 36  16  18  ar  
 37  16  43  1   
 38  17  18  ar  
 39  17  44  1   
 40  18  19  1   
 41  19  20  ar  
 42  19  21  ar  
 43  20  22  ar  
 44  20  45  1   
 45  21  23  ar  
 46  21  46  1   
 47  22  24  ar  
 48  22  47  1   
 49  23  24  ar  
 50  23  48  1   
 51  24  49  1   
@<TRIPOS>SUBSTRUCTURE
  1 ****  10 GROUP 4 **** **** 0

# MOE 2024.06 (io_trps.svl 2023.06)
