@<TRIPOS>MOLECULE
NONAME
43 45 1 0 0 
SMALL
USER_CHARGES


@<TRIPOS>ATOM
  1 F       -1.3970     1.2500     2.3300 F     1 <1>  -0.1900 
  2 C       -2.0770     1.1430     1.2220 C.ar  1 <1>   0.1900 
  3 C       -3.3680     0.6540     1.2840 C.ar  1 <1>  -0.1500 
  4 C       -1.4850     1.5240     0.0350 C.ar  1 <1>  -0.1500 
  5 C       -4.1020     0.5480     0.1100 C.ar  1 <1>  -0.1440 
  6 C       -2.2170     1.4080    -1.1340 C.ar  1 <1>  -0.1500 
  7 C       -3.5160     0.9220    -1.0950 C.ar  1 <1>  -0.1500 
  8 C       -5.5290     0.0350     0.1430 C.3   1 <1>   0.4870 
  9 N       -6.4000     1.0900     0.7270 N.4   1 <1>  -0.9590 
 10 C       -7.8060     0.5950     0.9580 C.3   1 <1>   0.3430 
 11 C       -6.4030     2.3480    -0.1110 C.3   1 <1>   0.3430 
 12 C       -8.7180     1.6680     1.5910 C.3   1 <1>   0.2090 
 13 C       -7.2840     3.4630     0.4910 C.3   1 <1>   0.2090 
 14 N       -8.6410     2.9610     0.8530 N.pl3 1 <1>  -0.8380 
 15 C       -9.7040     3.2890     0.0120 C.ar  1 <1>   0.1000 
 16 C      -10.6630     4.2240     0.4040 C.ar  1 <1>  -0.1430 
 17 C       -9.8240     2.6830    -1.2350 C.ar  1 <1>  -0.1500 
 18 C      -11.7120     4.5330    -0.4450 C.ar  1 <1>  -0.1500 
 19 C      -10.5700     4.9140     1.7590 C.3   1 <1>  -0.0970 
 20 C      -10.8730     2.9950    -2.0780 C.ar  1 <1>  -0.1500 
 21 C      -11.8200     3.9230    -1.6830 C.ar  1 <1>  -0.1500 
 22 H       -3.7650     0.3660     2.2410 H     1 <1>   0.1500 
 23 H       -0.4760     1.8980     0.0290 H     1 <1>   0.1500 
 24 H       -1.7710     1.6930    -2.0740 H     1 <1>   0.1500 
 25 H       -4.0590     0.8370    -2.0230 H     1 <1>   0.1500 
 26 H       -5.5710    -0.8580     0.7450 H     1 <1>   0.0800 
 27 H       -5.8560    -0.2090    -0.8550 H     1 <1>   0.0800 
 28 H       -5.9990     1.3480     1.6370 H     1 <1>   0.4500 
 29 H       -7.7930    -0.2700     1.6000 H     1 <1>   0.0800 
 30 H       -8.2440     0.3020     0.0190 H     1 <1>   0.0800 
 31 H       -6.7760     2.1250    -1.0960 H     1 <1>   0.0800 
 32 H       -5.3980     2.7230    -0.2170 H     1 <1>   0.0800 
 33 H       -8.4330     1.8330     2.6160 H     1 <1>   0.0800 
 34 H       -9.7360     1.3170     1.5910 H     1 <1>   0.0800 
 35 H       -7.3790     4.2670    -0.2200 H     1 <1>   0.0800 
 36 H       -6.8130     3.8650     1.3710 H     1 <1>   0.0800 
 37 H       -9.0970     1.9640    -1.5510 H     1 <1>   0.1500 
 38 H      -12.4560     5.2530    -0.1510 H     1 <1>   0.1500 
 39 H      -10.6180     4.1820     2.5440 H     1 <1>   0.0800 
 40 H      -11.3720     5.6160     1.8940 H     1 <1>   0.0800 
 41 H       -9.6370     5.4420     1.8340 H     1 <1>   0.0800 
 42 H      -10.9590     2.5220    -3.0410 H     1 <1>   0.1500 
 43 H      -12.6400     4.1700    -2.3350 H     1 <1>   0.1500 
@<TRIPOS>BOND
  1   1   2  1   
  2   2   3  ar  
  3   2   4  ar  
  4   3   5  ar  
  5   3  22  1   
  6   4   6  ar  
  7   4  23  1   
  8   5   7  ar  
  9   5   8  1   
 10   6   7  ar  
 11   6  24  1   
 12   7  25  1   
 13   8   9  1   
 14   8  26  1   
 15   8  27  1   
 16   9  10  1   
 17   9  11  1   
 18   9  28  1   
 19  10  12  1   
 20  10  29  1   
 21  10  30  1   
 22  11  13  1   
 23  11  31  1   
 24  11  32  1   
 25  12  14  1   
 26  12  33  1   
 27  12  34  1   
 28  13  14  1   
 29  13  35  1   
 30  13  36  1   
 31  14  15  1   
 32  15  16  ar  
 33  15  17  ar  
 34  16  18  ar  
 35  16  19  1   
 36  17  20  ar  
 37  17  37  1   
 38  18  21  ar  
 39  18  38  1   
 40  19  39  1   
 41  19  40  1   
 42  19  41  1   
 43  20  21  ar  
 44  20  42  1   
 45  21  43  1   
@<TRIPOS>SUBSTRUCTURE
  1 ****  11 GROUP 4 **** **** 0

# MOE 2024.06 (io_trps.svl 2023.06)
