@<TRIPOS>MOLECULE
NONAME
40 42 1 0 0 
SMALL
USER_CHARGES


@<TRIPOS>ATOM
  1 O       -0.7890    -1.0220    -1.1910 O.2   1 <1>  -0.5700 
  2 C       -1.8770    -1.3670    -0.8120 C.2   1 <1>   0.5690 
  3 N       -2.8220    -0.4220    -0.6010 N.am  1 <1>  -0.7300 
  4 C       -2.1090    -2.8420    -0.5920 C.3   1 <1>  -0.1790 
  5 C       -4.2340    -0.4320    -0.1790 C.3   1 <1>   0.3000 
  6 C       -4.4550    -1.2540     1.1030 C.3   1 <1>  -0.1600 
  7 C       -4.6190     1.0340     0.0990 C.3   1 <1>  -0.1600 
  8 C       -5.1270    -0.9640    -1.3150 C.3   1 <1>  -0.1600 
  9 C       -5.9320    -1.1580     1.5000 C.3   1 <1>   0.2800 
 10 C       -6.0990     1.1460     0.5200 C.3   1 <1>   0.0000 
 11 C       -6.6150    -0.8940    -0.9070 C.3   1 <1>   0.0000 
 12 O       -6.1350    -1.8950     2.6410 O.3   1 <1>  -0.6800 
 13 C       -6.3130     0.2990     1.7900 C.3   1 <1>  -0.1600 
 14 C       -6.8200    -1.7210     0.3810 C.3   1 <1>  -0.1600 
 15 C       -6.9790     0.5770    -0.6130 C.3   1 <1>  -0.1600 
 16 C       -6.4660     2.6100     0.7930 C.3   1 <1>  -0.2400 
 17 C       -7.5000    -1.4420    -2.0340 C.3   1 <1>  -0.2400 
 18 H       -2.4850     0.5180    -0.8090 H     1 <1>   0.3700 
 19 H       -3.0500    -3.1480    -1.0010 H     1 <1>   0.0800 
 20 H       -2.0730    -3.0580     0.4580 H     1 <1>   0.0800 
 21 H       -1.3310    -3.4000    -1.0800 H     1 <1>   0.0800 
 22 H       -3.8380    -0.8670     1.8940 H     1 <1>   0.0800 
 23 H       -4.2160    -2.2840     0.9350 H     1 <1>   0.0800 
 24 H       -4.4580     1.6250    -0.7850 H     1 <1>   0.0800 
 25 H       -3.9950     1.4270     0.8830 H     1 <1>   0.0800 
 26 H       -4.9680    -0.3770    -2.2020 H     1 <1>   0.0800 
 27 H       -4.8720    -1.9820    -1.5420 H     1 <1>   0.0800 
 28 H       -5.9460    -2.8340     2.4650 H     1 <1>   0.4000 
 29 H       -7.3430     0.3480     2.0950 H     1 <1>   0.0800 
 30 H       -5.7040     0.6770     2.5930 H     1 <1>   0.0800 
 31 H       -7.8520    -1.6700     0.6820 H     1 <1>   0.0800 
 32 H       -6.5710    -2.7500     0.1940 H     1 <1>   0.0800 
 33 H       -6.8480     1.1670    -1.5040 H     1 <1>   0.0800 
 34 H       -8.0160     0.6440    -0.3320 H     1 <1>   0.0800 
 35 H       -5.8550     3.0110     1.5830 H     1 <1>   0.0800 
 36 H       -7.4970     2.6890     1.0890 H     1 <1>   0.0800 
 37 H       -6.3180     3.2070    -0.0890 H     1 <1>   0.0800 
 38 H       -7.2530    -2.4670    -2.2440 H     1 <1>   0.0800 
 39 H       -7.3620    -0.8680    -2.9340 H     1 <1>   0.0800 
 40 H       -8.5380    -1.3920    -1.7560 H     1 <1>   0.0800 
@<TRIPOS>BOND
  1   1   2  2   
  2   2   3  am  
  3   2   4  1   
  4   3   5  1   
  5   3  18  1   
  6   4  19  1   
  7   4  20  1   
  8   4  21  1   
  9   5   6  1   
 10   5   7  1   
 11   5   8  1   
 12   6   9  1   
 13   6  22  1   
 14   6  23  1   
 15   7  10  1   
 16   7  24  1   
 17   7  25  1   
 18   8  11  1   
 19   8  26  1   
 20   8  27  1   
 21   9  12  1   
 22   9  13  1   
 23   9  14  1   
 24  10  13  1   
 25  10  15  1   
 26  10  16  1   
 27  11  14  1   
 28  11  15  1   
 29  11  17  1   
 30  12  28  1   
 31  13  29  1   
 32  13  30  1   
 33  14  31  1   
 34  14  32  1   
 35  15  33  1   
 36  15  34  1   
 37  16  35  1   
 38  16  36  1   
 39  16  37  1   
 40  17  38  1   
 41  17  39  1   
 42  17  40  1   
@<TRIPOS>SUBSTRUCTURE
  1 ****   5 GROUP 4 **** **** 0

# MOE 2024.06 (io_trps.svl 2023.06)
