@<TRIPOS>MOLECULE
NONAME
47 49 1 0 0 
SMALL
USER_CHARGES


@<TRIPOS>ATOM
  1 CL       0.4300     1.1380    -1.4260 Cl    1 <1>  -0.1770 
  2 C        1.9690     1.4900    -0.6810 C.ar  1 <1>   0.1770 
  3 C        3.0630     0.7080    -0.9890 C.ar  1 <1>  -0.1500 
  4 C        2.0640     2.5480     0.2030 C.ar  1 <1>  -0.1500 
  5 C        4.2940     0.9730    -0.4020 C.ar  1 <1>   0.1000 
  6 C        3.2870     2.8230     0.7910 C.ar  1 <1>  -0.1500 
  7 N        5.3910     0.1700    -0.7100 N.pl3 1 <1>  -0.8380 
  8 C        4.3900     2.0410     0.4900 C.ar  1 <1>  -0.1500 
  9 C        6.7340     0.7680    -0.9830 C.3   1 <1>   0.2090 
 10 C        5.3620    -1.2720    -0.3230 C.3   1 <1>   0.2090 
 11 C        7.7470     0.4130     0.1270 C.3   1 <1>   0.3430 
 12 C        6.3990    -1.5750     0.7810 C.3   1 <1>   0.3430 
 13 N        7.7760    -1.0650     0.4410 N.4   1 <1>  -0.9590 
 14 C        8.7670    -1.3840     1.5030 C.3   1 <1>   0.4860 
 15 C       10.1420    -0.9820     1.0110 C.ar  1 <1>  -0.1430 
 16 C       10.7680    -1.7110     0.0100 C.ar  1 <1>  -0.1500 
 17 C       10.7820     0.1240     1.5500 C.ar  1 <1>  -0.1500 
 18 C       12.0120    -1.3340    -0.4660 C.ar  1 <1>  -0.1430 
 19 C       12.0260     0.5060     1.0820 C.ar  1 <1>  -0.1500 
 20 C       12.6480    -0.2180     0.0690 C.ar  1 <1>   0.0830 
 21 C       12.6840    -2.1460    -1.5670 C.3   1 <1>  -0.0970 
 22 O       13.8660     0.1140    -0.4320 O.3   1 <1>  -0.3630 
 23 C       14.6440     1.1550     0.1170 C.3   1 <1>   0.0400 
 24 H        2.9610    -0.1000    -1.6880 H     1 <1>   0.1500 
 25 H        1.1950     3.1420     0.4240 H     1 <1>   0.1500 
 26 H        3.3760     3.6450     1.4810 H     1 <1>   0.1500 
 27 H        5.3280     2.2640     0.9570 H     1 <1>   0.1500 
 28 H        6.6480     1.8380    -1.0670 H     1 <1>   0.0800 
 29 H        7.0930     0.4020    -1.9290 H     1 <1>   0.0800 
 30 H        5.5650    -1.8740    -1.1910 H     1 <1>   0.0800 
 31 H        4.3800    -1.5330     0.0350 H     1 <1>   0.0800 
 32 H        7.4790     0.9630     1.0130 H     1 <1>   0.0800 
 33 H        8.7260     0.7430    -0.1810 H     1 <1>   0.0800 
 34 H        6.4290    -2.6390     0.9460 H     1 <1>   0.0800 
 35 H        6.0580    -1.1090     1.6910 H     1 <1>   0.0800 
 36 H        8.0960    -1.5350    -0.4150 H     1 <1>   0.4500 
 37 H        8.7610    -2.4420     1.7150 H     1 <1>   0.0800 
 38 H        8.5300    -0.8520     2.4100 H     1 <1>   0.0800 
 39 H       10.2960    -2.5830    -0.4080 H     1 <1>   0.1500 
 40 H       10.3270     0.7000     2.3380 H     1 <1>   0.1500 
 41 H       12.4990     1.3670     1.5170 H     1 <1>   0.1500 
 42 H       12.0760    -2.9770    -1.8740 H     1 <1>   0.0800 
 43 H       13.6270    -2.5240    -1.2130 H     1 <1>   0.0800 
 44 H       12.8680    -1.5190    -2.4210 H     1 <1>   0.0800 
 45 H       15.5750     1.1930    -0.4180 H     1 <1>   0.0800 
 46 H       14.8280     0.9440     1.1560 H     1 <1>   0.0800 
 47 H       14.1180     2.0850    -0.0020 H     1 <1>   0.0800 
@<TRIPOS>BOND
  1   1   2  1   
  2   2   3  ar  
  3   2   4  ar  
  4   3   5  ar  
  5   3  24  1   
  6   4   6  ar  
  7   4  25  1   
  8   5   7  1   
  9   5   8  ar  
 10   6   8  ar  
 11   6  26  1   
 12   7   9  1   
 13   7  10  1   
 14   8  27  1   
 15   9  11  1   
 16   9  28  1   
 17   9  29  1   
 18  10  12  1   
 19  10  30  1   
 20  10  31  1   
 21  11  13  1   
 22  11  32  1   
 23  11  33  1   
 24  12  13  1   
 25  12  34  1   
 26  12  35  1   
 27  13  14  1   
 28  13  36  1   
 29  14  15  1   
 30  14  37  1   
 31  14  38  1   
 32  15  16  ar  
 33  15  17  ar  
 34  16  18  ar  
 35  16  39  1   
 36  17  19  ar  
 37  17  40  1   
 38  18  20  ar  
 39  18  21  1   
 40  19  20  ar  
 41  19  41  1   
 42  20  22  1   
 43  21  42  1   
 44  21  43  1   
 45  21  44  1   
 46  22  23  1   
 47  23  45  1   
 48  23  46  1   
 49  23  47  1   
@<TRIPOS>SUBSTRUCTURE
  1 ****  11 GROUP 4 **** **** 0

# MOE 2024.06 (io_trps.svl 2023.06)
