@<TRIPOS>MOLECULE
NONAME
37 37 1 0 0 
SMALL
USER_CHARGES


@<TRIPOS>ATOM
  1 O        0.5630     1.3430     2.1000 O.2   1 <1>  -0.5700 
  2 C        0.0400     1.9150     1.1760 C.2   1 <1>   0.5690 
  3 N        0.6520     2.0710    -0.0240 N.am  1 <1>  -0.7300 
  4 C       -1.3510     2.4880     1.3560 C.3   1 <1>  -0.0990 
  5 C        2.0070     1.5820    -0.3620 C.3   1 <1>   0.1400 
  6 C       -2.3910     1.7980     0.4570 C.3   1 <1>  -0.1600 
  7 C        2.8340     2.6980    -1.0210 C.3   1 <1>  -0.0800 
  8 C       -3.8020     2.3500     0.6940 C.3   1 <1>  -0.0170 
  9 C        2.2060     3.1930    -2.3340 C.3   1 <1>  -0.2400 
 10 C        4.2600     2.2000    -1.2930 C.3   1 <1>  -0.2400 
 11 C       -4.7920     1.6880    -0.2500 C.ar  1 <1>  -0.1440 
 12 C       -5.1280     2.2920    -1.4520 C.ar  1 <1>  -0.1500 
 13 C       -5.3640     0.4700     0.0810 C.ar  1 <1>  -0.1500 
 14 C       -6.0280     1.6860    -2.3120 C.ar  1 <1>  -0.1500 
 15 C       -6.2640    -0.1380    -0.7780 C.ar  1 <1>  -0.1500 
 16 C       -6.5970     0.4700    -1.9750 C.ar  1 <1>  -0.1500 
 17 H        0.1590     2.5390    -0.7830 H     1 <1>   0.3700 
 18 H       -1.3170     3.5410     1.1430 H     1 <1>   0.0800 
 19 H       -1.6330     2.3700     2.3870 H     1 <1>   0.0800 
 20 H        1.9210     0.7420    -1.0300 H     1 <1>   0.0800 
 21 H        2.5020     1.2460     0.5340 H     1 <1>   0.0800 
 22 H       -2.3870     0.7400     0.6580 H     1 <1>   0.0800 
 23 H       -2.1290     1.9370    -0.5770 H     1 <1>   0.0800 
 24 H        2.8970     3.5210    -0.3290 H     1 <1>   0.0800 
 25 H       -3.8110     3.4150     0.5350 H     1 <1>   0.0800 
 26 H       -4.1000     2.1680     1.7110 H     1 <1>   0.0800 
 27 H        2.0870     2.3800    -3.0280 H     1 <1>   0.0800 
 28 H        2.8350     3.9390    -2.7880 H     1 <1>   0.0800 
 29 H        1.2450     3.6400    -2.1550 H     1 <1>   0.0800 
 30 H        4.2510     1.3740    -1.9810 H     1 <1>   0.0800 
 31 H        4.7230     1.8790    -0.3760 H     1 <1>   0.0800 
 32 H        4.8580     2.9900    -1.7120 H     1 <1>   0.0800 
 33 H       -4.6920     3.2360    -1.7240 H     1 <1>   0.1500 
 34 H       -5.1110    -0.0110     1.0100 H     1 <1>   0.1500 
 35 H       -6.2850     2.1600    -3.2430 H     1 <1>   0.1500 
 36 H       -6.7050    -1.0830    -0.5140 H     1 <1>   0.1500 
 37 H       -7.2960    -0.0010    -2.6430 H     1 <1>   0.1500 
@<TRIPOS>BOND
  1   1   2  2   
  2   2   3  am  
  3   2   4  1   
  4   3   5  1   
  5   3  17  1   
  6   4   6  1   
  7   4  18  1   
  8   4  19  1   
  9   5   7  1   
 10   5  20  1   
 11   5  21  1   
 12   6   8  1   
 13   6  22  1   
 14   6  23  1   
 15   7   9  1   
 16   7  10  1   
 17   7  24  1   
 18   8  11  1   
 19   8  25  1   
 20   8  26  1   
 21   9  27  1   
 22   9  28  1   
 23   9  29  1   
 24  10  30  1   
 25  10  31  1   
 26  10  32  1   
 27  11  12  ar  
 28  11  13  ar  
 29  12  14  ar  
 30  12  33  1   
 31  13  15  ar  
 32  13  34  1   
 33  14  16  ar  
 34  14  35  1   
 35  15  16  ar  
 36  15  36  1   
 37  16  37  1   
@<TRIPOS>SUBSTRUCTURE
  1 ****   6 GROUP 4 **** **** 0

# MOE 2024.06 (io_trps.svl 2023.06)
