@<TRIPOS>MOLECULE
NONAME
47 49 1 0 0 
SMALL
USER_CHARGES


@<TRIPOS>ATOM
  1 O        1.5500    -1.5910     0.0810 O.2   1 <1>  -0.5700 
  2 C        1.0450    -2.5530    -0.4620 C.2   1 <1>   0.7060 
  3 O       -0.2030    -2.8700    -0.1010 O.3   1 <1>  -0.2320 
  4 C        1.6970    -3.3740    -1.4380 C.2   1 <1>   0.0290 
  5 C       -0.8960    -3.9150    -0.6180 C.ar  1 <1>   0.0830 
  6 C        3.0410    -3.0260    -1.7910 C.2   1 <1>   0.6160 
  7 C        1.0320    -4.4230    -1.9920 C.2   1 <1>  -0.1780 
  8 C       -2.1950    -4.1700    -0.1760 C.ar  1 <1>   0.0830 
  9 C       -0.2990    -4.7260    -1.5890 C.ar  1 <1>   0.0280 
 10 O        3.2240    -2.3720    -2.8010 O.2   1 <1>  -0.5700 
 11 N        4.1260    -3.4750    -1.0640 N.am  1 <1>  -0.6600 
 12 O       -2.7100    -3.3450     0.7760 O.3   1 <1>  -0.3630 
 13 C       -2.9010    -5.2390    -0.7150 C.ar  1 <1>  -0.1500 
 14 C       -1.0300    -5.7910    -2.1140 C.ar  1 <1>  -0.1500 
 15 C        5.5050    -3.0340    -1.4160 C.3   1 <1>   0.1400 
 16 C        4.0360    -4.5860    -0.0780 C.3   1 <1>   0.1400 
 17 C       -4.0200    -3.5030     1.2670 C.3   1 <1>   0.1200 
 18 C       -2.3150    -6.0440    -1.6820 C.ar  1 <1>  -0.1500 
 19 C        5.7730    -1.6000    -0.9450 C.3   1 <1>  -0.1600 
 20 C        3.8270    -4.0850     1.3550 C.3   1 <1>  -0.1600 
 21 C       -4.2670    -2.4090     2.3010 C.3   1 <1>  -0.2400 
 22 C        6.1540    -1.4530     0.5360 C.3   1 <1>  -0.1600 
 23 C        5.0040    -3.2920     1.9450 C.3   1 <1>  -0.1600 
 24 C        5.0370    -1.8080     1.5300 C.3   1 <1>  -0.1600 
 25 H        1.4900    -5.0420    -2.7430 H     1 <1>   0.1500 
 26 H       -3.9020    -5.4670    -0.4020 H     1 <1>   0.1500 
 27 H       -0.5840    -6.4190    -2.8650 H     1 <1>   0.1500 
 28 H        5.6100    -3.0700    -2.4870 H     1 <1>   0.0800 
 29 H        6.2390    -3.6980    -0.9960 H     1 <1>   0.0800 
 30 H        4.9300    -5.1830    -0.1220 H     1 <1>   0.0800 
 31 H        3.2170    -5.2320    -0.3430 H     1 <1>   0.0800 
 32 H       -4.1000    -4.4770     1.7180 H     1 <1>   0.0800 
 33 H       -4.7070    -3.4100     0.4440 H     1 <1>   0.0800 
 34 H       -2.8710    -6.8690    -2.0950 H     1 <1>   0.1500 
 35 H        4.9240    -0.9780    -1.1730 H     1 <1>   0.0800 
 36 H        6.5960    -1.2230    -1.5260 H     1 <1>   0.0800 
 37 H        3.6850    -4.9560     1.9700 H     1 <1>   0.0800 
 38 H        2.9210    -3.5120     1.4240 H     1 <1>   0.0800 
 39 H       -3.5630    -2.4990     3.1090 H     1 <1>   0.0800 
 40 H       -5.2610    -2.5000     2.6990 H     1 <1>   0.0800 
 41 H       -4.1650    -1.4410     1.8440 H     1 <1>   0.0800 
 42 H        6.4040    -0.4170     0.6920 H     1 <1>   0.0800 
 43 H        7.0430    -2.0200     0.7500 H     1 <1>   0.0800 
 44 H        5.9350    -3.7810     1.7200 H     1 <1>   0.0800 
 45 H        4.8930    -3.3180     3.0160 H     1 <1>   0.0800 
 46 H        4.0820    -1.4880     1.1470 H     1 <1>   0.0800 
 47 H        5.2130    -1.2320     2.4220 H     1 <1>   0.0800 
@<TRIPOS>BOND
  1   1   2  2   
  2   2   3  1   
  3   2   4  1   
  4   3   5  1   
  5   4   6  1   
  6   4   7  2   
  7   5   8  ar  
  8   5   9  ar  
  9   6  10  2   
 10   6  11  am  
 11   7   9  1   
 12   7  25  1   
 13   8  12  1   
 14   8  13  ar  
 15   9  14  ar  
 16  11  15  1   
 17  11  16  1   
 18  12  17  1   
 19  13  18  ar  
 20  13  26  1   
 21  14  18  ar  
 22  14  27  1   
 23  15  19  1   
 24  15  28  1   
 25  15  29  1   
 26  16  20  1   
 27  16  30  1   
 28  16  31  1   
 29  17  21  1   
 30  17  32  1   
 31  17  33  1   
 32  18  34  1   
 33  19  22  1   
 34  19  35  1   
 35  19  36  1   
 36  20  23  1   
 37  20  37  1   
 38  20  38  1   
 39  21  39  1   
 40  21  40  1   
 41  21  41  1   
 42  22  24  1   
 43  22  42  1   
 44  22  43  1   
 45  23  24  1   
 46  23  44  1   
 47  23  45  1   
 48  24  46  1   
 49  24  47  1   
@<TRIPOS>SUBSTRUCTURE
  1 ****   2 GROUP 4 **** **** 0

# MOE 2024.06 (io_trps.svl 2023.06)
