@<TRIPOS>MOLECULE
NONAME
49 50 1 0 0 
SMALL
USER_CHARGES


@<TRIPOS>ATOM
  1 S        0.0820     0.0670     0.1270 S.o2  1 <1>   1.3330 
  2 O       -1.2720     0.4960     0.3950 O.2   1 <1>  -0.6500 
  3 O        1.0300     0.0720     1.2170 O.2   1 <1>  -0.6500 
  4 N        0.0520    -1.4960    -0.5380 N.am  1 <1>  -0.8490 
  5 C        0.6800     1.0980    -1.1970 C.3   1 <1>  -0.1350 
  6 C       -1.2020    -2.2250    -0.2560 C.3   1 <1>   0.2760 
  7 C        1.3360    -2.2410    -0.3590 C.3   1 <1>   0.2570 
  8 C       -1.0570    -3.7560    -0.1150 C.3   1 <1>  -0.1600 
  9 C       -2.1920    -1.9180    -1.3930 C.3   1 <1>  -0.1600 
 10 C        2.6110    -1.5610    -0.9010 C.2   1 <1>   0.5690 
 11 C       -2.4140    -4.4270     0.1420 C.3   1 <1>  -0.1600 
 12 C       -3.5560    -2.5850    -1.1600 C.3   1 <1>  -0.1600 
 13 O        2.6370    -1.3230    -2.0890 O.2   1 <1>  -0.5700 
 14 N        3.6910    -1.2610    -0.1030 N.am  1 <1>  -0.6600 
 15 C       -3.4100    -4.1000    -0.9770 C.3   1 <1>  -0.1600 
 16 C        4.9490    -0.7300    -0.7020 C.3   1 <1>   0.2840 
 17 C        3.7810    -1.4940     1.3700 C.3   1 <1>   0.0600 
 18 C        6.0470    -1.7790    -0.6030 C.ar  1 <1>  -0.1440 
 19 C        7.0830    -1.6410     0.3100 C.ar  1 <1>  -0.1500 
 20 C        6.0140    -2.8900    -1.4310 C.ar  1 <1>  -0.1500 
 21 C        8.0720    -2.6050     0.3930 C.ar  1 <1>  -0.1500 
 22 C        7.0040    -3.8540    -1.3490 C.ar  1 <1>  -0.1500 
 23 C        8.0330    -3.7120    -0.4360 C.ar  1 <1>  -0.1500 
 24 H        1.7080     0.8910    -1.4120 H     1 <1>   0.0800 
 25 H        0.5970     2.1290    -0.9200 H     1 <1>   0.0800 
 26 H        0.1000     0.9310    -2.0830 H     1 <1>   0.0800 
 27 H       -1.6180    -1.8700     0.6740 H     1 <1>   0.0800 
 28 H        1.2790    -3.1630    -0.9030 H     1 <1>   0.0800 
 29 H        1.4530    -2.4900     0.6770 H     1 <1>   0.0800 
 30 H       -0.4100    -3.9900     0.7110 H     1 <1>   0.0800 
 31 H       -0.6460    -4.1680    -1.0200 H     1 <1>   0.0800 
 32 H       -1.7800    -2.2690    -2.3220 H     1 <1>   0.0800 
 33 H       -2.3440    -0.8580    -1.4770 H     1 <1>   0.0800 
 34 H       -2.8110    -4.0870     1.0830 H     1 <1>   0.0800 
 35 H       -2.2840    -5.4940     0.2050 H     1 <1>   0.0800 
 36 H       -4.2020    -2.3840    -1.9970 H     1 <1>   0.0800 
 37 H       -4.0120    -2.1600    -0.2820 H     1 <1>   0.0800 
 38 H       -4.3700    -4.5290    -0.7440 H     1 <1>   0.0800 
 39 H       -3.0690    -4.5390    -1.8990 H     1 <1>   0.0800 
 40 H        5.2400     0.1650    -0.1810 H     1 <1>   0.0800 
 41 H        4.8060    -0.4680    -1.7360 H     1 <1>   0.0800 
 42 H        2.8130    -1.5060     1.8350 H     1 <1>   0.0800 
 43 H        4.3490    -0.7040     1.8300 H     1 <1>   0.0800 
 44 H        4.2760    -2.4310     1.5580 H     1 <1>   0.0800 
 45 H        7.1240    -0.7850     0.9600 H     1 <1>   0.1500 
 46 H        5.2120    -3.0040    -2.1410 H     1 <1>   0.1500 
 47 H        8.8740    -2.4940     1.1030 H     1 <1>   0.1500 
 48 H        6.9720    -4.7140    -1.9960 H     1 <1>   0.1500 
 49 H        8.8030    -4.4610    -0.3720 H     1 <1>   0.1500 
@<TRIPOS>BOND
  1   1   2  2   
  2   1   3  2   
  3   1   4  am  
  4   1   5  1   
  5   4   6  1   
  6   4   7  1   
  7   5  24  1   
  8   5  25  1   
  9   5  26  1   
 10   6   8  1   
 11   6   9  1   
 12   6  27  1   
 13   7  10  1   
 14   7  28  1   
 15   7  29  1   
 16   8  11  1   
 17   8  30  1   
 18   8  31  1   
 19   9  12  1   
 20   9  32  1   
 21   9  33  1   
 22  10  13  2   
 23  10  14  am  
 24  11  15  1   
 25  11  34  1   
 26  11  35  1   
 27  12  15  1   
 28  12  36  1   
 29  12  37  1   
 30  14  16  1   
 31  14  17  1   
 32  15  38  1   
 33  15  39  1   
 34  16  18  1   
 35  16  40  1   
 36  16  41  1   
 37  17  42  1   
 38  17  43  1   
 39  17  44  1   
 40  18  19  ar  
 41  18  20  ar  
 42  19  21  ar  
 43  19  45  1   
 44  20  22  ar  
 45  20  46  1   
 46  21  23  ar  
 47  21  47  1   
 48  22  23  ar  
 49  22  48  1   
 50  23  49  1   
@<TRIPOS>SUBSTRUCTURE
  1 ****  10 GROUP 4 **** **** 0

# MOE 2024.06 (io_trps.svl 2023.06)
