@<TRIPOS>MOLECULE
NONAME
46 46 1 0 0 
SMALL
USER_CHARGES


@<TRIPOS>ATOM
  1 CL       0.1880    -0.6330     1.5600 Cl    1 <1>  -0.1770 
  2 C        1.6840    -1.0150     0.7450 C.ar  1 <1>   0.1770 
  3 C        1.7060    -1.7700    -0.4180 C.ar  1 <1>  -0.0090 
  4 C        2.8450    -0.5340     1.3180 C.ar  1 <1>  -0.1500 
  5 S        0.1880    -2.4180    -1.1600 S.o2  1 <1>   1.4470 
  6 C        2.9490    -2.0280    -0.9890 C.ar  1 <1>  -0.1500 
  7 C        4.0650    -0.8120     0.7290 C.ar  1 <1>  -0.1500 
  8 O        0.5330    -3.2330    -2.3050 O.2   1 <1>  -0.6500 
  9 O       -0.7640    -1.3450    -1.3450 O.2   1 <1>  -0.6500 
 10 N       -0.4010    -3.4920     0.0160 N.am  1 <1>  -0.8490 
 11 C        4.1400    -1.5700    -0.4320 C.ar  1 <1>  -0.0090 
 12 C       -1.8400    -3.7320    -0.1230 C.3   1 <1>   0.1960 
 13 C        0.3640    -4.7370     0.0710 C.3   1 <1>   0.1960 
 14 S        5.7470    -1.9410    -1.1980 S.o2  1 <1>   1.4470 
 15 C       -2.5850    -2.8510     0.8730 C.3   1 <1>  -0.2400 
 16 C        0.2500    -5.3510     1.4640 C.3   1 <1>  -0.2400 
 17 O        5.6100    -3.0500    -2.1180 O.2   1 <1>  -0.6500 
 18 O        6.2820    -0.6900    -1.6880 O.2   1 <1>  -0.6500 
 19 N        6.7030    -2.4660     0.1130 N.am  1 <1>  -0.8490 
 20 C        6.5790    -3.9070     0.3950 C.3   1 <1>   0.1960 
 21 C        8.1140    -2.0810    -0.0410 C.3   1 <1>   0.1960 
 22 C        5.2090    -4.2510     0.9770 C.3   1 <1>  -0.2400 
 23 C        8.8290    -2.0620     1.3110 C.3   1 <1>  -0.2400 
 24 H        2.7920     0.0530     2.2180 H     1 <1>   0.1500 
 25 H        2.9970    -2.6100    -1.8970 H     1 <1>   0.1500 
 26 H        4.9740    -0.4390     1.1740 H     1 <1>   0.1500 
 27 H       -2.0820    -4.7600     0.0870 H     1 <1>   0.0800 
 28 H       -2.1700    -3.5220    -1.1290 H     1 <1>   0.0800 
 29 H        1.4060    -4.5350    -0.1170 H     1 <1>   0.0800 
 30 H        0.0210    -5.4240    -0.6870 H     1 <1>   0.0800 
 31 H       -2.2490    -3.0560     1.8740 H     1 <1>   0.0800 
 32 H       -3.6390    -3.0500     0.8160 H     1 <1>   0.0800 
 33 H       -2.4270    -1.8110     0.6510 H     1 <1>   0.0800 
 34 H        0.5800    -4.6450     2.2050 H     1 <1>   0.0800 
 35 H        0.8720    -6.2250     1.5240 H     1 <1>   0.0800 
 36 H       -0.7610    -5.6430     1.6800 H     1 <1>   0.0800 
 37 H        7.3090    -4.2030     1.1260 H     1 <1>   0.0800 
 38 H        6.7660    -4.4860    -0.4960 H     1 <1>   0.0800 
 39 H        8.1880    -1.0810    -0.4340 H     1 <1>   0.0800 
 40 H        8.6120    -2.7420    -0.7330 H     1 <1>   0.0800 
 41 H        4.9680    -3.5870     1.7880 H     1 <1>   0.0800 
 42 H        5.2320    -5.2560     1.3580 H     1 <1>   0.0800 
 43 H        4.4470    -4.2100     0.2220 H     1 <1>   0.0800 
 44 H        8.2640    -1.4830     2.0200 H     1 <1>   0.0800 
 45 H        9.7930    -1.6010     1.1920 H     1 <1>   0.0800 
 46 H        8.9880    -3.0510     1.6950 H     1 <1>   0.0800 
@<TRIPOS>BOND
  1   1   2  1   
  2   2   3  ar  
  3   2   4  ar  
  4   3   5  1   
  5   3   6  ar  
  6   4   7  ar  
  7   4  24  1   
  8   5   8  2   
  9   5   9  2   
 10   5  10  am  
 11   6  11  ar  
 12   6  25  1   
 13   7  11  ar  
 14   7  26  1   
 15  10  12  1   
 16  10  13  1   
 17  11  14  1   
 18  12  15  1   
 19  12  27  1   
 20  12  28  1   
 21  13  16  1   
 22  13  29  1   
 23  13  30  1   
 24  14  17  2   
 25  14  18  2   
 26  14  19  am  
 27  15  31  1   
 28  15  32  1   
 29  15  33  1   
 30  16  34  1   
 31  16  35  1   
 32  16  36  1   
 33  19  20  1   
 34  19  21  1   
 35  20  22  1   
 36  20  37  1   
 37  20  38  1   
 38  21  23  1   
 39  21  39  1   
 40  21  40  1   
 41  22  41  1   
 42  22  42  1   
 43  22  43  1   
 44  23  44  1   
 45  23  45  1   
 46  23  46  1   
@<TRIPOS>SUBSTRUCTURE
  1 ****   6 GROUP 4 **** **** 0

# MOE 2024.06 (io_trps.svl 2023.06)
