@<TRIPOS>MOLECULE
NONAME
35 34 1 0 0 
SMALL
USER_CHARGES


@<TRIPOS>ATOM
  1 O        0.9610    -1.9370    -2.1940 O.2   1 <1>  -0.5700 
  2 C        0.3700    -1.7150    -1.1400 C.2   1 <1>   0.5690 
  3 N        0.8090    -0.8080    -0.2660 N.am  1 <1>  -0.7300 
  4 C       -0.9580    -2.4400    -0.7980 C.3   1 <1>   0.2810 
  5 C        1.9160     0.1480    -0.4190 C.3   1 <1>   0.0340 
  6 N       -1.9050    -1.5610    -0.0880 N.am  1 <1>  -0.7300 
  7 C       -0.7580    -3.7080     0.0620 C.3   1 <1>  -0.1600 
  8 C        1.8780     1.2150     0.6950 C.2   1 <1>   0.9060 
  9 C       -3.2290    -1.7100    -0.1180 C.2   1 <1>   0.5690 
 10 C        0.3130    -4.7030    -0.4420 C.3   1 <1>  -0.0800 
 11 O        2.7920     2.0650     0.7160 O.co2 1 <1>  -0.9000 
 12 O        0.9160     1.1380     1.5030 O.co2 1 <1>  -0.9000 
 13 O       -3.7570    -2.6470    -0.7120 O.2   1 <1>  -0.5700 
 14 C       -4.0840    -0.6560     0.6260 C.3   1 <1>   0.1710 
 15 C       -0.0940    -6.1360    -0.0670 C.3   1 <1>  -0.2400 
 16 C        1.6990    -4.4340     0.1670 C.3   1 <1>  -0.2400 
 17 N       -5.5430    -0.9020     0.5950 N.3   1 <1>  -0.9900 
 18 H        0.3240    -0.6560     0.6120 H     1 <1>   0.3700 
 19 H       -1.3970    -2.7430    -1.7500 H     1 <1>   0.0800 
 20 H        1.8460     0.6600    -1.3770 H     1 <1>   0.0800 
 21 H        2.8720    -0.3680    -0.3580 H     1 <1>   0.0800 
 22 H       -1.5150    -0.7480     0.3660 H     1 <1>   0.3700 
 23 H       -1.7230    -4.2160     0.0960 H     1 <1>   0.0800 
 24 H       -0.5140    -3.4110     1.0830 H     1 <1>   0.0800 
 25 H        0.3820    -4.6430    -1.5320 H     1 <1>   0.0800 
 26 H       -3.8800     0.3190     0.1820 H     1 <1>   0.0800 
 27 H       -3.7530    -0.6240     1.6650 H     1 <1>   0.0800 
 28 H       -0.1880    -6.2300     1.0160 H     1 <1>   0.0800 
 29 H        0.6570    -6.8420    -0.4230 H     1 <1>   0.0800 
 30 H       -1.0480    -6.3860    -0.5320 H     1 <1>   0.0800 
 31 H        1.6560    -4.4990     1.2550 H     1 <1>   0.0800 
 32 H        2.0600    -3.4450    -0.1110 H     1 <1>   0.0800 
 33 H        2.4150    -5.1670    -0.2040 H     1 <1>   0.0800 
 34 H       -5.7020    -1.8230     0.9850 H     1 <1>   0.3600 
 35 H       -5.8130    -0.9700    -0.3790 H     1 <1>   0.3600 
@<TRIPOS>BOND
  1   1   2  2   
  2   2   3  am  
  3   2   4  1   
  4   3   5  1   
  5   3  18  1   
  6   4   6  1   
  7   4   7  1   
  8   4  19  1   
  9   5   8  1   
 10   5  20  1   
 11   5  21  1   
 12   6   9  am  
 13   6  22  1   
 14   7  10  1   
 15   7  23  1   
 16   7  24  1   
 17   8  11  ar  
 18   8  12  ar  
 19   9  13  2   
 20   9  14  1   
 21  10  15  1   
 22  10  16  1   
 23  10  25  1   
 24  14  17  1   
 25  14  26  1   
 26  14  27  1   
 27  15  28  1   
 28  15  29  1   
 29  15  30  1   
 30  16  31  1   
 31  16  32  1   
 32  16  33  1   
 33  17  34  1   
 34  17  35  1   
@<TRIPOS>SUBSTRUCTURE
  1 ****   4 GROUP 4 **** **** 0

# MOE 2024.06 (io_trps.svl 2023.06)
