@<TRIPOS>MOLECULE
NONAME
55 57 1 0 0 
SMALL
USER_CHARGES


@<TRIPOS>ATOM
  1 O       -2.6500     0.1520     1.0480 O.3   1 <1>  -0.3630 
  2 C       -2.2030     1.3990     1.3580 C.ar  1 <1>   0.0830 
  3 C       -2.1230    -1.0120     1.6490 C.3   1 <1>   0.0400 
  4 C       -2.7660     2.4880     0.6740 C.ar  1 <1>   0.0280 
  5 C       -1.2140     1.6060     2.3180 C.ar  1 <1>  -0.1500 
  6 C       -2.3030     3.7650     0.9920 C.ar  1 <1>  -0.1500 
  7 C       -3.7970     2.3010    -0.3290 C.2   1 <1>  -0.1780 
  8 C       -0.7750     2.8830     2.6090 C.ar  1 <1>  -0.1500 
  9 C       -1.3220     3.9640     1.9440 C.ar  1 <1>  -0.1500 
 10 C       -4.2180     3.1660    -1.2690 C.2   1 <1>  -0.2880 
 11 C       -5.3010     2.8580    -2.2720 C.3   1 <1>   0.4810 
 12 N       -6.5280     3.5490    -1.8290 N.4   1 <1>  -0.9590 
 13 C       -7.7770     3.0210    -2.4660 C.3   1 <1>   0.3430 
 14 C       -6.4740     5.0470    -1.9010 C.3   1 <1>   0.3430 
 15 C       -9.0400     3.6630    -1.8410 C.3   1 <1>   0.1100 
 16 C       -7.7740     5.6890    -1.3540 C.3   1 <1>   0.1100 
 17 N       -8.7120     4.6810    -0.8100 N.3   1 <1>  -0.8100 
 18 C       -9.9170     5.3070    -0.2460 C.3   1 <1>   0.2480 
 19 C      -10.7120     4.2500     0.4880 C.2   1 <1>  -0.2880 
 20 C      -11.9700     3.8810     0.1890 C.2   1 <1>  -0.1780 
 21 C      -12.7850     2.8710     0.8300 C.ar  1 <1>   0.0280 
 22 C      -14.0610     2.5960     0.3440 C.ar  1 <1>  -0.1500 
 23 C      -12.3470     2.1420     1.9340 C.ar  1 <1>  -0.1500 
 24 C      -14.8640     1.6320     0.9270 C.ar  1 <1>  -0.1500 
 25 C      -13.1440     1.1770     2.5220 C.ar  1 <1>  -0.1500 
 26 C      -14.4060     0.9190     2.0190 C.ar  1 <1>  -0.1500 
 27 H       -2.6270    -1.8630     1.2280 H     1 <1>   0.0800 
 28 H       -2.3010    -0.9700     2.7090 H     1 <1>   0.0800 
 29 H       -1.0700    -1.0690     1.4350 H     1 <1>   0.0800 
 30 H       -0.7700     0.7880     2.8510 H     1 <1>   0.1500 
 31 H       -2.7120     4.6240     0.4990 H     1 <1>   0.1500 
 32 H       -4.2550     1.3270    -0.2800 H     1 <1>   0.1500 
 33 H       -0.0100     3.0370     3.3510 H     1 <1>   0.1500 
 34 H       -0.9810     4.9600     2.1720 H     1 <1>   0.1500 
 35 H       -3.8000     4.1490    -1.3870 H     1 <1>   0.1500 
 36 H       -5.4710     1.7940    -2.2870 H     1 <1>   0.0800 
 37 H       -5.0100     3.1760    -3.2600 H     1 <1>   0.0800 
 38 H       -6.6550     3.3550    -0.8230 H     1 <1>   0.4500 
 39 H       -7.7660     3.2240    -3.5240 H     1 <1>   0.0800 
 40 H       -7.8330     1.9520    -2.3370 H     1 <1>   0.0800 
 41 H       -5.6430     5.4080    -1.3200 H     1 <1>   0.0800 
 42 H       -6.3250     5.3640    -2.9200 H     1 <1>   0.0800 
 43 H       -9.6310     2.8780    -1.3990 H     1 <1>   0.0800 
 44 H       -9.6330     4.1070    -2.6220 H     1 <1>   0.0800 
 45 H       -8.2530     6.2460    -2.1430 H     1 <1>   0.0800 
 46 H       -7.5120     6.3890    -0.5780 H     1 <1>   0.0800 
 47 H       -9.6360     6.0770     0.4530 H     1 <1>   0.0800 
 48 H      -10.5090     5.7540    -1.0270 H     1 <1>   0.0800 
 49 H      -10.1430     3.8160     1.2900 H     1 <1>   0.1500 
 50 H      -12.4720     4.3690    -0.6280 H     1 <1>   0.1500 
 51 H      -14.4350     3.1400    -0.5040 H     1 <1>   0.1500 
 52 H      -11.3730     2.3250     2.3450 H     1 <1>   0.1500 
 53 H      -15.8460     1.4370     0.5330 H     1 <1>   0.1500 
 54 H      -12.7820     0.6260     3.3730 H     1 <1>   0.1500 
 55 H      -15.0270     0.1680     2.4760 H     1 <1>   0.1500 
@<TRIPOS>BOND
  1   1   2  1   
  2   1   3  1   
  3   2   4  ar  
  4   2   5  ar  
  5   3  27  1   
  6   3  28  1   
  7   3  29  1   
  8   4   6  ar  
  9   4   7  1   
 10   5   8  ar  
 11   5  30  1   
 12   6   9  ar  
 13   6  31  1   
 14   7  10  2   
 15   7  32  1   
 16   8   9  ar  
 17   8  33  1   
 18   9  34  1   
 19  10  11  1   
 20  10  35  1   
 21  11  12  1   
 22  11  36  1   
 23  11  37  1   
 24  12  13  1   
 25  12  14  1   
 26  12  38  1   
 27  13  15  1   
 28  13  39  1   
 29  13  40  1   
 30  14  16  1   
 31  14  41  1   
 32  14  42  1   
 33  15  17  1   
 34  15  43  1   
 35  15  44  1   
 36  16  17  1   
 37  16  45  1   
 38  16  46  1   
 39  17  18  1   
 40  18  19  1   
 41  18  47  1   
 42  18  48  1   
 43  19  20  2   
 44  19  49  1   
 45  20  21  1   
 46  20  50  1   
 47  21  22  ar  
 48  21  23  ar  
 49  22  24  ar  
 50  22  51  1   
 51  23  25  ar  
 52  23  52  1   
 53  24  26  ar  
 54  24  53  1   
 55  25  26  ar  
 56  25  54  1   
 57  26  55  1   
@<TRIPOS>SUBSTRUCTURE
  1 ****  12 GROUP 4 **** **** 0

# MOE 2024.06 (io_trps.svl 2023.06)
