@<TRIPOS>MOLECULE
NONAME
47 48 1 0 0 
SMALL
USER_CHARGES


@<TRIPOS>ATOM
  1 O        0.0250    -0.5730     1.1630 O.2   1 <1>  -0.5700 
  2 C        0.0510    -1.5320     0.4290 C.2   1 <1>   0.5690 
  3 N        1.1490    -1.8480    -0.3290 N.am  1 <1>  -0.5470 
  4 C       -1.2080    -2.4340     0.3390 C.3   1 <1>   0.0610 
  5 C        2.4090    -1.2410    -0.4470 C.ar  1 <1>   0.1170 
  6 C       -2.4200    -1.5960    -0.1110 C.3   1 <1>  -0.2400 
  7 C       -1.0500    -3.6050    -0.6580 C.3   1 <1>  -0.2400 
  8 C       -1.5160    -3.0350     1.7230 C.3   1 <1>  -0.2400 
  9 C        3.1860    -1.5300    -1.5620 C.ar  1 <1>  -0.1500 
 10 C        2.9280    -0.3680     0.5030 C.ar  1 <1>  -0.1500 
 11 C        4.4390    -0.9670    -1.7280 C.ar  1 <1>  -0.1500 
 12 C        4.1770     0.2020     0.3430 C.ar  1 <1>  -0.1500 
 13 C        4.9450    -0.0970    -0.7720 C.ar  1 <1>  -0.1430 
 14 C        6.3210     0.5170    -0.9390 C.3   1 <1>   0.4860 
 15 N        7.2430    -0.1080     0.0470 N.4   1 <1>  -0.9590 
 16 C        8.5400     0.6220     0.1230 C.3   1 <1>   0.3430 
 17 C        7.4290    -1.5660    -0.2190 C.3   1 <1>   0.3430 
 18 C        9.3950     0.0360     1.2480 C.3   1 <1>  -0.1600 
 19 C        8.2670    -2.1910     0.8980 C.3   1 <1>  -0.1600 
 20 C        9.6110    -1.4730     1.0730 C.3   1 <1>  -0.1600 
 21 H        0.9990    -2.6440    -0.9450 H     1 <1>   0.3700 
 22 H       -2.2370    -1.1620    -1.0780 H     1 <1>   0.0800 
 23 H       -2.5980    -0.7960     0.5860 H     1 <1>   0.0800 
 24 H       -3.3080    -2.2000    -0.1670 H     1 <1>   0.0800 
 25 H       -0.8720    -3.2370    -1.6540 H     1 <1>   0.0800 
 26 H       -1.9470    -4.1990    -0.6820 H     1 <1>   0.0800 
 27 H       -0.2370    -4.2480    -0.3680 H     1 <1>   0.0800 
 28 H       -0.6880    -3.6310     2.0660 H     1 <1>   0.0800 
 29 H       -1.6820    -2.2500     2.4410 H     1 <1>   0.0800 
 30 H       -2.3950    -3.6540     1.6890 H     1 <1>   0.0800 
 31 H        2.8040    -2.1990    -2.3130 H     1 <1>   0.1500 
 32 H        2.3550    -0.1260     1.3800 H     1 <1>   0.1500 
 33 H        5.0060    -1.2110    -2.6100 H     1 <1>   0.1500 
 34 H        4.5290     0.8830     1.0990 H     1 <1>   0.1500 
 35 H        6.2550     1.5790    -0.7640 H     1 <1>   0.0800 
 36 H        6.6800     0.3570    -1.9420 H     1 <1>   0.0800 
 37 H        6.7820    -0.0400     0.9620 H     1 <1>   0.4500 
 38 H        8.3670     1.6690     0.3140 H     1 <1>   0.0800 
 39 H        9.0680     0.5280    -0.8130 H     1 <1>   0.0800 
 40 H        7.9280    -1.7060    -1.1640 H     1 <1>   0.0800 
 41 H        6.4710    -2.0610    -0.2630 H     1 <1>   0.0800 
 42 H        8.9220     0.2310     2.1960 H     1 <1>   0.0800 
 43 H       10.3500     0.5330     1.2600 H     1 <1>   0.0800 
 44 H        8.4440    -3.2270     0.6660 H     1 <1>   0.0800 
 45 H        7.7110    -2.1600     1.8190 H     1 <1>   0.0800 
 46 H       10.1300    -1.8710     1.9300 H     1 <1>   0.0800 
 47 H       10.2280    -1.6490     0.2070 H     1 <1>   0.0800 
@<TRIPOS>BOND
  1   1   2  2   
  2   2   3  am  
  3   2   4  1   
  4   3   5  1   
  5   3  21  1   
  6   4   6  1   
  7   4   7  1   
  8   4   8  1   
  9   5   9  ar  
 10   5  10  ar  
 11   6  22  1   
 12   6  23  1   
 13   6  24  1   
 14   7  25  1   
 15   7  26  1   
 16   7  27  1   
 17   8  28  1   
 18   8  29  1   
 19   8  30  1   
 20   9  11  ar  
 21   9  31  1   
 22  10  12  ar  
 23  10  32  1   
 24  11  13  ar  
 25  11  33  1   
 26  12  13  ar  
 27  12  34  1   
 28  13  14  1   
 29  14  15  1   
 30  14  35  1   
 31  14  36  1   
 32  15  16  1   
 33  15  17  1   
 34  15  37  1   
 35  16  18  1   
 36  16  38  1   
 37  16  39  1   
 38  17  19  1   
 39  17  40  1   
 40  17  41  1   
 41  18  20  1   
 42  18  42  1   
 43  18  43  1   
 44  19  20  1   
 45  19  44  1   
 46  19  45  1   
 47  20  46  1   
 48  20  47  1   
@<TRIPOS>SUBSTRUCTURE
  1 ****  10 GROUP 4 **** **** 0

# MOE 2024.06 (io_trps.svl 2023.06)
