@<TRIPOS>MOLECULE
NONAME
33 34 1 0 0 
SMALL
USER_CHARGES


@<TRIPOS>ATOM
  1 O        4.0840    -6.3010     0.1580 O.3   1 <1>  -0.3630 
  2 C        2.9410    -5.5770     0.1940 C.ar  1 <1>   0.0830 
  3 C        5.1490    -5.9620    -0.7000 C.3   1 <1>   0.2580 
  4 C        2.0090    -5.9370     1.1530 C.ar  1 <1>  -0.1500 
  5 C        2.6630    -4.5140    -0.6600 C.ar  1 <1>  -0.1500 
  6 C        6.2860    -6.9320    -0.4450 C.2   1 <1>  -0.2880 
  7 C        0.8120    -5.2540     1.2650 C.ar  1 <1>  -0.1500 
  8 C        1.4650    -3.8300    -0.5500 C.ar  1 <1>  -0.1500 
  9 C        7.5280    -6.5960    -0.0850 C.2   1 <1>  -0.3000 
 10 C        0.5310    -4.1990     0.4090 C.ar  1 <1>  -0.1430 
 11 C       -0.7850    -3.4640     0.5190 C.3   1 <1>   0.4860 
 12 N       -1.7500    -4.2040    -0.3160 N.4   1 <1>  -0.7990 
 13 C       -3.1000    -3.6350    -0.2830 C.3   1 <1>   0.2960 
 14 C       -4.0130    -4.0580     0.8160 C.3   1 <1>  -0.2000 
 15 C       -4.2400    -4.5430    -0.5870 C.3   1 <1>  -0.2000 
 16 H        5.4540    -4.9520    -0.4860 H     1 <1>   0.0800 
 17 H        4.8080    -6.0430    -1.7170 H     1 <1>   0.0800 
 18 H        2.2380    -6.7570     1.8130 H     1 <1>   0.1500 
 19 H        3.3680    -4.2080    -1.4120 H     1 <1>   0.1500 
 20 H        5.9790    -7.9550    -0.5850 H     1 <1>   0.1500 
 21 H        0.1170    -5.5590     2.0300 H     1 <1>   0.1500 
 22 H        1.2780    -3.0080    -1.2210 H     1 <1>   0.1500 
 23 H        8.3140    -7.3100     0.0920 H     1 <1>   0.1500 
 24 H        7.8660    -5.5850     0.0680 H     1 <1>   0.1500 
 25 H       -0.6770    -2.4520     0.1660 H     1 <1>   0.0800 
 26 H       -1.1130    -3.4450     1.5460 H     1 <1>   0.0800 
 27 H       -1.7720    -5.1760     0.0100 H     1 <1>   0.4500 
 28 H       -1.3930    -4.2360    -1.2770 H     1 <1>   0.4500 
 29 H       -3.1560    -2.6150    -0.6380 H     1 <1>   0.1000 
 30 H       -4.7200    -3.3500     1.2160 H     1 <1>   0.1000 
 31 H       -3.6910    -4.7730     1.5530 H     1 <1>   0.1000 
 32 H       -4.0670    -5.5830    -0.8030 H     1 <1>   0.1000 
 33 H       -5.0950    -4.1540    -1.1150 H     1 <1>   0.1000 
@<TRIPOS>BOND
  1   1   2  1   
  2   1   3  1   
  3   2   4  ar  
  4   2   5  ar  
  5   3   6  1   
  6   3  16  1   
  7   3  17  1   
  8   4   7  ar  
  9   4  18  1   
 10   5   8  ar  
 11   5  19  1   
 12   6   9  2   
 13   6  20  1   
 14   7  10  ar  
 15   7  21  1   
 16   8  10  ar  
 17   8  22  1   
 18   9  23  1   
 19   9  24  1   
 20  10  11  1   
 21  11  12  1   
 22  11  25  1   
 23  11  26  1   
 24  12  13  1   
 25  12  27  1   
 26  12  28  1   
 27  13  14  1   
 28  13  15  1   
 29  13  29  1   
 30  14  15  1   
 31  14  30  1   
 32  14  31  1   
 33  15  32  1   
 34  15  33  1   
@<TRIPOS>SUBSTRUCTURE
  1 ****  10 GROUP 4 **** **** 0

# MOE 2024.06 (io_trps.svl 2023.06)
