@<TRIPOS>MOLECULE
NONAME
52 54 1 0 0 
SMALL
USER_CHARGES


@<TRIPOS>ATOM
  1 O        1.4700    -0.3970    -0.0300 O.2   1 <1>  -0.5700 
  2 C        1.8240     0.7550    -0.1190 C.2   1 <1>   0.5690 
  3 N        3.1320     0.9850    -0.4220 N.am  1 <1>  -0.5470 
  4 C        0.7920     1.8880     0.1340 C.3   1 <1>   0.0610 
  5 C        3.8670     2.1690    -0.5250 C.ar  1 <1>   0.1170 
  6 C       -0.6510     1.4140    -0.1240 C.3   1 <1>  -0.1600 
  7 C        0.8970     3.0760    -0.8380 C.3   1 <1>  -0.1600 
  8 C        0.9050     2.3860     1.5920 C.3   1 <1>  -0.2400 
  9 C        4.3820     2.7860     0.6050 C.ar  1 <1>  -0.1500 
 10 C        4.1030     2.7420    -1.7670 C.ar  1 <1>  -0.1500 
 11 C       -1.4820     2.6660    -0.4170 C.3   1 <1>  -0.1600 
 12 C       -0.4880     3.7280    -0.8940 C.3   1 <1>  -0.1600 
 13 C        5.0990     3.9630     0.4980 C.ar  1 <1>  -0.1500 
 14 C        4.8190     3.9200    -1.8730 C.ar  1 <1>  -0.1500 
 15 C        5.3220     4.5530    -0.7420 C.ar  1 <1>   0.1170 
 16 N        6.0470     5.7450    -0.9020 N.am  1 <1>  -0.5470 
 17 C        6.2970     6.7720    -0.0300 C.2   1 <1>   0.5690 
 18 O        5.8430     6.8060     1.0890 O.2   1 <1>  -0.5700 
 19 C        7.1650     7.9470    -0.5320 C.3   1 <1>   0.0610 
 20 C        7.9010     8.6710     0.6090 C.3   1 <1>  -0.1600 
 21 C        8.3360     7.4950    -1.4230 C.3   1 <1>  -0.1600 
 22 C        6.2770     8.9510    -1.2980 C.3   1 <1>  -0.2400 
 23 C        9.1240     9.3440    -0.0210 C.3   1 <1>  -0.1600 
 24 C        9.4010     8.5920    -1.3270 C.3   1 <1>  -0.1600 
 25 H        3.6530     0.1190    -0.5600 H     1 <1>   0.3700 
 26 H       -1.0480     0.8470     0.7010 H     1 <1>   0.0800 
 27 H       -0.6640     0.7870    -0.9990 H     1 <1>   0.0800 
 28 H        1.1390     2.7060    -1.8190 H     1 <1>   0.0800 
 29 H        1.6480     3.7870    -0.5410 H     1 <1>   0.0800 
 30 H        0.7840     1.5610     2.2720 H     1 <1>   0.0800 
 31 H        0.1550     3.1220     1.8160 H     1 <1>   0.0800 
 32 H        1.8670     2.8290     1.7660 H     1 <1>   0.0800 
 33 H        4.2220     2.3420     1.5710 H     1 <1>   0.1500 
 34 H        3.7170     2.2630    -2.6490 H     1 <1>   0.1500 
 35 H       -1.9690     3.0020     0.4820 H     1 <1>   0.0800 
 36 H       -2.2310     2.4630    -1.1630 H     1 <1>   0.0800 
 37 H       -0.7160     4.0590    -1.8930 H     1 <1>   0.0800 
 38 H       -0.5220     4.5770    -0.2320 H     1 <1>   0.0800 
 39 H        5.4880     4.4220     1.3890 H     1 <1>   0.1500 
 40 H        4.9840     4.3510    -2.8430 H     1 <1>   0.1500 
 41 H        6.4240     5.8920    -1.8350 H     1 <1>   0.3700 
 42 H        8.2430     7.9420     1.3250 H     1 <1>   0.0800 
 43 H        7.2680     9.3740     1.1220 H     1 <1>   0.0800 
 44 H        8.0410     7.3210    -2.4430 H     1 <1>   0.0800 
 45 H        8.7540     6.5860    -1.0230 H     1 <1>   0.0800 
 46 H        5.8180     8.4780    -2.1470 H     1 <1>   0.0800 
 47 H        6.8450     9.7960    -1.6460 H     1 <1>   0.0800 
 48 H        5.4960     9.3130    -0.6530 H     1 <1>   0.0800 
 49 H        9.9690     9.3010     0.6450 H     1 <1>   0.0800 
 50 H        8.9060    10.3770    -0.2350 H     1 <1>   0.0800 
 51 H        9.3090     9.2700    -2.1590 H     1 <1>   0.0800 
 52 H       10.3910     8.1690    -1.3330 H     1 <1>   0.0800 
@<TRIPOS>BOND
  1   1   2  2   
  2   2   3  am  
  3   2   4  1   
  4   3   5  1   
  5   3  25  1   
  6   4   6  1   
  7   4   7  1   
  8   4   8  1   
  9   5   9  ar  
 10   5  10  ar  
 11   6  11  1   
 12   6  26  1   
 13   6  27  1   
 14   7  12  1   
 15   7  28  1   
 16   7  29  1   
 17   8  30  1   
 18   8  31  1   
 19   8  32  1   
 20   9  13  ar  
 21   9  33  1   
 22  10  14  ar  
 23  10  34  1   
 24  11  12  1   
 25  11  35  1   
 26  11  36  1   
 27  12  37  1   
 28  12  38  1   
 29  13  15  ar  
 30  13  39  1   
 31  14  15  ar  
 32  14  40  1   
 33  15  16  1   
 34  16  17  am  
 35  16  41  1   
 36  17  18  2   
 37  17  19  1   
 38  19  20  1   
 39  19  21  1   
 40  19  22  1   
 41  20  23  1   
 42  20  42  1   
 43  20  43  1   
 44  21  24  1   
 45  21  44  1   
 46  21  45  1   
 47  22  46  1   
 48  22  47  1   
 49  22  48  1   
 50  23  24  1   
 51  23  49  1   
 52  23  50  1   
 53  24  51  1   
 54  24  52  1   
@<TRIPOS>SUBSTRUCTURE
  1 ****  15 GROUP 4 **** **** 0

# MOE 2024.06 (io_trps.svl 2023.06)
