@<TRIPOS>MOLECULE
NONAME
46 47 1 0 0 
SMALL
USER_CHARGES


@<TRIPOS>ATOM
  1 S       -0.0920     0.1030     0.5180 S.o2  1 <1>   1.4470 
  2 O        0.2000    -0.0430     1.9280 O.2   1 <1>  -0.6500 
  3 O        0.9540    -0.2000    -0.4370 O.2   1 <1>  -0.6500 
  4 N       -0.5070     1.7280     0.2730 N.am  1 <1>  -0.8490 
  5 C       -1.6090    -0.8380     0.1300 C.ar  1 <1>  -0.0090 
  6 C        0.4230     2.6530     0.8920 C.3   1 <1>   0.1960 
  7 C       -0.5950     2.1390    -1.1190 C.3   1 <1>   0.1960 
  8 C       -1.5910    -2.2140    -0.1070 C.ar  1 <1>  -0.1440 
  9 C       -2.8400    -0.1940     0.0860 C.ar  1 <1>  -0.1500 
 10 C        0.1130     4.0000     0.2480 C.3   1 <1>  -0.1600 
 11 C       -0.6170     3.6600    -1.0520 C.3   1 <1>  -0.1600 
 12 C       -2.7660    -2.8860    -0.4080 C.ar  1 <1>  -0.1500 
 13 C       -0.2960    -3.0160    -0.0450 C.3   1 <1>  -0.0970 
 14 C       -4.0340    -0.8440    -0.2150 C.ar  1 <1>   0.0860 
 15 C       -3.9680    -2.2110    -0.4670 C.ar  1 <1>  -0.1500 
 16 C       -5.2850    -0.1110    -0.2650 C.2   1 <1>   0.5440 
 17 O       -5.3040     1.0280    -0.6870 O.2   1 <1>  -0.5700 
 18 N       -6.4410    -0.6990     0.1760 N.am  1 <1>  -0.7300 
 19 C       -7.8060    -0.1320     0.2170 C.3   1 <1>   0.2200 
 20 C       -8.2710     0.2450    -1.1990 C.3   1 <1>  -0.1600 
 21 C       -7.8420     1.0350     1.2040 C.3   1 <1>  -0.2400 
 22 C       -9.7720     0.5620    -1.2770 C.3   1 <1>  -0.2400 
 23 H        1.4360     2.3610     0.6640 H     1 <1>   0.0800 
 24 H        0.2890     2.6750     1.9620 H     1 <1>   0.0800 
 25 H       -1.4800     1.7460    -1.5930 H     1 <1>   0.0800 
 26 H        0.2780     1.8180    -1.6640 H     1 <1>   0.0800 
 27 H       -2.8950     0.8620     0.2920 H     1 <1>   0.1500 
 28 H        1.0200     4.5490     0.0700 H     1 <1>   0.0800 
 29 H       -0.5250     4.5760     0.8960 H     1 <1>   0.0800 
 30 H       -1.6370     4.0000    -1.0050 H     1 <1>   0.0800 
 31 H       -0.1410     4.0920    -1.9140 H     1 <1>   0.0800 
 32 H       -2.7490    -3.9450    -0.6030 H     1 <1>   0.1500 
 33 H        0.3390    -2.7610    -0.8750 H     1 <1>   0.0800 
 34 H       -0.4910    -4.0720    -0.0830 H     1 <1>   0.0800 
 35 H        0.2310    -2.8120     0.8710 H     1 <1>   0.0800 
 36 H       -4.8650    -2.7490    -0.7190 H     1 <1>   0.1500 
 37 H       -6.3580    -1.6010     0.6430 H     1 <1>   0.3700 
 38 H       -8.4620    -0.9020     0.5870 H     1 <1>   0.0800 
 39 H       -8.0640    -0.5780    -1.8600 H     1 <1>   0.0800 
 40 H       -7.7170     1.0980    -1.5480 H     1 <1>   0.0800 
 41 H       -7.2640     1.8620     0.8320 H     1 <1>   0.0800 
 42 H       -7.4460     0.7290     2.1560 H     1 <1>   0.0800 
 43 H       -8.8520     1.3680     1.3520 H     1 <1>   0.0800 
 44 H      -10.3540    -0.2680    -0.9150 H     1 <1>   0.0800 
 45 H      -10.0490     0.7530    -2.2990 H     1 <1>   0.0800 
 46 H      -10.0080     1.4360    -0.6970 H     1 <1>   0.0800 
@<TRIPOS>BOND
  1   1   2  2   
  2   1   3  2   
  3   1   4  am  
  4   1   5  1   
  5   4   6  1   
  6   4   7  1   
  7   5   8  ar  
  8   5   9  ar  
  9   6  10  1   
 10   6  23  1   
 11   6  24  1   
 12   7  11  1   
 13   7  25  1   
 14   7  26  1   
 15   8  12  ar  
 16   8  13  1   
 17   9  14  ar  
 18   9  27  1   
 19  10  11  1   
 20  10  28  1   
 21  10  29  1   
 22  11  30  1   
 23  11  31  1   
 24  12  15  ar  
 25  12  32  1   
 26  13  33  1   
 27  13  34  1   
 28  13  35  1   
 29  14  15  ar  
 30  14  16  1   
 31  15  36  1   
 32  16  17  2   
 33  16  18  am  
 34  18  19  1   
 35  18  37  1   
 36  19  20  1   
 37  19  21  1   
 38  19  38  1   
 39  20  22  1   
 40  20  39  1   
 41  20  40  1   
 42  21  41  1   
 43  21  42  1   
 44  21  43  1   
 45  22  44  1   
 46  22  45  1   
 47  22  46  1   
@<TRIPOS>SUBSTRUCTURE
  1 ****   9 GROUP 4 **** **** 0

# MOE 2024.06 (io_trps.svl 2023.06)
