@<TRIPOS>MOLECULE
NONAME
44 47 1 0 0 
SMALL
USER_CHARGES


@<TRIPOS>ATOM
  1 CL       1.3720     0.0510    -3.4380 Cl    1 <1>  -0.1230 
  2 C        1.2570     0.9970    -1.9630 C.2   1 <1>   0.1230 
  3 C        2.3040     1.3860    -1.1960 C.2   1 <1>  -0.0260 
  4 C        0.0890     1.4540    -1.3640 C.2   1 <1>   0.2030 
  5 N        3.6610     1.1930    -1.3340 N.2   1 <1>  -0.5760 
  6 N        1.7330     2.0690    -0.1490 N.pl3 1 <1>   0.6010 
  7 N        0.3910     2.1070    -0.2420 N.2   1 <1>  -0.7070 
  8 C       -1.2440     1.2420    -1.9140 C.2   1 <1>   0.7160 
  9 C        4.4430     1.6910    -0.4200 C.2   1 <1>   0.3490 
 10 C        2.5500     2.5800     0.8310 C.2   1 <1>  -0.1690 
 11 O       -1.4270     1.4150    -3.1080 O.2   1 <1>  -0.5700 
 12 N       -2.3260     0.8570    -1.1370 N.am  1 <1>  -0.6600 
 13 C        5.8790     1.5240    -0.5270 C.ar  1 <1>   0.0860 
 14 C        3.8940     2.3930     0.7010 C.2   1 <1>  -0.1360 
 15 C        1.8470     3.2950     1.9640 C.3   1 <1>   1.1580 
 16 C       -2.2240     0.4260     0.2840 C.3   1 <1>   0.1400 
 17 C       -3.7280     0.9660    -1.6270 C.3   1 <1>   0.1400 
 18 C        6.4230     0.3030    -0.9370 C.ar  1 <1>  -0.1500 
 19 C        6.7650     2.5680    -0.2300 C.ar  1 <1>  -0.1500 
 20 F        1.0130     2.5140     2.6370 F     1 <1>  -0.3400 
 21 F        1.1630     4.3590     1.5690 F     1 <1>  -0.3400 
 22 F        2.7190     3.7420     2.8600 F     1 <1>  -0.3400 
 23 C       -2.9460     1.4440     1.1710 C.3   1 <1>  -0.1600 
 24 C       -4.4890     1.9770    -0.7610 C.3   1 <1>  -0.1600 
 25 C        7.7900     0.1150    -1.0340 C.ar  1 <1>  -0.1500 
 26 C        8.1350     2.3970    -0.3210 C.ar  1 <1>  -0.1500 
 27 C       -4.4080     1.6280     0.7340 C.3   1 <1>  -0.1600 
 28 C        8.6250     1.1690    -0.7200 C.ar  1 <1>   0.1900 
 29 F        9.9150     1.0010    -0.8050 F     1 <1>  -0.1900 
 30 H        4.5870     2.7580     1.4390 H     1 <1>   0.1500 
 31 H       -1.2000     0.3260     0.5940 H     1 <1>   0.0800 
 32 H       -2.6910    -0.5380     0.3880 H     1 <1>   0.0800 
 33 H       -4.1970     0.0000    -1.5650 H     1 <1>   0.0800 
 34 H       -3.7550     1.2830    -2.6560 H     1 <1>   0.0800 
 35 H        5.7580    -0.5080    -1.1850 H     1 <1>   0.1500 
 36 H        6.3810     3.5280     0.0650 H     1 <1>   0.1500 
 37 H       -2.4250     2.3840     1.1150 H     1 <1>   0.0800 
 38 H       -2.9130     1.1130     2.1940 H     1 <1>   0.0800 
 39 H       -5.5180     2.0060    -1.0710 H     1 <1>   0.0800 
 40 H       -4.0700     2.9540    -0.9270 H     1 <1>   0.0800 
 41 H        8.2050    -0.8270    -1.3480 H     1 <1>   0.1500 
 42 H        8.8170     3.1960    -0.0920 H     1 <1>   0.1500 
 43 H       -4.8650     2.4100     1.3150 H     1 <1>   0.0800 
 44 H       -4.9510     0.7170     0.9160 H     1 <1>   0.0800 
@<TRIPOS>BOND
  1   1   2  1   
  2   2   3  2   
  3   2   4  1   
  4   3   5  1   
  5   3   6  1   
  6   4   7  2   
  7   4   8  1   
  8   5   9  2   
  9   6   7  1   
 10   6  10  1   
 11   8  11  2   
 12   8  12  am  
 13   9  13  1   
 14   9  14  1   
 15  10  14  2   
 16  10  15  1   
 17  12  16  1   
 18  12  17  1   
 19  13  18  ar  
 20  13  19  ar  
 21  14  30  1   
 22  15  20  1   
 23  15  21  1   
 24  15  22  1   
 25  16  23  1   
 26  16  31  1   
 27  16  32  1   
 28  17  24  1   
 29  17  33  1   
 30  17  34  1   
 31  18  25  ar  
 32  18  35  1   
 33  19  26  ar  
 34  19  36  1   
 35  23  27  1   
 36  23  37  1   
 37  23  38  1   
 38  24  27  1   
 39  24  39  1   
 40  24  40  1   
 41  25  28  ar  
 42  25  41  1   
 43  26  28  ar  
 44  26  42  1   
 45  27  43  1   
 46  27  44  1   
 47  28  29  1   
@<TRIPOS>SUBSTRUCTURE
  1 ****   6 GROUP 4 **** **** 0

# MOE 2024.06 (io_trps.svl 2023.06)
