@<TRIPOS>MOLECULE
NONAME
43 44 1 0 0 
SMALL
USER_CHARGES


@<TRIPOS>ATOM
  1 O       -0.8690    -0.4250    -0.3070 O.2   1 <1>  -0.5700 
  2 C       -0.9590    -1.2810     0.5500 C.2   1 <1>   0.6900 
  3 N        0.0480    -2.1590     0.8060 N.am  1 <1>  -0.5470 
  4 N       -2.0860    -1.4070     1.2950 N.am  1 <1>  -0.7300 
  5 C        1.3520    -2.3060     0.2940 C.ar  1 <1>   0.1170 
  6 C       -3.3150    -0.5720     1.2190 C.3   1 <1>   0.2200 
  7 C        2.0280    -3.5060     0.5440 C.ar  1 <1>   0.0830 
  8 C        2.0000    -1.3130    -0.4310 C.ar  1 <1>  -0.1500 
  9 C       -3.8380    -0.3680    -0.2230 C.3   1 <1>   0.2000 
 10 C       -3.0400     0.7530     1.9320 C.3   1 <1>  -0.2400 
 11 O        1.3650    -4.4560     1.2740 O.3   1 <1>  -0.3630 
 12 C        3.3180    -3.6930     0.0600 C.ar  1 <1>  -0.1500 
 13 C        3.2840    -1.5020    -0.9120 C.ar  1 <1>  -0.1500 
 14 O       -5.1120     0.1960    -0.1940 O.3   1 <1>  -0.5600 
 15 C       -4.0280    -1.6500    -1.0280 C.3   1 <1>  -0.1600 
 16 C        1.9570    -5.7100     1.5400 C.3   1 <1>   0.0400 
 17 C        3.9480    -2.6990    -0.6680 C.ar  1 <1>   0.0830 
 18 C       -5.7360    -0.0020    -1.4190 C.3   1 <1>   0.1200 
 19 C       -5.1750    -1.3110    -1.9690 C.3   1 <1>  -0.1600 
 20 O        5.2080    -2.9690    -1.1040 O.3   1 <1>  -0.3630 
 21 C        5.9250    -2.0260    -1.8700 C.3   1 <1>   0.0400 
 22 H       -0.2190    -2.9550     1.3800 H     1 <1>   0.3700 
 23 H       -2.0360    -1.9940     2.1230 H     1 <1>   0.3700 
 24 H       -4.0880    -1.0930     1.7580 H     1 <1>   0.0800 
 25 H        1.5060    -0.3790    -0.6260 H     1 <1>   0.1500 
 26 H       -3.2020     0.3170    -0.7590 H     1 <1>   0.0800 
 27 H       -2.2780     1.3050     1.4110 H     1 <1>   0.0800 
 28 H       -2.7260     0.5780     2.9450 H     1 <1>   0.0800 
 29 H       -3.9360     1.3470     1.9500 H     1 <1>   0.0800 
 30 H        3.8630    -4.6000     0.2310 H     1 <1>   0.1500 
 31 H        3.7420    -0.7080    -1.4700 H     1 <1>   0.1500 
 32 H       -4.3080    -2.4560    -0.3730 H     1 <1>   0.0800 
 33 H       -3.1260    -1.9160    -1.5520 H     1 <1>   0.0800 
 34 H        1.2590    -6.2980     2.1080 H     1 <1>   0.0800 
 35 H        2.8560    -5.5590     2.1110 H     1 <1>   0.0800 
 36 H        2.1720    -6.2010     0.6060 H     1 <1>   0.0800 
 37 H       -5.4850     0.8280    -2.0580 H     1 <1>   0.0800 
 38 H       -6.8000    -0.0430    -1.2640 H     1 <1>   0.0800 
 39 H       -5.9250    -2.0820    -1.9630 H     1 <1>   0.0800 
 40 H       -4.8260    -1.1660    -2.9760 H     1 <1>   0.0800 
 41 H        6.8830    -2.4500    -2.1090 H     1 <1>   0.0800 
 42 H        6.0560    -1.1310    -1.2890 H     1 <1>   0.0800 
 43 H        5.3790    -1.8240    -2.7740 H     1 <1>   0.0800 
@<TRIPOS>BOND
  1   1   2  2   
  2   2   3  am  
  3   2   4  am  
  4   3   5  1   
  5   3  22  1   
  6   4   6  1   
  7   4  23  1   
  8   5   7  ar  
  9   5   8  ar  
 10   6   9  1   
 11   6  10  1   
 12   6  24  1   
 13   7  11  1   
 14   7  12  ar  
 15   8  13  ar  
 16   8  25  1   
 17   9  14  1   
 18   9  15  1   
 19   9  26  1   
 20  10  27  1   
 21  10  28  1   
 22  10  29  1   
 23  11  16  1   
 24  12  17  ar  
 25  12  30  1   
 26  13  17  ar  
 27  13  31  1   
 28  14  18  1   
 29  15  19  1   
 30  15  32  1   
 31  15  33  1   
 32  16  34  1   
 33  16  35  1   
 34  16  36  1   
 35  17  20  1   
 36  18  19  1   
 37  18  37  1   
 38  18  38  1   
 39  19  39  1   
 40  19  40  1   
 41  20  21  1   
 42  21  41  1   
 43  21  42  1   
 44  21  43  1   
@<TRIPOS>SUBSTRUCTURE
  1 ****   3 GROUP 4 **** **** 0

# MOE 2024.06 (io_trps.svl 2023.06)
