@<TRIPOS>MOLECULE
NONAME
39 40 1 0 0 
SMALL
USER_CHARGES


@<TRIPOS>ATOM
  1 O        0.3470     0.4090     0.3260 O.3   1 <1>  -0.3630 
  2 C       -0.8740     0.9790     0.1540 C.ar  1 <1>   0.0830 
  3 C        1.5230     1.1060     0.0040 C.3   1 <1>   0.1200 
  4 C       -1.0680     2.2700    -0.3320 C.ar  1 <1>  -0.1500 
  5 C       -1.9740     0.2050     0.4910 C.ar  1 <1>  -0.1500 
  6 C        2.6960     0.1750     0.3070 C.3   1 <1>  -0.1600 
  7 C       -2.3520     2.7660    -0.4750 C.ar  1 <1>  -0.1500 
  8 C       -3.2570     0.7020     0.3480 C.ar  1 <1>  -0.1500 
  9 C        4.0230     0.8470    -0.0320 C.3   1 <1>   0.3430 
 10 C       -3.4510     1.9920    -0.1380 C.ar  1 <1>   0.0830 
 11 N        5.1580    -0.0420     0.3400 N.4   1 <1>  -0.9590 
 12 O       -4.6730     2.5610    -0.3110 O.3   1 <1>  -0.3620 
 13 C        6.4760     0.6320     0.2400 C.3   1 <1>   0.3430 
 14 C        5.2700    -1.2700    -0.4880 C.3   1 <1>   0.3430 
 15 C       -5.8530     1.8560     0.0020 C.3   1 <1>   0.0400 
 16 C        7.4810    -0.5100     0.2030 C.3   1 <1>  -0.1600 
 17 C        6.7050    -1.7380    -0.2830 C.3   1 <1>  -0.1600 
 18 H        1.5630     1.9960     0.6100 H     1 <1>   0.0800 
 19 H        1.4860     1.3630    -1.0410 H     1 <1>   0.0800 
 20 H       -0.2460     2.9020    -0.6040 H     1 <1>   0.1500 
 21 H       -1.8180    -0.7900     0.8660 H     1 <1>   0.1500 
 22 H        2.5720    -0.7190    -0.2780 H     1 <1>   0.0800 
 23 H        2.6710    -0.0730     1.3540 H     1 <1>   0.0800 
 24 H       -2.5130     3.7600    -0.8490 H     1 <1>   0.1500 
 25 H       -4.0850     0.0760     0.6190 H     1 <1>   0.1500 
 26 H        4.0980     1.7730     0.5160 H     1 <1>   0.0800 
 27 H        4.0620     1.0740    -1.0860 H     1 <1>   0.0800 
 28 H        5.0420    -0.3420     1.3170 H     1 <1>   0.4500 
 29 H        6.6530     1.2940     1.0730 H     1 <1>   0.0800 
 30 H        6.5330     1.1890    -0.6810 H     1 <1>   0.0800 
 31 H        5.1170    -1.0260    -1.5280 H     1 <1>   0.0800 
 32 H        4.5580    -2.0230    -0.1880 H     1 <1>   0.0800 
 33 H       -6.6910     2.4950    -0.2120 H     1 <1>   0.0800 
 34 H       -5.8430     1.6050     1.0480 H     1 <1>   0.0800 
 35 H       -5.9030     0.9710    -0.6080 H     1 <1>   0.0800 
 36 H        7.8740    -0.6820     1.1910 H     1 <1>   0.0800 
 37 H        8.3010    -0.2690    -0.4520 H     1 <1>   0.0800 
 38 H        7.1070    -2.1260    -1.2030 H     1 <1>   0.0800 
 39 H        6.7330    -2.5190     0.4570 H     1 <1>   0.0800 
@<TRIPOS>BOND
  1   1   2  1   
  2   1   3  1   
  3   2   4  ar  
  4   2   5  ar  
  5   3   6  1   
  6   3  18  1   
  7   3  19  1   
  8   4   7  ar  
  9   4  20  1   
 10   5   8  ar  
 11   5  21  1   
 12   6   9  1   
 13   6  22  1   
 14   6  23  1   
 15   7  10  ar  
 16   7  24  1   
 17   8  10  ar  
 18   8  25  1   
 19   9  11  1   
 20   9  26  1   
 21   9  27  1   
 22  10  12  1   
 23  11  13  1   
 24  11  14  1   
 25  11  28  1   
 26  12  15  1   
 27  13  16  1   
 28  13  29  1   
 29  13  30  1   
 30  14  17  1   
 31  14  31  1   
 32  14  32  1   
 33  15  33  1   
 34  15  34  1   
 35  15  35  1   
 36  16  17  1   
 37  16  36  1   
 38  16  37  1   
 39  17  38  1   
 40  17  39  1   
@<TRIPOS>SUBSTRUCTURE
  1 ****   3 GROUP 4 **** **** 0

# MOE 2024.06 (io_trps.svl 2023.06)
