@<TRIPOS>MOLECULE
NONAME
29 29 1 0 0 
SMALL
USER_CHARGES


@<TRIPOS>ATOM
  1 S        0.1190    -0.5580    -0.6480 S.3   1 <1>  -0.0800 
  2 C       -0.5720     0.0520     0.8260 C.2   1 <1>   0.4420 
  3 C        1.4600    -1.1050     0.2960 C.2   1 <1>   0.1980 
  4 N        0.1830    -0.1710     1.8390 N.2   1 <1>  -0.3380 
  5 N       -1.7880     0.6990     0.8650 N.am  1 <1>  -0.4940 
  6 N        1.3370    -0.8350     1.5320 N.2   1 <1>  -0.3380 
  7 C        2.5940    -1.8190    -0.4010 C.3   1 <1>   0.0810 
  8 C       -2.7050     0.9730    -0.1090 C.2   1 <1>   0.5690 
  9 C        3.3490    -0.8910    -1.3330 C.2   1 <1>   0.6590 
 10 O       -2.5680     0.6380    -1.2580 O.2   1 <1>  -0.5700 
 11 C       -3.9680     1.7390     0.3020 C.3   1 <1>  -0.0190 
 12 O        3.2860    -1.0590    -2.5200 O.2   1 <1>  -0.5700 
 13 O        4.1160     0.0830    -0.8440 O.3   1 <1>  -0.4300 
 14 C       -5.2310     0.8840     0.1060 C.3   1 <1>  -0.2400 
 15 C       -4.1030     3.0600    -0.4730 C.3   1 <1>  -0.2400 
 16 C        4.1820     0.5130     0.5020 C.3   1 <1>   0.0400 
 17 H       -2.0320     1.0100     1.8000 H     1 <1>   0.3700 
 18 H        2.1920    -2.6340    -0.9720 H     1 <1>   0.0800 
 19 H        3.2730    -2.2260     0.3230 H     1 <1>   0.0800 
 20 H       -3.8960     1.9810     1.3470 H     1 <1>   0.0800 
 21 H       -5.3520     0.6310    -0.9330 H     1 <1>   0.0800 
 22 H       -6.1040     1.4190     0.4350 H     1 <1>   0.0800 
 23 H       -5.1550    -0.0290     0.6700 H     1 <1>   0.0800 
 24 H       -4.1980     2.8660    -1.5280 H     1 <1>   0.0800 
 25 H       -3.2330     3.6730    -0.3190 H     1 <1>   0.0800 
 26 H       -4.9700     3.6060    -0.1430 H     1 <1>   0.0800 
 27 H        4.9700     1.2420     0.5790 H     1 <1>   0.0800 
 28 H        4.4010    -0.3240     1.1410 H     1 <1>   0.0800 
 29 H        3.2460     0.9690     0.7730 H     1 <1>   0.0800 
@<TRIPOS>BOND
  1   1   2  1   
  2   1   3  1   
  3   2   4  2   
  4   2   5  1   
  5   3   6  2   
  6   3   7  1   
  7   4   6  1   
  8   5   8  am  
  9   5  17  1   
 10   7   9  1   
 11   7  18  1   
 12   7  19  1   
 13   8  10  2   
 14   8  11  1   
 15   9  12  2   
 16   9  13  1   
 17  11  14  1   
 18  11  15  1   
 19  11  20  1   
 20  13  16  1   
 21  14  21  1   
 22  14  22  1   
 23  14  23  1   
 24  15  24  1   
 25  15  25  1   
 26  15  26  1   
 27  16  27  1   
 28  16  28  1   
 29  16  29  1   
@<TRIPOS>SUBSTRUCTURE
  1 ****   1 GROUP 4 **** **** 0

# MOE 2024.06 (io_trps.svl 2023.06)
