@<TRIPOS>MOLECULE
NONAME
50 53 1 0 0 
SMALL
USER_CHARGES


@<TRIPOS>ATOM
  1 N       -0.4760     1.3670     0.7280 N.pl3 1 <1>  -0.8380 
  2 C       -0.9210     0.1930     0.1170 C.ar  1 <1>   0.1000 
  3 C        0.0020     1.2480     2.1330 C.3   1 <1>   0.2090 
  4 C        0.1820     2.4010    -0.1250 C.3   1 <1>   0.2090 
  5 C       -2.2700    -0.1610     0.1500 C.ar  1 <1>  -0.1440 
  6 C       -0.0190    -0.6510    -0.5250 C.ar  1 <1>  -0.1500 
  7 C        1.5420     1.2060     2.2020 C.3   1 <1>   0.3430 
  8 C        1.7190     2.3760     0.0150 C.3   1 <1>   0.3430 
  9 C       -2.6850    -1.3400    -0.4460 C.ar  1 <1>  -0.1500 
 10 C       -3.2970     0.7340     0.8290 C.3   1 <1>  -0.0970 
 11 C       -0.4360    -1.8270    -1.1230 C.ar  1 <1>  -0.1440 
 12 N        2.1910     2.3500     1.4590 N.4   1 <1>  -0.9590 
 13 C       -1.7760    -2.1690    -1.0780 C.ar  1 <1>  -0.1500 
 14 C        0.5500    -2.7440    -1.8250 C.3   1 <1>  -0.0970 
 15 C        3.6920     2.3390     1.6090 C.3   1 <1>   0.4230 
 16 C        4.2990     3.6350     1.0310 C.3   1 <1>  -0.0170 
 17 C        4.3530     1.1980     0.8010 C.3   1 <1>  -0.0170 
 18 C        4.6890     3.2360    -0.3710 C.ar  1 <1>  -0.1430 
 19 C        4.7200     1.8690    -0.5010 C.ar  1 <1>  -0.1430 
 20 C        4.9830     4.0560    -1.4440 C.ar  1 <1>  -0.1500 
 21 C        5.0440     1.2790    -1.7070 C.ar  1 <1>  -0.1500 
 22 C        5.3070     3.4730    -2.6590 C.ar  1 <1>  -0.1500 
 23 C        5.3370     2.0920    -2.7900 C.ar  1 <1>  -0.1500 
 24 H       -0.3980     0.3480     2.5700 H     1 <1>   0.0800 
 25 H       -0.3710     2.0800     2.7040 H     1 <1>   0.0800 
 26 H       -0.1920     3.3710     0.1500 H     1 <1>   0.0800 
 27 H       -0.0830     2.2350    -1.1560 H     1 <1>   0.0800 
 28 H        1.0180    -0.3890    -0.5560 H     1 <1>   0.1500 
 29 H        1.8630     0.2690     1.7790 H     1 <1>   0.0800 
 30 H        1.8420     1.2200     3.2370 H     1 <1>   0.0800 
 31 H        2.1250     3.2360    -0.4920 H     1 <1>   0.0800 
 32 H        2.0840     1.5040    -0.4990 H     1 <1>   0.0800 
 33 H       -3.7230    -1.6230    -0.4240 H     1 <1>   0.1500 
 34 H       -3.1070     0.7720     1.8860 H     1 <1>   0.0800 
 35 H       -4.2950     0.3690     0.6720 H     1 <1>   0.0800 
 36 H       -3.2330     1.7300     0.4290 H     1 <1>   0.0800 
 37 H        1.8400     3.2140     1.8890 H     1 <1>   0.4500 
 38 H       -2.1180    -3.0800    -1.5360 H     1 <1>   0.1500 
 39 H        1.5050    -2.2660    -1.9470 H     1 <1>   0.0800 
 40 H        0.1760    -3.0080    -2.7980 H     1 <1>   0.0800 
 41 H        0.6830    -3.6430    -1.2500 H     1 <1>   0.0800 
 42 H        3.9460     2.2510     2.6530 H     1 <1>   0.0800 
 43 H        5.1910     3.8930     1.5730 H     1 <1>   0.0800 
 44 H        3.6170     4.4650     1.0490 H     1 <1>   0.0800 
 45 H        3.7160     0.3460     0.6550 H     1 <1>   0.0800 
 46 H        5.2600     0.8850     1.2880 H     1 <1>   0.0800 
 47 H        4.9670     5.1280    -1.3460 H     1 <1>   0.1500 
 48 H        5.0740     0.2070    -1.8120 H     1 <1>   0.1500 
 49 H        5.5420     4.0950    -3.5070 H     1 <1>   0.1500 
 50 H        5.5940     1.6510    -3.7390 H     1 <1>   0.1500 
@<TRIPOS>BOND
  1   1   2  1   
  2   1   3  1   
  3   1   4  1   
  4   2   5  ar  
  5   2   6  ar  
  6   3   7  1   
  7   3  24  1   
  8   3  25  1   
  9   4   8  1   
 10   4  26  1   
 11   4  27  1   
 12   5   9  ar  
 13   5  10  1   
 14   6  11  ar  
 15   6  28  1   
 16   7  12  1   
 17   7  29  1   
 18   7  30  1   
 19   8  12  1   
 20   8  31  1   
 21   8  32  1   
 22   9  13  ar  
 23   9  33  1   
 24  10  34  1   
 25  10  35  1   
 26  10  36  1   
 27  11  13  ar  
 28  11  14  1   
 29  12  15  1   
 30  12  37  1   
 31  13  38  1   
 32  14  39  1   
 33  14  40  1   
 34  14  41  1   
 35  15  16  1   
 36  15  17  1   
 37  15  42  1   
 38  16  18  1   
 39  16  43  1   
 40  16  44  1   
 41  17  19  1   
 42  17  45  1   
 43  17  46  1   
 44  18  19  ar  
 45  18  20  ar  
 46  19  21  ar  
 47  20  22  ar  
 48  20  47  1   
 49  21  23  ar  
 50  21  48  1   
 51  22  23  ar  
 52  22  49  1   
 53  23  50  1   
@<TRIPOS>SUBSTRUCTURE
  1 ****   8 GROUP 4 **** **** 0

# MOE 2024.06 (io_trps.svl 2023.06)
