@<TRIPOS>MOLECULE
NONAME
36 37 1 0 0 
SMALL
USER_CHARGES


@<TRIPOS>ATOM
  1 O       -0.9710     0.6260     0.0750 O.2   1 <1>  -0.5700 
  2 C       -0.9240     1.8180     0.2620 C.2   1 <1>   0.5690 
  3 N        0.2060     2.5350     0.4970 N.am  1 <1>  -0.4200 
  4 C       -2.1490     2.7380     0.2570 C.3   1 <1>   0.3500 
  5 C       -0.0760     3.8570     0.6370 C.2   1 <1>   0.5690 
  6 C        1.5650     1.9580     0.5710 C.3   1 <1>   0.1400 
  7 N       -2.9350     2.6850    -1.0110 N.pl3 1 <1>  -0.8690 
  8 C       -1.5470     4.1350     0.4510 C.3   1 <1>  -0.0990 
  9 O        0.7220     4.7200     0.8930 O.2   1 <1>  -0.5700 
 10 C        2.1970     1.9520    -0.8200 C.3   1 <1>  -0.2400 
 11 C       -4.3120     2.7840    -0.8770 C.ar  1 <1>   0.1000 
 12 C       -5.1160     1.6760    -1.1010 C.ar  1 <1>  -0.1500 
 13 C       -4.9120     3.9800    -0.5130 C.ar  1 <1>  -0.1500 
 14 C       -6.4920     1.7440    -0.9540 C.ar  1 <1>  -0.1430 
 15 C       -6.2840     4.0590    -0.3630 C.ar  1 <1>  -0.1500 
 16 C       -7.0830     2.9470    -0.5800 C.ar  1 <1>  -0.1430 
 17 C       -7.3250     0.4960    -1.2090 C.3   1 <1>  -0.0970 
 18 C       -8.5900     3.0730    -0.4060 C.3   1 <1>  -0.0970 
 19 H       -2.7770     2.4790     1.0930 H     1 <1>   0.0800 
 20 H        1.5060     0.9520     0.9520 H     1 <1>   0.0800 
 21 H        2.1660     2.5440     1.2450 H     1 <1>   0.0800 
 22 H       -2.6680     1.8330    -1.5220 H     1 <1>   0.4000 
 23 H       -1.9450     4.6120     1.3260 H     1 <1>   0.0800 
 24 H       -1.6880     4.7560    -0.4150 H     1 <1>   0.0800 
 25 H        1.6100     1.3550    -1.4950 H     1 <1>   0.0800 
 26 H        3.1850     1.5330    -0.7660 H     1 <1>   0.0800 
 27 H        2.2740     2.9560    -1.2000 H     1 <1>   0.0800 
 28 H       -4.6510     0.7520    -1.3890 H     1 <1>   0.1500 
 29 H       -4.3040     4.8500    -0.3550 H     1 <1>   0.1500 
 30 H       -6.7260     4.9970    -0.0800 H     1 <1>   0.1500 
 31 H       -6.7020    -0.3350    -1.4870 H     1 <1>   0.0800 
 32 H       -8.0220     0.6750    -2.0070 H     1 <1>   0.0800 
 33 H       -7.8680     0.2280    -0.3210 H     1 <1>   0.0800 
 34 H       -9.0870     2.8450    -1.3310 H     1 <1>   0.0800 
 35 H       -8.8630     4.0710    -0.1140 H     1 <1>   0.0800 
 36 H       -8.9320     2.3940     0.3540 H     1 <1>   0.0800 
@<TRIPOS>BOND
  1   1   2  2   
  2   2   3  am  
  3   2   4  1   
  4   3   5  am  
  5   3   6  1   
  6   4   7  1   
  7   4   8  1   
  8   4  19  1   
  9   5   8  1   
 10   5   9  2   
 11   6  10  1   
 12   6  20  1   
 13   6  21  1   
 14   7  11  1   
 15   7  22  1   
 16   8  23  1   
 17   8  24  1   
 18  10  25  1   
 19  10  26  1   
 20  10  27  1   
 21  11  12  ar  
 22  11  13  ar  
 23  12  14  ar  
 24  12  28  1   
 25  13  15  ar  
 26  13  29  1   
 27  14  16  ar  
 28  14  17  1   
 29  15  16  ar  
 30  15  30  1   
 31  16  18  1   
 32  17  31  1   
 33  17  32  1   
 34  17  33  1   
 35  18  34  1   
 36  18  35  1   
 37  18  36  1   
@<TRIPOS>SUBSTRUCTURE
  1 ****   7 GROUP 4 **** **** 0

# MOE 2024.06 (io_trps.svl 2023.06)
