@<TRIPOS>MOLECULE
NONAME
37 38 1 0 0 
SMALL
USER_CHARGES


@<TRIPOS>ATOM
  1 BR       0.4890     1.0860     0.5510 Br    1 <1>  -0.1110 
  2 C       -1.3650     1.5350     0.2850 C.ar  1 <1>   0.1110 
  3 C       -1.6970     2.8370    -0.0360 C.ar  1 <1>  -0.1500 
  4 C       -2.3180     0.5450     0.4210 C.ar  1 <1>  -0.1500 
  5 C       -3.0320     3.1520    -0.2240 C.ar  1 <1>  -0.1500 
  6 C       -3.6480     0.8760     0.2270 C.ar  1 <1>  -0.1500 
  7 C       -4.0230     2.1800    -0.0940 C.ar  1 <1>   0.1170 
  8 N       -5.3590     2.5510    -0.3110 N.am  1 <1>  -0.5470 
  9 C       -6.5160     2.0100     0.1620 C.2   1 <1>   0.6900 
 10 O       -6.5310     1.1200     0.9880 O.2   1 <1>  -0.5700 
 11 N       -7.6880     2.4970    -0.3180 N.am  1 <1>  -0.7300 
 12 C       -8.9980     2.0260     0.1520 C.3   1 <1>   0.2200 
 13 C       -9.4210     0.8070    -0.6640 C.3   1 <1>  -0.1600 
 14 C      -10.0290     3.1440     0.0300 C.3   1 <1>  -0.1600 
 15 C      -10.8000     0.3290    -0.2200 C.3   1 <1>   0.3430 
 16 C      -11.4050     2.6390     0.4610 C.3   1 <1>   0.3430 
 17 N      -11.7890     1.4430    -0.3500 N.4   1 <1>  -0.9590 
 18 C      -13.1600     0.9730     0.0170 C.3   1 <1>   0.2630 
 19 H       -0.9280     3.5820    -0.1320 H     1 <1>   0.1500 
 20 H       -2.0270    -0.4590     0.6710 H     1 <1>   0.1500 
 21 H       -3.3030     4.1620    -0.4710 H     1 <1>   0.1500 
 22 H       -4.3970     0.1100     0.3260 H     1 <1>   0.1500 
 23 H       -5.4810     3.4310    -0.8000 H     1 <1>   0.3700 
 24 H       -7.6720     3.0870    -1.1470 H     1 <1>   0.3700 
 25 H       -8.9130     1.7410     1.1900 H     1 <1>   0.0800 
 26 H       -8.7130     0.0120    -0.5030 H     1 <1>   0.0800 
 27 H       -9.4360     1.0360    -1.7150 H     1 <1>   0.0800 
 28 H      -10.0800     3.5080    -0.9800 H     1 <1>   0.0800 
 29 H       -9.7440     3.9610     0.6710 H     1 <1>   0.0800 
 30 H      -10.7500     0.0010     0.8070 H     1 <1>   0.0800 
 31 H      -11.1020    -0.5090    -0.8280 H     1 <1>   0.0800 
 32 H      -12.1330     3.4230     0.3310 H     1 <1>   0.0800 
 33 H      -11.3770     2.3750     1.5070 H     1 <1>   0.0800 
 34 H      -11.8010     1.7290    -1.3400 H     1 <1>   0.4500 
 35 H      -13.1860     0.6620     1.0490 H     1 <1>   0.0800 
 36 H      -13.4480     0.1380    -0.6020 H     1 <1>   0.0800 
 37 H      -13.8780     1.7660    -0.1220 H     1 <1>   0.0800 
@<TRIPOS>BOND
  1   1   2  1   
  2   2   3  ar  
  3   2   4  ar  
  4   3   5  ar  
  5   3  19  1   
  6   4   6  ar  
  7   4  20  1   
  8   5   7  ar  
  9   5  21  1   
 10   6   7  ar  
 11   6  22  1   
 12   7   8  1   
 13   8   9  am  
 14   8  23  1   
 15   9  10  2   
 16   9  11  am  
 17  11  12  1   
 18  11  24  1   
 19  12  13  1   
 20  12  14  1   
 21  12  25  1   
 22  13  15  1   
 23  13  26  1   
 24  13  27  1   
 25  14  16  1   
 26  14  28  1   
 27  14  29  1   
 28  15  17  1   
 29  15  30  1   
 30  15  31  1   
 31  16  17  1   
 32  16  32  1   
 33  16  33  1   
 34  17  18  1   
 35  17  34  1   
 36  18  35  1   
 37  18  36  1   
 38  18  37  1   
@<TRIPOS>SUBSTRUCTURE
  1 ****   9 GROUP 4 **** **** 0

# MOE 2024.06 (io_trps.svl 2023.06)
