@<TRIPOS>MOLECULE
NONAME
29 29 1 0 0 
SMALL
USER_CHARGES


@<TRIPOS>ATOM
  1 CL       1.3560    -0.5720     1.7020 Cl    1 <1>  -0.1770 
  2 C        0.6570    -1.9390     0.8740 C.ar  1 <1>   0.1770 
  3 C       -0.5560    -2.4400     1.3080 C.ar  1 <1>  -0.1500 
  4 C        1.3230    -2.4970    -0.2000 C.ar  1 <1>  -0.1500 
  5 C       -1.1210    -3.5250     0.6530 C.ar  1 <1>  -0.1440 
  6 C        0.7630    -3.5790    -0.8570 C.ar  1 <1>  -0.1500 
  7 C       -0.4610    -4.0970    -0.4340 C.ar  1 <1>   0.0830 
  8 C       -2.4440    -4.0890     1.1230 C.3   1 <1>   0.4870 
  9 O       -1.0660    -5.1510    -1.0470 O.3   1 <1>  -0.3620 
 10 N       -3.4000    -3.9400     0.0090 N.4   1 <1>  -0.9060 
 11 C       -0.3640    -5.9500    -1.9820 C.3   1 <1>   0.0400 
 12 C       -4.7240    -4.5650     0.2810 C.3   1 <1>   0.3430 
 13 C       -5.6620    -4.4520    -0.9260 C.3   1 <1>   0.1200 
 14 O       -6.8620    -5.0390    -0.5750 O.3   1 <1>  -0.6800 
 15 H       -1.0300    -1.9710     2.1530 H     1 <1>   0.1500 
 16 H        2.2670    -2.0860    -0.5140 H     1 <1>   0.1500 
 17 H        1.2960    -3.9970    -1.6920 H     1 <1>   0.1500 
 18 H       -2.7910    -3.5580     1.9950 H     1 <1>   0.0800 
 19 H       -2.3200    -5.1310     1.3710 H     1 <1>   0.0800 
 20 H       -2.9310    -4.3940    -0.7930 H     1 <1>   0.4500 
 21 H       -3.4830    -2.9440    -0.2230 H     1 <1>   0.4500 
 22 H       -0.9880    -6.7820    -2.2550 H     1 <1>   0.0800 
 23 H        0.5420    -6.3120    -1.5260 H     1 <1>   0.0800 
 24 H       -0.1430    -5.3610    -2.8550 H     1 <1>   0.0800 
 25 H       -5.1890    -4.0810     1.1240 H     1 <1>   0.0800 
 26 H       -4.5910    -5.6090     0.5150 H     1 <1>   0.0800 
 27 H       -5.2680    -4.9810    -1.7780 H     1 <1>   0.0800 
 28 H       -5.8560    -3.4230    -1.1760 H     1 <1>   0.0800 
 29 H       -7.5140    -5.0080    -1.3080 H     1 <1>   0.4000 
@<TRIPOS>BOND
  1   1   2  1   
  2   2   3  ar  
  3   2   4  ar  
  4   3   5  ar  
  5   3  15  1   
  6   4   6  ar  
  7   4  16  1   
  8   5   7  ar  
  9   5   8  1   
 10   6   7  ar  
 11   6  17  1   
 12   7   9  1   
 13   8  10  1   
 14   8  18  1   
 15   8  19  1   
 16   9  11  1   
 17  10  12  1   
 18  10  20  1   
 19  10  21  1   
 20  11  22  1   
 21  11  23  1   
 22  11  24  1   
 23  12  13  1   
 24  12  25  1   
 25  12  26  1   
 26  13  14  1   
 27  13  27  1   
 28  13  28  1   
 29  14  29  1   
@<TRIPOS>SUBSTRUCTURE
  1 ****   5 GROUP 4 **** **** 0

# MOE 2024.06 (io_trps.svl 2023.06)
