@<TRIPOS>MOLECULE
NONAME
58 61 1 0 0 
SMALL
USER_CHARGES


@<TRIPOS>ATOM
  1 O       -0.3280     0.1100    -0.2260 O.2   1 <1>  -0.5700 
  2 C       -1.3690     0.7340    -0.0630 C.2   1 <1>   0.6160 
  3 N       -2.5850     0.0390    -0.1180 N.am  1 <1>  -0.2860 
  4 C       -1.3850     2.1500     0.1710 C.2   1 <1>   0.0290 
  5 C       -2.5500    -1.3710    -0.2370 C.ar  1 <1>   0.1170 
  6 C       -3.7850     0.7150    -0.0250 C.2   1 <1>  -0.0290 
  7 C       -0.1540     2.9030     0.2740 C.2   1 <1>   0.6160 
  8 C       -2.6010     2.7700     0.2940 C.2   1 <1>  -0.1500 
  9 C       -2.6640    -2.1760     0.8890 C.ar  1 <1>  -0.1500 
 10 C       -2.4200    -1.9740    -1.4820 C.ar  1 <1>  -0.1500 
 11 C       -3.8340     2.0730     0.2040 C.2   1 <1>   0.0140 
 12 C       -5.0880    -0.0870    -0.1650 C.3   1 <1>  -0.0220 
 13 O       -0.1790     4.1160     0.1690 O.2   1 <1>  -0.5700 
 14 N        1.0590     2.3240     0.5080 N.am  1 <1>  -0.7300 
 15 C       -2.6640    -3.5540     0.7710 C.ar  1 <1>  -0.1500 
 16 C       -2.4210    -3.3520    -1.6000 C.ar  1 <1>  -0.1500 
 17 C       -5.0740     2.7880     0.3600 C.2   1 <1>   0.4950 
 18 C       -6.3010     0.7730    -0.5740 C.3   1 <1>   0.0000 
 19 C        2.3760     3.0040     0.5580 C.3   1 <1>   0.1400 
 20 C       -2.5470    -4.1500    -0.4740 C.ar  1 <1>  -0.1430 
 21 O       -5.1470     3.9790     0.5330 O.2   1 <1>  -0.5700 
 22 C       -6.3780     2.0130     0.3330 C.3   1 <1>  -0.0990 
 23 C       -7.5910    -0.0500    -0.4230 C.3   1 <1>  -0.2400 
 24 C       -6.1740     1.2000    -2.0490 C.3   1 <1>  -0.2400 
 25 C        3.3550     2.3380    -0.4190 C.3   1 <1>   0.2000 
 26 C       -2.5440    -5.6620    -0.6040 C.3   1 <1>  -0.0970 
 27 O        3.4570     0.9780    -0.1450 O.3   1 <1>  -0.5600 
 28 C        4.7870     2.8440    -0.3210 C.3   1 <1>  -0.1600 
 29 C        4.6320     0.4690    -0.6860 C.3   1 <1>   0.1200 
 30 C        5.6010     1.6460    -0.7870 C.3   1 <1>  -0.1600 
 31 H       -2.6470     3.8340     0.4670 H     1 <1>   0.1500 
 32 H       -2.7510    -1.7200     1.8580 H     1 <1>   0.1500 
 33 H       -2.3150    -1.3580    -2.3570 H     1 <1>   0.1500 
 34 H       -5.2840    -0.5680     0.7780 H     1 <1>   0.0800 
 35 H       -4.9760    -0.8640    -0.9010 H     1 <1>   0.0800 
 36 H        1.1310     1.2980     0.4020 H     1 <1>   0.3700 
 37 H       -2.7520    -4.1630     1.6540 H     1 <1>   0.1500 
 38 H       -2.3180    -3.8010    -2.5720 H     1 <1>   0.1500 
 39 H        2.7660     2.9380     1.5580 H     1 <1>   0.0800 
 40 H        2.2690     4.0440     0.3050 H     1 <1>   0.0800 
 41 H       -7.1650     2.6650    -0.0020 H     1 <1>   0.0800 
 42 H       -6.6050     1.7200     1.3410 H     1 <1>   0.0800 
 43 H       -8.4480     0.5340    -0.7100 H     1 <1>   0.0800 
 44 H       -7.5570    -0.9260    -1.0460 H     1 <1>   0.0800 
 45 H       -7.7270    -0.3670     0.5960 H     1 <1>   0.0800 
 46 H       -5.2760     1.7640    -2.2250 H     1 <1>   0.0800 
 47 H       -7.0120     1.8100    -2.3390 H     1 <1>   0.0800 
 48 H       -6.1530     0.3370    -2.6910 H     1 <1>   0.0800 
 49 H        2.9940     2.4410    -1.4280 H     1 <1>   0.0800 
 50 H       -2.9610    -5.9600    -1.5490 H     1 <1>   0.0800 
 51 H       -3.1280    -6.1090     0.1800 H     1 <1>   0.0800 
 52 H       -1.5360    -6.0290    -0.5380 H     1 <1>   0.0800 
 53 H        5.0250     3.0740     0.7030 H     1 <1>   0.0800 
 54 H        4.9450     3.7160    -0.9300 H     1 <1>   0.0800 
 55 H        4.4050     0.0610    -1.6560 H     1 <1>   0.0800 
 56 H        4.9980    -0.3070    -0.0350 H     1 <1>   0.0800 
 57 H        6.4670     1.4900    -0.1680 H     1 <1>   0.0800 
 58 H        5.9170     1.7650    -1.8090 H     1 <1>   0.0800 
@<TRIPOS>BOND
  1   1   2  2   
  2   2   3  am  
  3   2   4  1   
  4   3   5  1   
  5   3   6  1   
  6   4   7  1   
  7   4   8  2   
  8   5   9  ar  
  9   5  10  ar  
 10   6  11  2   
 11   6  12  1   
 12   7  13  2   
 13   7  14  am  
 14   8  11  1   
 15   8  31  1   
 16   9  15  ar  
 17   9  32  1   
 18  10  16  ar  
 19  10  33  1   
 20  11  17  1   
 21  12  18  1   
 22  12  34  1   
 23  12  35  1   
 24  14  19  1   
 25  14  36  1   
 26  15  20  ar  
 27  15  37  1   
 28  16  20  ar  
 29  16  38  1   
 30  17  21  2   
 31  17  22  1   
 32  18  22  1   
 33  18  23  1   
 34  18  24  1   
 35  19  25  1   
 36  19  39  1   
 37  19  40  1   
 38  20  26  1   
 39  22  41  1   
 40  22  42  1   
 41  23  43  1   
 42  23  44  1   
 43  23  45  1   
 44  24  46  1   
 45  24  47  1   
 46  24  48  1   
 47  25  27  1   
 48  25  28  1   
 49  25  49  1   
 50  26  50  1   
 51  26  51  1   
 52  26  52  1   
 53  27  29  1   
 54  28  30  1   
 55  28  53  1   
 56  28  54  1   
 57  29  30  1   
 58  29  55  1   
 59  29  56  1   
 60  30  57  1   
 61  30  58  1   
@<TRIPOS>SUBSTRUCTURE
  1 ****   2 GROUP 4 **** **** 0

# MOE 2024.06 (io_trps.svl 2023.06)
