@<TRIPOS>MOLECULE
NONAME
44 45 1 0 0 
SMALL
USER_CHARGES


@<TRIPOS>ATOM
  1 BR      -1.4930    -0.8820     2.0590 Br    1 <1>  -0.0580 
  2 C       -2.4770     0.1710     0.7830 C.2   1 <1>   0.1980 
  3 O       -3.5600    -0.3590     0.2610 O.3   1 <1>  -0.2800 
  4 C       -2.2200     1.4120     0.3290 C.2   1 <1>  -0.1500 
  5 C       -4.0430     0.5530    -0.5700 C.2   1 <1>  -0.0400 
  6 C       -3.2660     1.6650    -0.5720 C.2   1 <1>  -0.1500 
  7 C       -5.3170     0.2180    -1.3230 C.3   1 <1>   0.5230 
  8 N       -6.3070    -0.3000    -0.3410 N.4   1 <1>  -0.9590 
  9 C       -7.4360    -1.0080    -1.0210 C.3   1 <1>   0.3430 
 10 C       -6.7770     0.7720     0.5830 C.3   1 <1>   0.3430 
 11 C       -8.4000    -1.6320    -0.0040 C.3   1 <1>  -0.0190 
 12 C       -7.7050     0.1690     1.6400 C.3   1 <1>  -0.1600 
 13 C       -9.5660    -2.2460    -0.7720 C.2   1 <1>   0.5690 
 14 C       -8.8890    -0.5730     1.0030 C.3   1 <1>  -0.1600 
 15 O       -9.8590    -1.7110    -1.8160 O.2   1 <1>  -0.5700 
 16 N      -10.2400    -3.3470    -0.3060 N.am  1 <1>  -0.6600 
 17 C       -9.9650    -4.0490     0.9780 C.3   1 <1>   0.1400 
 18 C      -11.3790    -3.9100    -1.0860 C.3   1 <1>   0.1400 
 19 C       -9.0040    -5.2090     0.7310 C.3   1 <1>  -0.2400 
 20 C      -12.6840    -3.2740    -0.6150 C.3   1 <1>  -0.2400 
 21 H       -1.4090     2.0730     0.5820 H     1 <1>   0.1500 
 22 H       -3.3790     2.5810    -1.1300 H     1 <1>   0.1500 
 23 H       -5.0960    -0.5410    -2.0550 H     1 <1>   0.0800 
 24 H       -5.6980     1.0900    -1.8300 H     1 <1>   0.0800 
 25 H       -5.7770    -0.9760     0.2290 H     1 <1>   0.4500 
 26 H       -7.0580    -1.7840    -1.6670 H     1 <1>   0.0800 
 27 H       -7.9850    -0.3080    -1.6320 H     1 <1>   0.0800 
 28 H       -7.3120     1.5260     0.0270 H     1 <1>   0.0800 
 29 H       -5.9350     1.2390     1.0690 H     1 <1>   0.0800 
 30 H       -7.8700    -2.4100     0.5110 H     1 <1>   0.0800 
 31 H       -8.0780     0.9600     2.2680 H     1 <1>   0.0800 
 32 H       -7.1420    -0.5000     2.2690 H     1 <1>   0.0800 
 33 H       -9.4840    -1.0380     1.7710 H     1 <1>   0.0800 
 34 H       -9.5220     0.1360     0.4930 H     1 <1>   0.0800 
 35 H      -10.8880    -4.4260     1.3890 H     1 <1>   0.0800 
 36 H       -9.5480    -3.3710     1.7000 H     1 <1>   0.0800 
 37 H      -11.4200    -4.9780    -0.9590 H     1 <1>   0.0800 
 38 H      -11.2400    -3.7100    -2.1360 H     1 <1>   0.0800 
 39 H       -9.4400    -5.9210     0.0540 H     1 <1>   0.0800 
 40 H       -8.7990    -5.7120     1.6590 H     1 <1>   0.0800 
 41 H       -8.0750    -4.8570     0.3220 H     1 <1>   0.0800 
 42 H      -12.8620    -3.4860     0.4230 H     1 <1>   0.0800 
 43 H      -13.5030    -3.6680    -1.1880 H     1 <1>   0.0800 
 44 H      -12.6500    -2.2090    -0.7640 H     1 <1>   0.0800 
@<TRIPOS>BOND
  1   1   2  1   
  2   2   3  1   
  3   2   4  2   
  4   3   5  1   
  5   4   6  1   
  6   4  21  1   
  7   5   6  2   
  8   5   7  1   
  9   6  22  1   
 10   7   8  1   
 11   7  23  1   
 12   7  24  1   
 13   8   9  1   
 14   8  10  1   
 15   8  25  1   
 16   9  11  1   
 17   9  26  1   
 18   9  27  1   
 19  10  12  1   
 20  10  28  1   
 21  10  29  1   
 22  11  13  1   
 23  11  14  1   
 24  11  30  1   
 25  12  14  1   
 26  12  31  1   
 27  12  32  1   
 28  13  15  2   
 29  13  16  am  
 30  14  33  1   
 31  14  34  1   
 32  16  17  1   
 33  16  18  1   
 34  17  19  1   
 35  17  35  1   
 36  17  36  1   
 37  18  20  1   
 38  18  37  1   
 39  18  38  1   
 40  19  39  1   
 41  19  40  1   
 42  19  41  1   
 43  20  42  1   
 44  20  43  1   
 45  20  44  1   
@<TRIPOS>SUBSTRUCTURE
  1 ****   9 GROUP 4 **** **** 0

# MOE 2024.06 (io_trps.svl 2023.06)
