@<TRIPOS>MOLECULE
NONAME
34 35 1 0 0 
SMALL
USER_CHARGES


@<TRIPOS>ATOM
  1 S       -0.1210     0.3750    -0.0580 S.3   1 <1>  -0.3320 
  2 C       -1.5470    -0.7190     0.0770 C.ar  1 <1>   0.1020 
  3 C        1.3710    -0.7140    -0.0900 C.3   1 <1>   0.0700 
  4 C       -1.4180    -2.0980     0.1390 C.ar  1 <1>  -0.1500 
  5 C       -2.7950    -0.1220     0.1170 C.ar  1 <1>  -0.1500 
  6 C        2.6060     0.1820    -0.2030 C.3   1 <1>  -0.0990 
  7 C       -2.5550    -2.8810     0.2420 C.ar  1 <1>  -0.1500 
  8 C       -3.9280    -0.9100     0.2200 C.ar  1 <1>  -0.1500 
  9 C        3.9040    -0.6080    -0.2480 C.2   1 <1>   0.5690 
 10 C       -3.8070    -2.2890     0.2820 C.ar  1 <1>  -0.1500 
 11 O        3.8510    -1.8070    -0.0970 O.2   1 <1>  -0.5700 
 12 N        5.0960     0.0360    -0.4540 N.am  1 <1>  -0.6600 
 13 C        6.3850    -0.7170    -0.5350 C.3   1 <1>   0.1400 
 14 C        5.2800     1.5130    -0.6010 C.3   1 <1>   0.1400 
 15 C        7.4430    -0.0860     0.3850 C.3   1 <1>   0.1200 
 16 C        6.4010     2.0150     0.3250 C.3   1 <1>   0.1200 
 17 O        7.5750     1.2830     0.1220 O.3   1 <1>  -0.5600 
 18 H        1.2810    -1.3670    -0.9400 H     1 <1>   0.0800 
 19 H        1.3810    -1.2830     0.8230 H     1 <1>   0.0800 
 20 H       -0.4570    -2.5730     0.1090 H     1 <1>   0.1500 
 21 H       -2.8740     0.9490     0.0670 H     1 <1>   0.1500 
 22 H        2.6350     0.8410     0.6440 H     1 <1>   0.0800 
 23 H        2.5270     0.7660    -1.1010 H     1 <1>   0.0800 
 24 H       -2.4660    -3.9530     0.2910 H     1 <1>   0.1500 
 25 H       -4.9010    -0.4520     0.2510 H     1 <1>   0.1500 
 26 H       -4.6880    -2.9010     0.3620 H     1 <1>   0.1500 
 27 H        6.7420    -0.6980    -1.5490 H     1 <1>   0.0800 
 28 H        6.2440    -1.7460    -0.2540 H     1 <1>   0.0800 
 29 H        4.3760     2.0450    -0.3700 H     1 <1>   0.0800 
 30 H        5.5440     1.7350    -1.6200 H     1 <1>   0.0800 
 31 H        8.4000    -0.5470     0.2190 H     1 <1>   0.0800 
 32 H        7.1710    -0.2160     1.4180 H     1 <1>   0.0800 
 33 H        6.1110     1.9220     1.3580 H     1 <1>   0.0800 
 34 H        6.6190     3.0480     0.1190 H     1 <1>   0.0800 
@<TRIPOS>BOND
  1   1   2  1   
  2   1   3  1   
  3   2   4  ar  
  4   2   5  ar  
  5   3   6  1   
  6   3  18  1   
  7   3  19  1   
  8   4   7  ar  
  9   4  20  1   
 10   5   8  ar  
 11   5  21  1   
 12   6   9  1   
 13   6  22  1   
 14   6  23  1   
 15   7  10  ar  
 16   7  24  1   
 17   8  10  ar  
 18   8  25  1   
 19   9  11  2   
 20   9  12  am  
 21  10  26  1   
 22  12  13  1   
 23  12  14  1   
 24  13  15  1   
 25  13  27  1   
 26  13  28  1   
 27  14  16  1   
 28  14  29  1   
 29  14  30  1   
 30  15  17  1   
 31  15  31  1   
 32  15  32  1   
 33  16  17  1   
 34  16  33  1   
 35  16  34  1   
@<TRIPOS>SUBSTRUCTURE
  1 ****   3 GROUP 4 **** **** 0

# MOE 2024.06 (io_trps.svl 2023.06)
