@<TRIPOS>MOLECULE
NONAME
51 53 1 0 0 
SMALL
USER_CHARGES


@<TRIPOS>ATOM
  1 O       -1.7550     0.6970     2.5340 O.co2 1 <1>  -0.9000 
  2 C       -1.8320     0.6920     1.2970 C.2   1 <1>   0.9060 
  3 O       -1.6120    -0.3410     0.6510 O.co2 1 <1>  -0.9000 
  4 C       -2.2150     1.9930     0.5370 C.3   1 <1>  -0.1060 
  5 C       -3.6540     1.9540    -0.0760 C.3   1 <1>   0.0000 
  6 C       -2.2830     3.2310     1.4640 C.3   1 <1>  -0.1600 
  7 C       -1.1160     2.2860    -0.5240 C.3   1 <1>  -0.2400 
  8 C       -3.9970     3.4550    -0.2840 C.3   1 <1>  -0.0190 
  9 C       -3.7480     1.1920    -1.4140 C.3   1 <1>  -0.2400 
 10 C       -4.6430     1.2600     0.8940 C.3   1 <1>  -0.2400 
 11 C       -3.2110     4.2410     0.7850 C.3   1 <1>  -0.1600 
 12 C       -5.4780     3.8240    -0.3760 C.2   1 <1>   0.5690 
 13 O       -5.9620     4.0510    -1.4680 O.2   1 <1>  -0.5700 
 14 N       -6.2250     3.9010     0.7590 N.am  1 <1>  -0.4300 
 15 N       -7.5870     4.4370     0.8400 N.am  1 <1>  -0.4300 
 16 C       -7.9090     5.7140     1.1750 C.2   1 <1>   0.6300 
 17 O       -7.1190     6.4830     1.6790 O.2   1 <1>  -0.5700 
 18 C       -9.3310     6.1790     0.9260 C.3   1 <1>  -0.1000 
 19 C      -10.0130     5.8650    -0.3750 C.3   1 <1>  -0.0680 
 20 C       -9.6280     7.2760    -0.0520 C.3   1 <1>  -0.2000 
 21 C      -11.4780     5.4670    -0.3890 C.ar  1 <1>  -0.0320 
 22 C      -12.3570     6.1020    -1.2510 C.ar  1 <1>  -0.1500 
 23 C      -11.9470     4.4670     0.4480 C.ar  1 <1>  -0.1500 
 24 C      -13.6940     5.7440    -1.2750 C.ar  1 <1>  -0.1500 
 25 C      -13.2840     4.1070     0.4270 C.ar  1 <1>  -0.1500 
 26 C      -14.1580     4.7460    -0.4350 C.ar  1 <1>  -0.1500 
 27 H       -1.3090     3.6410     1.6670 H     1 <1>   0.0800 
 28 H       -2.7170     2.9530     2.4090 H     1 <1>   0.0800 
 29 H       -1.0230     1.4550    -1.2010 H     1 <1>   0.0800 
 30 H       -0.1650     2.3990    -0.0340 H     1 <1>   0.0800 
 31 H       -1.3170     3.1750    -1.0900 H     1 <1>   0.0800 
 32 H       -3.5710     3.7450    -1.2270 H     1 <1>   0.0800 
 33 H       -3.1510     1.6540    -2.1780 H     1 <1>   0.0800 
 34 H       -4.7640     1.1640    -1.7630 H     1 <1>   0.0800 
 35 H       -3.4030     0.1810    -1.2840 H     1 <1>   0.0800 
 36 H       -4.6350     1.7230     1.8630 H     1 <1>   0.0800 
 37 H       -4.3680     0.2270     1.0280 H     1 <1>   0.0800 
 38 H       -5.6440     1.2650     0.5050 H     1 <1>   0.0800 
 39 H       -2.6300     5.0110     0.3080 H     1 <1>   0.0800 
 40 H       -3.8440     4.7060     1.5190 H     1 <1>   0.0800 
 41 H       -5.7730     3.6480     1.6450 H     1 <1>   0.3700 
 42 H       -8.3090     3.8550     0.4080 H     1 <1>   0.3700 
 43 H       -9.9140     6.1770     1.8290 H     1 <1>   0.1000 
 44 H       -9.4490     5.3870    -1.1590 H     1 <1>   0.1000 
 45 H       -8.8020     7.7260    -0.5770 H     1 <1>   0.1000 
 46 H      -10.3980     7.9860     0.1950 H     1 <1>   0.1000 
 47 H      -11.9990     6.8760    -1.9050 H     1 <1>   0.1500 
 48 H      -11.2750     3.9650     1.1200 H     1 <1>   0.1500 
 49 H      -14.3720     6.2410    -1.9460 H     1 <1>   0.1500 
 50 H      -13.6450     3.3310     1.0790 H     1 <1>   0.1500 
 51 H      -15.1970     4.4680    -0.4530 H     1 <1>   0.1500 
@<TRIPOS>BOND
  1   1   2  ar  
  2   2   3  ar  
  3   2   4  1   
  4   4   5  1   
  5   4   6  1   
  6   4   7  1   
  7   5   8  1   
  8   5   9  1   
  9   5  10  1   
 10   6  11  1   
 11   6  27  1   
 12   6  28  1   
 13   7  29  1   
 14   7  30  1   
 15   7  31  1   
 16   8  11  1   
 17   8  12  1   
 18   8  32  1   
 19   9  33  1   
 20   9  34  1   
 21   9  35  1   
 22  10  36  1   
 23  10  37  1   
 24  10  38  1   
 25  11  39  1   
 26  11  40  1   
 27  12  13  2   
 28  12  14  am  
 29  14  15  1   
 30  14  41  1   
 31  15  16  am  
 32  15  42  1   
 33  16  17  2   
 34  16  18  1   
 35  18  19  1   
 36  18  20  1   
 37  18  43  1   
 38  19  20  1   
 39  19  21  1   
 40  19  44  1   
 41  20  45  1   
 42  20  46  1   
 43  21  22  ar  
 44  21  23  ar  
 45  22  24  ar  
 46  22  47  1   
 47  23  25  ar  
 48  23  48  1   
 49  24  26  ar  
 50  24  49  1   
 51  25  26  ar  
 52  25  50  1   
 53  26  51  1   
@<TRIPOS>SUBSTRUCTURE
  1 ****  14 GROUP 4 **** **** 0

# MOE 2024.06 (io_trps.svl 2023.06)
