@<TRIPOS>MOLECULE
NONAME
33 34 1 0 0 
SMALL
USER_CHARGES


@<TRIPOS>ATOM
  1 O       -0.4350    -0.4960    -0.8570 O.2   1 <1>  -0.5700 
  2 C       -1.4700    -1.0580    -0.5600 C.2   1 <1>   0.7060 
  3 O       -2.5780    -0.3320    -0.4400 O.3   1 <1>  -0.2320 
  4 C       -1.5660    -2.4580    -0.3320 C.2   1 <1>  -0.1360 
  5 C       -3.7770    -0.8680    -0.1140 C.ar  1 <1>   0.0830 
  6 C       -2.7310    -3.0590    -0.0020 C.2   1 <1>  -0.1670 
  7 C       -3.9280    -2.2490     0.1230 C.ar  1 <1>   0.0280 
  8 C       -4.8400     0.0140    -0.0290 C.ar  1 <1>  -0.1500 
  9 C       -2.7300    -4.5670     0.2210 C.3   1 <1>  -0.1020 
 10 C       -5.2280    -2.6920     0.4540 C.ar  1 <1>   0.0830 
 11 C       -6.1000    -0.4380     0.2980 C.ar  1 <1>  -0.1440 
 12 O       -5.4310    -4.0140     0.6930 O.3   1 <1>  -0.3630 
 13 C       -6.2840    -1.7880     0.5380 C.ar  1 <1>  -0.1500 
 14 C       -7.2750     0.5190     0.3960 C.3   1 <1>  -0.0970 
 15 C       -6.6930    -4.6410     0.8030 C.3   1 <1>   0.1200 
 16 C       -7.3280    -4.7690    -0.5870 C.3   1 <1>  -0.1600 
 17 C       -8.6810    -5.4840    -0.5150 C.3   1 <1>  -0.2400 
 18 H       -0.6440    -2.9950    -0.4410 H     1 <1>   0.1500 
 19 H       -4.6660     1.0580    -0.2210 H     1 <1>   0.1500 
 20 H       -3.0470    -4.7930     1.2240 H     1 <1>   0.0800 
 21 H       -1.7490    -4.9830     0.0820 H     1 <1>   0.0800 
 22 H       -3.3960    -5.0450    -0.4750 H     1 <1>   0.0800 
 23 H       -7.2730    -2.1120     0.7930 H     1 <1>   0.1500 
 24 H       -6.9730     1.5240     0.1600 H     1 <1>   0.0800 
 25 H       -7.6740     0.5070     1.3940 H     1 <1>   0.0800 
 26 H       -8.0470     0.2240    -0.2920 H     1 <1>   0.0800 
 27 H       -7.3090    -4.0920     1.4920 H     1 <1>   0.0800 
 28 H       -6.5210    -5.6200     1.2140 H     1 <1>   0.0800 
 29 H       -6.6660    -5.3280    -1.2240 H     1 <1>   0.0800 
 30 H       -7.4720    -3.7940    -1.0180 H     1 <1>   0.0800 
 31 H       -8.5630    -6.4750    -0.1110 H     1 <1>   0.0800 
 32 H       -9.1050    -5.5670    -1.5000 H     1 <1>   0.0800 
 33 H       -9.3670    -4.9350     0.1060 H     1 <1>   0.0800 
@<TRIPOS>BOND
  1   1   2  2   
  2   2   3  1   
  3   2   4  1   
  4   3   5  1   
  5   4   6  2   
  6   4  18  1   
  7   5   7  ar  
  8   5   8  ar  
  9   6   7  1   
 10   6   9  1   
 11   7  10  ar  
 12   8  11  ar  
 13   8  19  1   
 14   9  20  1   
 15   9  21  1   
 16   9  22  1   
 17  10  12  1   
 18  10  13  ar  
 19  11  13  ar  
 20  11  14  1   
 21  12  15  1   
 22  13  23  1   
 23  14  24  1   
 24  14  25  1   
 25  14  26  1   
 26  15  16  1   
 27  15  27  1   
 28  15  28  1   
 29  16  17  1   
 30  16  29  1   
 31  16  30  1   
 32  17  31  1   
 33  17  32  1   
 34  17  33  1   
@<TRIPOS>SUBSTRUCTURE
  1 ****   7 GROUP 4 **** **** 0

# MOE 2024.06 (io_trps.svl 2023.06)
