@<TRIPOS>MOLECULE
NONAME
51 51 1 0 0 
SMALL
USER_CHARGES


@<TRIPOS>ATOM
  1 N       -0.2700    -0.0800    -0.4390 N.4   1 <1>  -0.9590 
  2 C       -1.4720     0.7870    -0.3180 C.3   1 <1>   0.3430 
  3 C       -0.2640    -1.1850     0.5610 C.3   1 <1>   0.3430 
  4 C        0.9640     0.7550    -0.3310 C.3   1 <1>   0.3430 
  5 C       -2.7480    -0.0450    -0.4850 C.3   1 <1>  -0.1600 
  6 C       -1.5220    -2.0430     0.4070 C.3   1 <1>  -0.1600 
  7 C        2.1590    -0.0190    -0.8760 C.3   1 <1>  -0.2400 
  8 C       -2.8140    -1.2130     0.5150 C.3   1 <1>   0.4230 
  9 N       -4.0330    -2.0790     0.2620 N.4   1 <1>  -0.9590 
 10 C       -5.3450    -1.3030     0.3030 C.3   1 <1>   0.3430 
 11 C       -4.0880    -3.2450     1.2240 C.3   1 <1>   0.2630 
 12 C       -6.6230    -2.1240    -0.0590 C.3   1 <1>   0.3430 
 13 N       -7.9030    -1.3240    -0.1540 N.4   1 <1>  -0.9590 
 14 C       -8.3460    -0.7180     1.1410 C.3   1 <1>   0.3430 
 15 C       -8.9920    -2.1890    -0.7010 C.3   1 <1>   0.3430 
 16 C       -7.9190     0.7430     1.1800 C.3   1 <1>  -0.2400 
 17 C      -10.0730    -1.3110    -1.3200 C.3   1 <1>  -0.2400 
 18 H       -0.2410    -0.4860    -1.3880 H     1 <1>   0.4500 
 19 H       -1.4430     1.5580    -1.0740 H     1 <1>   0.0800 
 20 H       -1.4730     1.2710     0.6470 H     1 <1>   0.0800 
 21 H       -0.2210    -0.7720     1.5570 H     1 <1>   0.0800 
 22 H        0.6080    -1.8040     0.4210 H     1 <1>   0.0800 
 23 H        1.1420     1.0380     0.6950 H     1 <1>   0.0800 
 24 H        0.8470     1.6570    -0.9120 H     1 <1>   0.0800 
 25 H       -2.7890    -0.4090    -1.4960 H     1 <1>   0.0800 
 26 H       -3.5710     0.6280    -0.3330 H     1 <1>   0.0800 
 27 H       -1.4810    -2.7810     1.1870 H     1 <1>   0.0800 
 28 H       -1.4760    -2.5520    -0.5400 H     1 <1>   0.0800 
 29 H        2.3880    -0.8790    -0.2730 H     1 <1>   0.0800 
 30 H        3.0240     0.6220    -0.8630 H     1 <1>   0.0800 
 31 H        1.9930    -0.3210    -1.8950 H     1 <1>   0.0800 
 32 H       -2.8730    -0.8050     1.5130 H     1 <1>   0.0800 
 33 H       -3.9120    -2.4760    -0.6850 H     1 <1>   0.4500 
 34 H       -5.2870    -0.4840    -0.3930 H     1 <1>   0.0800 
 35 H       -5.4730    -0.8920     1.2900 H     1 <1>   0.0800 
 36 H       -4.1310    -2.8940     2.2440 H     1 <1>   0.0800 
 37 H       -3.2170    -3.8720     1.1170 H     1 <1>   0.0800 
 38 H       -4.9520    -3.8600     1.0360 H     1 <1>   0.0800 
 39 H       -6.7590    -2.8990     0.6770 H     1 <1>   0.0800 
 40 H       -6.4540    -2.5990    -1.0120 H     1 <1>   0.0800 
 41 H       -7.8130    -0.5550    -0.8360 H     1 <1>   0.4500 
 42 H       -7.9350    -1.2590     1.9790 H     1 <1>   0.0800 
 43 H       -9.4210    -0.7600     1.2210 H     1 <1>   0.0800 
 44 H       -9.4150    -2.8060     0.0780 H     1 <1>   0.0800 
 45 H       -8.6010    -2.8380    -1.4690 H     1 <1>   0.0800 
 46 H       -6.8530     0.8610     1.1580 H     1 <1>   0.0800 
 47 H       -8.2760     1.1840     2.0950 H     1 <1>   0.0800 
 48 H       -8.3630     1.2900     0.3660 H     1 <1>   0.0800 
 49 H      -10.5460    -0.6800    -0.5890 H     1 <1>   0.0800 
 50 H      -10.8360    -1.9410    -1.7440 H     1 <1>   0.0800 
 51 H       -9.6730    -0.7060    -2.1140 H     1 <1>   0.0800 
@<TRIPOS>BOND
  1   1   2  1   
  2   1   3  1   
  3   1   4  1   
  4   1  18  1   
  5   2   5  1   
  6   2  19  1   
  7   2  20  1   
  8   3   6  1   
  9   3  21  1   
 10   3  22  1   
 11   4   7  1   
 12   4  23  1   
 13   4  24  1   
 14   5   8  1   
 15   5  25  1   
 16   5  26  1   
 17   6   8  1   
 18   6  27  1   
 19   6  28  1   
 20   7  29  1   
 21   7  30  1   
 22   7  31  1   
 23   8   9  1   
 24   8  32  1   
 25   9  10  1   
 26   9  11  1   
 27   9  33  1   
 28  10  12  1   
 29  10  34  1   
 30  10  35  1   
 31  11  36  1   
 32  11  37  1   
 33  11  38  1   
 34  12  13  1   
 35  12  39  1   
 36  12  40  1   
 37  13  14  1   
 38  13  15  1   
 39  13  41  1   
 40  14  16  1   
 41  14  42  1   
 42  14  43  1   
 43  15  17  1   
 44  15  44  1   
 45  15  45  1   
 46  16  46  1   
 47  16  47  1   
 48  16  48  1   
 49  17  49  1   
 50  17  50  1   
 51  17  51  1   
@<TRIPOS>SUBSTRUCTURE
  1 ****   9 GROUP 4 **** **** 0

# MOE 2024.06 (io_trps.svl 2023.06)
