@<TRIPOS>MOLECULE
NONAME
43 44 1 0 0 
SMALL
USER_CHARGES


@<TRIPOS>ATOM
  1 CL       2.1590     0.3310     1.1640 Cl    1 <1>  -0.1770 
  2 C        1.5680     1.6690     0.2050 C.ar  1 <1>   0.1770 
  3 C        1.7120     1.6750    -1.1720 C.ar  1 <1>   0.1900 
  4 C        0.9550     2.7340     0.8360 C.ar  1 <1>  -0.1500 
  5 F        2.2950     0.6710    -1.7770 F     1 <1>  -0.1900 
  6 C        1.2500     2.7300    -1.9360 C.ar  1 <1>  -0.1500 
  7 C        0.4850     3.8150     0.0940 C.ar  1 <1>   0.1990 
  8 C        0.6360     3.7940    -1.2950 C.ar  1 <1>  -0.1500 
  9 N       -0.1300     4.8800     0.7560 N.am  1 <1>  -0.6930 
 10 S        0.1840     6.5470     0.4070 S.o2  1 <1>   1.3330 
 11 C       -1.3460     4.6020     1.5930 C.3   1 <1>   0.2570 
 12 O       -0.3710     7.3060     1.4990 O.2   1 <1>  -0.6500 
 13 O       -0.2520     6.7920    -0.9460 O.2   1 <1>  -0.6500 
 14 C        1.9590     6.6370     0.5130 C.3   1 <1>  -0.1350 
 15 C       -2.2720     3.5200     1.0210 C.2   1 <1>   0.5690 
 16 O       -2.3250     2.4760     1.6340 O.2   1 <1>  -0.5700 
 17 N       -2.9980     3.7190    -0.1340 N.am  1 <1>  -0.6600 
 18 C       -2.9650     4.9930    -0.9150 C.3   1 <1>   0.1400 
 19 C       -3.8090     2.6050    -0.6960 C.3   1 <1>   0.1400 
 20 C       -4.2990     5.3590    -1.5800 C.3   1 <1>  -0.1600 
 21 C       -5.2350     2.6660    -0.1390 C.3   1 <1>  -0.1600 
 22 C       -5.5340     5.1780    -0.6810 C.3   1 <1>  -0.1600 
 23 C       -6.1180     3.7590    -0.7600 C.3   1 <1>  -0.1600 
 24 H        0.8420     2.7180     1.9040 H     1 <1>   0.1500 
 25 H        1.3660     2.7130    -3.0050 H     1 <1>   0.1500 
 26 H        0.2620     4.6070    -1.8900 H     1 <1>   0.1500 
 27 H       -1.9310     5.4930     1.7270 H     1 <1>   0.0800 
 28 H       -1.0230     4.2890     2.5700 H     1 <1>   0.0800 
 29 H        2.2870     6.3270     1.4860 H     1 <1>   0.0800 
 30 H        2.2840     7.6450     0.3460 H     1 <1>   0.0800 
 31 H        2.4110     6.0040    -0.2240 H     1 <1>   0.0800 
 32 H       -2.2010     4.9230    -1.6690 H     1 <1>   0.0800 
 33 H       -2.7020     5.8070    -0.2650 H     1 <1>   0.0800 
 34 H       -3.3640     1.6650    -0.4140 H     1 <1>   0.0800 
 35 H       -3.8150     2.6470    -1.7710 H     1 <1>   0.0800 
 36 H       -4.4160     4.8030    -2.4930 H     1 <1>   0.0800 
 37 H       -4.2340     6.3950    -1.8640 H     1 <1>   0.0800 
 38 H       -5.1880     2.7920     0.9290 H     1 <1>   0.0800 
 39 H       -5.7050     1.7160    -0.3230 H     1 <1>   0.0800 
 40 H       -6.2940     5.8630    -1.0130 H     1 <1>   0.0800 
 41 H       -5.2970     5.4290     0.3390 H     1 <1>   0.0800 
 42 H       -7.0660     3.7530    -0.2490 H     1 <1>   0.0800 
 43 H       -6.3140     3.5140    -1.7900 H     1 <1>   0.0800 
@<TRIPOS>BOND
  1   1   2  1   
  2   2   3  ar  
  3   2   4  ar  
  4   3   5  1   
  5   3   6  ar  
  6   4   7  ar  
  7   4  24  1   
  8   6   8  ar  
  9   6  25  1   
 10   7   8  ar  
 11   7   9  1   
 12   8  26  1   
 13   9  10  am  
 14   9  11  1   
 15  10  12  2   
 16  10  13  2   
 17  10  14  1   
 18  11  15  1   
 19  11  27  1   
 20  11  28  1   
 21  14  29  1   
 22  14  30  1   
 23  14  31  1   
 24  15  16  2   
 25  15  17  am  
 26  17  18  1   
 27  17  19  1   
 28  18  20  1   
 29  18  32  1   
 30  18  33  1   
 31  19  21  1   
 32  19  34  1   
 33  19  35  1   
 34  20  22  1   
 35  20  36  1   
 36  20  37  1   
 37  21  23  1   
 38  21  38  1   
 39  21  39  1   
 40  22  23  1   
 41  22  40  1   
 42  22  41  1   
 43  23  42  1   
 44  23  43  1   
@<TRIPOS>SUBSTRUCTURE
  1 ****   7 GROUP 4 **** **** 0

# MOE 2024.06 (io_trps.svl 2023.06)
