@<TRIPOS>MOLECULE
NONAME
33 33 1 0 0 
SMALL
USER_CHARGES


@<TRIPOS>ATOM
  1 S       -0.2930    -0.2460    -0.7540 S.3   1 <1>  -0.0800 
  2 C        1.0570     0.7270    -0.1970 C.2   1 <1>   0.1040 
  3 C       -1.3830     1.1250    -0.6620 C.2   1 <1>  -0.1400 
  4 N        2.3180     0.1780    -0.0420 N.am  1 <1>  -0.4940 
  5 C        0.6840     2.0170     0.0410 C.2   1 <1>  -0.2330 
  6 C       -0.7270     2.2240    -0.2340 C.2   1 <1>  -0.1810 
  7 C       -2.8150     0.8360    -1.0670 C.3   1 <1>  -0.0600 
  8 C        2.8820    -1.0540    -0.2210 C.2   1 <1>   0.5690 
  9 C        1.6380     3.0140     0.5130 C.2   1 <1>   1.0330 
 10 C       -1.3680     3.5900    -0.0400 C.3   1 <1>  -0.0590 
 11 O        2.2590    -2.0180    -0.6070 O.2   1 <1>  -0.5700 
 12 C        4.3940    -1.2230     0.0870 C.3   1 <1>   0.0610 
 13 O        1.3230     4.1970     0.7360 O.co2 1 <1>  -0.9000 
 14 O        2.8340     2.6970     0.7100 O.co2 1 <1>  -0.9000 
 15 C        5.1350    -1.6890    -1.1810 C.3   1 <1>  -0.2400 
 16 C        5.0670     0.0810     0.5710 C.3   1 <1>  -0.2400 
 17 C        4.5860    -2.2850     1.1860 C.3   1 <1>  -0.2400 
 18 H        2.9640     0.9160     0.2930 H     1 <1>   0.3700 
 19 H       -2.8370     0.4880    -2.0830 H     1 <1>   0.0800 
 20 H       -3.4260     1.7140    -0.9880 H     1 <1>   0.0800 
 21 H       -3.2210     0.0730    -0.4280 H     1 <1>   0.0800 
 22 H       -2.4110     3.5820    -0.2830 H     1 <1>   0.0800 
 23 H       -0.8740     4.3120    -0.6650 H     1 <1>   0.0800 
 24 H       -1.2570     3.8970     0.9850 H     1 <1>   0.0800 
 25 H        5.0180    -0.9610    -1.9640 H     1 <1>   0.0800 
 26 H        4.7270    -2.6220    -1.5280 H     1 <1>   0.0800 
 27 H        6.1830    -1.8240    -0.9870 H     1 <1>   0.0800 
 28 H        6.1110    -0.0780     0.7730 H     1 <1>   0.0800 
 29 H        4.6030     0.4390     1.4750 H     1 <1>   0.0800 
 30 H        4.9850     0.8540    -0.1740 H     1 <1>   0.0800 
 31 H        5.6280    -2.4270     1.4070 H     1 <1>   0.0800 
 32 H        4.1710    -3.2260     0.8700 H     1 <1>   0.0800 
 33 H        4.0790    -1.9800     2.0850 H     1 <1>   0.0800 
@<TRIPOS>BOND
  1   1   2  1   
  2   1   3  1   
  3   2   4  1   
  4   2   5  2   
  5   3   6  2   
  6   3   7  1   
  7   4   8  am  
  8   4  18  1   
  9   5   6  1   
 10   5   9  1   
 11   6  10  1   
 12   7  19  1   
 13   7  20  1   
 14   7  21  1   
 15   8  11  2   
 16   8  12  1   
 17   9  13  ar  
 18   9  14  ar  
 19  10  22  1   
 20  10  23  1   
 21  10  24  1   
 22  12  15  1   
 23  12  16  1   
 24  12  17  1   
 25  15  25  1   
 26  15  26  1   
 27  15  27  1   
 28  16  28  1   
 29  16  29  1   
 30  16  30  1   
 31  17  31  1   
 32  17  32  1   
 33  17  33  1   
@<TRIPOS>SUBSTRUCTURE
  1 ****   2 GROUP 4 **** **** 0

# MOE 2024.06 (io_trps.svl 2023.06)
