@<TRIPOS>MOLECULE
NONAME
39 41 1 0 0 
SMALL
USER_CHARGES


@<TRIPOS>ATOM
  1 O       -0.7990    -0.2100     1.0980 O.2   1 <1>  -0.5700 
  2 C       -0.3140     0.6340     0.3810 C.2   1 <1>   0.5690 
  3 N       -1.0390     1.2350    -0.5950 N.am  1 <1>  -0.7300 
  4 C        1.1440     1.0250     0.5960 C.3   1 <1>   0.1810 
  5 C       -2.4790     1.0170    -0.8590 C.3   1 <1>   0.2840 
  6 O        1.5240     2.1080    -0.2430 O.3   1 <1>  -0.3620 
  7 C       -3.2650     2.2870    -0.5630 C.ar  1 <1>   0.1670 
  8 C        2.7830     2.6110    -0.2080 C.ar  1 <1>   0.0820 
  9 N       -3.4420     3.1350    -1.5690 N.ar  1 <1>  -0.6200 
 10 C       -3.7440     2.4970     0.7210 C.ar  1 <1>  -0.1500 
 11 C        3.7910     2.1170     0.6200 C.ar  1 <1>  -0.1500 
 12 C        3.0510     3.6790    -1.0560 C.ar  1 <1>  -0.1500 
 13 C       -4.1270     4.2300    -1.2790 C.ar  1 <1>   0.1600 
 14 C       -4.4570     3.6410     1.0070 C.ar  1 <1>  -0.1500 
 15 C        5.0420     2.7040     0.5770 C.ar  1 <1>  -0.1440 
 16 C        4.3090     4.2590    -1.0910 C.ar  1 <1>  -0.1500 
 17 C       -4.6490     4.5270    -0.0320 C.ar  1 <1>  -0.1500 
 18 C        5.2980     3.7580    -0.2650 C.ar  1 <1>  -0.1440 
 19 C        6.2670     2.3350     1.3770 C.3   1 <1>  -0.0170 
 20 C        6.7240     4.2300    -0.1380 C.3   1 <1>  -0.0170 
 21 C        7.3970     3.1170     0.6850 C.3   1 <1>  -0.1600 
 22 H       -0.6170     2.0140    -1.1110 H     1 <1>   0.3700 
 23 H        1.7710     0.1840     0.3690 H     1 <1>   0.0800 
 24 H        1.2820     1.3240     1.6180 H     1 <1>   0.0800 
 25 H       -2.8480     0.2110    -0.2490 H     1 <1>   0.0800 
 26 H       -2.6140     0.7440    -1.8910 H     1 <1>   0.0800 
 27 H       -3.5550     1.7700     1.4920 H     1 <1>   0.1500 
 28 H        3.6280     1.2960     1.2910 H     1 <1>   0.1500 
 29 H        2.2680     4.0530    -1.6900 H     1 <1>   0.1500 
 30 H       -4.2830     4.9310    -2.0820 H     1 <1>   0.1500 
 31 H       -4.8430     3.8340     1.9930 H     1 <1>   0.1500 
 32 H        4.5120     5.0850    -1.7490 H     1 <1>   0.1500 
 33 H       -5.1960     5.4390     0.1210 H     1 <1>   0.1500 
 34 H        6.4500     1.2750     1.3560 H     1 <1>   0.0800 
 35 H        6.1430     2.6660     2.3930 H     1 <1>   0.0800 
 36 H        6.7460     5.1640     0.3960 H     1 <1>   0.0800 
 37 H        7.1900     4.3470    -1.1000 H     1 <1>   0.0800 
 38 H        7.9140     2.4550     0.0120 H     1 <1>   0.0800 
 39 H        8.1010     3.5150     1.3940 H     1 <1>   0.0800 
@<TRIPOS>BOND
  1   1   2  2   
  2   2   3  am  
  3   2   4  1   
  4   3   5  1   
  5   3  22  1   
  6   4   6  1   
  7   4  23  1   
  8   4  24  1   
  9   5   7  1   
 10   5  25  1   
 11   5  26  1   
 12   6   8  1   
 13   7   9  ar  
 14   7  10  ar  
 15   8  11  ar  
 16   8  12  ar  
 17   9  13  ar  
 18  10  14  ar  
 19  10  27  1   
 20  11  15  ar  
 21  11  28  1   
 22  12  16  ar  
 23  12  29  1   
 24  13  17  ar  
 25  13  30  1   
 26  14  17  ar  
 27  14  31  1   
 28  15  18  ar  
 29  15  19  1   
 30  16  18  ar  
 31  16  32  1   
 32  17  33  1   
 33  18  20  1   
 34  19  21  1   
 35  19  34  1   
 36  19  35  1   
 37  20  21  1   
 38  20  36  1   
 39  20  37  1   
 40  21  38  1   
 41  21  39  1   
@<TRIPOS>SUBSTRUCTURE
  1 ****   6 GROUP 4 **** **** 0

# MOE 2024.06 (io_trps.svl 2023.06)
