@<TRIPOS>MOLECULE
NONAME
31 32 1 0 0 
SMALL
USER_CHARGES


@<TRIPOS>ATOM
  1 O       -0.8380     0.7990    -1.6340 O.2   1 <1>  -0.5700 
  2 C       -1.8260     0.4990    -0.9960 C.2   1 <1>   0.6900 
  3 N       -2.0570    -0.7600    -0.4860 N.am  1 <1>  -0.6600 
  4 N       -2.8410     1.3850    -0.7020 N.am  1 <1>  -0.6600 
  5 C       -3.4650    -0.7180    -0.1670 C.3   1 <1>   0.5200 
  6 C       -1.4120    -1.9940    -0.9800 C.3   1 <1>   0.1400 
  7 C       -3.5600     0.7010     0.3480 C.3   1 <1>   0.5200 
  8 C       -2.6980     2.8590    -0.7090 C.3   1 <1>   0.0600 
  9 N       -4.2030    -1.3910     0.8750 N.am  1 <1>  -0.7300 
 10 C       -0.9570    -2.8400     0.2100 C.3   1 <1>  -0.1600 
 11 N       -4.9640     0.7340     0.6790 N.am  1 <1>  -0.7300 
 12 C       -5.1990    -0.5130     1.1710 C.2   1 <1>   0.6900 
 13 C       -0.2840    -4.1370    -0.2560 C.3   1 <1>  -0.1600 
 14 O       -6.1840    -0.8080     1.8030 O.2   1 <1>  -0.5700 
 15 C        0.1660    -4.9810     0.9400 C.3   1 <1>  -0.2400 
 16 H       -4.0230    -0.8000    -1.0870 H     1 <1>   0.0800 
 17 H       -0.5590    -1.7340    -1.5860 H     1 <1>   0.0800 
 18 H       -2.1050    -2.5460    -1.5910 H     1 <1>   0.0800 
 19 H       -2.9910     0.7870     1.2610 H     1 <1>   0.0800 
 20 H       -2.0200     3.1520    -1.4930 H     1 <1>   0.0800 
 21 H       -2.3060     3.1970     0.2340 H     1 <1>   0.0800 
 22 H       -3.6550     3.3170    -0.8870 H     1 <1>   0.0800 
 23 H       -4.4490    -2.3730     0.7720 H     1 <1>   0.3700 
 24 H       -1.8060    -3.0810     0.8250 H     1 <1>   0.0800 
 25 H       -0.2600    -2.2670     0.7970 H     1 <1>   0.0800 
 26 H       -5.3490     1.5260     1.1880 H     1 <1>   0.3700 
 27 H        0.5740    -3.9010    -0.8640 H     1 <1>   0.0800 
 28 H       -0.9710    -4.7100    -0.8540 H     1 <1>   0.0800 
 29 H        0.8740    -4.4360     1.5400 H     1 <1>   0.0800 
 30 H        0.6360    -5.8850     0.5950 H     1 <1>   0.0800 
 31 H       -0.6770    -5.2470     1.5540 H     1 <1>   0.0800 
@<TRIPOS>BOND
  1   1   2  2   
  2   2   3  am  
  3   2   4  am  
  4   3   5  1   
  5   3   6  1   
  6   4   7  1   
  7   4   8  1   
  8   5   7  1   
  9   5   9  1   
 10   5  16  1   
 11   6  10  1   
 12   6  17  1   
 13   6  18  1   
 14   7  11  1   
 15   7  19  1   
 16   8  20  1   
 17   8  21  1   
 18   8  22  1   
 19   9  12  am  
 20   9  23  1   
 21  10  13  1   
 22  10  24  1   
 23  10  25  1   
 24  11  12  am  
 25  11  26  1   
 26  12  14  2   
 27  13  15  1   
 28  13  27  1   
 29  13  28  1   
 30  15  29  1   
 31  15  30  1   
 32  15  31  1   
@<TRIPOS>SUBSTRUCTURE
  1 ****   5 GROUP 4 **** **** 0

# MOE 2024.06 (io_trps.svl 2023.06)
