@<TRIPOS>MOLECULE
NONAME
37 38 1 0 0 
SMALL
USER_CHARGES


@<TRIPOS>ATOM
  1 S       -1.2210    -0.0010     0.1290 S.3   1 <1>  -0.3320 
  2 C       -1.5120     1.7390     0.5200 C.ar  1 <1>   0.1020 
  3 C        0.4730    -0.1350    -0.5930 C.3   1 <1>   0.0700 
  4 C       -2.6690     2.0830     1.2250 C.ar  1 <1>   0.0860 
  5 C       -0.5980     2.7030     0.1190 C.ar  1 <1>  -0.1500 
  6 C        0.7610    -1.6180    -0.8350 C.3   1 <1>  -0.1600 
  7 C       -3.6520     1.1110     1.6550 C.2   1 <1>   0.5440 
  8 C       -2.8630     3.4310     1.5230 C.ar  1 <1>  -0.1500 
  9 C       -0.8230     4.0340     0.4220 C.ar  1 <1>  -0.1500 
 10 C        2.1540    -1.8220    -1.4390 C.3   1 <1>  -0.2400 
 11 O       -3.7270     0.8360     2.8380 O.2   1 <1>  -0.5700 
 12 N       -4.5440     0.5310     0.7770 N.am  1 <1>  -0.6600 
 13 C       -1.9570     4.3970     1.1270 C.ar  1 <1>  -0.1500 
 14 C       -5.4730    -0.5620     1.1950 C.3   1 <1>   0.1400 
 15 C       -4.6120     0.8300    -0.6840 C.3   1 <1>   0.1400 
 16 C       -5.3300    -1.7750     0.2620 C.3   1 <1>   0.1200 
 17 C       -4.5260    -0.4670    -1.5070 C.3   1 <1>   0.1200 
 18 O       -5.4840    -1.3920    -1.0770 O.3   1 <1>  -0.5600 
 19 H        1.1610     0.2890     0.1170 H     1 <1>   0.0800 
 20 H        0.4790     0.4220    -1.5130 H     1 <1>   0.0800 
 21 H        0.2870     2.4430    -0.4270 H     1 <1>   0.1500 
 22 H        0.0190    -2.0200    -1.5030 H     1 <1>   0.0800 
 23 H        0.6950    -2.1480     0.1000 H     1 <1>   0.0800 
 24 H       -3.7410     3.7150     2.0790 H     1 <1>   0.1500 
 25 H       -0.1170     4.7860     0.1140 H     1 <1>   0.1500 
 26 H        2.2340    -1.3150    -2.3850 H     1 <1>   0.0800 
 27 H        2.3330    -2.8710    -1.5980 H     1 <1>   0.0800 
 28 H        2.9120    -1.4440    -0.7750 H     1 <1>   0.0800 
 29 H       -2.1310     5.4320     1.3700 H     1 <1>   0.1500 
 30 H       -6.4850    -0.2000     1.1580 H     1 <1>   0.0800 
 31 H       -5.2680    -0.8700     2.2050 H     1 <1>   0.0800 
 32 H       -3.8190     1.4900    -0.9820 H     1 <1>   0.0800 
 33 H       -5.5470     1.3180    -0.8990 H     1 <1>   0.0800 
 34 H       -6.0860    -2.5050     0.4850 H     1 <1>   0.0800 
 35 H       -4.3620    -2.2290     0.3830 H     1 <1>   0.0800 
 36 H       -3.5500    -0.9120    -1.4120 H     1 <1>   0.0800 
 37 H       -4.7110    -0.2610    -2.5460 H     1 <1>   0.0800 
@<TRIPOS>BOND
  1   1   2  1   
  2   1   3  1   
  3   2   4  ar  
  4   2   5  ar  
  5   3   6  1   
  6   3  19  1   
  7   3  20  1   
  8   4   7  1   
  9   4   8  ar  
 10   5   9  ar  
 11   5  21  1   
 12   6  10  1   
 13   6  22  1   
 14   6  23  1   
 15   7  11  2   
 16   7  12  am  
 17   8  13  ar  
 18   8  24  1   
 19   9  13  ar  
 20   9  25  1   
 21  10  26  1   
 22  10  27  1   
 23  10  28  1   
 24  12  14  1   
 25  12  15  1   
 26  13  29  1   
 27  14  16  1   
 28  14  30  1   
 29  14  31  1   
 30  15  17  1   
 31  15  32  1   
 32  15  33  1   
 33  16  18  1   
 34  16  34  1   
 35  16  35  1   
 36  17  18  1   
 37  17  36  1   
 38  17  37  1   
@<TRIPOS>SUBSTRUCTURE
  1 ****   2 GROUP 4 **** **** 0

# MOE 2024.06 (io_trps.svl 2023.06)
