@<TRIPOS>MOLECULE
NONAME
31 32 1 0 0 
SMALL
USER_CHARGES


@<TRIPOS>ATOM
  1 O        0.3350    -4.3110     1.5060 O.2   1 <1>  -0.5700 
  2 C        0.7710    -3.5160     0.6960 C.2   1 <1>   0.8050 
  3 O       -0.0830    -2.6320     0.1590 O.3   1 <1>  -0.4300 
  4 C        2.1460    -3.4530     0.2630 C.2   1 <1>   0.0550 
  5 C       -1.4460    -2.5920     0.5180 C.3   1 <1>   0.2000 
  6 O        3.0570    -4.3030     0.7290 O.3   1 <1>  -0.2800 
  7 C        2.7620    -2.6120    -0.6190 C.2   1 <1>  -0.1500 
  8 C       -2.2020    -3.6720    -0.2600 C.3   1 <1>  -0.1600 
  9 C       -1.9780    -1.2010     0.1760 C.3   1 <1>  -0.1600 
 10 C        4.2180    -4.0320     0.1780 C.2   1 <1>  -0.0100 
 11 C        4.1030    -2.9900    -0.6710 C.2   1 <1>  -0.1500 
 12 C       -3.7030    -3.5600    -0.0120 C.3   1 <1>   0.3430 
 13 C       -3.4840    -1.1270     0.4130 C.3   1 <1>   0.3430 
 14 N       -4.1760    -2.1910    -0.3760 N.4   1 <1>  -0.9590 
 15 C       -5.6600    -2.0850    -0.2240 C.3   1 <1>   0.2630 
 16 H       -1.5290    -2.7570     1.5810 H     1 <1>   0.0800 
 17 H        2.3220    -1.8050    -1.1780 H     1 <1>   0.1500 
 18 H       -1.8770    -4.6460     0.0630 H     1 <1>   0.0800 
 19 H       -2.0040    -3.5830    -1.3140 H     1 <1>   0.0800 
 20 H       -1.7640    -0.9620    -0.8510 H     1 <1>   0.0800 
 21 H       -1.4910    -0.4720     0.7990 H     1 <1>   0.0800 
 22 H        5.0750    -4.6270     0.4440 H     1 <1>   0.1500 
 23 H        4.8680    -2.5290    -1.2720 H     1 <1>   0.1500 
 24 H       -3.9110    -3.7550     1.0280 H     1 <1>   0.0800 
 25 H       -4.2200    -4.3000    -0.6030 H     1 <1>   0.0800 
 26 H       -3.8460    -0.1540     0.1180 H     1 <1>   0.0800 
 27 H       -3.6900    -1.2600     1.4630 H     1 <1>   0.0800 
 28 H       -3.9420    -2.0390    -1.3690 H     1 <1>   0.4500 
 29 H       -5.9440    -2.2390     0.8050 H     1 <1>   0.0800 
 30 H       -6.1530    -2.8260    -0.8320 H     1 <1>   0.0800 
 31 H       -6.0000    -1.1090    -0.5330 H     1 <1>   0.0800 
@<TRIPOS>BOND
  1   1   2  2   
  2   2   3  1   
  3   2   4  1   
  4   3   5  1   
  5   4   6  1   
  6   4   7  2   
  7   5   8  1   
  8   5   9  1   
  9   5  16  1   
 10   6  10  1   
 11   7  11  1   
 12   7  17  1   
 13   8  12  1   
 14   8  18  1   
 15   8  19  1   
 16   9  13  1   
 17   9  20  1   
 18   9  21  1   
 19  10  11  2   
 20  10  22  1   
 21  11  23  1   
 22  12  14  1   
 23  12  24  1   
 24  12  25  1   
 25  13  14  1   
 26  13  26  1   
 27  13  27  1   
 28  14  15  1   
 29  14  28  1   
 30  15  29  1   
 31  15  30  1   
 32  15  31  1   
@<TRIPOS>SUBSTRUCTURE
  1 ****   3 GROUP 4 **** **** 0

# MOE 2024.06 (io_trps.svl 2023.06)
