@<TRIPOS>MOLECULE
NONAME
43 45 1 0 0 
SMALL
USER_CHARGES


@<TRIPOS>ATOM
  1 F       -0.6150    -0.9500     1.6630 F     1 <1>  -0.1900 
  2 C       -1.5470    -1.3940     0.8510 C.ar  1 <1>   0.1900 
  3 C       -1.2280    -2.3830    -0.0880 C.ar  1 <1>   0.1000 
  4 C       -2.8110    -0.8510     0.9690 C.ar  1 <1>  -0.1500 
  5 N        0.0420    -2.9580    -0.2380 N.pl3 1 <1>  -0.8380 
  6 C       -2.2550    -2.8130    -0.9190 C.ar  1 <1>  -0.1500 
  7 C       -3.8120    -1.3020     0.1240 C.ar  1 <1>  -0.1500 
  8 C        0.4880    -3.8070     0.9080 C.3   1 <1>   0.2090 
  9 C        1.0940    -2.0330    -0.7600 C.3   1 <1>   0.2090 
 10 C       -3.5300    -2.2810    -0.8160 C.ar  1 <1>  -0.1500 
 11 C        1.8080    -4.5370     0.5850 C.3   1 <1>   0.3430 
 12 C        2.4050    -2.7890    -1.0610 C.3   1 <1>   0.3430 
 13 N        2.8950    -3.5930     0.1200 N.4   1 <1>  -0.9590 
 14 C        4.1660    -4.3010    -0.2250 C.3   1 <1>   0.3430 
 15 C        4.8480    -4.9000     1.0060 C.3   1 <1>  -0.0170 
 16 C        6.1790    -5.4870     0.5800 C.ar  1 <1>  -0.1430 
 17 C        7.3310    -4.7170     0.6260 C.ar  1 <1>  -0.1500 
 18 C        6.2530    -6.7970     0.1300 C.ar  1 <1>  -0.1500 
 19 C        8.5420    -5.2480     0.2190 C.ar  1 <1>  -0.1500 
 20 C        7.4640    -7.3280    -0.2770 C.ar  1 <1>  -0.1500 
 21 C        8.6090    -6.5530    -0.2330 C.ar  1 <1>  -0.1500 
 22 H       -3.0090    -0.0930     1.7050 H     1 <1>   0.1500 
 23 H       -2.0480    -3.5710    -1.6520 H     1 <1>   0.1500 
 24 H       -4.8060    -0.8940     0.1980 H     1 <1>   0.1500 
 25 H       -0.2760    -4.5340     1.1240 H     1 <1>   0.0800 
 26 H        0.6180    -3.1980     1.7860 H     1 <1>   0.0800 
 27 H        1.2820    -1.2520    -0.0450 H     1 <1>   0.0800 
 28 H        0.7350    -1.5710    -1.6640 H     1 <1>   0.0800 
 29 H       -4.3100    -2.6300    -1.4720 H     1 <1>   0.1500 
 30 H        1.6070    -5.2630    -0.1860 H     1 <1>   0.0800 
 31 H        2.1320    -5.0700     1.4630 H     1 <1>   0.0800 
 32 H        3.1570    -2.0770    -1.3580 H     1 <1>   0.0800 
 33 H        2.2250    -3.4470    -1.8950 H     1 <1>   0.0800 
 34 H        3.0790    -2.9280     0.8830 H     1 <1>   0.4500 
 35 H        4.8520    -3.6060    -0.6820 H     1 <1>   0.0800 
 36 H        3.9710    -5.0850    -0.9400 H     1 <1>   0.0800 
 37 H        4.2450    -5.6770     1.4400 H     1 <1>   0.0800 
 38 H        5.0180    -4.1380     1.7470 H     1 <1>   0.0800 
 39 H        7.3040    -3.7000     0.9790 H     1 <1>   0.1500 
 40 H        5.3760    -7.4210     0.0920 H     1 <1>   0.1500 
 41 H        9.4360    -4.6490     0.2570 H     1 <1>   0.1500 
 42 H        7.5210    -8.3450    -0.6250 H     1 <1>   0.1500 
 43 H        9.5520    -6.9660    -0.5490 H     1 <1>   0.1500 
@<TRIPOS>BOND
  1   1   2  1   
  2   2   3  ar  
  3   2   4  ar  
  4   3   5  1   
  5   3   6  ar  
  6   4   7  ar  
  7   4  22  1   
  8   5   8  1   
  9   5   9  1   
 10   6  10  ar  
 11   6  23  1   
 12   7  10  ar  
 13   7  24  1   
 14   8  11  1   
 15   8  25  1   
 16   8  26  1   
 17   9  12  1   
 18   9  27  1   
 19   9  28  1   
 20  10  29  1   
 21  11  13  1   
 22  11  30  1   
 23  11  31  1   
 24  12  13  1   
 25  12  32  1   
 26  12  33  1   
 27  13  14  1   
 28  13  34  1   
 29  14  15  1   
 30  14  35  1   
 31  14  36  1   
 32  15  16  1   
 33  15  37  1   
 34  15  38  1   
 35  16  17  ar  
 36  16  18  ar  
 37  17  19  ar  
 38  17  39  1   
 39  18  20  ar  
 40  18  40  1   
 41  19  21  ar  
 42  19  41  1   
 43  20  21  ar  
 44  20  42  1   
 45  21  43  1   
@<TRIPOS>SUBSTRUCTURE
  1 ****  13 GROUP 4 **** **** 0

# MOE 2024.06 (io_trps.svl 2023.06)
