@<TRIPOS>MOLECULE
NONAME
50 52 1 0 0 
SMALL
USER_CHARGES


@<TRIPOS>ATOM
  1 F       -0.4880     0.4250    -1.4860 F     1 <1>  -0.3400 
  2 C       -1.2740    -0.5970    -1.1510 C.3   1 <1>   1.0200 
  3 F       -2.2440    -0.6150    -2.0600 F     1 <1>  -0.3400 
  4 F       -1.8640    -0.2450    -0.0100 F     1 <1>  -0.3400 
  5 C       -0.4990    -1.9630    -1.0400 C.3   1 <1>   0.6610 
  6 N        0.1450    -2.4510    -2.2830 N.am  1 <1>  -0.7300 
  7 N       -1.2730    -3.1220    -0.4850 N.am  1 <1>  -0.7300 
  8 C        0.7490    -1.6930    -0.1930 C.2   1 <1>   0.5690 
  9 C        1.4780    -2.5050    -2.1300 C.2   1 <1>   0.6900 
 10 C       -2.1760    -3.8710    -1.1600 C.2   1 <1>   0.5690 
 11 O        0.7470    -1.3520     0.9670 O.2   1 <1>  -0.5700 
 12 N        1.8590    -1.9970    -0.9240 N.am  1 <1>  -0.4200 
 13 O        2.2290    -2.9970    -2.9380 O.2   1 <1>  -0.5700 
 14 O       -2.3410    -3.7320    -2.3450 O.2   1 <1>  -0.5700 
 15 C       -2.9960    -4.9110    -0.4020 C.3   1 <1>  -0.0190 
 16 C        3.2550    -1.9440    -0.4370 C.3   1 <1>   0.1400 
 17 C       -3.8940    -4.2580     0.6690 C.3   1 <1>  -0.1600 
 18 C       -2.1000    -6.0000     0.2230 C.3   1 <1>  -0.1600 
 19 C        3.6470    -3.2750     0.2040 C.3   1 <1>  -0.0170 
 20 C       -4.7210    -5.3090     1.4230 C.3   1 <1>  -0.1600 
 21 C       -2.9320    -7.0450     0.9790 C.3   1 <1>  -0.1600 
 22 C        5.0780    -3.2030     0.7070 C.ar  1 <1>  -0.1430 
 23 C       -3.8210    -6.3860     2.0410 C.3   1 <1>  -0.1600 
 24 C        6.1280    -3.5610    -0.1250 C.ar  1 <1>  -0.1500 
 25 C        5.3470    -2.7710     1.9960 C.ar  1 <1>  -0.1500 
 26 C        7.4340    -3.4890     0.3280 C.ar  1 <1>  -0.1500 
 27 C        6.6530    -2.6990     2.4500 C.ar  1 <1>  -0.1500 
 28 C        7.6970    -3.0580     1.6170 C.ar  1 <1>  -0.1500 
 29 H       -0.3880    -3.0940    -2.8800 H     1 <1>   0.3700 
 30 H       -1.2080    -3.2170     0.5310 H     1 <1>   0.3700 
 31 H       -3.6400    -5.3900    -1.1200 H     1 <1>   0.0800 
 32 H        3.3530    -1.1500     0.2840 H     1 <1>   0.0800 
 33 H        3.9120    -1.7320    -1.2640 H     1 <1>   0.0800 
 34 H       -4.5590    -3.5540     0.1980 H     1 <1>   0.0800 
 35 H       -3.2910    -3.7180     1.3780 H     1 <1>   0.0800 
 36 H       -1.4000    -5.5520     0.9080 H     1 <1>   0.0800 
 37 H       -1.5360    -6.4880    -0.5530 H     1 <1>   0.0800 
 38 H        3.5610    -4.0670    -0.5190 H     1 <1>   0.0800 
 39 H        2.9900    -3.4910     1.0280 H     1 <1>   0.0800 
 40 H       -5.4150    -5.7730     0.7420 H     1 <1>   0.0800 
 41 H       -5.2950    -4.8300     2.1980 H     1 <1>   0.0800 
 42 H       -2.2770    -7.7580     1.4490 H     1 <1>   0.0800 
 43 H       -3.5520    -7.5810     0.2800 H     1 <1>   0.0800 
 44 H       -4.4320    -7.1360     2.5140 H     1 <1>   0.0800 
 45 H       -3.2020    -5.9420     2.8010 H     1 <1>   0.0800 
 46 H        5.9340    -3.8970    -1.1290 H     1 <1>   0.1500 
 47 H        4.5430    -2.4890     2.6540 H     1 <1>   0.1500 
 48 H        8.2440    -3.7690    -0.3220 H     1 <1>   0.1500 
 49 H        6.8560    -2.3640     3.4530 H     1 <1>   0.1500 
 50 H        8.7120    -3.0030     1.9700 H     1 <1>   0.1500 
@<TRIPOS>BOND
  1   1   2  1   
  2   2   3  1   
  3   2   4  1   
  4   2   5  1   
  5   5   6  1   
  6   5   7  1   
  7   5   8  1   
  8   6   9  am  
  9   6  29  1   
 10   7  10  am  
 11   7  30  1   
 12   8  11  2   
 13   8  12  am  
 14   9  12  am  
 15   9  13  2   
 16  10  14  2   
 17  10  15  1   
 18  12  16  1   
 19  15  17  1   
 20  15  18  1   
 21  15  31  1   
 22  16  19  1   
 23  16  32  1   
 24  16  33  1   
 25  17  20  1   
 26  17  34  1   
 27  17  35  1   
 28  18  21  1   
 29  18  36  1   
 30  18  37  1   
 31  19  22  1   
 32  19  38  1   
 33  19  39  1   
 34  20  23  1   
 35  20  40  1   
 36  20  41  1   
 37  21  23  1   
 38  21  42  1   
 39  21  43  1   
 40  22  24  ar  
 41  22  25  ar  
 42  23  44  1   
 43  23  45  1   
 44  24  26  ar  
 45  24  46  1   
 46  25  27  ar  
 47  25  47  1   
 48  26  28  ar  
 49  26  48  1   
 50  27  28  ar  
 51  27  49  1   
 52  28  50  1   
@<TRIPOS>SUBSTRUCTURE
  1 ****   8 GROUP 4 **** **** 0

# MOE 2024.06 (io_trps.svl 2023.06)
