@<TRIPOS>MOLECULE
NONAME
34 34 1 0 0 
SMALL
USER_CHARGES


@<TRIPOS>ATOM
  1 CL       0.4950    -1.1000    -2.5540 Cl    1 <1>  -0.1770 
  2 C        1.5180    -1.3850    -1.1630 C.ar  1 <1>   0.1770 
  3 C        1.1780    -2.3530    -0.2260 C.ar  1 <1>   0.0830 
  4 C        2.6640    -0.6240    -1.0330 C.ar  1 <1>  -0.1500 
  5 O        0.0380    -3.0680    -0.4160 O.3   1 <1>  -0.3630 
  6 C        2.0260    -2.5430     0.8610 C.ar  1 <1>  -0.1500 
  7 C        3.5170    -0.8100     0.0480 C.ar  1 <1>  -0.0090 
  8 C       -0.3880    -4.0490     0.5040 C.3   1 <1>   0.0400 
  9 C        3.1740    -1.7780     0.9870 C.ar  1 <1>  -0.1500 
 10 S        5.0320     0.1690     0.2330 S.o2  1 <1>   1.4470 
 11 O        5.3270     0.8920    -0.9860 O.2   1 <1>  -0.6500 
 12 O        4.9880     0.8880     1.4860 O.2   1 <1>  -0.6500 
 13 N        6.2350    -1.0150     0.3810 N.am  1 <1>  -0.8490 
 14 C        7.4440    -0.4450     1.0310 C.3   1 <1>   0.2570 
 15 C        6.5370    -1.6920    -0.8870 C.3   1 <1>   0.1160 
 16 C        8.6630    -1.3740     1.1360 C.2   1 <1>   0.5690 
 17 O        8.7480    -2.1360     2.0700 O.2   1 <1>  -0.5700 
 18 N        9.6300    -1.3150     0.1730 N.am  1 <1>  -0.7300 
 19 C       10.8590    -2.1500     0.1500 C.3   1 <1>   0.0600 
 20 H        2.8890     0.1170    -1.7810 H     1 <1>   0.1500 
 21 H        1.8120    -3.2760     1.6160 H     1 <1>   0.1500 
 22 H       -1.3120    -4.4640     0.1430 H     1 <1>   0.0800 
 23 H       -0.5460    -3.5860     1.4620 H     1 <1>   0.0800 
 24 H        0.3590    -4.8210     0.5640 H     1 <1>   0.0800 
 25 H        3.8250    -1.9340     1.8330 H     1 <1>   0.1500 
 26 H        7.1900    -0.1500     2.0340 H     1 <1>   0.0800 
 27 H        7.7440     0.4430     0.5030 H     1 <1>   0.0800 
 28 H        5.6310    -2.0690    -1.3310 H     1 <1>   0.0800 
 29 H        7.1930    -2.5300    -0.7170 H     1 <1>   0.0800 
 30 H        7.0030    -1.0110    -1.5800 H     1 <1>   0.0800 
 31 H        9.5430    -0.6400    -0.5900 H     1 <1>   0.3700 
 32 H       10.8670    -2.8320     0.9830 H     1 <1>   0.0800 
 33 H       11.7290    -1.5200     0.2120 H     1 <1>   0.0800 
 34 H       10.8970    -2.7190    -0.7630 H     1 <1>   0.0800 
@<TRIPOS>BOND
  1   1   2  1   
  2   2   3  ar  
  3   2   4  ar  
  4   3   5  1   
  5   3   6  ar  
  6   4   7  ar  
  7   4  20  1   
  8   5   8  1   
  9   6   9  ar  
 10   6  21  1   
 11   7   9  ar  
 12   7  10  1   
 13   8  22  1   
 14   8  23  1   
 15   8  24  1   
 16   9  25  1   
 17  10  11  2   
 18  10  12  2   
 19  10  13  am  
 20  13  14  1   
 21  13  15  1   
 22  14  16  1   
 23  14  26  1   
 24  14  27  1   
 25  15  28  1   
 26  15  29  1   
 27  15  30  1   
 28  16  17  2   
 29  16  18  am  
 30  18  19  1   
 31  18  31  1   
 32  19  32  1   
 33  19  33  1   
 34  19  34  1   
@<TRIPOS>SUBSTRUCTURE
  1 ****   7 GROUP 4 **** **** 0

# MOE 2024.06 (io_trps.svl 2023.06)
