@<TRIPOS>MOLECULE
NONAME
56 60 1 0 0 
SMALL
USER_CHARGES


@<TRIPOS>ATOM
  1 N        4.8200     2.5270    -0.5860 N.4   1 <1>  -0.9590 
  2 C        5.8670     1.5530    -0.1340 C.3   1 <1>   0.5030 
  3 C        4.7200     3.7710     0.2660 C.3   1 <1>   0.3430 
  4 C        3.4490     1.9180    -0.7730 C.3   1 <1>   0.3430 
  5 C        7.2450     2.2560    -0.0880 C.3   1 <1>  -0.1600 
  6 C        5.9610     0.3850    -1.1460 C.3   1 <1>  -0.1600 
  7 C        5.5510     0.9780     1.2650 C.3   1 <1>  -0.1600 
  8 C        3.6650     4.7680    -0.2630 C.3   1 <1>   0.1100 
  9 C        2.4320     2.9440    -1.3070 C.3   1 <1>   0.1100 
 10 C        8.3470     1.2690     0.3370 C.3   1 <1>  -0.0800 
 11 C        7.0560    -0.6120    -0.7270 C.3   1 <1>  -0.0800 
 12 C        6.6480    -0.0170     1.6930 C.3   1 <1>  -0.0800 
 13 N        2.3390     4.1520    -0.4550 N.3   1 <1>  -0.8100 
 14 C        8.4110     0.1130    -0.6750 C.3   1 <1>  -0.1600 
 15 C        8.0070     0.7060     1.7300 C.3   1 <1>  -0.1600 
 16 C        6.7230    -1.1660     0.6700 C.3   1 <1>  -0.1600 
 17 C        1.6050     3.9710     0.8180 C.3   1 <1>   0.3100 
 18 C        0.2250     3.4640     0.5810 C.1   1 <1>  -0.2000 
 19 C       -0.8740     3.0520     0.3820 C.1   1 <1>  -0.0730 
 20 C       -2.1930     2.5580     0.1240 C.ar  1 <1>   0.0730 
 21 C       -2.7860     1.6350     0.9740 C.ar  1 <1>  -0.1500 
 22 C       -2.9050     2.9930    -0.9860 C.ar  1 <1>  -0.1500 
 23 C       -4.0590     1.1530     0.7210 C.ar  1 <1>  -0.1500 
 24 C       -4.1780     2.5160    -1.2440 C.ar  1 <1>  -0.1500 
 25 C       -4.7570     1.5930    -0.3900 C.ar  1 <1>  -0.1500 
 26 H        5.1200     2.8390    -1.5150 H     1 <1>   0.4500 
 27 H        5.6710     4.2740     0.2970 H     1 <1>   0.0800 
 28 H        4.4590     3.5000     1.2750 H     1 <1>   0.0800 
 29 H        3.0860     1.5320     0.1640 H     1 <1>   0.0800 
 30 H        3.4980     1.1000    -1.4710 H     1 <1>   0.0800 
 31 H        7.2480     3.0590     0.6260 H     1 <1>   0.0800 
 32 H        7.4900     2.6580    -1.0550 H     1 <1>   0.0800 
 33 H        5.0380    -0.1620    -1.1960 H     1 <1>   0.0800 
 34 H        6.1890     0.7610    -2.1280 H     1 <1>   0.0800 
 35 H        4.6090     0.4600     1.2600 H     1 <1>   0.0800 
 36 H        5.5030     1.7630     1.9970 H     1 <1>   0.0800 
 37 H        4.0020     5.1660    -1.2050 H     1 <1>   0.0800 
 38 H        3.5820     5.6010     0.4160 H     1 <1>   0.0800 
 39 H        1.4670     2.4760    -1.4060 H     1 <1>   0.0800 
 40 H        2.7260     3.2440    -2.2980 H     1 <1>   0.0800 
 41 H        9.3000     1.7720     0.3720 H     1 <1>   0.0800 
 42 H        7.1080    -1.4230    -1.4360 H     1 <1>   0.0800 
 43 H        6.4240    -0.4160     2.6690 H     1 <1>   0.0800 
 44 H        9.1830    -0.5800    -0.3860 H     1 <1>   0.0800 
 45 H        8.6690     0.4890    -1.6510 H     1 <1>   0.0800 
 46 H        8.7760     0.0170     2.0380 H     1 <1>   0.0800 
 47 H        7.9840     1.5020     2.4550 H     1 <1>   0.0800 
 48 H        7.4820    -1.8690     0.9710 H     1 <1>   0.0800 
 49 H        5.7880    -1.6990     0.6440 H     1 <1>   0.0800 
 50 H        1.5310     4.9190     1.3240 H     1 <1>   0.0800 
 51 H        2.1270     3.2840     1.4620 H     1 <1>   0.0800 
 52 H       -2.2490     1.2910     1.8400 H     1 <1>   0.1500 
 53 H       -2.4590     3.7120    -1.6510 H     1 <1>   0.1500 
 54 H       -4.5080     0.4370     1.3880 H     1 <1>   0.1500 
 55 H       -4.7190     2.8620    -2.1080 H     1 <1>   0.1500 
 56 H       -5.7460     1.2210    -0.5890 H     1 <1>   0.1500 
@<TRIPOS>BOND
  1   1   2  1   
  2   1   3  1   
  3   1   4  1   
  4   1  26  1   
  5   2   5  1   
  6   2   6  1   
  7   2   7  1   
  8   3   8  1   
  9   3  27  1   
 10   3  28  1   
 11   4   9  1   
 12   4  29  1   
 13   4  30  1   
 14   5  10  1   
 15   5  31  1   
 16   5  32  1   
 17   6  11  1   
 18   6  33  1   
 19   6  34  1   
 20   7  12  1   
 21   7  35  1   
 22   7  36  1   
 23   8  13  1   
 24   8  37  1   
 25   8  38  1   
 26   9  13  1   
 27   9  39  1   
 28   9  40  1   
 29  10  14  1   
 30  10  15  1   
 31  10  41  1   
 32  11  14  1   
 33  11  16  1   
 34  11  42  1   
 35  12  15  1   
 36  12  16  1   
 37  12  43  1   
 38  13  17  1   
 39  14  44  1   
 40  14  45  1   
 41  15  46  1   
 42  15  47  1   
 43  16  48  1   
 44  16  49  1   
 45  17  18  1   
 46  17  50  1   
 47  17  51  1   
 48  18  19  3   
 49  19  20  1   
 50  20  21  ar  
 51  20  22  ar  
 52  21  23  ar  
 53  21  52  1   
 54  22  24  ar  
 55  22  53  1   
 56  23  25  ar  
 57  23  54  1   
 58  24  25  ar  
 59  24  55  1   
 60  25  56  1   
@<TRIPOS>SUBSTRUCTURE
  1 ****   4 GROUP 4 **** **** 0

# MOE 2024.06 (io_trps.svl 2023.06)
