@<TRIPOS>MOLECULE
NONAME
50 52 1 0 0 
SMALL
USER_CHARGES


@<TRIPOS>ATOM
  1 F       -1.3830    -1.0720    -1.3280 F     1 <1>  -0.1900 
  2 C       -2.3340    -0.4190    -0.7210 C.ar  1 <1>   0.1900 
  3 C       -2.3680     0.9580    -0.8230 C.ar  1 <1>  -0.1500 
  4 C       -3.2730    -1.1270     0.0030 C.ar  1 <1>  -0.1500 
  5 C       -3.3830     1.6480    -0.1800 C.ar  1 <1>  -0.1500 
  6 C       -4.2840    -0.4290     0.6420 C.ar  1 <1>  -0.1500 
  7 C       -4.3470     0.9580     0.5480 C.ar  1 <1>  -0.1430 
  8 C       -5.4680     1.7130     1.2390 C.3   1 <1>   0.4870 
  9 N       -6.4550     2.1490     0.2140 N.4   1 <1>  -0.9590 
 10 C       -7.4920     3.0550     0.8280 C.3   1 <1>   0.3430 
 11 C       -7.0880     0.9580    -0.4680 C.3   1 <1>   0.3430 
 12 C       -8.6020     3.4420    -0.1720 C.3   1 <1>   0.1400 
 13 C       -8.1870     1.3690    -1.4710 C.3   1 <1>   0.1400 
 14 N       -9.1980     2.2220    -0.7910 N.am  1 <1>  -0.6600 
 15 C      -10.1510     1.5630    -0.0730 C.2   1 <1>   0.6900 
 16 O       -9.9660     1.3950     1.1170 O.2   1 <1>  -0.5700 
 17 N      -11.2320     1.0880    -0.7460 N.am  1 <1>  -0.5470 
 18 C      -12.3120     0.2830    -0.3520 C.ar  1 <1>   0.1170 
 19 C      -13.4210     0.2100    -1.1860 C.ar  1 <1>  -0.1500 
 20 C      -12.3270    -0.4600     0.8230 C.ar  1 <1>  -0.1500 
 21 C      -14.5190    -0.5740    -0.8710 C.ar  1 <1>  -0.1430 
 22 C      -13.4170    -1.2440     1.1480 C.ar  1 <1>  -0.1500 
 23 C      -14.5180    -1.3100     0.3090 C.ar  1 <1>  -0.1430 
 24 C      -15.7040    -0.6100    -1.8260 C.3   1 <1>  -0.0970 
 25 C      -15.6980    -2.1860     0.7040 C.3   1 <1>  -0.0970 
 26 H       -1.6110     1.4700    -1.3910 H     1 <1>   0.1500 
 27 H       -3.2050    -2.2000     0.0620 H     1 <1>   0.1500 
 28 H       -3.4020     2.7230    -0.2530 H     1 <1>   0.1500 
 29 H       -5.0120    -0.9820     1.2140 H     1 <1>   0.1500 
 30 H       -5.0570     2.5690     1.7490 H     1 <1>   0.0800 
 31 H       -5.9460     1.0790     1.9690 H     1 <1>   0.0800 
 32 H       -5.9360     2.6710    -0.5020 H     1 <1>   0.4500 
 33 H       -7.0260     3.9520     1.2030 H     1 <1>   0.0800 
 34 H       -7.9590     2.5550     1.6620 H     1 <1>   0.0800 
 35 H       -7.5370     0.3170     0.2740 H     1 <1>   0.0800 
 36 H       -6.3350     0.3860    -0.9850 H     1 <1>   0.0800 
 37 H       -8.2070     4.0830    -0.9410 H     1 <1>   0.0800 
 38 H       -9.3710     3.9880     0.3490 H     1 <1>   0.0800 
 39 H       -8.6620     0.4830    -1.8590 H     1 <1>   0.0800 
 40 H       -7.7560     1.9030    -2.3000 H     1 <1>   0.0800 
 41 H      -11.3010     1.4620    -1.6870 H     1 <1>   0.3700 
 42 H      -13.4250     0.7790    -2.0960 H     1 <1>   0.1500 
 43 H      -11.4910    -0.4350     1.4940 H     1 <1>   0.1500 
 44 H      -13.4010    -1.8060     2.0650 H     1 <1>   0.1500 
 45 H      -15.5330     0.0170    -2.6810 H     1 <1>   0.0800 
 46 H      -16.5900    -0.2630    -1.3250 H     1 <1>   0.0800 
 47 H      -15.8670    -1.6150    -2.1720 H     1 <1>   0.0800 
 48 H      -16.5840    -1.5860     0.8040 H     1 <1>   0.0800 
 49 H      -15.5160    -2.6770     1.6430 H     1 <1>   0.0800 
 50 H      -15.8640    -2.9400    -0.0430 H     1 <1>   0.0800 
@<TRIPOS>BOND
  1   1   2  1   
  2   2   3  ar  
  3   2   4  ar  
  4   3   5  ar  
  5   3  26  1   
  6   4   6  ar  
  7   4  27  1   
  8   5   7  ar  
  9   5  28  1   
 10   6   7  ar  
 11   6  29  1   
 12   7   8  1   
 13   8   9  1   
 14   8  30  1   
 15   8  31  1   
 16   9  10  1   
 17   9  11  1   
 18   9  32  1   
 19  10  12  1   
 20  10  33  1   
 21  10  34  1   
 22  11  13  1   
 23  11  35  1   
 24  11  36  1   
 25  12  14  1   
 26  12  37  1   
 27  12  38  1   
 28  13  14  1   
 29  13  39  1   
 30  13  40  1   
 31  14  15  am  
 32  15  16  2   
 33  15  17  am  
 34  17  18  1   
 35  17  41  1   
 36  18  19  ar  
 37  18  20  ar  
 38  19  21  ar  
 39  19  42  1   
 40  20  22  ar  
 41  20  43  1   
 42  21  23  ar  
 43  21  24  1   
 44  22  23  ar  
 45  22  44  1   
 46  23  25  1   
 47  24  45  1   
 48  24  46  1   
 49  24  47  1   
 50  25  48  1   
 51  25  49  1   
 52  25  50  1   
@<TRIPOS>SUBSTRUCTURE
  1 ****  13 GROUP 4 **** **** 0

# MOE 2024.06 (io_trps.svl 2023.06)
