@<TRIPOS>MOLECULE
NONAME
49 51 1 0 0 
SMALL
USER_CHARGES


@<TRIPOS>ATOM
  1 N       -0.0020    -0.0260     0.3400 N.pl3 1 <1>  -0.8380 
  2 C       -1.2630     0.5630     0.4350 C.ar  1 <1>   0.1000 
  3 C        0.4080    -0.8860     1.4830 C.3   1 <1>   0.2090 
  4 C        1.0810     0.8110    -0.2460 C.3   1 <1>   0.2090 
  5 C       -2.3460     0.1090    -0.3260 C.ar  1 <1>  -0.1440 
  6 C       -1.4480     1.6220     1.3170 C.ar  1 <1>  -0.1500 
  7 C        1.6430    -1.7320     1.1100 C.3   1 <1>   0.3430 
  8 C        2.3070    -0.0580    -0.5980 C.3   1 <1>   0.3430 
  9 C       -3.5920     0.7130    -0.1810 C.ar  1 <1>  -0.1440 
 10 C       -2.1740    -1.0490    -1.3100 C.3   1 <1>  -0.0970 
 11 C       -2.6810     2.2240     1.4520 C.ar  1 <1>  -0.1500 
 12 N        2.7840    -0.9000     0.5680 N.4   1 <1>  -0.9590 
 13 C       -3.7490     1.7690     0.7050 C.ar  1 <1>  -0.1500 
 14 C       -4.8130     0.2520    -0.9680 C.3   1 <1>  -0.0970 
 15 C        3.9370    -1.7800     0.2060 C.3   1 <1>   0.3430 
 16 C        5.2090    -0.9800    -0.0820 C.3   1 <1>  -0.0170 
 17 C        6.3430    -1.9560    -0.3280 C.ar  1 <1>  -0.1440 
 18 C        6.5770    -2.4480    -1.6040 C.ar  1 <1>  -0.1500 
 19 C        7.1480    -2.3740     0.7220 C.ar  1 <1>  -0.1500 
 20 C        7.6010    -3.3530    -1.8250 C.ar  1 <1>  -0.1500 
 21 C        8.1710    -3.2780     0.4990 C.ar  1 <1>  -0.1500 
 22 C        8.3970    -3.7690    -0.7740 C.ar  1 <1>  -0.1500 
 23 H       -0.4090    -1.5370     1.7430 H     1 <1>   0.0800 
 24 H        0.6260    -0.2710     2.3400 H     1 <1>   0.0800 
 25 H        1.3630     1.5810     0.4500 H     1 <1>   0.0800 
 26 H        0.7120     1.2890    -1.1370 H     1 <1>   0.0800 
 27 H       -0.6240     1.9770     1.9050 H     1 <1>   0.1500 
 28 H        1.3370    -2.4490     0.3660 H     1 <1>   0.0800 
 29 H        1.9670    -2.2790     1.9800 H     1 <1>   0.0800 
 30 H        3.1000     0.5860    -0.9380 H     1 <1>   0.0800 
 31 H        2.0310    -0.7020    -1.4160 H     1 <1>   0.0800 
 32 H       -2.5800    -1.9470    -0.8820 H     1 <1>   0.0800 
 33 H       -1.1440    -1.2220    -1.5530 H     1 <1>   0.0800 
 34 H       -2.6850    -0.8400    -2.2320 H     1 <1>   0.0800 
 35 H       -2.8150     3.0440     2.1360 H     1 <1>   0.1500 
 36 H        3.0750    -0.2600     1.3190 H     1 <1>   0.4500 
 37 H       -4.7080     2.2450     0.8190 H     1 <1>   0.1500 
 38 H       -4.6960     0.5050    -2.0060 H     1 <1>   0.0800 
 39 H       -5.7080     0.7230    -0.6030 H     1 <1>   0.0800 
 40 H       -4.9360    -0.8120    -0.8750 H     1 <1>   0.0800 
 41 H        3.6890    -2.3770    -0.6570 H     1 <1>   0.0800 
 42 H        4.1440    -2.4550     1.0210 H     1 <1>   0.0800 
 43 H        5.4560    -0.3540     0.7570 H     1 <1>   0.0800 
 44 H        5.0860    -0.3610    -0.9520 H     1 <1>   0.0800 
 45 H        5.9740    -2.1350    -2.4380 H     1 <1>   0.1500 
 46 H        6.9940    -2.0020     1.7200 H     1 <1>   0.1500 
 47 H        7.7830    -3.7330    -2.8160 H     1 <1>   0.1500 
 48 H        8.7960    -3.6000     1.3150 H     1 <1>   0.1500 
 49 H        9.1940    -4.4720    -0.9470 H     1 <1>   0.1500 
@<TRIPOS>BOND
  1   1   2  1   
  2   1   3  1   
  3   1   4  1   
  4   2   5  ar  
  5   2   6  ar  
  6   3   7  1   
  7   3  23  1   
  8   3  24  1   
  9   4   8  1   
 10   4  25  1   
 11   4  26  1   
 12   5   9  ar  
 13   5  10  1   
 14   6  11  ar  
 15   6  27  1   
 16   7  12  1   
 17   7  28  1   
 18   7  29  1   
 19   8  12  1   
 20   8  30  1   
 21   8  31  1   
 22   9  13  ar  
 23   9  14  1   
 24  10  32  1   
 25  10  33  1   
 26  10  34  1   
 27  11  13  ar  
 28  11  35  1   
 29  12  15  1   
 30  12  36  1   
 31  13  37  1   
 32  14  38  1   
 33  14  39  1   
 34  14  40  1   
 35  15  16  1   
 36  15  41  1   
 37  15  42  1   
 38  16  17  1   
 39  16  43  1   
 40  16  44  1   
 41  17  18  ar  
 42  17  19  ar  
 43  18  20  ar  
 44  18  45  1   
 45  19  21  ar  
 46  19  46  1   
 47  20  22  ar  
 48  20  47  1   
 49  21  22  ar  
 50  21  48  1   
 51  22  49  1   
@<TRIPOS>SUBSTRUCTURE
  1 ****   8 GROUP 4 **** **** 0

# MOE 2024.06 (io_trps.svl 2023.06)
