@<TRIPOS>MOLECULE
NONAME
37 38 1 0 0 
SMALL
USER_CHARGES


@<TRIPOS>ATOM
  1 CL      -2.5690     1.3650     1.9530 Cl    1 <1>  -0.1770 
  2 C       -1.3860     2.4140     1.2030 C.ar  1 <1>   0.1770 
  3 C       -1.4470     2.6570    -0.1630 C.ar  1 <1>  -0.1440 
  4 C       -0.4220     3.0000     2.0000 C.ar  1 <1>  -0.1500 
  5 C       -0.5100     3.5090    -0.7300 C.ar  1 <1>  -0.1500 
  6 C       -2.5150     2.0040    -1.0180 C.3   1 <1>   0.4870 
  7 C        0.5030     3.8520     1.4240 C.ar  1 <1>  -0.1500 
  8 C        0.4580     4.1040     0.0630 C.ar  1 <1>  -0.1500 
  9 N       -3.8520     2.5060    -0.5690 N.4   1 <1>  -0.9590 
 10 C       -4.9650     1.6310    -1.0810 C.3   1 <1>   0.3430 
 11 C       -3.9790     3.9640    -0.8810 C.3   1 <1>   0.3430 
 12 C       -6.1530     1.5030    -0.0840 C.3   1 <1>   0.3430 
 13 C       -5.3800     4.5260    -0.6290 C.3   1 <1>  -0.1600 
 14 N       -6.9130     2.7730     0.2380 N.4   1 <1>  -0.9590 
 15 C       -6.0970     3.9720     0.6030 C.3   1 <1>   0.3430 
 16 C       -7.8990     2.4950     1.3370 C.3   1 <1>   0.2630 
 17 H       -0.3910     2.7950     3.0560 H     1 <1>   0.1500 
 18 H       -0.5090     3.7190    -1.7880 H     1 <1>   0.1500 
 19 H       -2.4530     0.9350    -0.8900 H     1 <1>   0.0800 
 20 H       -2.3520     2.2340    -2.0590 H     1 <1>   0.0800 
 21 H        1.2620     4.3170     2.0330 H     1 <1>   0.1500 
 22 H        1.1870     4.7650    -0.3790 H     1 <1>   0.1500 
 23 H       -3.7940     2.4050     0.4570 H     1 <1>   0.4500 
 24 H       -4.5790     0.6370    -1.2460 H     1 <1>   0.0800 
 25 H       -5.3200     1.9960    -2.0320 H     1 <1>   0.0800 
 26 H       -3.7170     4.1420    -1.9130 H     1 <1>   0.0800 
 27 H       -3.2710     4.5100    -0.2760 H     1 <1>   0.0800 
 28 H       -5.7710     1.0800     0.8310 H     1 <1>   0.0800 
 29 H       -6.8480     0.7840    -0.4890 H     1 <1>   0.0800 
 30 H       -5.9910     4.4140    -1.5070 H     1 <1>   0.0800 
 31 H       -5.2600     5.5870    -0.4870 H     1 <1>   0.0800 
 32 H       -7.4790     3.0340    -0.5870 H     1 <1>   0.4500 
 33 H       -6.7600     4.7390     0.9770 H     1 <1>   0.0800 
 34 H       -5.3950     3.7390     1.3880 H     1 <1>   0.0800 
 35 H       -7.3880     2.2280     2.2480 H     1 <1>   0.0800 
 36 H       -8.5550     1.6840     1.0610 H     1 <1>   0.0800 
 37 H       -8.5050     3.3670     1.5290 H     1 <1>   0.0800 
@<TRIPOS>BOND
  1   1   2  1   
  2   2   3  ar  
  3   2   4  ar  
  4   3   5  ar  
  5   3   6  1   
  6   4   7  ar  
  7   4  17  1   
  8   5   8  ar  
  9   5  18  1   
 10   6   9  1   
 11   6  19  1   
 12   6  20  1   
 13   7   8  ar  
 14   7  21  1   
 15   8  22  1   
 16   9  10  1   
 17   9  11  1   
 18   9  23  1   
 19  10  12  1   
 20  10  24  1   
 21  10  25  1   
 22  11  13  1   
 23  11  26  1   
 24  11  27  1   
 25  12  14  1   
 26  12  28  1   
 27  12  29  1   
 28  13  15  1   
 29  13  30  1   
 30  13  31  1   
 31  14  15  1   
 32  14  16  1   
 33  14  32  1   
 34  15  33  1   
 35  15  34  1   
 36  16  35  1   
 37  16  36  1   
 38  16  37  1   
@<TRIPOS>SUBSTRUCTURE
  1 ****   9 GROUP 4 **** **** 0

# MOE 2024.06 (io_trps.svl 2023.06)
