@<TRIPOS>MOLECULE
NONAME
31 31 1 0 0 
SMALL
USER_CHARGES


@<TRIPOS>ATOM
  1 CL       2.3730     0.1160     0.7110 Cl    1 <1>  -0.1770 
  2 C        1.4690     1.6110     0.7860 C.ar  1 <1>   0.1770 
  3 C        2.0880     2.8200     0.4600 C.ar  1 <1>   0.0860 
  4 C        0.1480     1.5430     1.1870 C.ar  1 <1>  -0.1500 
  5 C        3.4660     2.8830     0.0310 C.2   1 <1>   0.5440 
  6 C        1.3220     3.9830     0.5730 C.ar  1 <1>  -0.1500 
  7 C       -0.5780     2.7130     1.2750 C.ar  1 <1>   0.1770 
  8 O        4.2660     3.5640     0.6380 O.2   1 <1>  -0.5700 
  9 N        3.9020     2.1680    -1.0540 N.am  1 <1>  -0.7300 
 10 C       -0.0020     3.9340     0.9750 C.ar  1 <1>  -0.1500 
 11 CL      -2.2450     2.6520     1.7760 Cl    1 <1>  -0.1770 
 12 C        5.2280     2.2070    -1.7590 C.3   1 <1>   0.1400 
 13 C        6.4730     2.4890    -0.8810 C.3   1 <1>   0.3430 
 14 N        6.4170     1.8400     0.4670 N.4   1 <1>  -0.9590 
 15 C        7.5600     2.2590     1.3280 C.3   1 <1>   0.2630 
 16 C        6.2500     0.3560     0.4300 C.3   1 <1>   0.2630 
 17 H       -0.3090     0.6010     1.4310 H     1 <1>   0.1500 
 18 H        1.7750     4.9340     0.3450 H     1 <1>   0.1500 
 19 H        3.1840     1.6390    -1.5630 H     1 <1>   0.3700 
 20 H       -0.5890     4.8330     1.0580 H     1 <1>   0.1500 
 21 H        5.1830     2.9520    -2.5360 H     1 <1>   0.0800 
 22 H        5.3750     1.2590    -2.2470 H     1 <1>   0.0800 
 23 H        6.5390     3.5570    -0.7440 H     1 <1>   0.0800 
 24 H        7.3590     2.1750    -1.4080 H     1 <1>   0.0800 
 25 H        5.5520     2.2570     0.8790 H     1 <1>   0.4500 
 26 H        8.4900     1.8990     0.9200 H     1 <1>   0.0800 
 27 H        7.4410     1.8610     2.3230 H     1 <1>   0.0800 
 28 H        7.6000     3.3340     1.3940 H     1 <1>   0.0800 
 29 H        7.0980    -0.1070    -0.0470 H     1 <1>   0.0800 
 30 H        5.3560     0.0950    -0.1130 H     1 <1>   0.0800 
 31 H        6.1610    -0.0320     1.4320 H     1 <1>   0.0800 
@<TRIPOS>BOND
  1   1   2  1   
  2   2   3  ar  
  3   2   4  ar  
  4   3   5  1   
  5   3   6  ar  
  6   4   7  ar  
  7   4  17  1   
  8   5   8  2   
  9   5   9  am  
 10   6  10  ar  
 11   6  18  1   
 12   7  10  ar  
 13   7  11  1   
 14   9  12  1   
 15   9  19  1   
 16  10  20  1   
 17  12  13  1   
 18  12  21  1   
 19  12  22  1   
 20  13  14  1   
 21  13  23  1   
 22  13  24  1   
 23  14  15  1   
 24  14  16  1   
 25  14  25  1   
 26  15  26  1   
 27  15  27  1   
 28  15  28  1   
 29  16  29  1   
 30  16  30  1   
 31  16  31  1   
@<TRIPOS>SUBSTRUCTURE
  1 ****   5 GROUP 4 **** **** 0

# MOE 2024.06 (io_trps.svl 2023.06)
