@<TRIPOS>MOLECULE
NONAME
26 27 1 0 0 
SMALL
USER_CHARGES


@<TRIPOS>ATOM
  1 S       -0.2390    -0.0440     0.3520 S.3   1 <1>  -0.4600 
  2 C        1.3270     0.8650     0.2960 C.3   1 <1>   0.0700 
  3 C        0.1510    -1.5730    -0.5380 C.3   1 <1>   0.0700 
  4 C        2.4500    -0.0430     0.8140 C.3   1 <1>   0.3430 
  5 C        1.4090    -2.2020     0.0760 C.3   1 <1>   0.3430 
  6 N        2.6070    -1.2970    -0.0090 N.4   1 <1>  -0.9590 
  7 C        3.8410    -2.0240     0.3960 C.3   1 <1>   0.5230 
  8 C        5.0650    -1.2240    -0.0020 C.2   1 <1>  -0.1400 
  9 S        6.5370    -1.6450     0.8560 S.3   1 <1>  -0.0800 
 10 C        5.3060    -0.2350    -0.8880 C.2   1 <1>  -0.1500 
 11 C        7.4550    -0.4390    -0.0250 C.2   1 <1>  -0.1100 
 12 C        6.6660     0.2110    -0.8980 C.2   1 <1>  -0.1500 
 13 H        1.2090     1.7320     0.9240 H     1 <1>   0.0800 
 14 H        1.4950     1.1770    -0.7190 H     1 <1>   0.0800 
 15 H        0.2870    -1.3270    -1.5760 H     1 <1>   0.0800 
 16 H       -0.7010    -2.2220    -0.4310 H     1 <1>   0.0800 
 17 H        2.2390    -0.3040     1.8380 H     1 <1>   0.0800 
 18 H        3.3720     0.5170     0.8020 H     1 <1>   0.0800 
 19 H        1.6140    -3.1250    -0.4430 H     1 <1>   0.0800 
 20 H        1.2060    -2.4410     1.1080 H     1 <1>   0.0800 
 21 H        2.7420    -1.0240    -0.9890 H     1 <1>   0.4500 
 22 H        3.8860    -2.9890    -0.0830 H     1 <1>   0.0800 
 23 H        3.8430    -2.1760     1.4640 H     1 <1>   0.0800 
 24 H        4.6000     0.2230    -1.5590 H     1 <1>   0.1500 
 25 H        8.5030    -0.3440     0.2060 H     1 <1>   0.1500 
 26 H        6.9910     0.9970    -1.5600 H     1 <1>   0.1500 
@<TRIPOS>BOND
  1   1   2  1   
  2   1   3  1   
  3   2   4  1   
  4   2  13  1   
  5   2  14  1   
  6   3   5  1   
  7   3  15  1   
  8   3  16  1   
  9   4   6  1   
 10   4  17  1   
 11   4  18  1   
 12   5   6  1   
 13   5  19  1   
 14   5  20  1   
 15   6   7  1   
 16   6  21  1   
 17   7   8  1   
 18   7  22  1   
 19   7  23  1   
 20   8   9  1   
 21   8  10  2   
 22   9  11  1   
 23  10  12  1   
 24  10  24  1   
 25  11  12  2   
 26  11  25  1   
 27  12  26  1   
@<TRIPOS>SUBSTRUCTURE
  1 ****   6 GROUP 4 **** **** 0

# MOE 2024.06 (io_trps.svl 2023.06)
