@<TRIPOS>MOLECULE
NONAME
37 38 1 0 0 
SMALL
USER_CHARGES


@<TRIPOS>ATOM
  1 S       -0.3380     0.7980     1.5440 S.o2  1 <1>   1.4470 
  2 O        0.1530     1.1440     2.8600 O.2   1 <1>  -0.6500 
  3 O       -0.9420    -0.4950     1.3180 O.2   1 <1>  -0.6500 
  4 N       -1.5260     1.9500     1.1700 N.am  1 <1>  -0.8490 
  5 C        0.9450     1.0720     0.2880 C.ar  1 <1>  -0.0090 
  6 C       -2.7530     1.6950     1.9900 C.3   1 <1>   0.2570 
  7 C       -1.0310     3.3190     1.3710 C.3   1 <1>   0.1960 
  8 C        0.6670     0.8720    -1.0630 C.ar  1 <1>  -0.1500 
  9 C        2.2250     1.4980     0.6440 C.ar  1 <1>  -0.1500 
 10 C       -4.0680     2.0260     1.2790 C.2   1 <1>   0.5690 
 11 C       -1.9340     4.3470     0.6920 C.3   1 <1>  -0.2400 
 12 C        1.6290     1.0920    -2.0360 C.ar  1 <1>  -0.1500 
 13 C        3.2000     1.7230    -0.3130 C.ar  1 <1>  -0.1500 
 14 O       -5.0130     2.3990     1.9350 O.2   1 <1>  -0.5700 
 15 N       -4.1150     1.8920    -0.0730 N.am  1 <1>  -0.5790 
 16 C        2.8810     1.5160    -1.6410 C.ar  1 <1>   0.1900 
 17 C       -5.2630     2.1800    -0.9410 C.3   1 <1>   0.0490 
 18 F        3.7930     1.7270    -2.5500 F     1 <1>  -0.1900 
 19 C       -5.4000     1.3950    -2.2020 C.3   1 <1>  -0.2000 
 20 C       -4.9980     2.8390    -2.2530 C.3   1 <1>  -0.2000 
 21 H       -2.7060     2.2430     2.9140 H     1 <1>   0.0800 
 22 H       -2.8230     0.6550     2.2520 H     1 <1>   0.0800 
 23 H       -0.0510     3.4150     0.9330 H     1 <1>   0.0800 
 24 H       -0.9370     3.5390     2.4230 H     1 <1>   0.0800 
 25 H       -0.3150     0.5370    -1.3540 H     1 <1>   0.1500 
 26 H        2.4610     1.6540     1.6850 H     1 <1>   0.1500 
 27 H       -2.0990     4.0820    -0.3370 H     1 <1>   0.0800 
 28 H       -1.4600     5.3110     0.7200 H     1 <1>   0.0800 
 29 H       -2.8770     4.4360     1.2000 H     1 <1>   0.0800 
 30 H        1.4160     0.9370    -3.0790 H     1 <1>   0.1500 
 31 H        4.1880     2.0500    -0.0410 H     1 <1>   0.1500 
 32 H       -3.2440     1.6380    -0.5420 H     1 <1>   0.3700 
 33 H       -6.1550     2.4480    -0.3950 H     1 <1>   0.1000 
 34 H       -6.3880     1.1300    -2.5370 H     1 <1>   0.1000 
 35 H       -4.6700     0.6370    -2.4230 H     1 <1>   0.1000 
 36 H       -3.9860     3.0930    -2.5120 H     1 <1>   0.1000 
 37 H       -5.7130     3.5530    -2.6220 H     1 <1>   0.1000 
@<TRIPOS>BOND
  1   1   2  2   
  2   1   3  2   
  3   1   4  am  
  4   1   5  1   
  5   4   6  1   
  6   4   7  1   
  7   5   8  ar  
  8   5   9  ar  
  9   6  10  1   
 10   6  21  1   
 11   6  22  1   
 12   7  11  1   
 13   7  23  1   
 14   7  24  1   
 15   8  12  ar  
 16   8  25  1   
 17   9  13  ar  
 18   9  26  1   
 19  10  14  2   
 20  10  15  am  
 21  11  27  1   
 22  11  28  1   
 23  11  29  1   
 24  12  16  ar  
 25  12  30  1   
 26  13  16  ar  
 27  13  31  1   
 28  15  17  1   
 29  15  32  1   
 30  16  18  1   
 31  17  19  1   
 32  17  20  1   
 33  17  33  1   
 34  19  20  1   
 35  19  34  1   
 36  19  35  1   
 37  20  36  1   
 38  20  37  1   
@<TRIPOS>SUBSTRUCTURE
  1 ****   4 GROUP 4 **** **** 0

# MOE 2024.06 (io_trps.svl 2023.06)
