@<TRIPOS>MOLECULE
NONAME
53 55 1 0 0 
SMALL
USER_CHARGES


@<TRIPOS>ATOM
  1 O       -1.8630     0.6580     0.5240 O.3   1 <1>  -0.3630 
  2 C       -1.0410     1.7100     0.2480 C.ar  1 <1>   0.0830 
  3 C       -1.6510    -0.6430     0.0100 C.3   1 <1>   0.1200 
  4 C       -1.3520     2.9350     0.8340 C.ar  1 <1>  -0.1440 
  5 C        0.0710     1.6150    -0.5860 C.ar  1 <1>  -0.1500 
  6 C       -2.2400    -0.7280    -1.3990 C.3   1 <1>  -0.2400 
  7 C       -0.5570     4.0440     0.5880 C.ar  1 <1>  -0.1500 
  8 C       -2.5640     3.0630     1.7370 C.3   1 <1>   0.4860 
  9 C        0.8570     2.7270    -0.8280 C.ar  1 <1>  -0.1500 
 10 C        0.5450     3.9400    -0.2420 C.ar  1 <1>  -0.1500 
 11 N       -3.7660     2.6880     0.9550 N.4   1 <1>  -0.9590 
 12 C       -4.0080     3.6080    -0.2130 C.3   1 <1>   0.3430 
 13 C       -4.9950     2.5240     1.8050 C.3   1 <1>   0.3430 
 14 C       -5.2190     3.1750    -1.0670 C.3   1 <1>   0.2090 
 15 C       -6.2100     2.0420     0.9860 C.3   1 <1>   0.2090 
 16 N       -6.4200     2.8810    -0.2290 N.pl3 1 <1>  -0.8380 
 17 C       -7.4620     3.8080    -0.1920 C.ar  1 <1>   0.1000 
 18 C       -8.7490     3.4790    -0.6340 C.ar  1 <1>  -0.1430 
 19 C       -7.2240     5.0810     0.3160 C.ar  1 <1>  -0.1500 
 20 C       -9.7720     4.4190    -0.5410 C.ar  1 <1>  -0.1430 
 21 C       -9.0260     2.0910    -1.2140 C.3   1 <1>  -0.0970 
 22 C       -8.2360     6.0140     0.3940 C.ar  1 <1>  -0.1500 
 23 C       -9.5070     5.6810    -0.0310 C.ar  1 <1>  -0.1500 
 24 C      -11.1980     4.1130    -0.9820 C.3   1 <1>  -0.0970 
 25 H       -2.1620    -1.3330     0.6600 H     1 <1>   0.0800 
 26 H       -0.6010    -0.8770     0.0330 H     1 <1>   0.0800 
 27 H        0.3470     0.6920    -1.0600 H     1 <1>   0.1500 
 28 H       -3.2960    -0.5270    -1.3770 H     1 <1>   0.0800 
 29 H       -2.0960    -1.7210    -1.7870 H     1 <1>   0.0800 
 30 H       -1.7550    -0.0370    -2.0630 H     1 <1>   0.0800 
 31 H       -0.7770     4.9980     1.0380 H     1 <1>   0.1500 
 32 H       -2.6530     4.0720     2.1040 H     1 <1>   0.0800 
 33 H       -2.4450     2.3960     2.5750 H     1 <1>   0.0800 
 34 H        1.7160     2.6490    -1.4720 H     1 <1>   0.1500 
 35 H        1.1650     4.8010    -0.4310 H     1 <1>   0.1500 
 36 H       -3.5160     1.7650     0.5590 H     1 <1>   0.4500 
 37 H       -3.1340     3.6410    -0.8430 H     1 <1>   0.0800 
 38 H       -4.1900     4.6060     0.1480 H     1 <1>   0.0800 
 39 H       -5.2510     3.4690     2.2560 H     1 <1>   0.0800 
 40 H       -4.8050     1.8180     2.5960 H     1 <1>   0.0800 
 41 H       -4.9640     2.2960    -1.6320 H     1 <1>   0.0800 
 42 H       -5.4570     3.9540    -1.7720 H     1 <1>   0.0800 
 43 H       -7.0930     2.0790     1.6020 H     1 <1>   0.0800 
 44 H       -6.0650     1.0190     0.6860 H     1 <1>   0.0800 
 45 H       -6.2440     5.3470     0.6560 H     1 <1>   0.1500 
 46 H       -8.1370     1.6530    -1.6260 H     1 <1>   0.0800 
 47 H       -9.7460     2.1400    -2.0090 H     1 <1>   0.0800 
 48 H       -9.4020     1.4460    -0.4420 H     1 <1>   0.0800 
 49 H       -8.0440     6.9970     0.7860 H     1 <1>   0.1500 
 50 H      -10.2910     6.4150     0.0380 H     1 <1>   0.1500 
 51 H      -11.5300     3.1850    -0.5540 H     1 <1>   0.0800 
 52 H      -11.2430     4.0440    -2.0540 H     1 <1>   0.0800 
 53 H      -11.8750     4.8850    -0.6650 H     1 <1>   0.0800 
@<TRIPOS>BOND
  1   1   2  1   
  2   1   3  1   
  3   2   4  ar  
  4   2   5  ar  
  5   3   6  1   
  6   3  25  1   
  7   3  26  1   
  8   4   7  ar  
  9   4   8  1   
 10   5   9  ar  
 11   5  27  1   
 12   6  28  1   
 13   6  29  1   
 14   6  30  1   
 15   7  10  ar  
 16   7  31  1   
 17   8  11  1   
 18   8  32  1   
 19   8  33  1   
 20   9  10  ar  
 21   9  34  1   
 22  10  35  1   
 23  11  12  1   
 24  11  13  1   
 25  11  36  1   
 26  12  14  1   
 27  12  37  1   
 28  12  38  1   
 29  13  15  1   
 30  13  39  1   
 31  13  40  1   
 32  14  16  1   
 33  14  41  1   
 34  14  42  1   
 35  15  16  1   
 36  15  43  1   
 37  15  44  1   
 38  16  17  1   
 39  17  18  ar  
 40  17  19  ar  
 41  18  20  ar  
 42  18  21  1   
 43  19  22  ar  
 44  19  45  1   
 45  20  23  ar  
 46  20  24  1   
 47  21  46  1   
 48  21  47  1   
 49  21  48  1   
 50  22  23  ar  
 51  22  49  1   
 52  23  50  1   
 53  24  51  1   
 54  24  52  1   
 55  24  53  1   
@<TRIPOS>SUBSTRUCTURE
  1 ****  12 GROUP 4 **** **** 0

# MOE 2024.06 (io_trps.svl 2023.06)
