@<TRIPOS>MOLECULE
NONAME
31 32 1 0 0 
SMALL
USER_CHARGES


@<TRIPOS>ATOM
  1 S        0.0260    -0.1730     0.8130 S.3   1 <1>  -0.4600 
  2 C       -1.1850    -1.4550     0.4550 C.3   1 <1>   0.0700 
  3 C       -1.0170     1.2620     0.5110 C.3   1 <1>   0.0700 
  4 C       -2.3390    -0.7110    -0.2340 C.3   1 <1>   0.4230 
  5 C       -2.4300     0.6830     0.4060 C.3   1 <1>  -0.1600 
  6 N       -3.6350    -1.4430    -0.1090 N.4   1 <1>  -0.9590 
  7 C       -3.5980    -2.8700    -0.5870 C.3   1 <1>   0.3430 
  8 C       -4.8210    -0.7430    -0.7150 C.3   1 <1>   0.3430 
  9 C       -4.9240    -3.6030    -0.2650 C.3   1 <1>   0.1100 
 10 C       -6.1380    -1.4980    -0.4040 C.3   1 <1>   0.1100 
 11 N       -5.9030    -2.7160     0.4040 N.3   1 <1>  -0.8100 
 12 C       -7.1600    -3.4220     0.6870 C.3   1 <1>   0.0300 
 13 H       -1.4740    -1.8740     1.4020 H     1 <1>   0.0800 
 14 H       -0.7140    -2.1850    -0.1780 H     1 <1>   0.0800 
 15 H       -0.6830     1.7060    -0.4110 H     1 <1>   0.0800 
 16 H       -0.8990     1.9510     1.3300 H     1 <1>   0.0800 
 17 H       -2.0870    -0.5940    -1.2760 H     1 <1>   0.0800 
 18 H       -3.0410     1.3510    -0.1740 H     1 <1>   0.0800 
 19 H       -2.8340     0.6030     1.4000 H     1 <1>   0.0800 
 20 H       -3.8960    -1.5300     0.8870 H     1 <1>   0.4500 
 21 H       -2.7910    -3.4020    -0.1110 H     1 <1>   0.0800 
 22 H       -3.4270    -2.8990    -1.6510 H     1 <1>   0.0800 
 23 H       -4.7000    -0.6650    -1.7830 H     1 <1>   0.0800 
 24 H       -4.9030     0.2560    -0.3210 H     1 <1>   0.0800 
 25 H       -4.7120    -4.4430     0.3750 H     1 <1>   0.0800 
 26 H       -5.3440    -3.9920    -1.1780 H     1 <1>   0.0800 
 27 H       -6.6240    -1.7590    -1.3300 H     1 <1>   0.0800 
 28 H       -6.7990    -0.8380     0.1320 H     1 <1>   0.0800 
 29 H       -6.9690    -4.2800     1.3100 H     1 <1>   0.0800 
 30 H       -7.6290    -3.7520    -0.2260 H     1 <1>   0.0800 
 31 H       -7.8390    -2.7710     1.2120 H     1 <1>   0.0800 
@<TRIPOS>BOND
  1   1   2  1   
  2   1   3  1   
  3   2   4  1   
  4   2  13  1   
  5   2  14  1   
  6   3   5  1   
  7   3  15  1   
  8   3  16  1   
  9   4   5  1   
 10   4   6  1   
 11   4  17  1   
 12   5  18  1   
 13   5  19  1   
 14   6   7  1   
 15   6   8  1   
 16   6  20  1   
 17   7   9  1   
 18   7  21  1   
 19   7  22  1   
 20   8  10  1   
 21   8  23  1   
 22   8  24  1   
 23   9  11  1   
 24   9  25  1   
 25   9  26  1   
 26  10  11  1   
 27  10  27  1   
 28  10  28  1   
 29  11  12  1   
 30  12  29  1   
 31  12  30  1   
 32  12  31  1   
@<TRIPOS>SUBSTRUCTURE
  1 ****   6 GROUP 4 **** **** 0

# MOE 2024.06 (io_trps.svl 2023.06)
