@<TRIPOS>MOLECULE
NONAME
46 48 1 0 0 
SMALL
USER_CHARGES


@<TRIPOS>ATOM
  1 O       -0.1350     1.5740     1.9710 O.2   1 <1>  -0.5700 
  2 C       -0.7350     1.6670     0.9310 C.2   1 <1>   0.5690 
  3 N       -0.5180     2.6120    -0.0210 N.am  1 <1>  -0.4200 
  4 C       -1.8360     0.7140     0.5070 C.3   1 <1>  -0.0190 
  5 C       -1.3360     2.4410    -1.0930 C.2   1 <1>   0.5690 
  6 C        0.4820     3.6940     0.1030 C.3   1 <1>   0.1400 
  7 C       -2.2490     1.2480    -0.8930 C.3   1 <1>  -0.0190 
  8 C       -2.9550     0.6150     1.5610 C.3   1 <1>  -0.0220 
  9 O       -1.3440     3.1270    -2.0830 O.2   1 <1>  -0.5700 
 10 C        1.8640     3.1710    -0.2970 C.3   1 <1>  -0.1600 
 11 C       -3.7340     1.6140    -1.0760 C.3   1 <1>  -0.0220 
 12 C       -4.2710     0.2240     0.9180 C.2   1 <1>  -0.2880 
 13 C        2.9500     4.2370    -0.0730 C.3   1 <1>  -0.0990 
 14 C       -4.6260     0.6790    -0.2830 C.2   1 <1>  -0.2880 
 15 C        4.3240     3.7430    -0.4810 C.2   1 <1>   0.5690 
 16 O        4.8250     4.1960    -1.4790 O.2   1 <1>  -0.5700 
 17 N        4.9260     2.8080     0.3110 N.am  1 <1>  -0.5470 
 18 C        6.1780     2.2020     0.1450 C.ar  1 <1>   0.1170 
 19 C        6.4880     1.3870    -0.9480 C.ar  1 <1>  -0.1440 
 20 C        7.1390     2.4060     1.1280 C.ar  1 <1>  -0.1500 
 21 C        7.7450     0.8100    -1.0360 C.ar  1 <1>  -0.1500 
 22 C        5.4790     1.1080    -2.0550 C.3   1 <1>  -0.0970 
 23 C        8.3890     1.8230     1.0340 C.ar  1 <1>  -0.1500 
 24 C        8.6930     1.0240    -0.0520 C.ar  1 <1>  -0.1500 
 25 H       -1.4030    -0.2620     0.3830 H     1 <1>   0.0800 
 26 H        0.4960     4.0380     1.1230 H     1 <1>   0.0800 
 27 H        0.2000     4.5180    -0.5310 H     1 <1>   0.0800 
 28 H       -1.9930     0.5050    -1.6270 H     1 <1>   0.0800 
 29 H       -3.0880     1.5590     2.0620 H     1 <1>   0.0800 
 30 H       -2.6750    -0.1130     2.3030 H     1 <1>   0.0800 
 31 H        1.8520     2.8940    -1.3380 H     1 <1>   0.0800 
 32 H        2.0980     2.2980     0.2890 H     1 <1>   0.0800 
 33 H       -3.9810     1.5620    -2.1230 H     1 <1>   0.0800 
 34 H       -3.9180     2.6220    -0.7450 H     1 <1>   0.0800 
 35 H       -4.8870    -0.4220     1.5230 H     1 <1>   0.1500 
 36 H        2.9790     4.5270     0.9610 H     1 <1>   0.0800 
 37 H        2.7190     5.1120    -0.6560 H     1 <1>   0.0800 
 38 H       -5.5630     0.4440    -0.7630 H     1 <1>   0.1500 
 39 H        4.4390     2.5620     1.1700 H     1 <1>   0.3700 
 40 H        6.9100     3.0320     1.9700 H     1 <1>   0.1500 
 41 H        7.9950     0.1870    -1.8770 H     1 <1>   0.1500 
 42 H        4.5010     0.9430    -1.6420 H     1 <1>   0.0800 
 43 H        5.7570     0.2350    -2.6170 H     1 <1>   0.0800 
 44 H        5.4370     1.9470    -2.7260 H     1 <1>   0.0800 
 45 H        9.1250     1.9930     1.8000 H     1 <1>   0.1500 
 46 H        9.6660     0.5700    -0.1330 H     1 <1>   0.1500 
@<TRIPOS>BOND
  1   1   2  2   
  2   2   3  am  
  3   2   4  1   
  4   3   5  am  
  5   3   6  1   
  6   4   7  1   
  7   4   8  1   
  8   4  25  1   
  9   5   7  1   
 10   5   9  2   
 11   6  10  1   
 12   6  26  1   
 13   6  27  1   
 14   7  11  1   
 15   7  28  1   
 16   8  12  1   
 17   8  29  1   
 18   8  30  1   
 19  10  13  1   
 20  10  31  1   
 21  10  32  1   
 22  11  14  1   
 23  11  33  1   
 24  11  34  1   
 25  12  14  2   
 26  12  35  1   
 27  13  15  1   
 28  13  36  1   
 29  13  37  1   
 30  14  38  1   
 31  15  16  2   
 32  15  17  am  
 33  17  18  1   
 34  17  39  1   
 35  18  19  ar  
 36  18  20  ar  
 37  19  21  ar  
 38  19  22  1   
 39  20  23  ar  
 40  20  40  1   
 41  21  24  ar  
 42  21  41  1   
 43  22  42  1   
 44  22  43  1   
 45  22  44  1   
 46  23  24  ar  
 47  23  45  1   
 48  24  46  1   
@<TRIPOS>SUBSTRUCTURE
  1 ****  10 GROUP 4 **** **** 0

# MOE 2024.06 (io_trps.svl 2023.06)
