@<TRIPOS>MOLECULE
NONAME
40 41 1 0 0 
SMALL
USER_CHARGES


@<TRIPOS>ATOM
  1 O       -1.4200    -0.0710     0.7080 O.3   1 <1>  -0.5600 
  2 C       -2.0310     0.5980    -0.3620 C.3   1 <1>   0.1200 
  3 C       -1.2670    -1.4520     0.5090 C.3   1 <1>   0.1200 
  4 C       -3.4480     0.0380    -0.6290 C.3   1 <1>   0.3430 
  5 C       -2.6230    -2.1290     0.2010 C.3   1 <1>   0.3430 
  6 N       -3.7530    -1.1400     0.2570 N.4   1 <1>  -0.9590 
  7 C       -5.0790    -1.7850    -0.0090 C.3   1 <1>   0.3430 
  8 C       -6.2630    -0.8700     0.3280 C.3   1 <1>   0.1200 
  9 O       -7.4240    -1.5810     0.0590 O.3   1 <1>  -0.5600 
 10 C       -8.6010    -0.8840     0.3470 C.3   1 <1>   0.1200 
 11 C       -9.7940    -1.7750     0.0140 C.3   1 <1>   0.1200 
 12 O      -10.9700    -1.0530     0.3070 O.3   1 <1>  -0.3630 
 13 C      -12.1970    -1.5980     0.1090 C.ar  1 <1>   0.0820 
 14 C      -12.4040    -2.8830    -0.3870 C.ar  1 <1>  -0.1500 
 15 C      -13.2890    -0.8070     0.4290 C.ar  1 <1>  -0.1500 
 16 C      -13.6930    -3.3600    -0.5570 C.ar  1 <1>  -0.1500 
 17 C      -14.5760    -1.2850     0.2590 C.ar  1 <1>  -0.1500 
 18 C      -14.7790    -2.5630    -0.2350 C.ar  1 <1>  -0.1500 
 19 H       -1.4080     0.4950    -1.2340 H     1 <1>   0.0800 
 20 H       -2.0850     1.6430    -0.1100 H     1 <1>   0.0800 
 21 H       -0.8420    -1.8650     1.4080 H     1 <1>   0.0800 
 22 H       -0.5690    -1.6100    -0.2950 H     1 <1>   0.0800 
 23 H       -3.5200    -0.2490    -1.6650 H     1 <1>   0.0800 
 24 H       -4.1670     0.8230    -0.4600 H     1 <1>   0.0800 
 25 H       -2.7880    -2.9230     0.9110 H     1 <1>   0.0800 
 26 H       -2.5750    -2.5770    -0.7780 H     1 <1>   0.0800 
 27 H       -3.7250    -0.7720     1.2210 H     1 <1>   0.4500 
 28 H       -5.1690    -2.6760     0.5910 H     1 <1>   0.0800 
 29 H       -5.1430    -2.0680    -1.0470 H     1 <1>   0.0800 
 30 H       -6.2600     0.0140    -0.2870 H     1 <1>   0.0800 
 31 H       -6.2570    -0.6080     1.3720 H     1 <1>   0.0800 
 32 H       -8.6330     0.0090    -0.2530 H     1 <1>   0.0800 
 33 H       -8.6130    -0.6360     1.3950 H     1 <1>   0.0800 
 34 H       -9.7820    -2.6630     0.6200 H     1 <1>   0.0800 
 35 H       -9.8010    -2.0200    -1.0330 H     1 <1>   0.0800 
 36 H      -11.5830    -3.5240    -0.6460 H     1 <1>   0.1500 
 37 H      -13.1250     0.1830     0.8120 H     1 <1>   0.1500 
 38 H      -13.8530    -4.3520    -0.9410 H     1 <1>   0.1500 
 39 H      -15.4180    -0.6650     0.5100 H     1 <1>   0.1500 
 40 H      -15.7790    -2.9360    -0.3680 H     1 <1>   0.1500 
@<TRIPOS>BOND
  1   1   2  1   
  2   1   3  1   
  3   2   4  1   
  4   2  19  1   
  5   2  20  1   
  6   3   5  1   
  7   3  21  1   
  8   3  22  1   
  9   4   6  1   
 10   4  23  1   
 11   4  24  1   
 12   5   6  1   
 13   5  25  1   
 14   5  26  1   
 15   6   7  1   
 16   6  27  1   
 17   7   8  1   
 18   7  28  1   
 19   7  29  1   
 20   8   9  1   
 21   8  30  1   
 22   8  31  1   
 23   9  10  1   
 24  10  11  1   
 25  10  32  1   
 26  10  33  1   
 27  11  12  1   
 28  11  34  1   
 29  11  35  1   
 30  12  13  1   
 31  13  14  ar  
 32  13  15  ar  
 33  14  16  ar  
 34  14  36  1   
 35  15  17  ar  
 36  15  37  1   
 37  16  18  ar  
 38  16  38  1   
 39  17  18  ar  
 40  17  39  1   
 41  18  40  1   
@<TRIPOS>SUBSTRUCTURE
  1 ****   9 GROUP 4 **** **** 0

# MOE 2024.06 (io_trps.svl 2023.06)
