@<TRIPOS>MOLECULE
NONAME
34 35 1 0 0 
SMALL
USER_CHARGES


@<TRIPOS>ATOM
  1 S        0.2460    -0.0900    -1.3140 S.o2  1 <1>   1.3330 
  2 O       -0.0740    -1.3080    -2.0290 O.2   1 <1>  -0.6500 
  3 O        1.1710     0.8460    -1.9160 O.2   1 <1>  -0.6500 
  4 N        0.8390    -0.5140     0.2250 N.am  1 <1>  -0.8490 
  5 C       -1.3010     0.7850    -0.9490 C.3   1 <1>   0.0250 
  6 C        0.9220    -1.9660     0.4700 C.3   1 <1>   0.1960 
  7 C        2.1260     0.1140     0.5790 C.3   1 <1>   0.1960 
  8 C       -1.0820     2.0760    -0.1300 C.3   1 <1>  -0.1600 
  9 C       -2.3460    -0.1090    -0.2450 C.3   1 <1>  -0.1600 
 10 C        2.1470    -2.6020    -0.2230 C.3   1 <1>   0.1200 
 11 C        3.3180    -0.5750    -0.1170 C.3   1 <1>   0.1200 
 12 C       -2.3990     2.8260     0.1170 C.3   1 <1>  -0.1600 
 13 C       -3.6640     0.6380     0.0020 C.3   1 <1>  -0.1600 
 14 O        3.3220    -1.9470     0.1670 O.3   1 <1>  -0.5600 
 15 C       -3.4290     1.9230     0.8050 C.3   1 <1>  -0.1600 
 16 H       -1.7230     1.0780    -1.8920 H     1 <1>   0.0800 
 17 H        0.0200    -2.4540     0.1420 H     1 <1>   0.0800 
 18 H        1.0090    -2.1380     1.5290 H     1 <1>   0.0800 
 19 H        2.2690     0.0420     1.6430 H     1 <1>   0.0800 
 20 H        2.1110     1.1620     0.3310 H     1 <1>   0.0800 
 21 H       -0.4000     2.7220    -0.6560 H     1 <1>   0.0800 
 22 H       -0.6340     1.8270     0.8160 H     1 <1>   0.0800 
 23 H       -1.9490    -0.4470     0.6970 H     1 <1>   0.0800 
 24 H       -2.5390    -0.9780    -0.8500 H     1 <1>   0.0800 
 25 H        2.0590    -2.5470    -1.2940 H     1 <1>   0.0800 
 26 H        2.2380    -3.6340     0.0610 H     1 <1>   0.0800 
 27 H        4.2450    -0.1640     0.2430 H     1 <1>   0.0800 
 28 H        3.2760    -0.4420    -1.1840 H     1 <1>   0.0800 
 29 H       -2.7970     3.1710    -0.8230 H     1 <1>   0.0800 
 30 H       -2.2120     3.6910     0.7310 H     1 <1>   0.0800 
 31 H       -4.3460     0.0000     0.5370 H     1 <1>   0.0800 
 32 H       -4.1180     0.8860    -0.9430 H     1 <1>   0.0800 
 33 H       -4.3590     2.4550     0.9140 H     1 <1>   0.0800 
 34 H       -3.0780     1.6690     1.7910 H     1 <1>   0.0800 
@<TRIPOS>BOND
  1   1   2  2   
  2   1   3  2   
  3   1   4  am  
  4   1   5  1   
  5   4   6  1   
  6   4   7  1   
  7   5   8  1   
  8   5   9  1   
  9   5  16  1   
 10   6  10  1   
 11   6  17  1   
 12   6  18  1   
 13   7  11  1   
 14   7  19  1   
 15   7  20  1   
 16   8  12  1   
 17   8  21  1   
 18   8  22  1   
 19   9  13  1   
 20   9  23  1   
 21   9  24  1   
 22  10  14  1   
 23  10  25  1   
 24  10  26  1   
 25  11  14  1   
 26  11  27  1   
 27  11  28  1   
 28  12  15  1   
 29  12  29  1   
 30  12  30  1   
 31  13  15  1   
 32  13  31  1   
 33  13  32  1   
 34  15  33  1   
 35  15  34  1   
@<TRIPOS>SUBSTRUCTURE
  1 ****   1 GROUP 4 **** **** 0

# MOE 2024.06 (io_trps.svl 2023.06)
