@<TRIPOS>MOLECULE
NONAME
49 51 1 0 0 
SMALL
USER_CHARGES


@<TRIPOS>ATOM
  1 CL       2.4200    -1.5970     3.7690 Cl    1 <1>  -0.1770 
  2 C        3.4720    -1.9040     2.4140 C.ar  1 <1>   0.1770 
  3 C        2.9450    -2.4190     1.2450 C.ar  1 <1>  -0.1500 
  4 C        4.8220    -1.6300     2.5260 C.ar  1 <1>  -0.1500 
  5 C        3.7850    -2.6570     0.1720 C.ar  1 <1>  -0.1500 
  6 C        5.6530    -1.8730     1.4460 C.ar  1 <1>  -0.1500 
  7 C        5.1520    -2.3820     0.2440 C.ar  1 <1>   0.0860 
  8 C        6.0190    -2.6300    -0.8930 C.2   1 <1>   0.5440 
  9 O        6.0230    -3.7370    -1.3960 O.2   1 <1>  -0.5700 
 10 N        6.8310    -1.6480    -1.4250 N.am  1 <1>  -0.6600 
 11 C        6.6340    -0.1920    -1.1920 C.3   1 <1>   0.1400 
 12 C        7.8760    -1.9660    -2.4370 C.3   1 <1>   0.1400 
 13 C        7.9500     0.4270    -0.7160 C.3   1 <1>  -0.1600 
 14 C        9.2120    -1.3660    -1.9890 C.3   1 <1>  -0.1600 
 15 C        9.0920     0.1470    -1.7130 C.3   1 <1>  -0.0190 
 16 C       10.4080     0.7540    -1.2360 C.2   1 <1>   0.5690 
 17 O       10.8690     1.6930    -1.8380 O.2   1 <1>  -0.5700 
 18 N       11.0210     0.2320    -0.1480 N.am  1 <1>  -0.7300 
 19 C       12.3350     0.6460     0.3480 C.3   1 <1>   0.3640 
 20 C       13.0250    -0.5830     0.9290 C.ar  1 <1>  -0.1430 
 21 C       12.1490     1.7500     1.3850 C.3   1 <1>  -0.2400 
 22 C       12.5100    -1.2510     2.0340 C.ar  1 <1>  -0.1500 
 23 C       14.1900    -1.0560     0.3420 C.ar  1 <1>  -0.1500 
 24 C       13.1490    -2.3690     2.5410 C.ar  1 <1>  -0.1500 
 25 C       14.8300    -2.1740     0.8490 C.ar  1 <1>  -0.1500 
 26 C       14.3100    -2.8320     1.9490 C.ar  1 <1>  -0.1500 
 27 H        1.8920    -2.6310     1.1810 H     1 <1>   0.1500 
 28 H        5.2100    -1.2370     3.4480 H     1 <1>   0.1500 
 29 H        3.3890    -3.0660    -0.7420 H     1 <1>   0.1500 
 30 H        6.7070    -1.6730     1.5260 H     1 <1>   0.1500 
 31 H        5.8600    -0.0120    -0.4670 H     1 <1>   0.0800 
 32 H        6.3300     0.2690    -2.1160 H     1 <1>   0.0800 
 33 H        7.5830    -1.5540    -3.3880 H     1 <1>   0.0800 
 34 H        7.9850    -3.0310    -2.5540 H     1 <1>   0.0800 
 35 H        8.1960     0.0280     0.2520 H     1 <1>   0.0800 
 36 H        7.8240     1.4900    -0.6100 H     1 <1>   0.0800 
 37 H        9.9490    -1.5340    -2.7550 H     1 <1>   0.0800 
 38 H        9.5360    -1.8870    -1.1050 H     1 <1>   0.0800 
 39 H        8.8420     0.6290    -2.6430 H     1 <1>   0.0800 
 40 H       10.6680    -0.6200     0.2830 H     1 <1>   0.3700 
 41 H       12.9160     1.0340    -0.4730 H     1 <1>   0.0800 
 42 H       11.5120     1.4270     2.1870 H     1 <1>   0.0800 
 43 H       11.7190     2.6170     0.9160 H     1 <1>   0.0800 
 44 H       13.1050     2.0240     1.7920 H     1 <1>   0.0800 
 45 H       11.6090    -0.9050     2.5080 H     1 <1>   0.1500 
 46 H       14.6060    -0.5570    -0.5160 H     1 <1>   0.1500 
 47 H       12.7440    -2.8800     3.3970 H     1 <1>   0.1500 
 48 H       15.7340    -2.5320     0.3860 H     1 <1>   0.1500 
 49 H       14.8080    -3.7000     2.3430 H     1 <1>   0.1500 
@<TRIPOS>BOND
  1   1   2  1   
  2   2   3  ar  
  3   2   4  ar  
  4   3   5  ar  
  5   3  27  1   
  6   4   6  ar  
  7   4  28  1   
  8   5   7  ar  
  9   5  29  1   
 10   6   7  ar  
 11   6  30  1   
 12   7   8  1   
 13   8   9  2   
 14   8  10  am  
 15  10  11  1   
 16  10  12  1   
 17  11  13  1   
 18  11  31  1   
 19  11  32  1   
 20  12  14  1   
 21  12  33  1   
 22  12  34  1   
 23  13  15  1   
 24  13  35  1   
 25  13  36  1   
 26  14  15  1   
 27  14  37  1   
 28  14  38  1   
 29  15  16  1   
 30  15  39  1   
 31  16  17  2   
 32  16  18  am  
 33  18  19  1   
 34  18  40  1   
 35  19  20  1   
 36  19  21  1   
 37  19  41  1   
 38  20  22  ar  
 39  20  23  ar  
 40  21  42  1   
 41  21  43  1   
 42  21  44  1   
 43  22  24  ar  
 44  22  45  1   
 45  23  25  ar  
 46  23  46  1   
 47  24  26  ar  
 48  24  47  1   
 49  25  26  ar  
 50  25  48  1   
 51  26  49  1   
@<TRIPOS>SUBSTRUCTURE
  1 ****  13 GROUP 4 **** **** 0

# MOE 2024.06 (io_trps.svl 2023.06)
