@<TRIPOS>MOLECULE
NONAME
46 47 1 0 0 
SMALL
USER_CHARGES


@<TRIPOS>ATOM
  1 CL      -2.1490     2.1660    -3.7000 Cl    1 <1>  -0.1770 
  2 C       -2.5580     2.0200    -2.0120 C.ar  1 <1>   0.1770 
  3 C       -3.6360     1.2330    -1.6500 C.ar  1 <1>  -0.1500 
  4 C       -1.8060     2.6900    -1.0680 C.ar  1 <1>  -0.1500 
  5 C       -3.9810     1.1180    -0.3090 C.ar  1 <1>  -0.1440 
  6 C       -2.1410     2.5670     0.2690 C.ar  1 <1>  -0.1500 
  7 C       -3.2210     1.7840     0.6460 C.ar  1 <1>  -0.1500 
  8 C       -5.1720     0.2780     0.1090 C.3   1 <1>   0.4870 
  9 N       -6.4270     1.0030    -0.2640 N.4   1 <1>  -0.9590 
 10 C       -6.4910     2.3080     0.4830 C.3   1 <1>   0.4860 
 11 C       -7.6530     0.1280    -0.0860 C.3   1 <1>   0.3430 
 12 C       -7.7850     3.0190     0.1470 C.ar  1 <1>  -0.1430 
 13 C       -8.8090     0.3940    -1.1030 C.3   1 <1>   0.3430 
 14 C       -7.9480     3.6300    -1.0900 C.ar  1 <1>  -0.1500 
 15 C       -8.8210     3.0520     1.0700 C.ar  1 <1>  -0.1500 
 16 N      -10.0850    -0.3670    -0.8320 N.4   1 <1>  -0.9590 
 17 C       -9.1500     4.2370    -1.4090 C.ar  1 <1>  -0.1500 
 18 C      -10.0200     3.6640     0.7480 C.ar  1 <1>  -0.1500 
 19 C      -11.0260    -0.2060    -1.9910 C.3   1 <1>   0.2630 
 20 C      -10.7840     0.1030     0.4110 C.3   1 <1>   0.2630 
 21 C      -10.1860     4.2490    -0.4930 C.ar  1 <1>  -0.1500 
 22 H       -4.1740     0.7240    -2.4290 H     1 <1>   0.1500 
 23 H       -0.9710     3.2950    -1.3770 H     1 <1>   0.1500 
 24 H       -1.5550     3.0810     1.0150 H     1 <1>   0.1500 
 25 H       -3.4480     1.7020     1.6970 H     1 <1>   0.1500 
 26 H       -5.1400     0.0990     1.1720 H     1 <1>   0.0800 
 27 H       -5.1230    -0.6740    -0.3970 H     1 <1>   0.0800 
 28 H       -6.3060     1.2600    -1.2530 H     1 <1>   0.4500 
 29 H       -5.6590     2.9380     0.2090 H     1 <1>   0.0800 
 30 H       -6.4420     2.1340     1.5460 H     1 <1>   0.0800 
 31 H       -8.0300     0.2630     0.9140 H     1 <1>   0.0800 
 32 H       -7.3610    -0.9040    -0.1920 H     1 <1>   0.0800 
 33 H       -8.4560     0.1350    -2.0880 H     1 <1>   0.0800 
 34 H       -9.0480     1.4440    -1.1080 H     1 <1>   0.0800 
 35 H       -7.1490     3.6530    -1.8130 H     1 <1>   0.1500 
 36 H       -8.7080     2.6200     2.0510 H     1 <1>   0.1500 
 37 H       -9.8990    -1.3810    -0.7430 H     1 <1>   0.4500 
 38 H       -9.2780     4.7170    -2.3660 H     1 <1>   0.1500 
 39 H      -10.8220     3.7060     1.4680 H     1 <1>   0.1500 
 40 H      -11.2800     0.8330    -2.1300 H     1 <1>   0.0800 
 41 H      -11.9360    -0.7590    -1.8160 H     1 <1>   0.0800 
 42 H      -10.5760    -0.5750    -2.9000 H     1 <1>   0.0800 
 43 H      -11.0120     1.1550     0.3380 H     1 <1>   0.0800 
 44 H      -10.1710    -0.0580     1.2820 H     1 <1>   0.0800 
 45 H      -11.7090    -0.4360     0.5460 H     1 <1>   0.0800 
 46 H      -11.1160     4.7360    -0.7410 H     1 <1>   0.1500 
@<TRIPOS>BOND
  1   1   2  1   
  2   2   3  ar  
  3   2   4  ar  
  4   3   5  ar  
  5   3  22  1   
  6   4   6  ar  
  7   4  23  1   
  8   5   7  ar  
  9   5   8  1   
 10   6   7  ar  
 11   6  24  1   
 12   7  25  1   
 13   8   9  1   
 14   8  26  1   
 15   8  27  1   
 16   9  10  1   
 17   9  11  1   
 18   9  28  1   
 19  10  12  1   
 20  10  29  1   
 21  10  30  1   
 22  11  13  1   
 23  11  31  1   
 24  11  32  1   
 25  12  14  ar  
 26  12  15  ar  
 27  13  16  1   
 28  13  33  1   
 29  13  34  1   
 30  14  17  ar  
 31  14  35  1   
 32  15  18  ar  
 33  15  36  1   
 34  16  19  1   
 35  16  20  1   
 36  16  37  1   
 37  17  21  ar  
 38  17  38  1   
 39  18  21  ar  
 40  18  39  1   
 41  19  40  1   
 42  19  41  1   
 43  19  42  1   
 44  20  43  1   
 45  20  44  1   
 46  20  45  1   
 47  21  46  1   
@<TRIPOS>SUBSTRUCTURE
  1 ****   9 GROUP 4 **** **** 0

# MOE 2024.06 (io_trps.svl 2023.06)
