@<TRIPOS>MOLECULE
NONAME
54 56 1 0 0 
SMALL
USER_CHARGES


@<TRIPOS>ATOM
  1 O       -1.3640    -0.3400    -0.5920 O.2   1 <1>  -0.5700 
  2 C       -1.2350    -1.4020    -1.1710 C.2   1 <1>   0.6900 
  3 N       -2.2370    -1.8250    -1.9980 N.am  1 <1>  -0.6600 
  4 N       -0.1770    -2.2310    -0.9790 N.am  1 <1>  -0.5470 
  5 C       -3.0280    -3.0090    -1.5630 C.3   1 <1>   0.1400 
  6 C       -3.0670    -0.7870    -2.6720 C.3   1 <1>   0.1400 
  7 C        0.8920    -2.2530    -0.0670 C.ar  1 <1>   0.1170 
  8 C       -4.1660    -2.5570    -0.6230 C.3   1 <1>   0.3430 
  9 C       -4.1990    -0.3270    -1.7320 C.3   1 <1>   0.3430 
 10 C        1.6330    -3.4360     0.0420 C.ar  1 <1>   0.0820 
 11 C        1.2490    -1.1640     0.7200 C.ar  1 <1>  -0.1500 
 12 N       -5.0370    -1.4850    -1.2360 N.4   1 <1>  -0.9590 
 13 O        1.2540    -4.4850    -0.7520 O.3   1 <1>  -0.3620 
 14 C        2.7000    -3.5070     0.9310 C.ar  1 <1>  -0.1500 
 15 C        2.3100    -1.2360     1.6060 C.ar  1 <1>  -0.1430 
 16 C       -6.0590    -1.0410    -0.2370 C.3   1 <1>   0.3430 
 17 C        1.9990    -5.6830    -0.7750 C.3   1 <1>   0.0400 
 18 C        3.0340    -2.4110     1.7080 C.ar  1 <1>  -0.1500 
 19 C        2.6850    -0.0350     2.4560 C.3   1 <1>  -0.0970 
 20 C       -7.1380    -0.1530    -0.8600 C.3   1 <1>  -0.0170 
 21 C       -8.1810     0.1460     0.1980 C.ar  1 <1>  -0.1430 
 22 C       -9.3220    -0.6370     0.2990 C.ar  1 <1>  -0.1500 
 23 C       -7.9970     1.2000     1.0810 C.ar  1 <1>  -0.1500 
 24 C      -10.2650    -0.3720     1.2770 C.ar  1 <1>  -0.1500 
 25 C       -8.9400     1.4630     2.0590 C.ar  1 <1>  -0.1500 
 26 C      -10.0740     0.6770     2.1580 C.ar  1 <1>  -0.1500 
 27 H       -0.1640    -3.0410    -1.5970 H     1 <1>   0.3700 
 28 H       -2.3940    -3.7060    -1.0410 H     1 <1>   0.0800 
 29 H       -3.4320    -3.5120    -2.4250 H     1 <1>   0.0800 
 30 H       -3.4730    -1.1810    -3.5860 H     1 <1>   0.0800 
 31 H       -2.4480     0.0590    -2.9230 H     1 <1>   0.0800 
 32 H       -3.7170    -2.1780     0.2820 H     1 <1>   0.0800 
 33 H       -4.7660    -3.4120    -0.3590 H     1 <1>   0.0800 
 34 H       -4.8170     0.3850    -2.2520 H     1 <1>   0.0800 
 35 H       -3.7480     0.1790    -0.8920 H     1 <1>   0.0800 
 36 H        0.7000    -0.2450     0.6400 H     1 <1>   0.1500 
 37 H       -5.5210    -1.8990    -2.0430 H     1 <1>   0.4500 
 38 H        3.2840    -4.4000     1.0390 H     1 <1>   0.1500 
 39 H       -5.5780    -0.5050     0.5670 H     1 <1>   0.0800 
 40 H       -6.5430    -1.9050     0.1910 H     1 <1>   0.0800 
 41 H        1.5480    -6.3460    -1.4920 H     1 <1>   0.0800 
 42 H        1.9730    -6.1310     0.2020 H     1 <1>   0.0800 
 43 H        3.0100    -5.4610    -1.0710 H     1 <1>   0.0800 
 44 H        3.8630    -2.4760     2.3920 H     1 <1>   0.1500 
 45 H        1.8420     0.6220     2.5760 H     1 <1>   0.0800 
 46 H        3.4830     0.5090     1.9840 H     1 <1>   0.0800 
 47 H        3.0090    -0.3530     3.4310 H     1 <1>   0.0800 
 48 H       -7.6030    -0.6550    -1.6890 H     1 <1>   0.0800 
 49 H       -6.7190     0.7750    -1.2070 H     1 <1>   0.0800 
 50 H       -9.4940    -1.4550    -0.3780 H     1 <1>   0.1500 
 51 H       -7.1260     1.8280     1.0200 H     1 <1>   0.1500 
 52 H      -11.1510    -0.9800     1.3530 H     1 <1>   0.1500 
 53 H       -8.7950     2.2820     2.7430 H     1 <1>   0.1500 
 54 H      -10.8080     0.8830     2.9180 H     1 <1>   0.1500 
@<TRIPOS>BOND
  1   1   2  2   
  2   2   3  am  
  3   2   4  am  
  4   3   5  1   
  5   3   6  1   
  6   4   7  1   
  7   4  27  1   
  8   5   8  1   
  9   5  28  1   
 10   5  29  1   
 11   6   9  1   
 12   6  30  1   
 13   6  31  1   
 14   7  10  ar  
 15   7  11  ar  
 16   8  12  1   
 17   8  32  1   
 18   8  33  1   
 19   9  12  1   
 20   9  34  1   
 21   9  35  1   
 22  10  13  1   
 23  10  14  ar  
 24  11  15  ar  
 25  11  36  1   
 26  12  16  1   
 27  12  37  1   
 28  13  17  1   
 29  14  18  ar  
 30  14  38  1   
 31  15  18  ar  
 32  15  19  1   
 33  16  20  1   
 34  16  39  1   
 35  16  40  1   
 36  17  41  1   
 37  17  42  1   
 38  17  43  1   
 39  18  44  1   
 40  19  45  1   
 41  19  46  1   
 42  19  47  1   
 43  20  21  1   
 44  20  48  1   
 45  20  49  1   
 46  21  22  ar  
 47  21  23  ar  
 48  22  24  ar  
 49  22  50  1   
 50  23  25  ar  
 51  23  51  1   
 52  24  26  ar  
 53  24  52  1   
 54  25  26  ar  
 55  25  53  1   
 56  26  54  1   
@<TRIPOS>SUBSTRUCTURE
  1 ****   8 GROUP 4 **** **** 0

# MOE 2024.06 (io_trps.svl 2023.06)
