@<TRIPOS>MOLECULE
NONAME
37 39 1 0 0 
SMALL
USER_CHARGES


@<TRIPOS>ATOM
  1 S        0.1520    -0.2020    -1.1180 S.o2  1 <1>   1.5010 
  2 O        0.5080    -0.4000    -2.5080 O.2   1 <1>  -0.6500 
  3 O       -0.6820     0.9220    -0.7540 O.2   1 <1>  -0.6500 
  4 N        1.6060    -0.0260    -0.2750 N.am  1 <1>  -0.8490 
  5 C       -0.5440    -1.7210    -0.4440 C.2   1 <1>  -0.0630 
  6 C        2.5490    -1.0980    -0.6100 C.3   1 <1>   0.3390 
  7 C        2.2260     1.2770    -0.5180 C.3   1 <1>   0.1960 
  8 C       -0.7570    -1.9970     0.9050 C.2   1 <1>   0.1080 
  9 C       -0.9730    -2.8460    -1.0690 C.2   1 <1>  -0.3020 
 10 C        3.8910    -0.9240     0.0950 C.ar  1 <1>  -0.1440 
 11 C        3.3570     1.5100     0.4890 C.3   1 <1>  -0.0160 
 12 N       -1.2580    -3.1760     1.0990 N.2   1 <1>  -0.7070 
 13 C       -0.4500    -1.0640     2.0590 C.3   1 <1>  -0.0590 
 14 N       -1.3980    -3.7010    -0.1240 N.pl3 1 <1>   0.3140 
 15 C        4.2850     0.3100     0.5980 C.ar  1 <1>  -0.1440 
 16 C        4.7400    -2.0140     0.2200 C.ar  1 <1>  -0.1500 
 17 C       -1.9580    -5.0420    -0.3230 C.3   1 <1>   0.0160 
 18 C        5.5190     0.4440     1.2150 C.ar  1 <1>  -0.1500 
 19 C        5.9710    -1.8770     0.8380 C.ar  1 <1>  -0.1500 
 20 C        6.3610    -0.6470     1.3350 C.ar  1 <1>  -0.1500 
 21 H        2.7270    -1.1190    -1.6720 H     1 <1>   0.0800 
 22 H        2.1280    -2.0470    -0.3210 H     1 <1>   0.0800 
 23 H        1.4990     2.0640    -0.4040 H     1 <1>   0.0800 
 24 H        2.6110     1.3170    -1.5250 H     1 <1>   0.0800 
 25 H       -0.9940    -3.0660    -2.1210 H     1 <1>   0.1500 
 26 H        2.9250     1.7020     1.4540 H     1 <1>   0.0800 
 27 H        3.9150     2.3800     0.1950 H     1 <1>   0.0800 
 28 H       -0.8160    -0.0760     1.8480 H     1 <1>   0.0800 
 29 H        0.6110    -1.0220     2.2220 H     1 <1>   0.0800 
 30 H       -0.9250    -1.4240     2.9530 H     1 <1>   0.0800 
 31 H        4.4490    -2.9760    -0.1630 H     1 <1>   0.1500 
 32 H       -1.8800    -5.3180    -1.3570 H     1 <1>   0.0800 
 33 H       -2.9890    -5.0350    -0.0220 H     1 <1>   0.0800 
 34 H       -1.4120    -5.7400     0.2840 H     1 <1>   0.0800 
 35 H        5.8260     1.3960     1.6090 H     1 <1>   0.1500 
 36 H        6.6240    -2.7270     0.9310 H     1 <1>   0.1500 
 37 H        7.3170    -0.5390     1.8150 H     1 <1>   0.1500 
@<TRIPOS>BOND
  1   1   2  2   
  2   1   3  2   
  3   1   4  am  
  4   1   5  1   
  5   4   6  1   
  6   4   7  1   
  7   5   8  1   
  8   5   9  2   
  9   6  10  1   
 10   6  21  1   
 11   6  22  1   
 12   7  11  1   
 13   7  23  1   
 14   7  24  1   
 15   8  12  2   
 16   8  13  1   
 17   9  14  1   
 18   9  25  1   
 19  10  15  ar  
 20  10  16  ar  
 21  11  15  1   
 22  11  26  1   
 23  11  27  1   
 24  12  14  1   
 25  13  28  1   
 26  13  29  1   
 27  13  30  1   
 28  14  17  1   
 29  15  18  ar  
 30  16  19  ar  
 31  16  31  1   
 32  17  32  1   
 33  17  33  1   
 34  17  34  1   
 35  18  20  ar  
 36  18  35  1   
 37  19  20  ar  
 38  19  36  1   
 39  20  37  1   
@<TRIPOS>SUBSTRUCTURE
  1 ****   6 GROUP 4 **** **** 0

# MOE 2024.06 (io_trps.svl 2023.06)
