@<TRIPOS>MOLECULE
NONAME
38 41 1 0 0 
SMALL
USER_CHARGES


@<TRIPOS>ATOM
  1 O       -0.8000    -0.9610     2.0620 O.2   1 <1>  -0.5700 
  2 C       -1.4570    -1.4020     1.1530 C.2   1 <1>   0.5690 
  3 N       -1.1720    -2.4820     0.3310 N.am  1 <1>  -0.2370 
  4 C       -2.7510    -0.7990     0.6790 C.3   1 <1>  -0.0190 
  5 C        0.0720    -3.1520     0.2440 C.ar  1 <1>   0.1170 
  6 C       -2.3090    -2.7900    -0.4000 C.2   1 <1>   0.5690 
  7 C       -3.7850     0.1710     1.3140 C.3   1 <1>   0.0580 
  8 C       -3.4660    -2.0770     0.2410 C.3   1 <1>  -0.0190 
  9 C        1.2720    -2.4540     0.3520 C.ar  1 <1>  -0.1500 
 10 C        0.1290    -4.5300     0.0460 C.ar  1 <1>  -0.1500 
 11 O       -2.4080    -3.5070    -1.3620 O.2   1 <1>  -0.5700 
 12 C       -4.9610    -0.5870     1.9420 C.2   1 <1>  -0.2880 
 13 C       -4.4710     0.8090     0.0720 C.3   1 <1>  -0.1600 
 14 C       -4.9040    -1.7130    -0.2090 C.3   1 <1>   0.0580 
 15 C        2.4860    -3.1110     0.2640 C.ar  1 <1>  -0.1500 
 16 C        1.3410    -5.1920    -0.0440 C.ar  1 <1>  -0.1500 
 17 C       -5.5650    -1.4890     1.1540 C.2   1 <1>  -0.2880 
 18 C       -4.9550    -0.3210    -0.9050 C.3   1 <1>  -0.1600 
 19 C        2.5320    -4.4810     0.0650 C.ar  1 <1>   0.0830 
 20 O        3.7640    -5.0480    -0.0120 O.3   1 <1>  -0.3630 
 21 C        3.9150    -6.4330    -0.2290 C.3   1 <1>   0.0400 
 22 H       -2.4010    -0.2880    -0.2020 H     1 <1>   0.0800 
 23 H       -3.3430     0.9060     1.9650 H     1 <1>   0.0800 
 24 H       -3.6090    -2.7000     1.1120 H     1 <1>   0.0800 
 25 H        1.2650    -1.3910     0.5090 H     1 <1>   0.1500 
 26 H       -0.7820    -5.0950    -0.0430 H     1 <1>   0.1500 
 27 H       -5.2390    -0.3110     2.9460 H     1 <1>   0.1500 
 28 H       -3.8020     1.4820    -0.4370 H     1 <1>   0.0800 
 29 H       -5.3170     1.3910     0.3970 H     1 <1>   0.0800 
 30 H       -5.3720    -2.5020    -0.7740 H     1 <1>   0.0800 
 31 H        3.4080    -2.5650     0.3500 H     1 <1>   0.1500 
 32 H        1.3370    -6.2530    -0.1990 H     1 <1>   0.1500 
 33 H       -6.4320    -2.0840     1.3880 H     1 <1>   0.1500 
 34 H       -4.3410    -0.3420    -1.7880 H     1 <1>   0.0800 
 35 H       -5.9650    -0.1130    -1.2140 H     1 <1>   0.0800 
 36 H        4.9670    -6.6530    -0.2600 H     1 <1>   0.0800 
 37 H        3.4600    -6.6900    -1.1690 H     1 <1>   0.0800 
 38 H        3.4540    -6.9660     0.5830 H     1 <1>   0.0800 
@<TRIPOS>BOND
  1   1   2  2   
  2   2   3  am  
  3   2   4  1   
  4   3   5  1   
  5   3   6  am  
  6   4   7  1   
  7   4   8  1   
  8   4  22  1   
  9   5   9  ar  
 10   5  10  ar  
 11   6   8  1   
 12   6  11  2   
 13   7  12  1   
 14   7  13  1   
 15   7  23  1   
 16   8  14  1   
 17   8  24  1   
 18   9  15  ar  
 19   9  25  1   
 20  10  16  ar  
 21  10  26  1   
 22  12  17  2   
 23  12  27  1   
 24  13  18  1   
 25  13  28  1   
 26  13  29  1   
 27  14  17  1   
 28  14  18  1   
 29  14  30  1   
 30  15  19  ar  
 31  15  31  1   
 32  16  19  ar  
 33  16  32  1   
 34  17  33  1   
 35  18  34  1   
 36  18  35  1   
 37  19  20  1   
 38  20  21  1   
 39  21  36  1   
 40  21  37  1   
 41  21  38  1   
@<TRIPOS>SUBSTRUCTURE
  1 ****   3 GROUP 4 **** **** 0

# MOE 2024.06 (io_trps.svl 2023.06)
