@<TRIPOS>MOLECULE
NONAME
49 51 1 0 0 
SMALL
USER_CHARGES


@<TRIPOS>ATOM
  1 O       -1.9250     1.2790    -2.3040 O.2   1 <1>  -0.5700 
  2 C       -1.7800     1.7370    -1.1970 C.2   1 <1>   0.6590 
  3 O       -1.6680     0.9510    -0.1290 O.3   1 <1>  -0.4300 
  4 C       -1.7040     3.2630    -0.9680 C.3   1 <1>   0.2510 
  5 C       -1.6950    -0.4510    -0.2360 C.3   1 <1>   0.1200 
  6 N       -0.3550     3.7810    -0.5670 N.3   1 <1>  -0.8100 
  7 C       -2.7520     3.6970     0.0740 C.3   1 <1>  -0.1600 
  8 C       -1.5440    -1.0350     1.1650 C.3   1 <1>  -0.2400 
  9 C       -0.3510     5.2510    -0.4540 C.3   1 <1>   0.1100 
 10 C        0.6980     3.3220    -1.5000 C.3   1 <1>   0.2530 
 11 C       -2.7740     5.2170     0.2690 C.3   1 <1>  -0.1600 
 12 C       -1.3630     5.7110     0.5970 C.3   1 <1>  -0.1600 
 13 C        2.0900     3.7160    -1.0200 C.ar  1 <1>  -0.1440 
 14 C        2.9540     4.4160    -1.8470 C.ar  1 <1>  -0.1500 
 15 C        2.5110     3.3730     0.2550 C.ar  1 <1>  -0.1500 
 16 C        4.2170     4.7650    -1.4030 C.ar  1 <1>  -0.1500 
 17 C        3.7750     3.7230     0.6950 C.ar  1 <1>  -0.1500 
 18 C        4.6520     4.4250    -0.1260 C.ar  1 <1>   0.0000 
 19 C        5.9720     4.7920     0.3350 C.ar  1 <1>   0.0000 
 20 C        7.1120     4.3720    -0.3450 C.ar  1 <1>  -0.1500 
 21 C        6.1420     5.5770     1.4720 C.ar  1 <1>  -0.1500 
 22 C        8.3760     4.7230     0.0930 C.ar  1 <1>  -0.1500 
 23 C        7.4030     5.9320     1.9150 C.ar  1 <1>  -0.1500 
 24 C        8.5240     5.5050     1.2250 C.ar  1 <1>  -0.1500 
 25 H       -1.9660     3.7210    -1.9060 H     1 <1>   0.0800 
 26 H       -0.8830    -0.7590    -0.8740 H     1 <1>   0.0800 
 27 H       -2.6330    -0.7420    -0.6790 H     1 <1>   0.0800 
 28 H       -2.5270     3.2200     1.0130 H     1 <1>   0.0800 
 29 H       -3.7260     3.3640    -0.2380 H     1 <1>   0.0800 
 30 H       -0.6090    -0.7230     1.5960 H     1 <1>   0.0800 
 31 H       -1.5580    -2.1080     1.1140 H     1 <1>   0.0800 
 32 H       -2.3550    -0.7090     1.7910 H     1 <1>   0.0800 
 33 H       -0.5860     5.6930    -1.4080 H     1 <1>   0.0800 
 34 H        0.6250     5.5960    -0.1550 H     1 <1>   0.0800 
 35 H        0.5150     3.7280    -2.4800 H     1 <1>   0.0800 
 36 H        0.6800     2.2490    -1.5760 H     1 <1>   0.0800 
 37 H       -3.4480     5.4760     1.0670 H     1 <1>   0.0800 
 38 H       -3.1200     5.6920    -0.6330 H     1 <1>   0.0800 
 39 H       -1.3580     6.7850     0.6510 H     1 <1>   0.0800 
 40 H       -1.0560     5.3330     1.5570 H     1 <1>   0.0800 
 41 H        2.6480     4.6930    -2.8400 H     1 <1>   0.1500 
 42 H        1.8430     2.8350     0.9060 H     1 <1>   0.1500 
 43 H        4.8780     5.3120    -2.0510 H     1 <1>   0.1500 
 44 H        4.0890     3.4470     1.6850 H     1 <1>   0.1500 
 45 H        7.0020     3.7610    -1.2230 H     1 <1>   0.1500 
 46 H        5.2730     5.9150     2.0080 H     1 <1>   0.1500 
 47 H        9.2460     4.3880    -0.4460 H     1 <1>   0.1500 
 48 H        7.5130     6.5400     2.7960 H     1 <1>   0.1500 
 49 H        9.5060     5.7790     1.5680 H     1 <1>   0.1500 
@<TRIPOS>BOND
  1   1   2  2   
  2   2   3  1   
  3   2   4  1   
  4   3   5  1   
  5   4   6  1   
  6   4   7  1   
  7   4  25  1   
  8   5   8  1   
  9   5  26  1   
 10   5  27  1   
 11   6   9  1   
 12   6  10  1   
 13   7  11  1   
 14   7  28  1   
 15   7  29  1   
 16   8  30  1   
 17   8  31  1   
 18   8  32  1   
 19   9  12  1   
 20   9  33  1   
 21   9  34  1   
 22  10  13  1   
 23  10  35  1   
 24  10  36  1   
 25  11  12  1   
 26  11  37  1   
 27  11  38  1   
 28  12  39  1   
 29  12  40  1   
 30  13  14  ar  
 31  13  15  ar  
 32  14  16  ar  
 33  14  41  1   
 34  15  17  ar  
 35  15  42  1   
 36  16  18  ar  
 37  16  43  1   
 38  17  18  ar  
 39  17  44  1   
 40  18  19  1   
 41  19  20  ar  
 42  19  21  ar  
 43  20  22  ar  
 44  20  45  1   
 45  21  23  ar  
 46  21  46  1   
 47  22  24  ar  
 48  22  47  1   
 49  23  24  ar  
 50  23  48  1   
 51  24  49  1   
@<TRIPOS>SUBSTRUCTURE
  1 ****  15 GROUP 4 **** **** 0

# MOE 2024.06 (io_trps.svl 2023.06)
