@<TRIPOS>MOLECULE
NONAME
53 55 1 0 0 
SMALL
USER_CHARGES


@<TRIPOS>ATOM
  1 O        1.2390    -0.8700    -0.5600 O.2   1 <1>  -0.5700 
  2 C        1.1100    -1.9820    -1.0350 C.2   1 <1>   0.6900 
  3 N        2.2010    -2.5950    -1.5750 N.am  1 <1>  -0.6600 
  4 N       -0.0650    -2.6630    -1.0180 N.am  1 <1>  -0.5470 
  5 C        3.1580    -1.7390    -2.3360 C.3   1 <1>   0.1400 
  6 C        2.8780    -3.6180    -0.7320 C.3   1 <1>   0.1400 
  7 C       -1.3190    -2.2280    -0.5690 C.ar  1 <1>   0.1170 
  8 C        4.1510    -1.0560    -1.3740 C.3   1 <1>   0.3430 
  9 C        3.8710    -2.9350     0.2330 C.3   1 <1>   0.3430 
 10 C       -1.5880    -1.8780     0.7610 C.ar  1 <1>  -0.1440 
 11 C       -2.3400    -2.1620    -1.5090 C.ar  1 <1>  -0.1500 
 12 N        4.8630    -2.0550    -0.4870 N.4   1 <1>  -0.9590 
 13 C       -2.8640    -1.4380     1.1120 C.ar  1 <1>  -0.1430 
 14 C       -0.4940    -1.9780     1.8250 C.3   1 <1>  -0.0970 
 15 C       -3.6050    -1.7420    -1.1540 C.ar  1 <1>  -0.1500 
 16 C        5.8220    -1.4330     0.4720 C.3   1 <1>   0.4230 
 17 C       -3.8630    -1.3780     0.1520 C.ar  1 <1>  -0.1500 
 18 C       -3.2160    -1.0070     2.5310 C.3   1 <1>  -0.0970 
 19 C        5.1730    -0.3530     1.3570 C.3   1 <1>  -0.1600 
 20 C        7.0300    -0.8670    -0.2860 C.3   1 <1>  -0.1600 
 21 C        6.2000     0.2260     2.3410 C.3   1 <1>  -0.1600 
 22 C        8.0620    -0.2860     0.6920 C.3   1 <1>  -0.1600 
 23 C        7.4280     0.7740     1.6030 C.3   1 <1>  -0.1600 
 24 H       -0.0850    -3.4480    -1.6620 H     1 <1>   0.3700 
 25 H        2.6100    -0.9810    -2.8710 H     1 <1>   0.0800 
 26 H        3.6860    -2.3360    -3.0590 H     1 <1>   0.0800 
 27 H        3.3920    -4.3240    -1.3610 H     1 <1>   0.0800 
 28 H        2.1430    -4.1600    -0.1600 H     1 <1>   0.0800 
 29 H        3.5940    -0.3620    -0.7660 H     1 <1>   0.0800 
 30 H        4.8660    -0.4920    -1.9480 H     1 <1>   0.0800 
 31 H        4.3920    -3.6910     0.7970 H     1 <1>   0.0800 
 32 H        3.3000    -2.3390     0.9260 H     1 <1>   0.0800 
 33 H       -2.1430    -2.4330    -2.5290 H     1 <1>   0.1500 
 34 H        5.4170    -2.6610    -1.1020 H     1 <1>   0.4500 
 35 H        0.2280    -2.7280     1.5700 H     1 <1>   0.0800 
 36 H       -0.9010    -2.2480     2.7810 H     1 <1>   0.0800 
 37 H        0.0050    -1.0300     1.9130 H     1 <1>   0.0800 
 38 H       -4.3870    -1.6930    -1.8910 H     1 <1>   0.1500 
 39 H        6.1950    -2.2050     1.1270 H     1 <1>   0.0800 
 40 H       -4.8510    -1.0460     0.4160 H     1 <1>   0.1500 
 41 H       -2.4860    -0.3080     2.8980 H     1 <1>   0.0800 
 42 H       -3.2430    -1.8650     3.1780 H     1 <1>   0.0800 
 43 H       -4.1780    -0.5280     2.5620 H     1 <1>   0.0800 
 44 H        4.3560    -0.7660     1.9210 H     1 <1>   0.0800 
 45 H        4.7990     0.4570     0.7570 H     1 <1>   0.0800 
 46 H        6.7220    -0.0810    -0.9530 H     1 <1>   0.0800 
 47 H        7.5020    -1.6440    -0.8610 H     1 <1>   0.0800 
 48 H        6.5120    -0.5380     3.0340 H     1 <1>   0.0800 
 49 H        5.7450     1.0170     2.9140 H     1 <1>   0.0800 
 50 H        8.8750     0.1570     0.1420 H     1 <1>   0.0800 
 51 H        8.4730    -1.0760     1.2990 H     1 <1>   0.0800 
 52 H        8.1570     1.1120     2.3210 H     1 <1>   0.0800 
 53 H        7.1390     1.6270     1.0130 H     1 <1>   0.0800 
@<TRIPOS>BOND
  1   1   2  2   
  2   2   3  am  
  3   2   4  am  
  4   3   5  1   
  5   3   6  1   
  6   4   7  1   
  7   4  24  1   
  8   5   8  1   
  9   5  25  1   
 10   5  26  1   
 11   6   9  1   
 12   6  27  1   
 13   6  28  1   
 14   7  10  ar  
 15   7  11  ar  
 16   8  12  1   
 17   8  29  1   
 18   8  30  1   
 19   9  12  1   
 20   9  31  1   
 21   9  32  1   
 22  10  13  ar  
 23  10  14  1   
 24  11  15  ar  
 25  11  33  1   
 26  12  16  1   
 27  12  34  1   
 28  13  17  ar  
 29  13  18  1   
 30  14  35  1   
 31  14  36  1   
 32  14  37  1   
 33  15  17  ar  
 34  15  38  1   
 35  16  19  1   
 36  16  20  1   
 37  16  39  1   
 38  17  40  1   
 39  18  41  1   
 40  18  42  1   
 41  18  43  1   
 42  19  21  1   
 43  19  44  1   
 44  19  45  1   
 45  20  22  1   
 46  20  46  1   
 47  20  47  1   
 48  21  23  1   
 49  21  48  1   
 50  21  49  1   
 51  22  23  1   
 52  22  50  1   
 53  22  51  1   
 54  23  52  1   
 55  23  53  1   
@<TRIPOS>SUBSTRUCTURE
  1 ****   1 GROUP 4 **** **** 0

# MOE 2024.06 (io_trps.svl 2023.06)
