@<TRIPOS>MOLECULE
NONAME
29 29 1 0 0 
SMALL
USER_CHARGES


@<TRIPOS>ATOM
  1 O       -3.5000     1.9620    -1.9670 O.2   1 <1>  -0.5700 
  2 C       -3.8790     1.9990    -0.8190 C.2   1 <1>   0.4230 
  3 C       -5.2540     2.3330    -0.5020 C.ar  1 <1>   0.0860 
  4 C       -2.8120     1.7410     0.2740 C.3   1 <1>   0.3170 
  5 C       -6.0050     1.7110     0.5000 C.ar  1 <1>  -0.1500 
  6 C       -5.8980     3.3290    -1.2390 C.ar  1 <1>  -0.1500 
  7 N       -1.4920     2.1240    -0.3130 N.4   1 <1>  -0.2260 
  8 C       -2.7530     0.2440     0.6360 C.3   1 <1>  -0.2400 
  9 C       -3.0330     2.5960     1.5400 C.3   1 <1>  -0.2400 
 10 C       -7.3110     2.0800     0.7640 C.ar  1 <1>  -0.1500 
 11 C       -7.2040     3.7020    -0.9800 C.ar  1 <1>  -0.1500 
 12 O       -0.4300     1.9070     0.5230 O.2   1 <1>  -0.7500 
 13 C       -7.9200     3.0800     0.0270 C.ar  1 <1>  -0.1430 
 14 C       -9.3540     3.4880     0.3160 C.3   1 <1>  -0.0970 
 15 H       -5.5800     0.9200     1.0870 H     1 <1>   0.1500 
 16 H       -5.3630     3.8190    -2.0340 H     1 <1>   0.1500 
 17 H       -1.5010     3.1120    -0.5810 H     1 <1>   0.3600 
 18 H       -1.3580     1.5870    -1.1800 H     1 <1>   0.3600 
 19 H       -1.9670     0.0630     1.3490 H     1 <1>   0.0800 
 20 H       -2.5610    -0.3450    -0.2430 H     1 <1>   0.0800 
 21 H       -3.6710    -0.0940     1.0730 H     1 <1>   0.0800 
 22 H       -2.2140     2.4630     2.2260 H     1 <1>   0.0800 
 23 H       -3.9280     2.3110     2.0580 H     1 <1>   0.0800 
 24 H       -3.1020     3.6380     1.2860 H     1 <1>   0.0800 
 25 H       -7.8580     1.5830     1.5470 H     1 <1>   0.1500 
 26 H       -7.6630     4.4780    -1.5680 H     1 <1>   0.1500 
 27 H       -9.9130     2.6550     0.7040 H     1 <1>   0.0800 
 28 H       -9.8370     3.8280    -0.5820 H     1 <1>   0.0800 
 29 H       -9.3680     4.2830     1.0400 H     1 <1>   0.0800 
@<TRIPOS>BOND
  1   1   2  2   
  2   2   3  1   
  3   2   4  1   
  4   3   5  ar  
  5   3   6  ar  
  6   4   7  1   
  7   4   8  1   
  8   4   9  1   
  9   5  10  ar  
 10   5  15  1   
 11   6  11  ar  
 12   6  16  1   
 13   7  12  2   
 14   7  17  1   
 15   7  18  1   
 16   8  19  1   
 17   8  20  1   
 18   8  21  1   
 19   9  22  1   
 20   9  23  1   
 21   9  24  1   
 22  10  13  ar  
 23  10  25  1   
 24  11  13  ar  
 25  11  26  1   
 26  13  14  1   
 27  14  27  1   
 28  14  28  1   
 29  14  29  1   
@<TRIPOS>SUBSTRUCTURE
  1 ****   3 GROUP 4 **** **** 0

# MOE 2024.06 (io_trps.svl 2023.06)
