@<TRIPOS>MOLECULE
NONAME
42 46 1 0 0 
SMALL
USER_CHARGES


@<TRIPOS>ATOM
  1 O        0.7790     0.4630    -0.4330 O.2   1 <1>  -0.5700 
  2 C        1.9890     0.3620    -0.3150 C.2   1 <1>   0.6900 
  3 N        2.5680    -0.9030    -0.2750 N.am  1 <1>  -0.4200 
  4 N        2.7750     1.4990    -0.2180 N.am  1 <1>  -0.4230 
  5 C        3.9330    -1.0480    -0.1000 C.2   1 <1>   0.7150 
  6 C        1.6960    -2.1100    -0.3890 C.3   1 <1>   0.0600 
  7 C        4.1480     1.3600    -0.0520 C.2   1 <1>   0.2900 
  8 C        2.2070     2.8730    -0.2760 C.3   1 <1>   0.0600 
  9 O        4.4600    -2.1450    -0.0350 O.2   1 <1>  -0.5700 
 10 C        4.7020     0.1290     0.0040 C.2   1 <1>  -0.2370 
 11 N        5.0550     2.3460     0.0680 N.2   1 <1>  -0.5650 
 12 N        6.0250     0.3520     0.1690 N.pl3 1 <1>   0.0480 
 13 C        6.1690     1.6800     0.1980 C.2   1 <1>   0.2500 
 14 C        7.3090    -0.3320     0.3160 C.3   1 <1>   0.1570 
 15 N        7.4990     2.0460     0.3600 N.am  1 <1>  -0.2410 
 16 C        8.2260     0.8750     0.4390 C.2   1 <1>   0.5690 
 17 C        7.9980     3.3670     0.4260 C.ar  1 <1>   0.1170 
 18 O        9.4190     0.7610     0.5860 O.2   1 <1>  -0.5700 
 19 C        9.1770     3.7180    -0.2240 C.ar  1 <1>  -0.1500 
 20 C        7.3200     4.3480     1.1480 C.ar  1 <1>  -0.1500 
 21 C        9.6660     5.0100    -0.1550 C.ar  1 <1>   0.0830 
 22 C        7.8000     5.6450     1.2190 C.ar  1 <1>  -0.1500 
 23 O       10.8270     5.3070    -0.7930 O.3   1 <1>  -0.3630 
 24 C        8.9700     5.9830     0.5650 C.ar  1 <1>   0.0830 
 25 C       11.4590     6.5210    -0.4360 C.3   1 <1>   0.1200 
 26 O        9.4180     7.2650     0.6350 O.3   1 <1>  -0.3630 
 27 C       10.4170     7.6390    -0.2950 C.3   1 <1>   0.1200 
 28 H        0.9340    -1.9440    -1.1300 H     1 <1>   0.0800 
 29 H        1.2250    -2.3000     0.5590 H     1 <1>   0.0800 
 30 H        2.2680    -2.9740    -0.6790 H     1 <1>   0.0800 
 31 H        1.1530     2.8480    -0.4900 H     1 <1>   0.0800 
 32 H        2.7050     3.4340    -1.0470 H     1 <1>   0.0800 
 33 H        2.3630     3.3630     0.6680 H     1 <1>   0.0800 
 34 H        7.5340    -0.9120    -0.5580 H     1 <1>   0.0800 
 35 H        7.3220    -0.9300     1.2080 H     1 <1>   0.0800 
 36 H        9.7290     2.9860    -0.7850 H     1 <1>   0.1500 
 37 H        6.4060     4.0960     1.6570 H     1 <1>   0.1500 
 38 H        7.2710     6.3980     1.7760 H     1 <1>   0.1500 
 39 H       12.1750     6.7590    -1.2020 H     1 <1>   0.0800 
 40 H       11.9740     6.3700     0.4960 H     1 <1>   0.0800 
 41 H        9.9400     7.8280    -1.2410 H     1 <1>   0.0800 
 42 H       10.8740     8.5460     0.0570 H     1 <1>   0.0800 
@<TRIPOS>BOND
  1   1   2  2   
  2   2   3  am  
  3   2   4  am  
  4   3   5  am  
  5   3   6  1   
  6   4   7  1   
  7   4   8  1   
  8   5   9  2   
  9   5  10  1   
 10   6  28  1   
 11   6  29  1   
 12   6  30  1   
 13   7  10  2   
 14   7  11  1   
 15   8  31  1   
 16   8  32  1   
 17   8  33  1   
 18  10  12  1   
 19  11  13  2   
 20  12  13  1   
 21  12  14  1   
 22  13  15  1   
 23  14  16  1   
 24  14  34  1   
 25  14  35  1   
 26  15  16  am  
 27  15  17  1   
 28  16  18  2   
 29  17  19  ar  
 30  17  20  ar  
 31  19  21  ar  
 32  19  36  1   
 33  20  22  ar  
 34  20  37  1   
 35  21  23  1   
 36  21  24  ar  
 37  22  24  ar  
 38  22  38  1   
 39  23  25  1   
 40  24  26  1   
 41  25  27  1   
 42  25  39  1   
 43  25  40  1   
 44  26  27  1   
 45  27  41  1   
 46  27  42  1   
@<TRIPOS>SUBSTRUCTURE
  1 ****  13 GROUP 4 **** **** 0

# MOE 2024.06 (io_trps.svl 2023.06)
