@<TRIPOS>MOLECULE
NONAME
40 41 1 0 0 
SMALL
USER_CHARGES


@<TRIPOS>ATOM
  1 F       -4.6760     1.6580    -1.9730 F     1 <1>  -0.1900 
  2 C       -3.6040     1.9890    -1.2950 C.ar  1 <1>   0.1900 
  3 C       -3.2550     1.2520    -0.1640 C.ar  1 <1>   0.0820 
  4 C       -2.8700     3.0760    -1.7260 C.ar  1 <1>  -0.1500 
  5 O       -4.0170     0.1910     0.2030 O.3   1 <1>  -0.3630 
  6 C       -2.1230     1.6220     0.5590 C.ar  1 <1>  -0.1500 
  7 C       -1.7570     3.4150    -0.9820 C.ar  1 <1>   0.1900 
  8 C       -4.3930     0.0580     1.5660 C.3   1 <1>   0.1810 
  9 C       -1.3700     2.7130     0.1480 C.ar  1 <1>  -0.1500 
 10 F       -1.0410     4.4410    -1.3590 F     1 <1>  -0.1900 
 11 C       -5.5300    -0.9520     1.7400 C.2   1 <1>   0.5690 
 12 O       -5.4330    -1.7260     2.6610 O.2   1 <1>  -0.5700 
 13 N       -6.6330    -0.9900     0.9110 N.am  1 <1>  -0.6600 
 14 C       -7.5580    -2.1680     0.9480 C.3   1 <1>   0.1400 
 15 C       -6.9060     0.0010    -0.1810 C.3   1 <1>   0.1400 
 16 C       -9.0330    -1.7400     0.8650 C.3   1 <1>   0.3430 
 17 C       -8.4000     0.3660    -0.2770 C.3   1 <1>   0.3430 
 18 N       -9.2890    -0.8470    -0.3160 N.4   1 <1>  -0.9590 
 19 C      -10.7200    -0.4930    -0.4270 C.3   1 <1>   0.4810 
 20 C      -10.9470     0.0040    -1.8350 C.2   1 <1>  -0.2880 
 21 C      -11.5320    -0.6960    -2.8130 C.2   1 <1>  -0.3000 
 22 H       -3.1490     3.6350    -2.6000 H     1 <1>   0.1500 
 23 H       -1.8170     1.0650     1.4260 H     1 <1>   0.1500 
 24 H       -4.7040     1.0170     1.9350 H     1 <1>   0.0800 
 25 H       -3.5350    -0.2790     2.1200 H     1 <1>   0.0800 
 26 H       -0.4910     3.0160     0.6900 H     1 <1>   0.1500 
 27 H       -7.4170    -2.7320     1.8540 H     1 <1>   0.0800 
 28 H       -7.3240    -2.8220     0.1260 H     1 <1>   0.0800 
 29 H       -6.5690    -0.4060    -1.1190 H     1 <1>   0.0800 
 30 H       -6.3600     0.9100    -0.0060 H     1 <1>   0.0800 
 31 H       -9.2880    -1.2240     1.7760 H     1 <1>   0.0800 
 32 H       -9.6480    -2.6220     0.8000 H     1 <1>   0.0800 
 33 H       -8.5520     0.9630    -1.1620 H     1 <1>   0.0800 
 34 H       -8.6560     0.9720     0.5760 H     1 <1>   0.0800 
 35 H       -9.0630    -1.3690    -1.1740 H     1 <1>   0.4500 
 36 H      -10.9970     0.2560     0.2980 H     1 <1>   0.0800 
 37 H      -11.3250    -1.3710    -0.2650 H     1 <1>   0.0800 
 38 H      -10.5940     1.0090    -1.9910 H     1 <1>   0.1500 
 39 H      -11.6880    -0.3150    -3.8110 H     1 <1>   0.1500 
 40 H      -11.9120    -1.7000    -2.7180 H     1 <1>   0.1500 
@<TRIPOS>BOND
  1   1   2  1   
  2   2   3  ar  
  3   2   4  ar  
  4   3   5  1   
  5   3   6  ar  
  6   4   7  ar  
  7   4  22  1   
  8   5   8  1   
  9   6   9  ar  
 10   6  23  1   
 11   7   9  ar  
 12   7  10  1   
 13   8  11  1   
 14   8  24  1   
 15   8  25  1   
 16   9  26  1   
 17  11  12  2   
 18  11  13  am  
 19  13  14  1   
 20  13  15  1   
 21  14  16  1   
 22  14  27  1   
 23  14  28  1   
 24  15  17  1   
 25  15  29  1   
 26  15  30  1   
 27  16  18  1   
 28  16  31  1   
 29  16  32  1   
 30  17  18  1   
 31  17  33  1   
 32  17  34  1   
 33  18  19  1   
 34  18  35  1   
 35  19  20  1   
 36  19  36  1   
 37  19  37  1   
 38  20  21  2   
 39  20  38  1   
 40  21  39  1   
 41  21  40  1   
@<TRIPOS>SUBSTRUCTURE
  1 ****  15 GROUP 4 **** **** 0

# MOE 2024.06 (io_trps.svl 2023.06)
