@<TRIPOS>MOLECULE
NONAME
51 53 1 0 0 
SMALL
USER_CHARGES


@<TRIPOS>ATOM
  1 O       -0.2590    -3.6160     2.6650 O.2   1 <1>  -0.5700 
  2 C        0.0200    -2.9360     1.7080 C.2   1 <1>   0.5690 
  3 N       -0.9060    -2.1380     1.1160 N.am  1 <1>  -0.7300 
  4 C        1.4370    -2.9660     1.1580 C.3   1 <1>   0.0440 
  5 C       -2.3060    -2.0300     1.5300 C.3   1 <1>   0.2200 
  6 C        1.6250    -1.9960    -0.0050 C.ar  1 <1>  -0.1440 
  7 C       -3.1920    -1.9340     0.2920 C.3   1 <1>  -0.1600 
  8 C       -2.4670    -0.7980     2.4160 C.3   1 <1>  -0.1600 
  9 C        2.0020    -0.6830     0.2350 C.ar  1 <1>  -0.1500 
 10 C        1.3920    -2.4110    -1.3070 C.ar  1 <1>  -0.1500 
 11 C       -4.6490    -1.7240     0.6970 C.3   1 <1>   0.3430 
 12 C       -3.9300    -0.6070     2.7990 C.3   1 <1>   0.3430 
 13 C        2.1380     0.2150    -0.8120 C.ar  1 <1>  -0.1440 
 14 C        1.5280    -1.5200    -2.3550 C.ar  1 <1>  -0.1500 
 15 N       -4.7640    -0.5120     1.5660 N.4   1 <1>  -0.9590 
 16 C        1.8990    -0.2100    -2.1080 C.ar  1 <1>  -0.1500 
 17 C        2.5570     1.6500    -0.5470 C.3   1 <1>  -0.0970 
 18 C       -6.1850    -0.2110     1.8940 C.3   1 <1>   0.4860 
 19 C       -6.9150     0.1180     0.6080 C.ar  1 <1>  -0.1440 
 20 C       -7.8080    -0.7920     0.0590 C.ar  1 <1>  -0.1500 
 21 C       -6.6920     1.3290    -0.0350 C.ar  1 <1>  -0.1500 
 22 C       -8.4590    -0.5000    -1.1270 C.ar  1 <1>  -0.1500 
 23 C       -7.3440     1.6180    -1.2200 C.ar  1 <1>  -0.1500 
 24 C       -8.2260     0.7040    -1.7670 C.ar  1 <1>  -0.1500 
 25 H       -0.5890    -1.5620     0.3280 H     1 <1>   0.3700 
 26 H        1.6580    -3.9680     0.8400 H     1 <1>   0.0800 
 27 H        2.1170    -2.7210     1.9530 H     1 <1>   0.0800 
 28 H       -2.5750    -2.9110     2.0930 H     1 <1>   0.0800 
 29 H       -3.1160    -2.8490    -0.2710 H     1 <1>   0.0800 
 30 H       -2.8760    -1.1230    -0.3400 H     1 <1>   0.0800 
 31 H       -2.1050     0.0800     1.9110 H     1 <1>   0.0800 
 32 H       -1.8870    -0.9340     3.3120 H     1 <1>   0.0800 
 33 H        2.1920    -0.3560     1.2430 H     1 <1>   0.1500 
 34 H        1.1030    -3.4280    -1.5120 H     1 <1>   0.1500 
 35 H       -5.0030    -2.5920     1.2290 H     1 <1>   0.0800 
 36 H       -5.2500    -1.6030    -0.1910 H     1 <1>   0.0800 
 37 H       -4.0310     0.2910     3.3870 H     1 <1>   0.0800 
 38 H       -4.2550    -1.4440     3.3980 H     1 <1>   0.0800 
 39 H        1.3490    -1.8450    -3.3660 H     1 <1>   0.1500 
 40 H       -4.4300     0.2820     1.0050 H     1 <1>   0.4500 
 41 H        2.0060     0.4760    -2.9300 H     1 <1>   0.1500 
 42 H        2.3280     1.9340     0.4640 H     1 <1>   0.0800 
 43 H        2.0430     2.3180    -1.2140 H     1 <1>   0.0800 
 44 H        3.6160     1.7520    -0.7040 H     1 <1>   0.0800 
 45 H       -6.2430     0.6350     2.5590 H     1 <1>   0.0800 
 46 H       -6.6470    -1.0570     2.3760 H     1 <1>   0.0800 
 47 H       -8.0110    -1.7330     0.5410 H     1 <1>   0.1500 
 48 H       -6.0170     2.0620     0.3740 H     1 <1>   0.1500 
 49 H       -9.1520    -1.2060    -1.5530 H     1 <1>   0.1500 
 50 H       -7.1720     2.5570    -1.7200 H     1 <1>   0.1500 
 51 H       -8.7350     0.9310    -2.6890 H     1 <1>   0.1500 
@<TRIPOS>BOND
  1   1   2  2   
  2   2   3  am  
  3   2   4  1   
  4   3   5  1   
  5   3  25  1   
  6   4   6  1   
  7   4  26  1   
  8   4  27  1   
  9   5   7  1   
 10   5   8  1   
 11   5  28  1   
 12   6   9  ar  
 13   6  10  ar  
 14   7  11  1   
 15   7  29  1   
 16   7  30  1   
 17   8  12  1   
 18   8  31  1   
 19   8  32  1   
 20   9  13  ar  
 21   9  33  1   
 22  10  14  ar  
 23  10  34  1   
 24  11  15  1   
 25  11  35  1   
 26  11  36  1   
 27  12  15  1   
 28  12  37  1   
 29  12  38  1   
 30  13  16  ar  
 31  13  17  1   
 32  14  16  ar  
 33  14  39  1   
 34  15  18  1   
 35  15  40  1   
 36  16  41  1   
 37  17  42  1   
 38  17  43  1   
 39  17  44  1   
 40  18  19  1   
 41  18  45  1   
 42  18  46  1   
 43  19  20  ar  
 44  19  21  ar  
 45  20  22  ar  
 46  20  47  1   
 47  21  23  ar  
 48  21  48  1   
 49  22  24  ar  
 50  22  49  1   
 51  23  24  ar  
 52  23  50  1   
 53  24  51  1   
@<TRIPOS>SUBSTRUCTURE
  1 ****   7 GROUP 4 **** **** 0

# MOE 2024.06 (io_trps.svl 2023.06)
