@<TRIPOS>MOLECULE
NONAME
44 47 1 0 0 
SMALL
USER_CHARGES


@<TRIPOS>ATOM
  1 S        0.5240    -0.1460     1.2910 S.o2  1 <1>   1.5000 
  2 O        0.7890    -0.6680     2.6140 O.2   1 <1>  -0.6500 
  3 O        0.5530     1.2850     1.0850 O.2   1 <1>  -0.6500 
  4 N        1.6920    -0.8200     0.2640 N.am  1 <1>  -0.8490 
  5 C       -1.0430    -0.8170     0.6810 C.2   1 <1>  -0.0220 
  6 C        1.8870    -2.2620     0.5030 C.3   1 <1>   0.1960 
  7 C        2.9800    -0.1150     0.3800 C.3   1 <1>   0.1960 
  8 S       -1.3150    -0.8530    -1.0620 S.3   1 <1>  -0.0800 
  9 C       -2.1290    -1.3160     1.3100 C.2   1 <1>  -0.1500 
 10 C        2.8740    -2.8690    -0.5070 C.3   1 <1>   0.1400 
 11 C        4.0280    -0.6580    -0.6110 C.3   1 <1>   0.1400 
 12 C       -2.9080    -1.5590    -0.8640 C.2   1 <1>  -0.1100 
 13 C       -3.1830    -1.7380     0.4390 C.2   1 <1>  -0.1500 
 14 N        4.1780    -2.1400    -0.4800 N.am  1 <1>  -0.6600 
 15 C        5.3540    -2.7620    -0.1160 C.2   1 <1>   0.5440 
 16 O        5.2950    -3.8570     0.4100 O.2   1 <1>  -0.5700 
 17 C        6.6490    -2.1460    -0.3340 C.ar  1 <1>   0.0860 
 18 C        7.6000    -2.0980     0.6860 C.ar  1 <1>  -0.1500 
 19 C        6.9940    -1.5900    -1.5700 C.ar  1 <1>  -0.1500 
 20 C        8.8330    -1.5070     0.4880 C.ar  1 <1>   0.0820 
 21 C        8.2240    -0.9910    -1.7770 C.ar  1 <1>  -0.1500 
 22 O        9.7290    -1.4970     1.5070 O.3   1 <1>  -0.3630 
 23 C        9.1460    -0.9380    -0.7480 C.ar  1 <1>   0.0820 
 24 C       11.0750    -1.2170     1.1710 C.3   1 <1>   0.1200 
 25 O       10.3380    -0.3320    -0.9620 O.3   1 <1>  -0.3630 
 26 C       11.1410    -0.0540     0.1700 C.3   1 <1>   0.1200 
 27 H        0.9460    -2.7760     0.4140 H     1 <1>   0.0800 
 28 H        2.2650    -2.4290     1.4990 H     1 <1>   0.0800 
 29 H        3.3590    -0.2090     1.3850 H     1 <1>   0.0800 
 30 H        2.8380     0.9340     0.1780 H     1 <1>   0.0800 
 31 H       -2.2300    -1.4030     2.3790 H     1 <1>   0.1500 
 32 H        2.4540    -2.8020    -1.4950 H     1 <1>   0.0800 
 33 H        3.0160    -3.9120    -0.2820 H     1 <1>   0.0800 
 34 H        4.9640    -0.1620    -0.4250 H     1 <1>   0.0800 
 35 H        3.7180    -0.4220    -1.6140 H     1 <1>   0.0800 
 36 H       -3.4740    -1.7650    -1.7550 H     1 <1>   0.1500 
 37 H       -4.0950    -2.1530     0.8350 H     1 <1>   0.1500 
 38 H        7.3720    -2.5360     1.6410 H     1 <1>   0.1500 
 39 H        6.2840    -1.6370    -2.3770 H     1 <1>   0.1500 
 40 H        8.4770    -0.5650    -2.7320 H     1 <1>   0.1500 
 41 H       11.5040    -2.1050     0.7420 H     1 <1>   0.0800 
 42 H       11.5990    -0.9720     2.0770 H     1 <1>   0.0800 
 43 H       12.1490     0.1020    -0.1690 H     1 <1>   0.0800 
 44 H       10.7770     0.8500     0.6240 H     1 <1>   0.0800 
@<TRIPOS>BOND
  1   1   2  2   
  2   1   3  2   
  3   1   4  am  
  4   1   5  1   
  5   4   6  1   
  6   4   7  1   
  7   5   8  1   
  8   5   9  2   
  9   6  10  1   
 10   6  27  1   
 11   6  28  1   
 12   7  11  1   
 13   7  29  1   
 14   7  30  1   
 15   8  12  1   
 16   9  13  1   
 17   9  31  1   
 18  10  14  1   
 19  10  32  1   
 20  10  33  1   
 21  11  14  1   
 22  11  34  1   
 23  11  35  1   
 24  12  13  2   
 25  12  36  1   
 26  13  37  1   
 27  14  15  am  
 28  15  16  2   
 29  15  17  1   
 30  17  18  ar  
 31  17  19  ar  
 32  18  20  ar  
 33  18  38  1   
 34  19  21  ar  
 35  19  39  1   
 36  20  22  1   
 37  20  23  ar  
 38  21  23  ar  
 39  21  40  1   
 40  22  24  1   
 41  23  25  1   
 42  24  26  1   
 43  24  41  1   
 44  24  42  1   
 45  25  26  1   
 46  26  43  1   
 47  26  44  1   
@<TRIPOS>SUBSTRUCTURE
  1 ****  11 GROUP 4 **** **** 0

# MOE 2024.06 (io_trps.svl 2023.06)
