@<TRIPOS>MOLECULE
NONAME
26 26 1 0 0 
SMALL
USER_CHARGES


@<TRIPOS>ATOM
  1 O       -1.9410    -4.2830    -0.9470 O.co2 1 <1>  -0.9000 
  2 C       -1.8250    -3.0480    -0.8530 C.2   1 <1>   0.9790 
  3 O       -0.7350    -2.5250    -1.1480 O.co2 1 <1>  -0.9000 
  4 C       -2.9460    -2.2290    -0.4080 C.ar  1 <1>  -0.1790 
  5 C       -2.8330    -0.8420    -0.3000 C.ar  1 <1>  -0.1500 
  6 C       -4.1750    -2.7990    -0.0760 C.ar  1 <1>  -0.1500 
  7 C       -3.8930    -0.0460     0.1220 C.ar  1 <1>   0.0830 
  8 C       -5.2540    -2.0310     0.3480 C.ar  1 <1>   0.0830 
  9 O       -3.7940     1.3140     0.2270 O.3   1 <1>  -0.3630 
 10 C       -5.1090    -0.6480     0.4460 C.ar  1 <1>   0.0830 
 11 O       -6.4650    -2.5800     0.6710 O.3   1 <1>  -0.3630 
 12 C       -2.5550     1.9620     0.0480 C.3   1 <1>   0.0400 
 13 O       -6.1520     0.1160     0.8680 O.3   1 <1>  -0.3630 
 14 C       -6.6300    -3.9790     0.7260 C.3   1 <1>   0.0400 
 15 C       -6.9980     0.5790    -0.1540 C.3   1 <1>   0.0400 
 16 H       -1.8820    -0.4140    -0.5610 H     1 <1>   0.1500 
 17 H       -4.2500    -3.8670    -0.1670 H     1 <1>   0.1500 
 18 H       -2.6970     3.0110     0.2370 H     1 <1>   0.0800 
 19 H       -2.2260     1.8120    -0.9650 H     1 <1>   0.0800 
 20 H       -1.8460     1.5550     0.7470 H     1 <1>   0.0800 
 21 H       -5.9200    -4.3860     1.4240 H     1 <1>   0.0800 
 22 H       -6.4770    -4.3870    -0.2580 H     1 <1>   0.0800 
 23 H       -7.6310    -4.1840     1.0570 H     1 <1>   0.0800 
 24 H       -7.7780     1.1650     0.2950 H     1 <1>   0.0800 
 25 H       -7.4170    -0.2700    -0.6660 H     1 <1>   0.0800 
 26 H       -6.4210     1.1830    -0.8320 H     1 <1>   0.0800 
@<TRIPOS>BOND
  1   1   2  ar  
  2   2   3  ar  
  3   2   4  1   
  4   4   5  ar  
  5   4   6  ar  
  6   5   7  ar  
  7   5  16  1   
  8   6   8  ar  
  9   6  17  1   
 10   7   9  1   
 11   7  10  ar  
 12   8  10  ar  
 13   8  11  1   
 14   9  12  1   
 15  10  13  1   
 16  11  14  1   
 17  12  18  1   
 18  12  19  1   
 19  12  20  1   
 20  13  15  1   
 21  14  21  1   
 22  14  22  1   
 23  14  23  1   
 24  15  24  1   
 25  15  25  1   
 26  15  26  1   
@<TRIPOS>SUBSTRUCTURE
  1 ****  10 GROUP 4 **** **** 0

# MOE 2024.06 (io_trps.svl 2023.06)
