@<TRIPOS>MOLECULE
NONAME
43 43 1 0 0 
SMALL
USER_CHARGES


@<TRIPOS>ATOM
  1 O       -0.0520    -0.1160    -1.4240 O.2   1 <1>  -0.5700 
  2 C        0.0300     1.0860    -1.4980 C.2   1 <1>   0.5690 
  3 N        1.1770     1.7060    -1.8530 N.am  1 <1>  -0.7300 
  4 C       -1.1920     1.9360    -1.2020 C.3   1 <1>  -0.0990 
  5 C        2.4780     1.0470    -1.9610 C.3   1 <1>   0.3640 
  6 C       -1.2880     2.4710     0.2470 C.3   1 <1>   0.0000 
  7 C        3.5130     1.9750    -1.3360 C.ar  1 <1>  -0.1440 
  8 C        2.7610     0.7430    -3.4290 C.3   1 <1>  -0.2400 
  9 C       -2.5890     3.2750     0.3870 C.3   1 <1>  -0.2400 
 10 C       -1.3210     1.3100     1.2530 C.3   1 <1>  -0.2400 
 11 C       -0.1080     3.3950     0.5880 C.3   1 <1>  -0.2400 
 12 C        4.1160     1.6180    -0.1400 C.ar  1 <1>  -0.1500 
 13 C        3.8570     3.1840    -1.9210 C.ar  1 <1>  -0.1500 
 14 C        5.0510     2.4410     0.4690 C.ar  1 <1>  -0.1440 
 15 C        4.7900     4.0110    -1.3220 C.ar  1 <1>  -0.1500 
 16 C        5.3920     3.6500    -0.1280 C.ar  1 <1>  -0.1440 
 17 C        5.6810     1.9980     1.7820 C.3   1 <1>  -0.0970 
 18 C        6.4130     4.5880     0.4990 C.3   1 <1>  -0.0970 
 19 H        1.2440     2.7200    -1.7880 H     1 <1>   0.3700 
 20 H       -2.0590     1.3370    -1.4130 H     1 <1>   0.0800 
 21 H       -1.2040     2.7600    -1.8910 H     1 <1>   0.0800 
 22 H        2.4520     0.1170    -1.4150 H     1 <1>   0.0800 
 23 H        2.7070     1.6320    -4.0290 H     1 <1>   0.0800 
 24 H        2.0450     0.0280    -3.7920 H     1 <1>   0.0800 
 25 H        3.7440     0.3190    -3.5240 H     1 <1>   0.0800 
 26 H       -2.5960     4.1080    -0.2930 H     1 <1>   0.0800 
 27 H       -2.6940     3.6560     1.3880 H     1 <1>   0.0800 
 28 H       -3.4420     2.6550     0.1740 H     1 <1>   0.0800 
 29 H       -2.1330     0.6400     1.0310 H     1 <1>   0.0800 
 30 H       -1.4490     1.6800     2.2550 H     1 <1>   0.0800 
 31 H       -0.4040     0.7480     1.2200 H     1 <1>   0.0800 
 32 H       -0.0340     4.1980    -0.1220 H     1 <1>   0.0800 
 33 H        0.8210     2.8520     0.5920 H     1 <1>   0.0800 
 34 H       -0.2370     3.8220     1.5670 H     1 <1>   0.0800 
 35 H        3.8490     0.6850     0.3260 H     1 <1>   0.1500 
 36 H        3.4050     3.4930    -2.8460 H     1 <1>   0.1500 
 37 H        5.0440     4.9430    -1.7960 H     1 <1>   0.1500 
 38 H        5.2960     1.0440     2.0930 H     1 <1>   0.0800 
 39 H        5.4670     2.7160     2.5530 H     1 <1>   0.0800 
 40 H        6.7460     1.9110     1.6670 H     1 <1>   0.0800 
 41 H        7.3620     4.0910     0.5910 H     1 <1>   0.0800 
 42 H        6.0810     4.8940     1.4740 H     1 <1>   0.0800 
 43 H        6.5510     5.4670    -0.1030 H     1 <1>   0.0800 
@<TRIPOS>BOND
  1   1   2  2   
  2   2   3  am  
  3   2   4  1   
  4   3   5  1   
  5   3  19  1   
  6   4   6  1   
  7   4  20  1   
  8   4  21  1   
  9   5   7  1   
 10   5   8  1   
 11   5  22  1   
 12   6   9  1   
 13   6  10  1   
 14   6  11  1   
 15   7  12  ar  
 16   7  13  ar  
 17   8  23  1   
 18   8  24  1   
 19   8  25  1   
 20   9  26  1   
 21   9  27  1   
 22   9  28  1   
 23  10  29  1   
 24  10  30  1   
 25  10  31  1   
 26  11  32  1   
 27  11  33  1   
 28  11  34  1   
 29  12  14  ar  
 30  12  35  1   
 31  13  15  ar  
 32  13  36  1   
 33  14  16  ar  
 34  14  17  1   
 35  15  16  ar  
 36  15  37  1   
 37  16  18  1   
 38  17  38  1   
 39  17  39  1   
 40  17  40  1   
 41  18  41  1   
 42  18  42  1   
 43  18  43  1   
@<TRIPOS>SUBSTRUCTURE
  1 ****   7 GROUP 4 **** **** 0

# MOE 2024.06 (io_trps.svl 2023.06)
