@<TRIPOS>MOLECULE
NONAME
40 43 1 0 0 
SMALL
USER_CHARGES


@<TRIPOS>ATOM
  1 S        0.0680    -0.2410     0.4820 S.3   1 <1>  -0.0800 
  2 C       -1.5370     0.4660     0.2840 C.2   1 <1>  -0.0450 
  3 C        0.8410     1.3280     0.5290 C.2   1 <1>  -0.1400 
  4 C       -2.6780    -0.4080     0.1770 C.2   1 <1>   0.7150 
  5 C       -1.4080     1.8200     0.2670 C.2   1 <1>  -0.1500 
  6 C       -0.0730     2.3060     0.4040 C.2   1 <1>  -0.1810 
  7 C        2.3460     1.3590     0.7000 C.3   1 <1>   0.0200 
  8 O       -2.5580    -1.6180     0.2010 O.2   1 <1>  -0.5700 
  9 N       -3.9200     0.1660     0.0550 N.am  1 <1>  -0.5470 
 10 C        0.2270     3.7950     0.4180 C.3   1 <1>   0.0210 
 11 C        3.0280     2.2540    -0.3420 C.3   1 <1>  -0.1600 
 12 C       -5.2150    -0.3540    -0.0910 C.ar  1 <1>   0.1170 
 13 C        1.3240     4.1870    -0.5820 C.3   1 <1>  -0.1600 
 14 C        2.7430     3.7560    -0.1730 C.3   1 <1>  -0.1600 
 15 C       -6.2790     0.5250     0.0490 C.ar  1 <1>  -0.1500 
 16 C       -5.4950    -1.6870    -0.3770 C.ar  1 <1>  -0.1500 
 17 C       -7.6090     0.1290    -0.0830 C.ar  1 <1>   0.0410 
 18 C       -6.8020    -2.1150    -0.5120 C.ar  1 <1>  -0.1500 
 19 C       -8.6940     1.0810     0.0670 C.2   1 <1>   0.6960 
 20 C       -7.8440    -1.2180    -0.3660 C.ar  1 <1>  -0.1500 
 21 N       -8.5270     2.3470     0.3080 N.2   1 <1>  -0.6190 
 22 N       -9.9590     0.7880    -0.0250 N.2   1 <1>  -0.6190 
 23 N       -9.7030     2.8570     0.3700 N.2   1 <1>  -0.2500 
 24 N      -10.5740     1.9090     0.1670 N.2   1 <1>  -0.2500 
 25 H       -2.2230     2.5120     0.1580 H     1 <1>   0.1500 
 26 H        2.7280     0.3590     0.5940 H     1 <1>   0.0800 
 27 H        2.5840     1.6950     1.6940 H     1 <1>   0.0800 
 28 H       -3.8960     1.1790     0.1210 H     1 <1>   0.3700 
 29 H        0.5120     4.0910     1.4120 H     1 <1>   0.0800 
 30 H       -0.6680     4.3340     0.1640 H     1 <1>   0.0800 
 31 H        2.7370     1.9370    -1.3280 H     1 <1>   0.0800 
 32 H        4.0900     2.1040    -0.2580 H     1 <1>   0.0800 
 33 H        1.3190     5.2590    -0.6680 H     1 <1>   0.0800 
 34 H        1.0850     3.7870    -1.5520 H     1 <1>   0.0800 
 35 H        3.4370     4.2880    -0.8020 H     1 <1>   0.0800 
 36 H        2.9430     4.0570     0.8410 H     1 <1>   0.0800 
 37 H       -6.0850     1.5590     0.2700 H     1 <1>   0.1500 
 38 H       -4.7010    -2.3990    -0.5000 H     1 <1>   0.1500 
 39 H       -7.0100    -3.1480    -0.7310 H     1 <1>   0.1500 
 40 H       -8.8630    -1.5530    -0.4720 H     1 <1>   0.1500 
@<TRIPOS>BOND
  1   1   2  1   
  2   1   3  1   
  3   2   4  1   
  4   2   5  2   
  5   3   6  2   
  6   3   7  1   
  7   4   8  2   
  8   4   9  am  
  9   5   6  1   
 10   5  25  1   
 11   6  10  1   
 12   7  11  1   
 13   7  26  1   
 14   7  27  1   
 15   9  12  1   
 16   9  28  1   
 17  10  13  1   
 18  10  29  1   
 19  10  30  1   
 20  11  14  1   
 21  11  31  1   
 22  11  32  1   
 23  12  15  ar  
 24  12  16  ar  
 25  13  14  1   
 26  13  33  1   
 27  13  34  1   
 28  14  35  1   
 29  14  36  1   
 30  15  17  ar  
 31  15  37  1   
 32  16  18  ar  
 33  16  38  1   
 34  17  19  1   
 35  17  20  ar  
 36  18  20  ar  
 37  18  39  1   
 38  19  21  1   
 39  19  22  2   
 40  20  40  1   
 41  21  23  1   
 42  22  24  1   
 43  23  24  2   
@<TRIPOS>SUBSTRUCTURE
  1 ****   9 GROUP 4 **** **** 0

# MOE 2024.06 (io_trps.svl 2023.06)
