@<TRIPOS>MOLECULE
NONAME
32 33 1 0 0 
SMALL
USER_CHARGES


@<TRIPOS>ATOM
  1 O       -0.4660    -0.3530     0.5250 O.2   1 <1>  -0.5700 
  2 C       -0.9650    -1.4620     0.5800 C.2   1 <1>   0.7160 
  3 N       -2.3280    -1.5750     0.7740 N.am  1 <1>  -0.6600 
  4 C       -0.1190    -2.6260     0.4420 C.2   1 <1>  -0.0860 
  5 C       -3.1560    -0.4110     1.1960 C.3   1 <1>   0.1400 
  6 C       -3.1130    -2.7830     0.3960 C.3   1 <1>   0.1400 
  7 C        0.8760    -2.8750    -0.4540 C.2   1 <1>  -0.0400 
  8 C       -0.1420    -3.7810     1.2550 C.2   1 <1>  -0.1500 
  9 C       -4.1430    -0.0440     0.0840 C.3   1 <1>  -0.1600 
 10 C       -4.1080    -2.4300    -0.7140 C.3   1 <1>  -0.1600 
 11 O        1.4160    -4.0520    -0.2510 O.3   1 <1>  -0.2800 
 12 C        1.4140    -2.0270    -1.5890 C.3   1 <1>  -0.0600 
 13 C        0.8120    -4.6040     0.7780 C.2   1 <1>  -0.0100 
 14 C       -5.0070    -1.2470    -0.3220 C.3   1 <1>  -0.0800 
 15 C       -5.9430    -0.8740    -1.4770 C.3   1 <1>  -0.2400 
 16 H       -2.5350     0.4390     1.4240 H     1 <1>   0.0800 
 17 H       -3.6960    -0.6730     2.0900 H     1 <1>   0.0800 
 18 H       -3.6420    -3.1420     1.2620 H     1 <1>   0.0800 
 19 H       -2.4690    -3.5700     0.0450 H     1 <1>   0.0800 
 20 H       -0.8040    -3.9310     2.0890 H     1 <1>   0.1500 
 21 H       -3.5840     0.3140    -0.7640 H     1 <1>   0.0800 
 22 H       -4.7720     0.7590     0.4250 H     1 <1>   0.0800 
 23 H       -4.7150    -3.2920    -0.9280 H     1 <1>   0.0800 
 24 H       -3.5560    -2.1900    -1.6060 H     1 <1>   0.0800 
 25 H        0.8770    -1.0990    -1.6580 H     1 <1>   0.0800 
 26 H        1.3150    -2.5580    -2.5170 H     1 <1>   0.0800 
 27 H        2.4530    -1.8140    -1.4170 H     1 <1>   0.0800 
 28 H        1.1270    -5.5800     1.1030 H     1 <1>   0.1500 
 29 H       -5.6090    -1.5380     0.5230 H     1 <1>   0.0800 
 30 H       -5.3780    -0.5750    -2.3420 H     1 <1>   0.0800 
 31 H       -6.5850    -0.0610    -1.1890 H     1 <1>   0.0800 
 32 H       -6.5600    -1.7140    -1.7440 H     1 <1>   0.0800 
@<TRIPOS>BOND
  1   1   2  2   
  2   2   3  am  
  3   2   4  1   
  4   3   5  1   
  5   3   6  1   
  6   4   7  2   
  7   4   8  1   
  8   5   9  1   
  9   5  16  1   
 10   5  17  1   
 11   6  10  1   
 12   6  18  1   
 13   6  19  1   
 14   7  11  1   
 15   7  12  1   
 16   8  13  2   
 17   8  20  1   
 18   9  14  1   
 19   9  21  1   
 20   9  22  1   
 21  10  14  1   
 22  10  23  1   
 23  10  24  1   
 24  11  13  1   
 25  12  25  1   
 26  12  26  1   
 27  12  27  1   
 28  13  28  1   
 29  14  15  1   
 30  14  29  1   
 31  15  30  1   
 32  15  31  1   
 33  15  32  1   
@<TRIPOS>SUBSTRUCTURE
  1 ****   2 GROUP 4 **** **** 0

# MOE 2024.06 (io_trps.svl 2023.06)
