@<TRIPOS>MOLECULE
NONAME
36 37 1 0 0 
SMALL
USER_CHARGES


@<TRIPOS>ATOM
  1 S       -0.0530     0.1760    -0.1280 S.o2  1 <1>   1.4470 
  2 O       -0.4500     1.5620    -0.1260 O.2   1 <1>  -0.6500 
  3 O       -0.7050    -0.7720    -0.9970 O.2   1 <1>  -0.6500 
  4 N       -0.5130    -0.3500     1.3730 N.am  1 <1>  -0.9780 
  5 C        1.7500    -0.0060    -0.1430 C.ar  1 <1>  -0.0090 
  6 C        2.5600     0.8160     0.6320 C.ar  1 <1>  -0.1500 
  7 C        2.3750    -0.9740    -0.9210 C.ar  1 <1>  -0.1500 
  8 C        3.9370     0.6800     0.6290 C.ar  1 <1>  -0.1500 
  9 C        3.7510    -1.1120    -0.9280 C.ar  1 <1>  -0.1500 
 10 C        4.5560    -0.2880    -0.1500 C.ar  1 <1>   0.1170 
 11 N        5.9530    -0.3820    -0.1370 N.am  1 <1>  -0.5470 
 12 C        6.7900    -1.4250    -0.4170 C.2   1 <1>   0.6900 
 13 O        6.3540    -2.5470    -0.5930 O.2   1 <1>  -0.5700 
 14 N        8.1410    -1.1880    -0.4640 N.am  1 <1>  -0.6600 
 15 C        8.7550     0.1310    -0.7820 C.3   1 <1>   0.1400 
 16 C        9.1170    -2.3080    -0.3830 C.3   1 <1>   0.1400 
 17 C        9.7980     0.4790     0.2850 C.3   1 <1>  -0.1600 
 18 C       10.1800    -1.9870     0.6740 C.3   1 <1>  -0.1600 
 19 C       10.8530    -0.6300     0.4170 C.3   1 <1>  -0.1600 
 20 H       -0.9220    -1.2620     1.1870 H     1 <1>   0.4200 
 21 H       -1.2900     0.2630     1.6060 H     1 <1>   0.4200 
 22 H        2.1020     1.5740     1.2470 H     1 <1>   0.1500 
 23 H        1.7790    -1.6300    -1.5330 H     1 <1>   0.1500 
 24 H        4.5340     1.3310     1.2420 H     1 <1>   0.1500 
 25 H        4.2020    -1.8680    -1.5460 H     1 <1>   0.1500 
 26 H        6.4490     0.4020     0.2680 H     1 <1>   0.3700 
 27 H        8.0110     0.9050    -0.8380 H     1 <1>   0.0800 
 28 H        9.2320     0.0640    -1.7450 H     1 <1>   0.0800 
 29 H        9.5800    -2.4410    -1.3460 H     1 <1>   0.0800 
 30 H        8.6200    -3.2270    -0.1210 H     1 <1>   0.0800 
 31 H        9.3020     0.6230     1.2280 H     1 <1>   0.0800 
 32 H       10.2810     1.4040     0.0220 H     1 <1>   0.0800 
 33 H       10.9230    -2.7640     0.6770 H     1 <1>   0.0800 
 34 H        9.7100    -1.9810     1.6430 H     1 <1>   0.0800 
 35 H       11.5260    -0.3990     1.2240 H     1 <1>   0.0800 
 36 H       11.4280    -0.6850    -0.4910 H     1 <1>   0.0800 
@<TRIPOS>BOND
  1   1   2  2   
  2   1   3  2   
  3   1   4  am  
  4   1   5  1   
  5   4  20  1   
  6   4  21  1   
  7   5   6  ar  
  8   5   7  ar  
  9   6   8  ar  
 10   6  22  1   
 11   7   9  ar  
 12   7  23  1   
 13   8  10  ar  
 14   8  24  1   
 15   9  10  ar  
 16   9  25  1   
 17  10  11  1   
 18  11  12  am  
 19  11  26  1   
 20  12  13  2   
 21  12  14  am  
 22  14  15  1   
 23  14  16  1   
 24  15  17  1   
 25  15  27  1   
 26  15  28  1   
 27  16  18  1   
 28  16  29  1   
 29  16  30  1   
 30  17  19  1   
 31  17  31  1   
 32  17  32  1   
 33  18  19  1   
 34  18  33  1   
 35  18  34  1   
 36  19  35  1   
 37  19  36  1   
@<TRIPOS>SUBSTRUCTURE
  1 ****  10 GROUP 4 **** **** 0

# MOE 2024.06 (io_trps.svl 2023.06)
