@<TRIPOS>MOLECULE
NONAME
41 42 1 0 0 
SMALL
USER_CHARGES


@<TRIPOS>ATOM
  1 O        0.5700    -0.7130    -0.0220 O.3   1 <1>  -0.3630 
  2 C       -0.7110    -1.1410    -0.0530 C.ar  1 <1>   0.0830 
  3 C        0.9720    -0.0760     1.1690 C.3   1 <1>   0.1200 
  4 C       -1.0210    -2.4240     0.3910 C.ar  1 <1>  -0.1440 
  5 C       -1.7050    -0.2940    -0.5370 C.ar  1 <1>  -0.1440 
  6 C        2.4210     0.4250     1.0410 C.3   1 <1>   0.3430 
  7 C       -2.3440    -2.8360     0.3810 C.ar  1 <1>  -0.1500 
  8 C        0.0470    -3.3900     0.8800 C.3   1 <1>  -0.0970 
  9 C       -3.0190    -0.7310    -0.5360 C.ar  1 <1>  -0.1500 
 10 C       -1.3880     1.0960    -1.0730 C.3   1 <1>  -0.0960 
 11 N        3.3850    -0.6370     0.5940 N.4   1 <1>  -0.9590 
 12 C       -3.3450    -1.9950    -0.0750 C.ar  1 <1>  -0.1430 
 13 C        4.8020    -0.2930     0.8520 C.3   1 <1>   0.3430 
 14 C        3.3010    -0.9410    -0.8600 C.3   1 <1>   0.3430 
 15 C       -4.7900    -2.4600    -0.0790 C.3   1 <1>  -0.0970 
 16 C        5.5870    -1.2290    -0.0560 C.3   1 <1>  -0.1600 
 17 C        4.6310    -1.6040    -1.1920 C.3   1 <1>  -0.1600 
 18 H        0.8810    -0.7780     1.9790 H     1 <1>   0.0800 
 19 H        0.3070     0.7500     1.3520 H     1 <1>   0.0800 
 20 H        2.7260     0.8010     2.0040 H     1 <1>   0.0800 
 21 H        2.4440     1.2510     0.3500 H     1 <1>   0.0800 
 22 H       -2.6020    -3.8210     0.7270 H     1 <1>   0.1500 
 23 H        0.3060    -3.1670     1.8990 H     1 <1>   0.0800 
 24 H        0.9240    -3.3210     0.2640 H     1 <1>   0.0800 
 25 H       -0.3110    -4.4030     0.8340 H     1 <1>   0.0800 
 26 H       -3.7990    -0.0860    -0.9000 H     1 <1>   0.1500 
 27 H       -0.4840     1.0750    -1.6540 H     1 <1>   0.0800 
 28 H       -1.2710     1.7860    -0.2580 H     1 <1>   0.0800 
 29 H       -2.1820     1.4460    -1.7070 H     1 <1>   0.0800 
 30 H        3.1720    -1.5130     1.0880 H     1 <1>   0.4500 
 31 H        5.0670    -0.4270     1.8900 H     1 <1>   0.0800 
 32 H        4.9890     0.7290     0.5610 H     1 <1>   0.0800 
 33 H        3.2030    -0.0250    -1.4200 H     1 <1>   0.0800 
 34 H        2.4660    -1.5850    -1.0870 H     1 <1>   0.0800 
 35 H       -4.9630    -3.1590     0.7190 H     1 <1>   0.0800 
 36 H       -5.0140    -2.9390    -1.0150 H     1 <1>   0.0800 
 37 H       -5.4550    -1.6250     0.0520 H     1 <1>   0.0800 
 38 H        5.8780    -2.1070     0.4940 H     1 <1>   0.0800 
 39 H        6.4760    -0.7450    -0.4220 H     1 <1>   0.0800 
 40 H        4.9890    -1.2580    -2.1460 H     1 <1>   0.0800 
 41 H        4.5050    -2.6720    -1.2430 H     1 <1>   0.0800 
@<TRIPOS>BOND
  1   1   2  1   
  2   1   3  1   
  3   2   4  ar  
  4   2   5  ar  
  5   3   6  1   
  6   3  18  1   
  7   3  19  1   
  8   4   7  ar  
  9   4   8  1   
 10   5   9  ar  
 11   5  10  1   
 12   6  11  1   
 13   6  20  1   
 14   6  21  1   
 15   7  12  ar  
 16   7  22  1   
 17   8  23  1   
 18   8  24  1   
 19   8  25  1   
 20   9  12  ar  
 21   9  26  1   
 22  10  27  1   
 23  10  28  1   
 24  10  29  1   
 25  11  13  1   
 26  11  14  1   
 27  11  30  1   
 28  12  15  1   
 29  13  16  1   
 30  13  31  1   
 31  13  32  1   
 32  14  17  1   
 33  14  33  1   
 34  14  34  1   
 35  15  35  1   
 36  15  36  1   
 37  15  37  1   
 38  16  17  1   
 39  16  38  1   
 40  16  39  1   
 41  17  40  1   
 42  17  41  1   
@<TRIPOS>SUBSTRUCTURE
  1 ****   1 GROUP 4 **** **** 0

# MOE 2024.06 (io_trps.svl 2023.06)
