@<TRIPOS>MOLECULE
NONAME
48 50 1 0 0 
SMALL
USER_CHARGES


@<TRIPOS>ATOM
  1 O       -0.8980     0.2510    -1.1860 O.2   1 <1>  -0.5700 
  2 C       -0.9870    -0.9070    -0.8480 C.2   1 <1>   0.5690 
  3 N       -1.9460    -1.2820     0.0360 N.am  1 <1>  -0.5470 
  4 C       -0.0250    -1.9740    -1.4260 C.3   1 <1>   0.3500 
  5 C       -2.1380    -2.6040     0.4650 C.ar  1 <1>   0.1170 
  6 N       -0.1720    -3.3450    -0.8080 N.pl3 1 <1>  -0.8690 
  7 C        1.4280    -1.5340    -1.2600 C.3   1 <1>  -0.0990 
  8 C       -1.2640    -3.6120     0.0320 C.ar  1 <1>   0.1000 
  9 C       -3.1940    -2.9230     1.3020 C.ar  1 <1>  -0.1500 
 10 C        2.3490    -2.4880    -1.9740 C.2   1 <1>   0.5690 
 11 C       -1.4870    -4.9120     0.4540 C.ar  1 <1>  -0.1500 
 12 C       -3.4080    -4.2280     1.7190 C.ar  1 <1>  -0.1440 
 13 O        2.3170    -2.5390    -3.1790 O.2   1 <1>  -0.5700 
 14 N        3.1840    -3.2650    -1.2500 N.am  1 <1>  -0.7300 
 15 C       -2.5470    -5.2320     1.2900 C.ar  1 <1>  -0.1430 
 16 C       -4.5840    -4.5280     2.6390 C.3   1 <1>  -0.0970 
 17 C        4.1460    -4.2160    -1.8240 C.3   1 <1>   0.2840 
 18 C       -2.7380    -6.6800     1.7190 C.3   1 <1>  -0.0970 
 19 C        5.0310    -4.7190    -0.7000 C.ar  1 <1>  -0.1430 
 20 C        4.6910    -5.8650     0.0020 C.ar  1 <1>  -0.1500 
 21 C        6.1840    -4.0310    -0.3560 C.ar  1 <1>  -0.1500 
 22 C        5.4970    -6.3190     1.0320 C.ar  1 <1>  -0.1500 
 23 C        6.9890    -4.4850     0.6740 C.ar  1 <1>  -0.1500 
 24 C        6.6510    -5.6330     1.3720 C.ar  1 <1>  -0.1430 
 25 C        7.5340    -6.1310     2.5020 C.3   1 <1>  -0.0970 
 26 H       -2.5580    -0.5440     0.3780 H     1 <1>   0.3700 
 27 H       -0.2420    -2.0530    -2.4770 H     1 <1>   0.0800 
 28 H        0.0550    -4.0960    -1.4700 H     1 <1>   0.4000 
 29 H        1.6720    -1.4740    -0.2170 H     1 <1>   0.0800 
 30 H        1.5600    -0.5600    -1.6930 H     1 <1>   0.0800 
 31 H       -3.8550    -2.1420     1.6280 H     1 <1>   0.1500 
 32 H       -0.8130    -5.6800     0.1240 H     1 <1>   0.1500 
 33 H        3.1510    -3.2650    -0.2280 H     1 <1>   0.3700 
 34 H       -5.1410    -3.6360     2.8600 H     1 <1>   0.0800 
 35 H       -4.2310    -4.9430     3.5650 H     1 <1>   0.0800 
 36 H       -5.2480    -5.2320     2.1700 H     1 <1>   0.0800 
 37 H        4.7340    -3.7240    -2.5800 H     1 <1>   0.0800 
 38 H        3.6140    -5.0320    -2.2820 H     1 <1>   0.0800 
 39 H       -1.9760    -7.3110     1.2990 H     1 <1>   0.0800 
 40 H       -3.6950    -7.0390     1.3870 H     1 <1>   0.0800 
 41 H       -2.6850    -6.7570     2.7900 H     1 <1>   0.0800 
 42 H        3.7970    -6.4080    -0.2480 H     1 <1>   0.1500 
 43 H        6.4570    -3.1360    -0.8880 H     1 <1>   0.1500 
 44 H        5.2210    -7.2100     1.5690 H     1 <1>   0.1500 
 45 H        7.8810    -3.9400     0.9290 H     1 <1>   0.1500 
 46 H        7.4930    -7.2040     2.5660 H     1 <1>   0.0800 
 47 H        7.1980    -5.7140     3.4350 H     1 <1>   0.0800 
 48 H        8.5560    -5.8410     2.3390 H     1 <1>   0.0800 
@<TRIPOS>BOND
  1   1   2  2   
  2   2   3  am  
  3   2   4  1   
  4   3   5  1   
  5   3  26  1   
  6   4   6  1   
  7   4   7  1   
  8   4  27  1   
  9   5   8  ar  
 10   5   9  ar  
 11   6   8  1   
 12   6  28  1   
 13   7  10  1   
 14   7  29  1   
 15   7  30  1   
 16   8  11  ar  
 17   9  12  ar  
 18   9  31  1   
 19  10  13  2   
 20  10  14  am  
 21  11  15  ar  
 22  11  32  1   
 23  12  15  ar  
 24  12  16  1   
 25  14  17  1   
 26  14  33  1   
 27  15  18  1   
 28  16  34  1   
 29  16  35  1   
 30  16  36  1   
 31  17  19  1   
 32  17  37  1   
 33  17  38  1   
 34  18  39  1   
 35  18  40  1   
 36  18  41  1   
 37  19  20  ar  
 38  19  21  ar  
 39  20  22  ar  
 40  20  42  1   
 41  21  23  ar  
 42  21  43  1   
 43  22  24  ar  
 44  22  44  1   
 45  23  24  ar  
 46  23  45  1   
 47  24  25  1   
 48  25  46  1   
 49  25  47  1   
 50  25  48  1   
@<TRIPOS>SUBSTRUCTURE
  1 ****   6 GROUP 4 **** **** 0

# MOE 2024.06 (io_trps.svl 2023.06)
