@<TRIPOS>MOLECULE
NONAME
48 50 1 0 0 
SMALL
USER_CHARGES


@<TRIPOS>ATOM
  1 O       -0.0760    -0.4960     1.2720 O.2   1 <1>  -0.5700 
  2 C       -0.2320    -1.5820     0.7800 C.2   1 <1>   0.4230 
  3 C        0.8520    -2.3780     0.2750 C.ar  1 <1>   0.0860 
  4 C       -1.6470    -2.1210     0.6850 C.3   1 <1>  -0.0990 
  5 C        0.6640    -3.6420    -0.2650 C.ar  1 <1>   0.1660 
  6 C        2.1630    -1.9350     0.2940 C.ar  1 <1>   0.1600 
  7 C       -1.6650    -3.6560     0.7200 C.3   1 <1>   0.0640 
  8 N        1.6530    -4.3670    -0.7300 N.ar  1 <1>  -0.6200 
  9 C       -0.7290    -4.2460    -0.3460 C.3   1 <1>  -0.0160 
 10 N        3.1690    -2.6440    -0.1630 N.ar  1 <1>  -0.6200 
 11 C       -3.0820    -4.1990     0.5670 C.ar  1 <1>  -0.1430 
 12 C        2.8670    -3.8380    -0.6600 C.ar  1 <1>   0.7370 
 13 C       -3.8390    -3.9470    -0.5660 C.ar  1 <1>  -0.1500 
 14 C       -3.6410    -4.9660     1.5760 C.ar  1 <1>  -0.1500 
 15 N        3.8470    -4.6350    -1.1550 N.am  1 <1>  -0.5470 
 16 C       -5.1210    -4.4520    -0.6830 C.ar  1 <1>  -0.1500 
 17 C       -4.9240    -5.4700     1.4550 C.ar  1 <1>  -0.1500 
 18 C        5.1920    -4.5350    -1.2940 C.2   1 <1>   0.5690 
 19 C       -5.6930    -5.2240     0.3220 C.ar  1 <1>  -0.1430 
 20 O        5.7930    -5.4500    -1.7890 O.2   1 <1>  -0.5700 
 21 C        5.9770    -3.3200    -0.8540 C.3   1 <1>  -0.1790 
 22 C       -7.1280    -5.7650     0.1420 C.3   1 <1>   0.1440 
 23 C       -7.1870    -6.6620    -1.1030 C.3   1 <1>  -0.2400 
 24 C       -7.6160    -6.6000     1.3380 C.3   1 <1>  -0.2400 
 25 C       -8.1020    -4.5890    -0.0290 C.3   1 <1>  -0.2400 
 26 H       -2.0870    -1.7560    -0.2250 H     1 <1>   0.0800 
 27 H       -2.2270    -1.7390     1.5070 H     1 <1>   0.0800 
 28 H        2.3750    -0.9600     0.7040 H     1 <1>   0.1500 
 29 H       -1.2870    -3.9590     1.6820 H     1 <1>   0.0800 
 30 H       -0.6690    -5.3120    -0.2060 H     1 <1>   0.0800 
 31 H       -1.1210    -4.0680    -1.3310 H     1 <1>   0.0800 
 32 H       -3.4440    -3.3550    -1.3720 H     1 <1>   0.1500 
 33 H       -3.0830    -5.1820     2.4700 H     1 <1>   0.1500 
 34 H        3.4810    -5.5140    -1.5010 H     1 <1>   0.3700 
 35 H       -5.6760    -4.2340    -1.5770 H     1 <1>   0.1500 
 36 H       -5.3020    -6.0580     2.2700 H     1 <1>   0.1500 
 37 H        5.6360    -2.4520    -1.3850 H     1 <1>   0.0800 
 38 H        7.0210    -3.4660    -1.0620 H     1 <1>   0.0800 
 39 H        5.8530    -3.1680     0.2020 H     1 <1>   0.0800 
 40 H       -6.4810    -7.4680    -1.0080 H     1 <1>   0.0800 
 41 H       -6.9470    -6.1090    -1.9920 H     1 <1>   0.0800 
 42 H       -8.1700    -7.0790    -1.2250 H     1 <1>   0.0800 
 43 H       -7.6210    -6.0070     2.2360 H     1 <1>   0.0800 
 44 H       -6.9810    -7.4550     1.4860 H     1 <1>   0.0800 
 45 H       -8.6170    -6.9550     1.1690 H     1 <1>   0.0800 
 46 H       -8.0410    -3.9360     0.8230 H     1 <1>   0.0800 
 47 H       -9.1130    -4.9430    -0.1180 H     1 <1>   0.0800 
 48 H       -7.8700    -4.0170    -0.9080 H     1 <1>   0.0800 
@<TRIPOS>BOND
  1   1   2  2   
  2   2   3  1   
  3   2   4  1   
  4   3   5  ar  
  5   3   6  ar  
  6   4   7  1   
  7   4  26  1   
  8   4  27  1   
  9   5   8  ar  
 10   5   9  1   
 11   6  10  ar  
 12   6  28  1   
 13   7   9  1   
 14   7  11  1   
 15   7  29  1   
 16   8  12  ar  
 17   9  30  1   
 18   9  31  1   
 19  10  12  ar  
 20  11  13  ar  
 21  11  14  ar  
 22  12  15  1   
 23  13  16  ar  
 24  13  32  1   
 25  14  17  ar  
 26  14  33  1   
 27  15  18  am  
 28  15  34  1   
 29  16  19  ar  
 30  16  35  1   
 31  17  19  ar  
 32  17  36  1   
 33  18  20  2   
 34  18  21  1   
 35  19  22  1   
 36  21  37  1   
 37  21  38  1   
 38  21  39  1   
 39  22  23  1   
 40  22  24  1   
 41  22  25  1   
 42  23  40  1   
 43  23  41  1   
 44  23  42  1   
 45  24  43  1   
 46  24  44  1   
 47  24  45  1   
 48  25  46  1   
 49  25  47  1   
 50  25  48  1   
@<TRIPOS>SUBSTRUCTURE
  1 ****   9 GROUP 4 **** **** 0

# MOE 2024.06 (io_trps.svl 2023.06)
