@<TRIPOS>MOLECULE
NONAME
43 44 1 0 0 
SMALL
USER_CHARGES


@<TRIPOS>ATOM
  1 O       -0.8870     1.4630    -1.5570 O.3   1 <1>  -0.6800 
  2 C       -1.1640     0.8190    -0.3540 C.3   1 <1>   0.2000 
  3 C       -1.1250     1.8560     0.7980 C.3   1 <1>   0.3430 
  4 C       -0.1450    -0.3110    -0.2040 C.3   1 <1>  -0.2400 
  5 N       -0.1410     2.9490     0.5070 N.4   1 <1>  -0.9590 
  6 C        1.2340     2.6200     0.9710 C.3   1 <1>   0.3430 
  7 C       -0.6000     4.2840     1.0160 C.3   1 <1>   0.3430 
  8 C        2.2430     2.8040    -0.1770 C.3   1 <1>  -0.0800 
  9 C       -1.4030     5.1020    -0.0180 C.3   1 <1>   0.2000 
 10 C        3.7620     2.3860     0.3270 C.3   1 <1>   0.0580 
 11 C        2.3600     4.3980    -0.7880 C.3   1 <1>  -0.1600 
 12 O       -1.6930     6.3110     0.5730 O.3   1 <1>  -0.6800 
 13 C       -2.7380     4.4890    -0.4430 C.3   1 <1>  -0.2400 
 14 C        5.2300     3.0290     0.5120 C.2   1 <1>  -0.2880 
 15 C        3.7340     3.6000    -0.2230 C.3   1 <1>  -0.1600 
 16 C        3.9450     4.8450    -0.6450 C.3   1 <1>   0.0580 
 17 C        5.3260     4.3170     0.0040 C.2   1 <1>  -0.2880 
 18 H       -0.9790     0.8330    -2.3060 H     1 <1>   0.4000 
 19 H       -2.1550     0.3980    -0.4160 H     1 <1>   0.0800 
 20 H       -0.9010     1.3720     1.7330 H     1 <1>   0.0800 
 21 H       -2.1110     2.2810     0.8840 H     1 <1>   0.0800 
 22 H        0.8630     0.0560    -0.2400 H     1 <1>   0.0800 
 23 H       -0.2790    -1.0350    -0.9880 H     1 <1>   0.0800 
 24 H       -0.2920    -0.8170     0.7340 H     1 <1>   0.0800 
 25 H       -0.1190     2.9630    -0.5310 H     1 <1>   0.4500 
 26 H        1.2760     1.5960     1.3050 H     1 <1>   0.0800 
 27 H        1.5100     3.2500     1.8010 H     1 <1>   0.0800 
 28 H        0.2590     4.8720     1.2900 H     1 <1>   0.0800 
 29 H       -1.2020     4.1500     1.8990 H     1 <1>   0.0800 
 30 H        1.9470     2.1370    -0.9770 H     1 <1>   0.0800 
 31 H       -0.7900     5.3070    -0.8800 H     1 <1>   0.0800 
 32 H        3.9770     1.5130    -0.2750 H     1 <1>   0.0800 
 33 H        1.7470     5.0930    -0.2370 H     1 <1>   0.0800 
 34 H        2.0440     4.4360    -1.8210 H     1 <1>   0.0800 
 35 H       -2.2180     6.8790    -0.0290 H     1 <1>   0.4000 
 36 H       -3.3520     4.2810     0.4160 H     1 <1>   0.0800 
 37 H       -2.5770     3.5760    -0.9850 H     1 <1>   0.0800 
 38 H       -3.2660     5.1610    -1.0970 H     1 <1>   0.0800 
 39 H        5.9960     2.4410     0.9920 H     1 <1>   0.1500 
 40 H        4.0490     3.1680    -1.2630 H     1 <1>   0.0800 
 41 H        3.4970     4.0540     0.8830 H     1 <1>   0.0800 
 42 H        4.2320     5.0400    -1.6700 H     1 <1>   0.0800 
 43 H        6.1820     4.9730    -0.0070 H     1 <1>   0.1500 
@<TRIPOS>BOND
  1   1   2  1   
  2   1  18  1   
  3   2   3  1   
  4   2   4  1   
  5   2  19  1   
  6   3   5  1   
  7   3  20  1   
  8   3  21  1   
  9   4  22  1   
 10   4  23  1   
 11   4  24  1   
 12   5   6  1   
 13   5   7  1   
 14   5  25  1   
 15   6   8  1   
 16   6  26  1   
 17   6  27  1   
 18   7   9  1   
 19   7  28  1   
 20   7  29  1   
 21   8  10  1   
 22   8  11  1   
 23   8  30  1   
 24   9  12  1   
 25   9  13  1   
 26   9  31  1   
 27  10  14  1   
 28  10  15  1   
 29  10  32  1   
 30  11  16  1   
 31  11  33  1   
 32  11  34  1   
 33  12  35  1   
 34  13  36  1   
 35  13  37  1   
 36  13  38  1   
 37  14  17  2   
 38  14  39  1   
 39  15  16  1   
 40  15  40  1   
 41  15  41  1   
 42  16  17  1   
 43  16  42  1   
 44  17  43  1   
@<TRIPOS>SUBSTRUCTURE
  1 ****   6 GROUP 4 **** **** 0

# MOE 2024.06 (io_trps.svl 2023.06)
