@<TRIPOS>MOLECULE
NONAME
52 55 1 0 0 
SMALL
USER_CHARGES


@<TRIPOS>ATOM
  1 O       -1.2870    -0.8710    -0.3130 O.2   1 <1>  -0.5700 
  2 C       -1.7410     0.1360     0.1690 C.2   1 <1>   0.5940 
  3 C       -3.0120     0.6890    -0.1970 C.2   1 <1>  -0.2370 
  4 C       -0.9790     0.8320     1.2910 C.3   1 <1>  -0.0990 
  5 N       -3.8460     0.2950    -1.2230 N.pl3 1 <1>   0.0480 
  6 C       -3.6070     1.7200     0.4620 C.2   1 <1>  -0.1810 
  7 C       -1.4220     2.2960     1.5200 C.3   1 <1>  -0.1600 
  8 C       -4.9830     1.0670    -1.1710 C.ar  1 <1>  -0.1520 
  9 C       -3.6980    -0.9190    -2.0580 C.3   1 <1>   0.0960 
 10 C       -4.8630     1.9630    -0.1130 C.ar  1 <1>   0.0000 
 11 C       -2.9520     2.4500     1.6200 C.3   1 <1>   0.0210 
 12 C       -6.1400     1.0630    -1.9610 C.ar  1 <1>  -0.1500 
 13 C       -4.0500    -2.1650    -1.2320 C.3   1 <1>   0.2000 
 14 C       -5.9070     2.8490     0.1740 C.ar  1 <1>  -0.1500 
 15 C       -7.1570     1.9390    -1.6660 C.ar  1 <1>  -0.1500 
 16 O       -4.2260    -3.2560    -2.0910 O.3   1 <1>  -0.6800 
 17 C       -5.3390    -1.9760    -0.3950 C.3   1 <1>   0.3430 
 18 C       -7.0470     2.8350    -0.5940 C.ar  1 <1>  -0.1430 
 19 N       -5.9360    -3.2920    -0.0200 N.4   1 <1>  -0.9590 
 20 C       -8.1960     3.7860    -0.3100 C.3   1 <1>  -0.0970 
 21 C       -7.4000    -3.1810     0.2920 C.3   1 <1>   0.3430 
 22 C       -5.1900    -3.9690     1.0930 C.3   1 <1>   0.3430 
 23 C       -7.9790    -4.5340     0.7490 C.3   1 <1>   0.1200 
 24 C       -5.8770    -5.2840     1.5080 C.3   1 <1>   0.1200 
 25 O       -7.2250    -5.0570     1.8060 O.3   1 <1>  -0.5600 
 26 H        0.0710     0.8080     1.0620 H     1 <1>   0.0800 
 27 H       -1.1320     0.2680     2.1920 H     1 <1>   0.0800 
 28 H       -1.0800     2.8890     0.6890 H     1 <1>   0.0800 
 29 H       -0.9590     2.6850     2.4100 H     1 <1>   0.0800 
 30 H       -2.6850    -0.9750    -2.4130 H     1 <1>   0.0800 
 31 H       -4.3540    -0.8360    -2.9040 H     1 <1>   0.0800 
 32 H       -3.3100     2.0390     2.5470 H     1 <1>   0.0800 
 33 H       -3.2130     3.4940     1.5880 H     1 <1>   0.0800 
 34 H       -6.2330     0.3950    -2.7980 H     1 <1>   0.1500 
 35 H       -3.2320    -2.4030    -0.5750 H     1 <1>   0.0800 
 36 H       -5.7940     3.5310     0.9970 H     1 <1>   0.1500 
 37 H       -8.0510     1.9520    -2.2660 H     1 <1>   0.1500 
 38 H       -3.4040    -3.4290    -2.6020 H     1 <1>   0.4000 
 39 H       -6.0440    -1.4240    -0.9950 H     1 <1>   0.0800 
 40 H       -5.1290    -1.3830     0.4800 H     1 <1>   0.0800 
 41 H       -5.8100    -3.8720    -0.8700 H     1 <1>   0.4500 
 42 H       -7.9730     4.4200     0.5290 H     1 <1>   0.0800 
 43 H       -9.0890     3.2290    -0.0910 H     1 <1>   0.0800 
 44 H       -8.3750     4.4090    -1.1690 H     1 <1>   0.0800 
 45 H       -7.9370    -2.8360    -0.5750 H     1 <1>   0.0800 
 46 H       -7.5490    -2.4640     1.0830 H     1 <1>   0.0800 
 47 H       -5.1530    -3.3200     1.9530 H     1 <1>   0.0800 
 48 H       -4.1790    -4.1760     0.7860 H     1 <1>   0.0800 
 49 H       -7.9860    -5.2460    -0.0580 H     1 <1>   0.0800 
 50 H       -8.9880    -4.4050     1.1000 H     1 <1>   0.0800 
 51 H       -5.4100    -5.6830     2.3920 H     1 <1>   0.0800 
 52 H       -5.8130    -6.0190     0.7240 H     1 <1>   0.0800 
@<TRIPOS>BOND
  1   1   2  2   
  2   2   3  1   
  3   2   4  1   
  4   3   5  1   
  5   3   6  2   
  6   4   7  1   
  7   4  26  1   
  8   4  27  1   
  9   5   8  1   
 10   5   9  1   
 11   6  10  1   
 12   6  11  1   
 13   7  11  1   
 14   7  28  1   
 15   7  29  1   
 16   8  10  ar  
 17   8  12  ar  
 18   9  13  1   
 19   9  30  1   
 20   9  31  1   
 21  10  14  ar  
 22  11  32  1   
 23  11  33  1   
 24  12  15  ar  
 25  12  34  1   
 26  13  16  1   
 27  13  17  1   
 28  13  35  1   
 29  14  18  ar  
 30  14  36  1   
 31  15  18  ar  
 32  15  37  1   
 33  16  38  1   
 34  17  19  1   
 35  17  39  1   
 36  17  40  1   
 37  18  20  1   
 38  19  21  1   
 39  19  22  1   
 40  19  41  1   
 41  20  42  1   
 42  20  43  1   
 43  20  44  1   
 44  21  23  1   
 45  21  45  1   
 46  21  46  1   
 47  22  24  1   
 48  22  47  1   
 49  22  48  1   
 50  23  25  1   
 51  23  49  1   
 52  23  50  1   
 53  24  25  1   
 54  24  51  1   
 55  24  52  1   
@<TRIPOS>SUBSTRUCTURE
  1 ****   5 GROUP 4 **** **** 0

# MOE 2024.06 (io_trps.svl 2023.06)
