@<TRIPOS>MOLECULE
NONAME
39 40 1 0 0 
SMALL
USER_CHARGES


@<TRIPOS>ATOM
  1 CL       0.5720     0.7610     0.1040 Cl    1 <1>  -0.1770 
  2 C       -0.5250     1.9210    -0.6150 C.ar  1 <1>   0.1770 
  3 C       -1.6620     2.3570     0.0680 C.ar  1 <1>   0.0820 
  4 C       -0.2210     2.3970    -1.8740 C.ar  1 <1>  -0.1500 
  5 O       -1.9650     1.8760     1.2960 O.3   1 <1>  -0.3630 
  6 C       -2.4920     3.3160    -0.5100 C.ar  1 <1>  -0.1440 
  7 C       -1.0660     3.3260    -2.4470 C.ar  1 <1>   0.1770 
  8 C       -2.5000     0.5720     1.3660 C.3   1 <1>   0.0400 
  9 C       -2.1890     3.7870    -1.7830 C.ar  1 <1>  -0.1500 
 10 C       -3.7180     3.8460     0.2330 C.3   1 <1>   0.5020 
 11 CL      -0.7070     3.9380    -4.0410 Cl    1 <1>  -0.1770 
 12 N       -4.8970     3.2270    -0.3810 N.am  1 <1>  -0.7300 
 13 C       -3.7850     5.3690     0.1750 C.2   1 <1>  -0.1240 
 14 C       -5.7520     3.8680    -1.1910 C.2   1 <1>   0.6900 
 15 C       -4.7510     5.9860    -0.5650 C.2   1 <1>  -0.0290 
 16 C       -2.7350     5.9550     0.9470 C.2   1 <1>   0.7060 
 17 O       -6.5660     3.2000    -1.7950 O.2   1 <1>  -0.5700 
 18 N       -5.6690     5.2450    -1.3180 N.am  1 <1>  -0.4690 
 19 C       -4.9110     7.5080    -0.6040 C.3   1 <1>  -0.1020 
 20 O       -2.3220     5.4670     1.9810 O.2   1 <1>  -0.5700 
 21 O       -2.1490     7.0690     0.4940 O.3   1 <1>  -0.4300 
 22 C       -6.5960     5.9040    -2.2900 C.3   1 <1>   0.0600 
 23 C       -1.0660     7.6710     1.1770 C.3   1 <1>   0.0400 
 24 H        0.6530     2.0550    -2.3960 H     1 <1>   0.1500 
 25 H       -1.7680    -0.1350     1.0190 H     1 <1>   0.0800 
 26 H       -3.3850     0.5220     0.7580 H     1 <1>   0.0800 
 27 H       -2.7450     0.3650     2.3920 H     1 <1>   0.0800 
 28 H       -2.8180     4.5120    -2.2700 H     1 <1>   0.1500 
 29 H       -3.6970     3.5440     1.2670 H     1 <1>   0.0800 
 30 H       -4.9210     2.2120    -0.4120 H     1 <1>   0.3700 
 31 H       -4.5410     7.8950    -1.5360 H     1 <1>   0.0800 
 32 H       -4.3880     7.9910     0.1970 H     1 <1>   0.0800 
 33 H       -5.9460     7.7790    -0.4940 H     1 <1>   0.0800 
 34 H       -6.9550     5.1990    -3.0200 H     1 <1>   0.0800 
 35 H       -6.0880     6.6880    -2.8210 H     1 <1>   0.0800 
 36 H       -7.4400     6.3110    -1.7620 H     1 <1>   0.0800 
 37 H       -0.7600     8.5430     0.6290 H     1 <1>   0.0800 
 38 H       -0.2550     6.9650     1.2340 H     1 <1>   0.0800 
 39 H       -1.3880     7.9470     2.1660 H     1 <1>   0.0800 
@<TRIPOS>BOND
  1   1   2  1   
  2   2   3  ar  
  3   2   4  ar  
  4   3   5  1   
  5   3   6  ar  
  6   4   7  ar  
  7   4  24  1   
  8   5   8  1   
  9   6   9  ar  
 10   6  10  1   
 11   7   9  ar  
 12   7  11  1   
 13   8  25  1   
 14   8  26  1   
 15   8  27  1   
 16   9  28  1   
 17  10  12  1   
 18  10  13  1   
 19  10  29  1   
 20  12  14  am  
 21  12  30  1   
 22  13  15  2   
 23  13  16  1   
 24  14  17  2   
 25  14  18  am  
 26  15  18  1   
 27  15  19  1   
 28  16  20  2   
 29  16  21  1   
 30  18  22  1   
 31  19  31  1   
 32  19  32  1   
 33  19  33  1   
 34  21  23  1   
 35  22  34  1   
 36  22  35  1   
 37  22  36  1   
 38  23  37  1   
 39  23  38  1   
 40  23  39  1   
@<TRIPOS>SUBSTRUCTURE
  1 ****   6 GROUP 4 **** **** 0

# MOE 2024.06 (io_trps.svl 2023.06)
