@<TRIPOS>MOLECULE
NONAME
27 26 1 0 0 
SMALL
USER_CHARGES


@<TRIPOS>ATOM
  1 F       -1.2380    -0.3380    -1.1380 F     1 <1>  -0.3400 
  2 C       -1.6830    -0.0160     0.0700 C.3   1 <1>   1.0200 
  3 F       -1.4120    -1.0530     0.8520 F     1 <1>  -0.3400 
  4 F       -0.8530     0.9370     0.4860 F     1 <1>  -0.3400 
  5 C       -3.1660     0.4260     0.0570 C.3   1 <1>   0.3400 
  6 F       -3.5630     0.6030     1.3300 F     1 <1>  -0.3400 
  7 C       -3.9540    -0.7550    -0.5620 C.3   1 <1>   1.0200 
  8 C       -3.3370     1.8060    -0.6800 C.3   1 <1>   0.2000 
  9 F       -5.2590    -0.6750    -0.3500 F     1 <1>  -0.3400 
 10 F       -3.8110    -0.8150    -1.8790 F     1 <1>  -0.3400 
 11 F       -3.6250    -1.9590    -0.1140 F     1 <1>  -0.3400 
 12 O       -2.5950     2.8230    -0.0350 O.3   1 <1>  -0.6800 
 13 C       -4.7690     2.3710    -0.9860 C.3   1 <1>   0.6800 
 14 F       -4.5910     3.4360    -1.7660 F     1 <1>  -0.3400 
 15 F       -5.3650     1.5200    -1.8130 F     1 <1>  -0.3400 
 16 C       -5.7280     2.7430     0.1980 C.3   1 <1>   0.6800 
 17 F       -6.0790     1.6350     0.8580 F     1 <1>  -0.3400 
 18 F       -5.0760     3.4410     1.1300 F     1 <1>  -0.3400 
 19 C       -7.0240     3.4910    -0.1930 C.3   1 <1>   0.6800 
 20 F       -6.7590     4.6860    -0.7330 F     1 <1>  -0.3400 
 21 F       -7.6590     2.8370    -1.1720 F     1 <1>  -0.3400 
 22 C       -7.9910     3.6480     1.0070 C.3   1 <1>   0.6000 
 23 F       -9.1740     4.1370     0.6360 F     1 <1>  -0.3400 
 24 F       -7.5430     4.5250     1.9020 F     1 <1>  -0.3400 
 25 H       -2.8770     1.6930    -1.6470 H     1 <1>   0.0800 
 26 H       -1.6420     2.6090     0.0900 H     1 <1>   0.4000 
 27 H       -8.1700     2.7230     1.5230 H     1 <1>   0.0800 
@<TRIPOS>BOND
  1   1   2  1   
  2   2   3  1   
  3   2   4  1   
  4   2   5  1   
  5   5   6  1   
  6   5   7  1   
  7   5   8  1   
  8   7   9  1   
  9   7  10  1   
 10   7  11  1   
 11   8  12  1   
 12   8  13  1   
 13   8  25  1   
 14  12  26  1   
 15  13  14  1   
 16  13  15  1   
 17  13  16  1   
 18  16  17  1   
 19  16  18  1   
 20  16  19  1   
 21  19  20  1   
 22  19  21  1   
 23  19  22  1   
 24  22  23  1   
 25  22  24  1   
 26  22  27  1   
@<TRIPOS>SUBSTRUCTURE
  1 ****  13 GROUP 4 **** **** 0

# MOE 2024.06 (io_trps.svl 2023.06)
