@<TRIPOS>MOLECULE
NONAME
30 31 1 0 0 
SMALL
USER_CHARGES


@<TRIPOS>ATOM
  1 CL      -0.1640    -0.6790     0.4490 Cl    1 <1>  -0.1770 
  2 C        1.5570    -0.9590     0.4020 C.ar  1 <1>   0.1770 
  3 C        2.3670    -0.3600     1.3510 C.ar  1 <1>  -0.1500 
  4 C        2.0820    -1.7750    -0.5840 C.ar  1 <1>  -0.1500 
  5 C        3.7330    -0.5850     1.3100 C.ar  1 <1>  -0.1500 
  6 C        3.4490    -2.0000    -0.6260 C.ar  1 <1>  -0.1500 
  7 C        4.2660    -1.4000     0.3250 C.ar  1 <1>   0.1020 
  8 S        6.0550    -1.6280     0.3610 S.3   1 <1>  -0.3320 
  9 C        6.5360    -2.6630    -1.1130 C.3   1 <1>   0.2110 
 10 C        7.9000    -3.3210    -0.8830 C.2   1 <1>   0.5690 
 11 C        6.5270    -1.7400    -2.3390 C.3   1 <1>  -0.2400 
 12 O        8.1700    -4.3150    -1.5180 O.2   1 <1>  -0.5700 
 13 N        8.7690    -2.7720     0.0100 N.am  1 <1>  -0.5790 
 14 C       10.1120    -3.2710     0.3320 C.3   1 <1>   0.0490 
 15 C       10.5780    -3.1650     1.7460 C.3   1 <1>  -0.2000 
 16 C       11.1620    -2.2740     0.6900 C.3   1 <1>  -0.2000 
 17 H        1.9310     0.2690     2.1070 H     1 <1>   0.1500 
 18 H        1.4260    -2.2260    -1.3060 H     1 <1>   0.1500 
 19 H        4.3820    -0.1310     2.0380 H     1 <1>   0.1500 
 20 H        3.8440    -2.6350    -1.3930 H     1 <1>   0.1500 
 21 H        5.8050    -3.4440    -1.2060 H     1 <1>   0.0800 
 22 H        7.2630    -0.9640    -2.2230 H     1 <1>   0.0800 
 23 H        5.5620    -1.2870    -2.4720 H     1 <1>   0.0800 
 24 H        6.7670    -2.3070    -3.2210 H     1 <1>   0.0800 
 25 H        8.4540    -1.9670     0.5560 H     1 <1>   0.3700 
 26 H       10.3940    -4.1400    -0.2430 H     1 <1>   0.1000 
 27 H       11.1930    -3.9520     2.1440 H     1 <1>   0.1000 
 28 H        9.9150    -2.7440     2.4810 H     1 <1>   0.1000 
 29 H       10.9090    -1.2280     0.6880 H     1 <1>   0.1000 
 30 H       12.1740    -2.4570     0.3740 H     1 <1>   0.1000 
@<TRIPOS>BOND
  1   1   2  1   
  2   2   3  ar  
  3   2   4  ar  
  4   3   5  ar  
  5   3  17  1   
  6   4   6  ar  
  7   4  18  1   
  8   5   7  ar  
  9   5  19  1   
 10   6   7  ar  
 11   6  20  1   
 12   7   8  1   
 13   8   9  1   
 14   9  10  1   
 15   9  11  1   
 16   9  21  1   
 17  10  12  2   
 18  10  13  am  
 19  11  22  1   
 20  11  23  1   
 21  11  24  1   
 22  13  14  1   
 23  13  25  1   
 24  14  15  1   
 25  14  16  1   
 26  14  26  1   
 27  15  16  1   
 28  15  27  1   
 29  15  28  1   
 30  16  29  1   
 31  16  30  1   
@<TRIPOS>SUBSTRUCTURE
  1 ****   8 GROUP 4 **** **** 0

# MOE 2024.06 (io_trps.svl 2023.06)
