@<TRIPOS>MOLECULE
NONAME
47 50 1 0 0 
SMALL
USER_CHARGES


@<TRIPOS>ATOM
  1 N       -2.3350     2.8540    -1.7290 N.ar  1 <1>  -0.6200 
  2 C       -3.0190     1.7470    -1.5040 C.ar  1 <1>   0.1600 
  3 C       -2.8900     3.9720    -1.2970 C.ar  1 <1>   0.1600 
  4 C       -4.2510     1.7030    -0.8730 C.ar  1 <1>  -0.1500 
  5 C       -4.1160     4.0390    -0.6550 C.ar  1 <1>  -0.1500 
  6 C       -4.8330     2.8770    -0.4350 C.ar  1 <1>  -0.1430 
  7 C       -6.1840     2.8930     0.2410 C.3   1 <1>   0.4870 
  8 N       -7.1890     3.0530    -0.8320 N.4   1 <1>  -0.9060 
  9 C       -8.6010     3.1150    -0.4270 C.3   1 <1>   0.5030 
 10 C       -8.8490     4.3220     0.4970 C.3   1 <1>  -0.1600 
 11 C       -9.4340     3.2780    -1.7090 C.3   1 <1>  -0.1600 
 12 C       -9.0200     1.8160     0.2890 C.3   1 <1>  -0.1600 
 13 C      -10.3440     4.4050     0.8660 C.3   1 <1>   0.0000 
 14 C      -10.9350     3.3510    -1.3690 C.3   1 <1>   0.0000 
 15 C      -10.5150     1.8850     0.6510 C.3   1 <1>  -0.0800 
 16 C      -11.1710     4.5510    -0.4280 C.3   1 <1>  -0.1600 
 17 C      -10.7580     3.0960     1.5710 C.3   1 <1>  -0.1600 
 18 C      -10.5970     5.6030     1.7900 C.3   1 <1>  -0.2400 
 19 C      -11.3420     2.0570    -0.6350 C.3   1 <1>  -0.1600 
 20 C      -11.7630     3.5140    -2.6490 C.3   1 <1>  -0.2400 
 21 H       -2.5700     0.8260    -1.8420 H     1 <1>   0.1500 
 22 H       -2.3370     4.8820    -1.4630 H     1 <1>   0.1500 
 23 H       -4.7270     0.7480    -0.7350 H     1 <1>   0.1500 
 24 H       -4.4820     5.0000    -0.3380 H     1 <1>   0.1500 
 25 H       -6.2360     3.7140     0.9370 H     1 <1>   0.0800 
 26 H       -6.3400     1.9700     0.7750 H     1 <1>   0.0800 
 27 H       -7.0730     2.2810    -1.4950 H     1 <1>   0.4500 
 28 H       -6.9630     3.9030    -1.3550 H     1 <1>   0.4500 
 29 H       -8.5580     5.2330     0.0030 H     1 <1>   0.0800 
 30 H       -8.2830     4.2300     1.4060 H     1 <1>   0.0800 
 31 H       -9.1500     4.1790    -2.2240 H     1 <1>   0.0800 
 32 H       -9.2680     2.4440    -2.3690 H     1 <1>   0.0800 
 33 H       -8.4620     1.6770     1.1970 H     1 <1>   0.0800 
 34 H       -8.8540     0.9650    -0.3480 H     1 <1>   0.0800 
 35 H      -10.8150     0.9810     1.1560 H     1 <1>   0.0800 
 36 H      -10.9110     5.4670    -0.9290 H     1 <1>   0.0800 
 37 H      -12.2180     4.6110    -0.1800 H     1 <1>   0.0800 
 38 H      -10.2050     2.9750     2.4880 H     1 <1>   0.0800 
 39 H      -11.8020     3.1390     1.8340 H     1 <1>   0.0800 
 40 H      -10.0320     5.5100     2.7000 H     1 <1>   0.0800 
 41 H      -11.6400     5.6640     2.0480 H     1 <1>   0.0800 
 42 H      -10.3180     6.5230     1.3070 H     1 <1>   0.0800 
 43 H      -11.2010     1.2040    -1.2770 H     1 <1>   0.0800 
 44 H      -12.3890     2.0960    -0.3830 H     1 <1>   0.0800 
 45 H      -11.4920     4.4160    -3.1680 H     1 <1>   0.0800 
 46 H      -12.8120     3.5660    -2.4130 H     1 <1>   0.0800 
 47 H      -11.6100     2.6810    -3.3120 H     1 <1>   0.0800 
@<TRIPOS>BOND
  1   1   2  ar  
  2   1   3  ar  
  3   2   4  ar  
  4   2  21  1   
  5   3   5  ar  
  6   3  22  1   
  7   4   6  ar  
  8   4  23  1   
  9   5   6  ar  
 10   5  24  1   
 11   6   7  1   
 12   7   8  1   
 13   7  25  1   
 14   7  26  1   
 15   8   9  1   
 16   8  27  1   
 17   8  28  1   
 18   9  10  1   
 19   9  11  1   
 20   9  12  1   
 21  10  13  1   
 22  10  29  1   
 23  10  30  1   
 24  11  14  1   
 25  11  31  1   
 26  11  32  1   
 27  12  15  1   
 28  12  33  1   
 29  12  34  1   
 30  13  16  1   
 31  13  17  1   
 32  13  18  1   
 33  14  16  1   
 34  14  19  1   
 35  14  20  1   
 36  15  17  1   
 37  15  19  1   
 38  15  35  1   
 39  16  36  1   
 40  16  37  1   
 41  17  38  1   
 42  17  39  1   
 43  18  40  1   
 44  18  41  1   
 45  18  42  1   
 46  19  43  1   
 47  19  44  1   
 48  20  45  1   
 49  20  46  1   
 50  20  47  1   
@<TRIPOS>SUBSTRUCTURE
  1 ****   9 GROUP 4 **** **** 0

# MOE 2024.06 (io_trps.svl 2023.06)
