@<TRIPOS>MOLECULE
NONAME
50 51 1 0 0 
SMALL
USER_CHARGES


@<TRIPOS>ATOM
  1 S        5.9500    -4.4200    -0.4280 S.3   1 <1>  -0.3320 
  2 C        7.4430    -5.4140    -0.2440 C.ar  1 <1>   0.1020 
  3 C        4.5250    -5.5410    -0.1110 C.3   1 <1>   0.0700 
  4 C        7.4020    -6.7600     0.0820 C.ar  1 <1>  -0.1500 
  5 C        8.6520    -4.7720    -0.4430 C.ar  1 <1>  -0.1500 
  6 C        3.2590    -4.6970    -0.2690 C.3   1 <1>  -0.1600 
  7 C        8.5880    -7.4640     0.2070 C.ar  1 <1>  -0.1500 
  8 C        9.8330    -5.4830    -0.3160 C.ar  1 <1>  -0.1500 
  9 C        2.0070    -5.5330    -0.0160 C.3   1 <1>   0.3430 
 10 C        9.8060    -6.8310     0.0080 C.ar  1 <1>  -0.1440 
 11 N        0.7820    -4.7300    -0.2930 N.4   1 <1>  -0.9590 
 12 C       11.1020    -7.6080     0.1480 C.3   1 <1>  -0.0970 
 13 C        0.5530    -3.6650     0.7310 C.3   1 <1>   0.3430 
 14 C       -0.4080    -5.6180    -0.4300 C.3   1 <1>   0.3430 
 15 C       -0.6270    -2.7940     0.3060 C.3   1 <1>  -0.1600 
 16 C       -1.6110    -4.7940    -0.8850 C.3   1 <1>  -0.1600 
 17 C       -1.9050    -3.6220     0.0700 C.3   1 <1>  -0.0190 
 18 C       -3.0300    -2.7450    -0.4710 C.2   1 <1>   0.6590 
 19 O       -2.9250    -2.1810    -1.5290 O.2   1 <1>  -0.5700 
 20 O       -4.1080    -2.6480     0.2900 O.3   1 <1>  -0.4300 
 21 C       -5.2150    -1.8670    -0.1010 C.3   1 <1>   0.1200 
 22 C       -6.2760    -1.9710     0.9900 C.3   1 <1>  -0.2400 
 23 H        4.6390    -5.9230     0.8890 H     1 <1>   0.0800 
 24 H        4.5790    -6.3360    -0.8350 H     1 <1>   0.0800 
 25 H        6.4760    -7.2730     0.2410 H     1 <1>   0.1500 
 26 H        8.6670    -3.7270    -0.6950 H     1 <1>   0.1500 
 27 H        3.2390    -4.3020    -1.2700 H     1 <1>   0.0800 
 28 H        3.3140    -3.8810     0.4290 H     1 <1>   0.0800 
 29 H        8.5610    -8.5090     0.4620 H     1 <1>   0.1500 
 30 H       10.7720    -4.9810    -0.4700 H     1 <1>   0.1500 
 31 H        1.9970    -5.8870     1.0030 H     1 <1>   0.0800 
 32 H        2.0280    -6.3910    -0.6690 H     1 <1>   0.0800 
 33 H        0.9130    -4.2580    -1.1990 H     1 <1>   0.4500 
 34 H       10.9560    -8.6370    -0.1260 H     1 <1>   0.0800 
 35 H       11.4430    -7.5640     1.1670 H     1 <1>   0.0800 
 36 H       11.8610    -7.1920    -0.4900 H     1 <1>   0.0800 
 37 H        1.4300    -3.0460     0.8290 H     1 <1>   0.0800 
 38 H        0.3470    -4.1150     1.6890 H     1 <1>   0.0800 
 39 H       -0.6270    -6.0870     0.5160 H     1 <1>   0.0800 
 40 H       -0.2120    -6.3920    -1.1550 H     1 <1>   0.0800 
 41 H       -0.3650    -2.2570    -0.5900 H     1 <1>   0.0800 
 42 H       -0.8150    -2.0610     1.0720 H     1 <1>   0.0800 
 43 H       -2.4750    -5.4340    -0.9370 H     1 <1>   0.0800 
 44 H       -1.4290    -4.4230    -1.8800 H     1 <1>   0.0800 
 45 H       -2.2290    -4.0240     1.0140 H     1 <1>   0.0800 
 46 H       -5.5870    -2.2450    -1.0390 H     1 <1>   0.0800 
 47 H       -4.8880    -0.8480    -0.2270 H     1 <1>   0.0800 
 48 H       -6.5880    -2.9930     1.1100 H     1 <1>   0.0800 
 49 H       -7.1340    -1.3830     0.7160 H     1 <1>   0.0800 
 50 H       -5.8900    -1.5980     1.9220 H     1 <1>   0.0800 
@<TRIPOS>BOND
  1   1   2  1   
  2   1   3  1   
  3   2   4  ar  
  4   2   5  ar  
  5   3   6  1   
  6   3  23  1   
  7   3  24  1   
  8   4   7  ar  
  9   4  25  1   
 10   5   8  ar  
 11   5  26  1   
 12   6   9  1   
 13   6  27  1   
 14   6  28  1   
 15   7  10  ar  
 16   7  29  1   
 17   8  10  ar  
 18   8  30  1   
 19   9  11  1   
 20   9  31  1   
 21   9  32  1   
 22  10  12  1   
 23  11  13  1   
 24  11  14  1   
 25  11  33  1   
 26  12  34  1   
 27  12  35  1   
 28  12  36  1   
 29  13  15  1   
 30  13  37  1   
 31  13  38  1   
 32  14  16  1   
 33  14  39  1   
 34  14  40  1   
 35  15  17  1   
 36  15  41  1   
 37  15  42  1   
 38  16  17  1   
 39  16  43  1   
 40  16  44  1   
 41  17  18  1   
 42  17  45  1   
 43  18  19  2   
 44  18  20  1   
 45  20  21  1   
 46  21  22  1   
 47  21  46  1   
 48  21  47  1   
 49  22  48  1   
 50  22  49  1   
 51  22  50  1   
@<TRIPOS>SUBSTRUCTURE
  1 ****   6 GROUP 4 **** **** 0

# MOE 2024.06 (io_trps.svl 2023.06)
