@<TRIPOS>MOLECULE
NONAME
43 44 1 0 0 
SMALL
USER_CHARGES


@<TRIPOS>ATOM
  1 O        1.6870     0.9000     0.7780 O.co2 1 <1>  -0.9000 
  2 C        2.5560     0.1330     1.2010 C.2   1 <1>   0.9060 
  3 O        3.3600     0.4910     2.0730 O.co2 1 <1>  -0.9000 
  4 C        2.6790    -1.2740     0.6250 C.3   1 <1>  -0.1860 
  5 C        4.1470    -1.7840     0.5640 C.3   1 <1>  -0.0190 
  6 C        1.9990    -1.3920    -0.7540 C.3   1 <1>  -0.0220 
  7 C        5.0540    -0.8960    -0.3020 C.2   1 <1>   0.5690 
  8 C        4.1780    -3.2740     0.1530 C.3   1 <1>  -0.0220 
  9 C        2.2550    -2.7510    -1.3880 C.2   1 <1>  -0.2880 
 10 O        5.5400    -1.3000    -1.3360 O.2   1 <1>  -0.5700 
 11 N        5.3200     0.3480     0.1540 N.am  1 <1>  -0.7300 
 12 C        3.2120    -3.5890    -0.9810 C.2   1 <1>  -0.2880 
 13 C        5.9650     1.4290    -0.5980 C.3   1 <1>   0.2840 
 14 C        7.4170     1.5520    -0.1660 C.ar  1 <1>  -0.1440 
 15 C        8.3340     0.6030    -0.5880 C.ar  1 <1>  -0.1500 
 16 C        7.8370     2.5920     0.6440 C.ar  1 <1>  -0.1500 
 17 C        9.6750     0.6760    -0.2160 C.ar  1 <1>   0.0820 
 18 C        9.1680     2.6880     1.0100 C.ar  1 <1>  -0.1500 
 19 O       10.5600    -0.2910    -0.6020 O.3   1 <1>  -0.3620 
 20 C       10.0980     1.7540     0.5820 C.ar  1 <1>   0.0820 
 21 C       10.1110    -1.5410    -1.0810 C.3   1 <1>   0.0400 
 22 O       11.3750     1.9880     1.0040 O.3   1 <1>  -0.3630 
 23 C       12.4900     1.5420     0.2650 C.3   1 <1>   0.0400 
 24 H        2.1430    -1.9080     1.3050 H     1 <1>   0.0800 
 25 H        4.5540    -1.7320     1.5580 H     1 <1>   0.0800 
 26 H        2.3640    -0.6200    -1.4100 H     1 <1>   0.0800 
 27 H        0.9400    -1.2420    -0.6310 H     1 <1>   0.0800 
 28 H        3.9050    -3.8770     1.0000 H     1 <1>   0.0800 
 29 H        5.1780    -3.5480    -0.1340 H     1 <1>   0.0800 
 30 H        1.5900    -2.9670    -2.2050 H     1 <1>   0.1500 
 31 H        4.7980     0.6460     1.0060 H     1 <1>   0.3700 
 32 H        3.3780    -4.5530    -1.4290 H     1 <1>   0.1500 
 33 H        5.4330     2.3470    -0.4140 H     1 <1>   0.0800 
 34 H        5.9140     1.2150    -1.6520 H     1 <1>   0.0800 
 35 H        7.9670    -0.1940    -1.2060 H     1 <1>   0.1500 
 36 H        7.1310     3.3240     0.9940 H     1 <1>   0.1500 
 37 H        9.4950     3.4970     1.6360 H     1 <1>   0.1500 
 38 H       10.9610    -2.1920    -1.1660 H     1 <1>   0.0800 
 39 H        9.6570    -1.4050    -2.0460 H     1 <1>   0.0800 
 40 H        9.4040    -1.9510    -0.3800 H     1 <1>   0.0800 
 41 H       13.3500     2.0980     0.5880 H     1 <1>   0.0800 
 42 H       12.3100     1.7140    -0.7810 H     1 <1>   0.0800 
 43 H       12.6390     0.4960     0.4600 H     1 <1>   0.0800 
@<TRIPOS>BOND
  1   1   2  ar  
  2   2   3  ar  
  3   2   4  1   
  4   4   5  1   
  5   4   6  1   
  6   4  24  1   
  7   5   7  1   
  8   5   8  1   
  9   5  25  1   
 10   6   9  1   
 11   6  26  1   
 12   6  27  1   
 13   7  10  2   
 14   7  11  am  
 15   8  12  1   
 16   8  28  1   
 17   8  29  1   
 18   9  12  2   
 19   9  30  1   
 20  11  13  1   
 21  11  31  1   
 22  12  32  1   
 23  13  14  1   
 24  13  33  1   
 25  13  34  1   
 26  14  15  ar  
 27  14  16  ar  
 28  15  17  ar  
 29  15  35  1   
 30  16  18  ar  
 31  16  36  1   
 32  17  19  1   
 33  17  20  ar  
 34  18  20  ar  
 35  18  37  1   
 36  19  21  1   
 37  20  22  1   
 38  21  38  1   
 39  21  39  1   
 40  21  40  1   
 41  22  23  1   
 42  23  41  1   
 43  23  42  1   
 44  23  43  1   
@<TRIPOS>SUBSTRUCTURE
  1 ****  11 GROUP 4 **** **** 0

# MOE 2024.06 (io_trps.svl 2023.06)
