@<TRIPOS>MOLECULE
NONAME
43 44 1 0 0 
SMALL
USER_CHARGES


@<TRIPOS>ATOM
  1 BR       0.2020    -0.6330    -2.3080 Br    1 <1>  -0.1110 
  2 C        1.8470    -1.1960    -1.4780 C.ar  1 <1>   0.1110 
  3 C        1.9850    -2.5170    -1.0980 C.ar  1 <1>  -0.1500 
  4 C        2.8490    -0.2650    -1.2810 C.ar  1 <1>  -0.1500 
  5 C        3.1700    -2.9130    -0.5030 C.ar  1 <1>  -0.1500 
  6 C        4.0270    -0.6780    -0.6830 C.ar  1 <1>  -0.1500 
  7 C        4.2050    -2.0040    -0.2900 C.ar  1 <1>   0.1170 
  8 N        5.3790    -2.4560     0.3310 N.am  1 <1>  -0.5470 
  9 C        6.6610    -2.0060     0.2300 C.2   1 <1>   0.6900 
 10 O        6.9770    -1.1330    -0.5540 O.2   1 <1>  -0.5700 
 11 N        7.5950    -2.5780     1.0380 N.am  1 <1>  -0.7300 
 12 C        9.0430    -2.2830     1.0800 C.3   1 <1>   0.2200 
 13 C        9.2750    -0.8290     1.5150 C.3   1 <1>  -0.1600 
 14 C        9.6900    -2.6110    -0.2730 C.3   1 <1>  -0.1600 
 15 C       10.7360    -0.4220     1.3750 C.3   1 <1>   0.3430 
 16 C       11.1350    -2.1330    -0.3400 C.3   1 <1>   0.3430 
 17 N       11.1850    -0.6800    -0.0230 N.4   1 <1>  -0.9590 
 18 C       12.5350    -0.1220    -0.3070 C.3   1 <1>   0.3430 
 19 C       12.4750     1.4050    -0.3910 C.3   1 <1>  -0.1600 
 20 C       13.8340     1.9840    -0.7970 C.3   1 <1>  -0.2400 
 21 H        1.1840    -3.2140    -1.2680 H     1 <1>   0.1500 
 22 H        2.7100     0.7560    -1.5880 H     1 <1>   0.1500 
 23 H        3.2910    -3.9390    -0.2060 H     1 <1>   0.1500 
 24 H        4.8100     0.0400    -0.5210 H     1 <1>   0.1500 
 25 H        5.2780    -3.3220     0.8480 H     1 <1>   0.3700 
 26 H        7.2620    -3.2040     1.7700 H     1 <1>   0.3700 
 27 H        9.4890    -2.9250     1.8220 H     1 <1>   0.0800 
 28 H        8.9750    -0.7130     2.5410 H     1 <1>   0.0800 
 29 H        8.6860    -0.1500     0.9260 H     1 <1>   0.0800 
 30 H        9.1540    -2.1510    -1.0830 H     1 <1>   0.0800 
 31 H        9.6650    -3.6750    -0.4290 H     1 <1>   0.0800 
 32 H       11.3430    -0.9850     2.0660 H     1 <1>   0.0800 
 33 H       10.8330     0.6250     1.6120 H     1 <1>   0.0800 
 34 H       11.5210    -2.3100    -1.3310 H     1 <1>   0.0800 
 35 H       11.7380    -2.6850     0.3640 H     1 <1>   0.0800 
 36 H       10.5100    -0.2150    -0.6500 H     1 <1>   0.4500 
 37 H       12.8900    -0.5010    -1.2530 H     1 <1>   0.0800 
 38 H       13.2330    -0.4230     0.4580 H     1 <1>   0.0800 
 39 H       12.2010     1.8250     0.5610 H     1 <1>   0.0800 
 40 H       11.7440     1.7010    -1.1240 H     1 <1>   0.0800 
 41 H       14.5920     1.7290    -0.0760 H     1 <1>   0.0800 
 42 H       13.7740     3.0580    -0.8540 H     1 <1>   0.0800 
 43 H       14.1360     1.6150    -1.7630 H     1 <1>   0.0800 
@<TRIPOS>BOND
  1   1   2  1   
  2   2   3  ar  
  3   2   4  ar  
  4   3   5  ar  
  5   3  21  1   
  6   4   6  ar  
  7   4  22  1   
  8   5   7  ar  
  9   5  23  1   
 10   6   7  ar  
 11   6  24  1   
 12   7   8  1   
 13   8   9  am  
 14   8  25  1   
 15   9  10  2   
 16   9  11  am  
 17  11  12  1   
 18  11  26  1   
 19  12  13  1   
 20  12  14  1   
 21  12  27  1   
 22  13  15  1   
 23  13  28  1   
 24  13  29  1   
 25  14  16  1   
 26  14  30  1   
 27  14  31  1   
 28  15  17  1   
 29  15  32  1   
 30  15  33  1   
 31  16  17  1   
 32  16  34  1   
 33  16  35  1   
 34  17  18  1   
 35  17  36  1   
 36  18  19  1   
 37  18  37  1   
 38  18  38  1   
 39  19  20  1   
 40  19  39  1   
 41  19  40  1   
 42  20  41  1   
 43  20  42  1   
 44  20  43  1   
@<TRIPOS>SUBSTRUCTURE
  1 ****  10 GROUP 4 **** **** 0

# MOE 2024.06 (io_trps.svl 2023.06)
