@<TRIPOS>MOLECULE
12110
40 41 1 0 0 
SMALL
USER_CHARGES


@<TRIPOS>ATOM
  1 S       -0.3600     0.1650    -0.1840 S.3   1 <1>  -0.0800 
  2 C        1.1100    -0.7760     0.0590 C.2   1 <1>   0.1040 
  3 C        0.5380     1.6650    -0.1790 C.2   1 <1>  -0.1400 
  4 N        1.0470    -2.1590     0.1760 N.am  1 <1>  -0.4940 
  5 C        2.2070     0.0450     0.0890 C.2   1 <1>  -0.0860 
  6 C        1.8510     1.4380    -0.0360 C.2   1 <1>  -0.1810 
  7 C       -0.1760     2.9910    -0.3240 C.3   1 <1>   0.0200 
  8 C        0.0450    -3.0890     0.2100 C.2   1 <1>   0.6160 
  9 C        3.5640    -0.4150     0.2100 C.2   1 <1>   0.7160 
 10 C        2.8440     2.5920    -0.0100 C.3   1 <1>   0.0210 
 11 C        0.7900     4.1290     0.0650 C.3   1 <1>  -0.0800 
 12 O        0.3980    -4.2280    -0.0040 O.2   1 <1>  -0.5700 
 13 C       -1.3240    -2.7650     0.5410 C.2   1 <1>  -0.1360 
 14 O        4.4030     0.1590     0.8720 O.2   1 <1>  -0.5700 
 15 N        3.9790    -1.5240    -0.4420 N.am  1 <1>  -0.8000 
 16 C        2.1990     3.8970    -0.5210 C.3   1 <1>  -0.1600 
 17 C        0.2340     5.4890    -0.3760 C.3   1 <1>  -0.2400 
 18 C       -2.4920    -3.3220     0.1550 C.2   1 <1>  -0.2760 
 19 C       -3.8340    -2.8140     0.6610 C.3   1 <1>  -0.1020 
 20 C       -2.6390    -4.4920    -0.8090 C.3   1 <1>  -0.1020 
 21 H        1.9480    -2.6360     0.2040 H     1 <1>   0.3700 
 22 H       -0.4960     3.0980    -1.3450 H     1 <1>   0.0800 
 23 H       -1.0430     3.0130     0.3130 H     1 <1>   0.0800 
 24 H        3.1850     2.7270     1.0020 H     1 <1>   0.0800 
 25 H        3.6990     2.3590    -0.6200 H     1 <1>   0.0800 
 26 H        0.8780     4.1350     1.1400 H     1 <1>   0.0800 
 27 H       -1.3650    -1.9390     1.2220 H     1 <1>   0.1500 
 28 H        4.9730    -1.7480    -0.3930 H     1 <1>   0.3700 
 29 H        3.4830    -1.8660    -1.2650 H     1 <1>   0.3700 
 30 H        2.1260     3.8480    -1.5940 H     1 <1>   0.0800 
 31 H        2.8430     4.7230    -0.2740 H     1 <1>   0.0800 
 32 H        0.1450     5.5340    -1.4480 H     1 <1>   0.0800 
 33 H        0.8860     6.2810    -0.0530 H     1 <1>   0.0800 
 34 H       -0.7370     5.6540     0.0570 H     1 <1>   0.0800 
 35 H       -4.3560    -3.6000     1.1770 H     1 <1>   0.0800 
 36 H       -4.4380    -2.4800    -0.1640 H     1 <1>   0.0800 
 37 H       -3.7040    -1.9900     1.3400 H     1 <1>   0.0800 
 38 H       -3.2780    -4.2180    -1.6300 H     1 <1>   0.0800 
 39 H       -3.0720    -5.3360    -0.3020 H     1 <1>   0.0800 
 40 H       -1.6940    -4.7970    -1.2170 H     1 <1>   0.0800 
@<TRIPOS>BOND
  1   1   2  1   
  2   1   3  1   
  3   2   4  1   
  4   2   5  2   
  5   3   6  2   
  6   3   7  1   
  7   4   8  am  
  8   4  21  1   
  9   5   6  1   
 10   5   9  1   
 11   6  10  1   
 12   7  11  1   
 13   7  22  1   
 14   7  23  1   
 15   8  12  2   
 16   8  13  1   
 17   9  14  2   
 18   9  15  am  
 19  10  16  1   
 20  10  24  1   
 21  10  25  1   
 22  11  16  1   
 23  11  17  1   
 24  11  26  1   
 25  13  18  2   
 26  13  27  1   
 27  15  28  1   
 28  15  29  1   
 29  16  30  1   
 30  16  31  1   
 31  17  32  1   
 32  17  33  1   
 33  17  34  1   
 34  18  19  1   
 35  18  20  1   
 36  19  35  1   
 37  19  36  1   
 38  19  37  1   
 39  20  38  1   
 40  20  39  1   
 41  20  40  1   
@<TRIPOS>SUBSTRUCTURE
  1 ****   2 GROUP 4 **** **** 0

# MOE 2024.06 (io_trps.svl 2023.06)
