@<TRIPOS>MOLECULE
NONAME
46 48 1 0 0 
SMALL
USER_CHARGES


@<TRIPOS>ATOM
  1 S       -0.0870     0.3180    -1.1610 S.o2  1 <1>   1.4470 
  2 O       -0.4920     1.2580    -2.1840 O.2   1 <1>  -0.6500 
  3 O        1.0830    -0.5030    -1.3920 O.2   1 <1>  -0.6500 
  4 N        0.2300     1.2090     0.2480 N.am  1 <1>  -0.8490 
  5 C       -1.5330    -0.7110    -0.7250 C.ar  1 <1>  -0.0090 
  6 C        1.0360     2.4000    -0.0330 C.3   1 <1>   0.1960 
  7 C        0.8610     0.3880     1.2890 C.3   1 <1>   0.1960 
  8 C       -1.8720    -1.8690    -1.4280 C.ar  1 <1>  -0.1440 
  9 C       -2.3620    -0.3330     0.3280 C.ar  1 <1>  -0.1500 
 10 C        1.1570     3.2670     1.2260 C.3   1 <1>  -0.1600 
 11 C        0.9500     1.1770     2.5980 C.3   1 <1>  -0.1600 
 12 C       -2.9780    -2.6140    -1.0520 C.ar  1 <1>  -0.1500 
 13 C       -1.0520    -2.3470    -2.6200 C.3   1 <1>  -0.0970 
 14 C       -3.4720    -1.0660     0.7230 C.ar  1 <1>  -0.0090 
 15 C        1.7390     2.4770     2.4050 C.3   1 <1>  -0.1600 
 16 C       -3.7660    -2.2190     0.0120 C.ar  1 <1>  -0.1500 
 17 S       -4.5090    -0.5090     2.1020 S.o2  1 <1>   1.3180 
 18 O       -3.6530     0.1430     3.0710 O.2   1 <1>  -0.6500 
 19 O       -5.3500    -1.6110     2.5230 O.2   1 <1>  -0.6500 
 20 C       -5.5350     0.7420     1.2890 C.ar  1 <1>  -0.0090 
 21 C       -5.0910     2.0530     1.1480 C.ar  1 <1>  -0.1500 
 22 C       -6.7780     0.4170     0.7560 C.ar  1 <1>  -0.1500 
 23 C       -5.8580     3.0060     0.4990 C.ar  1 <1>  -0.1500 
 24 C       -7.5520     1.3640     0.1070 C.ar  1 <1>  -0.1500 
 25 C       -7.0900     2.6610    -0.0230 C.ar  1 <1>  -0.1500 
 26 H        0.5680     2.9870    -0.8070 H     1 <1>   0.0800 
 27 H        2.0140     2.1060    -0.3800 H     1 <1>   0.0800 
 28 H        1.8480     0.0880     0.9760 H     1 <1>   0.0800 
 29 H        0.2790    -0.5030     1.4580 H     1 <1>   0.0800 
 30 H       -2.1360     0.5700     0.8700 H     1 <1>   0.1500 
 31 H        0.1800     3.6360     1.4840 H     1 <1>   0.0800 
 32 H        1.7830     4.1160     1.0150 H     1 <1>   0.0800 
 33 H        1.4270     0.5730     3.3490 H     1 <1>   0.0800 
 34 H       -0.0460     1.3990     2.9400 H     1 <1>   0.0800 
 35 H       -3.2350    -3.5130    -1.5870 H     1 <1>   0.1500 
 36 H       -1.5570    -3.1370    -3.1460 H     1 <1>   0.0800 
 37 H       -0.8880    -1.5420    -3.3140 H     1 <1>   0.0800 
 38 H       -0.0990    -2.7210    -2.2880 H     1 <1>   0.0800 
 39 H        1.6980     3.0710     3.3020 H     1 <1>   0.0800 
 40 H        2.7700     2.2430     2.2040 H     1 <1>   0.0800 
 41 H       -4.6190    -2.8160     0.2900 H     1 <1>   0.1500 
 42 H       -4.1340     2.3370     1.5540 H     1 <1>   0.1500 
 43 H       -7.1500    -0.5890     0.8520 H     1 <1>   0.1500 
 44 H       -5.4950     4.0150     0.4020 H     1 <1>   0.1500 
 45 H       -8.5130     1.0930    -0.2960 H     1 <1>   0.1500 
 46 H       -7.6900     3.4000    -0.5270 H     1 <1>   0.1500 
@<TRIPOS>BOND
  1   1   2  2   
  2   1   3  2   
  3   1   4  am  
  4   1   5  1   
  5   4   6  1   
  6   4   7  1   
  7   5   8  ar  
  8   5   9  ar  
  9   6  10  1   
 10   6  26  1   
 11   6  27  1   
 12   7  11  1   
 13   7  28  1   
 14   7  29  1   
 15   8  12  ar  
 16   8  13  1   
 17   9  14  ar  
 18   9  30  1   
 19  10  15  1   
 20  10  31  1   
 21  10  32  1   
 22  11  15  1   
 23  11  33  1   
 24  11  34  1   
 25  12  16  ar  
 26  12  35  1   
 27  13  36  1   
 28  13  37  1   
 29  13  38  1   
 30  14  16  ar  
 31  14  17  1   
 32  15  39  1   
 33  15  40  1   
 34  16  41  1   
 35  17  18  2   
 36  17  19  2   
 37  17  20  1   
 38  20  21  ar  
 39  20  22  ar  
 40  21  23  ar  
 41  21  42  1   
 42  22  24  ar  
 43  22  43  1   
 44  23  25  ar  
 45  23  44  1   
 46  24  25  ar  
 47  24  45  1   
 48  25  46  1   
@<TRIPOS>SUBSTRUCTURE
  1 ****   9 GROUP 4 **** **** 0

# MOE 2024.06 (io_trps.svl 2023.06)
