@<TRIPOS>MOLECULE
NONAME
44 46 1 0 0 
SMALL
USER_CHARGES


@<TRIPOS>ATOM
  1 O        0.3410     0.5080    -0.1080 O.co2 1 <1>  -0.9000 
  2 C       -0.1780     1.5030    -0.6290 C.2   1 <1>   0.9060 
  3 O       -0.3110     1.6040    -1.8510 O.co2 1 <1>  -0.9000 
  4 C       -0.6980     2.5860     0.3070 C.3   1 <1>  -0.1860 
  5 C       -2.2680     2.3610     0.8980 C.3   1 <1>  -0.0190 
  6 C       -0.6280     4.0830    -0.3650 C.3   1 <1>  -0.0800 
  7 C       -2.9770     1.0060     0.7070 C.2   1 <1>   0.5690 
  8 C       -3.1570     3.6480     0.3900 C.3   1 <1>  -0.0800 
  9 C       -1.8850     3.8740     0.0350 C.3   1 <1>  -0.1600 
 10 C       -1.5210     5.3730    -0.8220 C.3   1 <1>  -0.1600 
 11 O       -4.1870     0.9700     0.7620 O.2   1 <1>  -0.5700 
 12 N       -2.2690    -0.1390     0.5640 N.am  1 <1>  -0.7300 
 13 C       -3.0720     5.1520    -0.2400 C.3   1 <1>  -0.1600 
 14 C       -2.8450    -1.4530     0.2300 C.3   1 <1>   0.1400 
 15 C       -1.7440    -2.4220    -0.2260 C.3   1 <1>  -0.0800 
 16 C       -2.3740    -3.7280    -0.7440 C.3   1 <1>  -0.1600 
 17 C       -0.7370    -2.7210     0.9030 C.3   1 <1>  -0.1600 
 18 C       -1.3030    -4.7320    -1.1940 C.3   1 <1>  -0.1600 
 19 C        0.3280    -3.7300     0.4540 C.3   1 <1>  -0.1600 
 20 C       -0.3090    -5.0250    -0.0640 C.3   1 <1>  -0.1600 
 21 H       -0.0270     2.5560     1.1490 H     1 <1>   0.0800 
 22 H       -2.1960     2.4350     1.9730 H     1 <1>   0.0800 
 23 H        0.1040     4.5560     0.2730 H     1 <1>   0.0800 
 24 H       -3.8520     3.1860    -0.3000 H     1 <1>   0.0800 
 25 H       -2.1130     3.3750    -1.0070 H     1 <1>   0.0800 
 26 H       -1.6420     4.3610     1.0750 H     1 <1>   0.0800 
 27 H       -1.5350     5.4370    -1.9000 H     1 <1>   0.0800 
 28 H       -1.1000     6.2910    -0.4450 H     1 <1>   0.0800 
 29 H       -1.2440    -0.0690     0.3870 H     1 <1>   0.3700 
 30 H       -3.2940     5.8850     0.5200 H     1 <1>   0.0800 
 31 H       -3.7920     5.2760    -1.0340 H     1 <1>   0.0800 
 32 H       -3.5630    -1.3180    -0.5600 H     1 <1>   0.0800 
 33 H       -3.3560    -1.8420     1.0930 H     1 <1>   0.0800 
 34 H       -1.2150    -1.9560    -1.0430 H     1 <1>   0.0800 
 35 H       -3.0220    -3.5080    -1.5740 H     1 <1>   0.0800 
 36 H       -2.9690    -4.1720     0.0360 H     1 <1>   0.0800 
 37 H       -1.2590    -3.1070     1.7600 H     1 <1>   0.0800 
 38 H       -0.2440    -1.8100     1.1970 H     1 <1>   0.0800 
 39 H       -0.7710    -4.3230    -2.0370 H     1 <1>   0.0800 
 40 H       -1.7740    -5.6460    -1.5100 H     1 <1>   0.0800 
 41 H        0.9850    -3.9480     1.2770 H     1 <1>   0.0800 
 42 H        0.9190    -3.2820    -0.3280 H     1 <1>   0.0800 
 43 H        0.4610    -5.6850    -0.4220 H     1 <1>   0.0800 
 44 H       -0.8210    -5.5170     0.7450 H     1 <1>   0.0800 
@<TRIPOS>BOND
  1   1   2  ar  
  2   2   3  ar  
  3   2   4  1   
  4   4   5  1   
  5   4   6  1   
  6   4  21  1   
  7   5   7  1   
  8   5   8  1   
  9   5  22  1   
 10   6   9  1   
 11   6  10  1   
 12   6  23  1   
 13   7  11  2   
 14   7  12  am  
 15   8   9  1   
 16   8  13  1   
 17   8  24  1   
 18   9  25  1   
 19   9  26  1   
 20  10  13  1   
 21  10  27  1   
 22  10  28  1   
 23  12  14  1   
 24  12  29  1   
 25  13  30  1   
 26  13  31  1   
 27  14  15  1   
 28  14  32  1   
 29  14  33  1   
 30  15  16  1   
 31  15  17  1   
 32  15  34  1   
 33  16  18  1   
 34  16  35  1   
 35  16  36  1   
 36  17  19  1   
 37  17  37  1   
 38  17  38  1   
 39  18  20  1   
 40  18  39  1   
 41  18  40  1   
 42  19  20  1   
 43  19  41  1   
 44  19  42  1   
 45  20  43  1   
 46  20  44  1   
@<TRIPOS>SUBSTRUCTURE
  1 ****  12 GROUP 4 **** **** 0

# MOE 2024.06 (io_trps.svl 2023.06)
