@<TRIPOS>MOLECULE
NONAME
51 54 1 0 0 
SMALL
USER_CHARGES


@<TRIPOS>ATOM
  1 S       -0.1140     0.6090     0.8300 S.3   1 <1>  -0.0800 
  2 C        0.1020    -1.0400     0.2550 C.2   1 <1>   0.1040 
  3 C       -1.8300     0.5510     0.4790 C.2   1 <1>  -0.1400 
  4 N        1.3570    -1.6210     0.1900 N.am  1 <1>  -0.4940 
  5 C       -1.0930    -1.5850    -0.1220 C.2   1 <1>  -0.0860 
  6 C       -2.1810    -0.6410    -0.0230 C.2   1 <1>  -0.1810 
  7 C       -2.6990     1.7660     0.7160 C.3   1 <1>   0.0200 
  8 C        2.5940    -1.2730     0.6860 C.2   1 <1>   0.7150 
  9 C       -1.2120    -2.9460    -0.5710 C.2   1 <1>   0.7160 
 10 C       -3.6120    -0.9050    -0.4720 C.3   1 <1>   0.0210 
 11 C       -4.1820     1.3660     0.5700 C.3   1 <1>  -0.0800 
 12 O        2.6930    -0.3900     1.5170 O.2   1 <1>  -0.5700 
 13 C        3.7420    -2.0120     0.2090 C.2   1 <1>   0.0550 
 14 O       -0.4030    -3.3840    -1.3750 O.2   1 <1>  -0.5700 
 15 N       -2.1650    -3.8060    -0.0690 N.am  1 <1>  -0.6600 
 16 C       -4.3950     0.4140    -0.6280 C.3   1 <1>  -0.1600 
 17 C       -5.0700     2.6110     0.4400 C.3   1 <1>  -0.2400 
 18 O        4.9490    -1.8370     0.7410 O.3   1 <1>  -0.2800 
 19 C        3.8480    -2.9510    -0.7770 C.2   1 <1>  -0.1500 
 20 C       -2.4220    -5.1290    -0.7090 C.3   1 <1>   0.1400 
 21 C       -2.6290    -3.7330     1.3490 C.3   1 <1>   0.1400 
 22 C        5.8070    -2.6230     0.1360 C.2   1 <1>  -0.0400 
 23 C        5.1850    -3.3440    -0.8200 C.2   1 <1>  -0.1500 
 24 C       -3.8630    -5.5950    -0.4480 C.3   1 <1>   0.1200 
 25 C       -4.0570    -4.2880     1.4930 C.3   1 <1>   0.1200 
 26 C        7.2530    -2.5970     0.5750 C.3   1 <1>  -0.0600 
 27 O       -4.1530    -5.5610     0.9210 O.3   1 <1>  -0.5600 
 28 H        1.3740    -2.4730    -0.3740 H     1 <1>   0.3700 
 29 H       -2.4370     2.5160    -0.0090 H     1 <1>   0.0800 
 30 H       -2.5180     2.1610     1.6990 H     1 <1>   0.0800 
 31 H       -4.1030    -1.5190     0.2590 H     1 <1>   0.0800 
 32 H       -3.6110    -1.4310    -1.4110 H     1 <1>   0.0800 
 33 H       -4.4720     0.8410     1.4650 H     1 <1>   0.0800 
 34 H       -5.4410     0.1900    -0.7400 H     1 <1>   0.0800 
 35 H       -4.0660     0.9070    -1.5270 H     1 <1>   0.0800 
 36 H       -4.8260     3.1590    -0.4530 H     1 <1>   0.0800 
 37 H       -4.9330     3.2570     1.2890 H     1 <1>   0.0800 
 38 H       -6.1070     2.3270     0.3960 H     1 <1>   0.0800 
 39 H        3.0770    -3.3370    -1.4200 H     1 <1>   0.1500 
 40 H       -1.7360    -5.8560    -0.3100 H     1 <1>   0.0800 
 41 H       -2.2560    -5.0620    -1.7710 H     1 <1>   0.0800 
 42 H       -2.5990    -2.7200     1.7100 H     1 <1>   0.0800 
 43 H       -1.9670    -4.3180     1.9630 H     1 <1>   0.0800 
 44 H        5.6050    -4.0740    -1.4900 H     1 <1>   0.1500 
 45 H       -3.9930    -6.6070    -0.7860 H     1 <1>   0.0800 
 46 H       -4.5660    -4.9650    -0.9650 H     1 <1>   0.0800 
 47 H       -4.7710    -3.6430     1.0130 H     1 <1>   0.0800 
 48 H       -4.3170    -4.3760     2.5330 H     1 <1>   0.0800 
 49 H        7.6520    -1.6070     0.4460 H     1 <1>   0.0800 
 50 H        7.8330    -3.2880    -0.0080 H     1 <1>   0.0800 
 51 H        7.3210    -2.8670     1.6130 H     1 <1>   0.0800 
@<TRIPOS>BOND
  1   1   2  1   
  2   1   3  1   
  3   2   4  1   
  4   2   5  2   
  5   3   6  2   
  6   3   7  1   
  7   4   8  am  
  8   4  28  1   
  9   5   6  1   
 10   5   9  1   
 11   6  10  1   
 12   7  11  1   
 13   7  29  1   
 14   7  30  1   
 15   8  12  2   
 16   8  13  1   
 17   9  14  2   
 18   9  15  am  
 19  10  16  1   
 20  10  31  1   
 21  10  32  1   
 22  11  16  1   
 23  11  17  1   
 24  11  33  1   
 25  13  18  1   
 26  13  19  2   
 27  15  20  1   
 28  15  21  1   
 29  16  34  1   
 30  16  35  1   
 31  17  36  1   
 32  17  37  1   
 33  17  38  1   
 34  18  22  1   
 35  19  23  1   
 36  19  39  1   
 37  20  24  1   
 38  20  40  1   
 39  20  41  1   
 40  21  25  1   
 41  21  42  1   
 42  21  43  1   
 43  22  23  2   
 44  22  26  1   
 45  23  44  1   
 46  24  27  1   
 47  24  45  1   
 48  24  46  1   
 49  25  27  1   
 50  25  47  1   
 51  25  48  1   
 52  26  49  1   
 53  26  50  1   
 54  26  51  1   
@<TRIPOS>SUBSTRUCTURE
  1 ****   5 GROUP 4 **** **** 0

# MOE 2024.06 (io_trps.svl 2023.06)
