@<TRIPOS>MOLECULE
NONAME
47 48 1 0 0 
SMALL
USER_CHARGES


@<TRIPOS>ATOM
  1 O       -1.2690     4.8590    -0.1910 O.3   1 <1>  -0.3630 
  2 C       -0.0680     5.4730    -0.0490 C.ar  1 <1>   0.0820 
  3 C       -2.4710     5.5620    -0.0130 C.3   1 <1>   0.1200 
  4 C        0.0880     6.8150     0.2770 C.ar  1 <1>  -0.1500 
  5 C        1.0590     4.6940    -0.2440 C.ar  1 <1>  -0.1500 
  6 C       -3.6070     4.5660    -0.2480 C.3   1 <1>   0.3430 
  7 C        1.3570     7.3530     0.4010 C.ar  1 <1>  -0.1500 
  8 C        2.3230     5.2400    -0.1180 C.ar  1 <1>  -0.1500 
  9 N       -4.9470     5.2020    -0.0840 N.4   1 <1>  -0.9060 
 10 C        2.4990     6.5820     0.2070 C.ar  1 <1>  -0.1430 
 11 C       -6.0670     4.2650    -0.3050 C.3   1 <1>   0.4860 
 12 C        3.8910     7.2360     0.3590 C.3   1 <1>   0.1430 
 13 C       -7.3280     5.0690    -0.0990 C.ar  1 <1>  -0.1430 
 14 C        5.0510     6.2560     0.1150 C.3   1 <1>  -0.2400 
 15 C        4.0460     7.7910     1.7830 C.3   1 <1>  -0.2400 
 16 C        4.0340     8.3820    -0.6540 C.3   1 <1>  -0.2400 
 17 C       -7.9160     5.7310    -1.1680 C.ar  1 <1>  -0.1500 
 18 C       -7.9000     5.1610     1.1620 C.ar  1 <1>  -0.1500 
 19 C       -9.0590     6.4860    -0.9730 C.ar  1 <1>  -0.1500 
 20 C       -9.0430     5.9160     1.3540 C.ar  1 <1>  -0.1500 
 21 C       -9.6210     6.5800     0.2870 C.ar  1 <1>  -0.1500 
 22 H       -2.4990     6.3630    -0.7310 H     1 <1>   0.0800 
 23 H       -2.4880     5.9420     0.9940 H     1 <1>   0.0800 
 24 H       -0.7520     7.4610     0.4380 H     1 <1>   0.1500 
 25 H        0.9460     3.6560    -0.4960 H     1 <1>   0.1500 
 26 H       -3.5020     3.7540     0.4540 H     1 <1>   0.0800 
 27 H       -3.5140     4.1690    -1.2470 H     1 <1>   0.0800 
 28 H        1.4480     8.3940     0.6530 H     1 <1>   0.1500 
 29 H        3.1610     4.5880    -0.2810 H     1 <1>   0.1500 
 30 H       -5.0730     5.9860    -0.7360 H     1 <1>   0.4500 
 31 H       -5.0630     5.5970     0.8580 H     1 <1>   0.4500 
 32 H       -6.0280     3.4500     0.3990 H     1 <1>   0.0800 
 33 H       -6.0410     3.8670    -1.3070 H     1 <1>   0.0800 
 34 H        5.0060     5.8580    -0.8830 H     1 <1>   0.0800 
 35 H        5.0140     5.4440     0.8190 H     1 <1>   0.0800 
 36 H        5.9980     6.7530     0.2310 H     1 <1>   0.0800 
 37 H        3.9130     7.0010     2.5010 H     1 <1>   0.0800 
 38 H        3.3190     8.5550     1.9840 H     1 <1>   0.0800 
 39 H        5.0240     8.2170     1.9200 H     1 <1>   0.0800 
 40 H        3.8920     8.0090    -1.6520 H     1 <1>   0.0800 
 41 H        5.0110     8.8270    -0.5900 H     1 <1>   0.0800 
 42 H        3.3060     9.1520    -0.4750 H     1 <1>   0.0800 
 43 H       -7.5040     5.6700    -2.1610 H     1 <1>   0.1500 
 44 H       -7.4740     4.6480     2.0090 H     1 <1>   0.1500 
 45 H       -9.5190     7.0000    -1.8010 H     1 <1>   0.1500 
 46 H       -9.4890     5.9880     2.3320 H     1 <1>   0.1500 
 47 H      -10.5120     7.1670     0.4380 H     1 <1>   0.1500 
@<TRIPOS>BOND
  1   1   2  1   
  2   1   3  1   
  3   2   4  ar  
  4   2   5  ar  
  5   3   6  1   
  6   3  22  1   
  7   3  23  1   
  8   4   7  ar  
  9   4  24  1   
 10   5   8  ar  
 11   5  25  1   
 12   6   9  1   
 13   6  26  1   
 14   6  27  1   
 15   7  10  ar  
 16   7  28  1   
 17   8  10  ar  
 18   8  29  1   
 19   9  11  1   
 20   9  30  1   
 21   9  31  1   
 22  10  12  1   
 23  11  13  1   
 24  11  32  1   
 25  11  33  1   
 26  12  14  1   
 27  12  15  1   
 28  12  16  1   
 29  13  17  ar  
 30  13  18  ar  
 31  14  34  1   
 32  14  35  1   
 33  14  36  1   
 34  15  37  1   
 35  15  38  1   
 36  15  39  1   
 37  16  40  1   
 38  16  41  1   
 39  16  42  1   
 40  17  19  ar  
 41  17  43  1   
 42  18  20  ar  
 43  18  44  1   
 44  19  21  ar  
 45  19  45  1   
 46  20  21  ar  
 47  20  46  1   
 48  21  47  1   
@<TRIPOS>SUBSTRUCTURE
  1 ****   3 GROUP 4 **** **** 0

# MOE 2024.06 (io_trps.svl 2023.06)
