@<TRIPOS>MOLECULE
NONAME
44 45 1 0 0 
SMALL
USER_CHARGES


@<TRIPOS>ATOM
  1 O       -8.4700     0.6200    -0.1130 O.3   1 <1>  -0.3630 
  2 C       -8.6580    -0.7270    -0.1320 C.ar  1 <1>   0.0830 
  3 C       -7.2000     1.2030    -0.2690 C.3   1 <1>   0.1200 
  4 C       -9.9370    -1.2180     0.1390 C.ar  1 <1>  -0.1440 
  5 C       -7.6190    -1.6150    -0.4080 C.ar  1 <1>  -0.1500 
  6 C       -7.3580     2.7140    -0.1110 C.3   1 <1>  -0.1600 
  7 C      -10.1390    -2.5920     0.1310 C.ar  1 <1>  -0.1500 
  8 C      -11.1160    -0.2850     0.4460 C.3   1 <1>   0.0640 
  9 C       -7.8370    -2.9810    -0.4160 C.ar  1 <1>  -0.1430 
 10 C       -6.0040     3.4220    -0.2250 C.3   1 <1>   0.0960 
 11 C       -9.1030    -3.4650    -0.1420 C.ar  1 <1>  -0.1500 
 12 C      -11.6430    -0.5200     1.8650 C.3   1 <1>  -0.2400 
 13 C      -12.2380    -0.4580    -0.5850 C.3   1 <1>  -0.2400 
 14 C       -6.7020    -3.9440    -0.7150 C.3   1 <1>  -0.0970 
 15 N       -6.1690     4.8790    -0.0550 N.pl3 1 <1>   0.0480 
 16 C       -6.1260     5.6180     1.0830 C.2   1 <1>   0.0070 
 17 C       -6.4010     5.7730    -1.0330 C.2   1 <1>  -0.3020 
 18 N       -6.3090     6.8830     0.8880 N.2   1 <1>  -0.5650 
 19 C       -5.8890     5.0320     2.4600 C.3   1 <1>  -0.0600 
 20 C       -6.4830     6.9830    -0.4420 C.2   1 <1>   0.0770 
 21 H       -6.8320     0.9540    -1.2490 H     1 <1>   0.0800 
 22 H       -6.5510     0.8030     0.4910 H     1 <1>   0.0800 
 23 H       -6.6310    -1.2600    -0.6220 H     1 <1>   0.1500 
 24 H       -7.7900     2.9200     0.8530 H     1 <1>   0.0800 
 25 H       -8.0180     3.0790    -0.8780 H     1 <1>   0.0800 
 26 H      -11.1130    -2.9960     0.3390 H     1 <1>   0.1500 
 27 H      -10.7980     0.7410     0.3930 H     1 <1>   0.0800 
 28 H       -5.5700     3.2390    -1.1920 H     1 <1>   0.0800 
 29 H       -5.3270     3.0590     0.5270 H     1 <1>   0.0800 
 30 H       -9.2890    -4.5250    -0.1400 H     1 <1>   0.1500 
 31 H      -12.0410    -1.5130     1.9690 H     1 <1>   0.0800 
 32 H      -12.4180     0.1880     2.0960 H     1 <1>   0.0800 
 33 H      -10.8430    -0.3950     2.5730 H     1 <1>   0.0800 
 34 H      -12.6600    -1.4450    -0.5360 H     1 <1>   0.0800 
 35 H      -11.8470    -0.3000    -1.5740 H     1 <1>   0.0800 
 36 H      -13.0190     0.2600    -0.4080 H     1 <1>   0.0800 
 37 H       -5.9690    -3.4800    -1.3500 H     1 <1>   0.0800 
 38 H       -7.0760    -4.8190    -1.2150 H     1 <1>   0.0800 
 39 H       -6.2280    -4.2440     0.2020 H     1 <1>   0.0800 
 40 H       -6.4950     5.5090    -2.0700 H     1 <1>   0.1500 
 41 H       -4.9220     4.5650     2.5020 H     1 <1>   0.0800 
 42 H       -6.6490     4.3090     2.6910 H     1 <1>   0.0800 
 43 H       -5.9240     5.8140     3.1960 H     1 <1>   0.0800 
 44 H       -6.6600     7.9380    -0.9100 H     1 <1>   0.1500 
@<TRIPOS>BOND
  1   1   2  1   
  2   1   3  1   
  3   2   4  ar  
  4   2   5  ar  
  5   3   6  1   
  6   3  21  1   
  7   3  22  1   
  8   4   7  ar  
  9   4   8  1   
 10   5   9  ar  
 11   5  23  1   
 12   6  10  1   
 13   6  24  1   
 14   6  25  1   
 15   7  11  ar  
 16   7  26  1   
 17   8  12  1   
 18   8  13  1   
 19   8  27  1   
 20   9  11  ar  
 21   9  14  1   
 22  10  15  1   
 23  10  28  1   
 24  10  29  1   
 25  11  30  1   
 26  12  31  1   
 27  12  32  1   
 28  12  33  1   
 29  13  34  1   
 30  13  35  1   
 31  13  36  1   
 32  14  37  1   
 33  14  38  1   
 34  14  39  1   
 35  15  16  1   
 36  15  17  1   
 37  16  18  2   
 38  16  19  1   
 39  17  20  2   
 40  17  40  1   
 41  18  20  1   
 42  19  41  1   
 43  19  42  1   
 44  19  43  1   
 45  20  44  1   
@<TRIPOS>SUBSTRUCTURE
  1 ****   1 GROUP 4 **** **** 0

# MOE 2024.06 (io_trps.svl 2023.06)
