@<TRIPOS>MOLECULE
NONAME
56 58 1 0 0 
SMALL
USER_CHARGES


@<TRIPOS>ATOM
  1 O       -0.2080     0.9080    -0.7560 O.2   1 <1>  -0.5700 
  2 C       -0.3820     2.0200    -0.2990 C.2   1 <1>   0.5440 
  3 N        0.6090     2.6290     0.4250 N.am  1 <1>  -0.7300 
  4 C       -1.6410     2.7030    -0.5320 C.ar  1 <1>   0.0860 
  5 C        1.9340     2.0910     0.8010 C.3   1 <1>   0.2200 
  6 C       -2.3290     2.5370    -1.7320 C.ar  1 <1>  -0.1500 
  7 C       -2.2210     3.5350     0.4260 C.ar  1 <1>  -0.1500 
  8 C        2.7730     1.8170    -0.4570 C.3   1 <1>  -0.1600 
  9 C        1.7540     0.8660     1.6990 C.3   1 <1>  -0.2400 
 10 C       -3.5390     3.1610    -1.9680 C.ar  1 <1>  -0.1500 
 11 C       -3.4330     4.1630     0.2000 C.ar  1 <1>  -0.1500 
 12 C        4.2500     1.5300    -0.1460 C.3   1 <1>  -0.2400 
 13 C       -4.1070     3.9710    -0.9970 C.ar  1 <1>  -0.1440 
 14 C       -5.4570     4.6200    -1.2390 C.3   1 <1>   0.4860 
 15 N       -6.4860     3.8670    -0.4720 N.4   1 <1>  -0.9590 
 16 C       -6.5740     2.4240    -0.9240 C.3   1 <1>   0.3430 
 17 C       -7.8370     4.5390    -0.5390 C.3   1 <1>   0.3430 
 18 C       -7.6570     1.6280    -0.1670 C.3   1 <1>   0.2090 
 19 C       -8.9300     3.7570     0.2200 C.3   1 <1>   0.2090 
 20 N       -8.9660     2.3380    -0.2310 N.pl3 1 <1>  -0.8380 
 21 C      -10.0830     1.6020     0.1470 C.ar  1 <1>   0.1000 
 22 C      -10.2940     1.2260     1.4690 C.ar  1 <1>  -0.1500 
 23 C      -11.0160     1.2310    -0.8110 C.ar  1 <1>  -0.1500 
 24 C      -11.4130     0.4950     1.8230 C.ar  1 <1>  -0.1500 
 25 C      -12.1360     0.5000    -0.4610 C.ar  1 <1>  -0.1500 
 26 C      -12.3370     0.1300     0.8580 C.ar  1 <1>  -0.1500 
 27 H        0.4880     3.6120     0.6640 H     1 <1>   0.3700 
 28 H        2.4370     2.8510     1.3770 H     1 <1>   0.0800 
 29 H       -1.8950     1.9010    -2.4880 H     1 <1>   0.1500 
 30 H       -1.7170     3.6810     1.3660 H     1 <1>   0.1500 
 31 H        2.7240     2.6770    -1.1000 H     1 <1>   0.0800 
 32 H        2.3610     0.9780    -0.9910 H     1 <1>   0.0800 
 33 H        1.3430     0.0440     1.1400 H     1 <1>   0.0800 
 34 H        1.0980     1.0990     2.5180 H     1 <1>   0.0800 
 35 H        2.7000     0.5580     2.1030 H     1 <1>   0.0800 
 36 H       -4.0270     3.0010    -2.9160 H     1 <1>   0.1500 
 37 H       -3.8380     4.7990     0.9700 H     1 <1>   0.1500 
 38 H        4.6860     2.3420     0.4070 H     1 <1>   0.0800 
 39 H        4.7970     1.4110    -1.0650 H     1 <1>   0.0800 
 40 H        4.3510     0.6230     0.4230 H     1 <1>   0.0800 
 41 H       -5.6900     4.6040    -2.2920 H     1 <1>   0.0800 
 42 H       -5.4250     5.6470    -0.9120 H     1 <1>   0.0800 
 43 H       -6.1800     3.8470     0.5070 H     1 <1>   0.4500 
 44 H       -5.6240     1.9340    -0.7840 H     1 <1>   0.0800 
 45 H       -6.8120     2.3880    -1.9740 H     1 <1>   0.0800 
 46 H       -8.1470     4.6220    -1.5670 H     1 <1>   0.0800 
 47 H       -7.7740     5.5350    -0.1320 H     1 <1>   0.0800 
 48 H       -7.3650     1.4940     0.8600 H     1 <1>   0.0800 
 49 H       -7.7610     0.6520    -0.6110 H     1 <1>   0.0800 
 50 H       -9.8900     4.2100     0.0340 H     1 <1>   0.0800 
 51 H       -8.7460     3.7970     1.2800 H     1 <1>   0.0800 
 52 H       -9.5830     1.5040     2.2230 H     1 <1>   0.1500 
 53 H      -10.8580     1.5180    -1.8340 H     1 <1>   0.1500 
 54 H      -11.5700     0.2070     2.8490 H     1 <1>   0.1500 
 55 H      -12.8530     0.2170    -1.2130 H     1 <1>   0.1500 
 56 H      -13.2080    -0.4380     1.1320 H     1 <1>   0.1500 
@<TRIPOS>BOND
  1   1   2  2   
  2   2   3  am  
  3   2   4  1   
  4   3   5  1   
  5   3  27  1   
  6   4   6  ar  
  7   4   7  ar  
  8   5   8  1   
  9   5   9  1   
 10   5  28  1   
 11   6  10  ar  
 12   6  29  1   
 13   7  11  ar  
 14   7  30  1   
 15   8  12  1   
 16   8  31  1   
 17   8  32  1   
 18   9  33  1   
 19   9  34  1   
 20   9  35  1   
 21  10  13  ar  
 22  10  36  1   
 23  11  13  ar  
 24  11  37  1   
 25  12  38  1   
 26  12  39  1   
 27  12  40  1   
 28  13  14  1   
 29  14  15  1   
 30  14  41  1   
 31  14  42  1   
 32  15  16  1   
 33  15  17  1   
 34  15  43  1   
 35  16  18  1   
 36  16  44  1   
 37  16  45  1   
 38  17  19  1   
 39  17  46  1   
 40  17  47  1   
 41  18  20  1   
 42  18  48  1   
 43  18  49  1   
 44  19  20  1   
 45  19  50  1   
 46  19  51  1   
 47  20  21  1   
 48  21  22  ar  
 49  21  23  ar  
 50  22  24  ar  
 51  22  52  1   
 52  23  25  ar  
 53  23  53  1   
 54  24  26  ar  
 55  24  54  1   
 56  25  26  ar  
 57  25  55  1   
 58  26  56  1   
@<TRIPOS>SUBSTRUCTURE
  1 ****  16 GROUP 4 **** **** 0

# MOE 2024.06 (io_trps.svl 2023.06)
