@<TRIPOS>MOLECULE
NONAME
45 46 1 0 0 
SMALL
USER_CHARGES


@<TRIPOS>ATOM
  1 O        7.2700     2.7400     1.0530 O.3   1 <1>  -0.3630 
  2 C        7.8680     1.8060     0.2670 C.ar  1 <1>   0.0830 
  3 C        6.3530     3.6330     0.4480 C.3   1 <1>   0.2640 
  4 C        8.7440     2.1580    -0.7660 C.ar  1 <1>   0.0820 
  5 C        7.5960     0.4710     0.5320 C.ar  1 <1>  -0.1440 
  6 C        5.0460     2.8870     0.2190 C.ar  1 <1>  -0.1440 
  7 O        9.0210     3.4780    -0.9630 O.3   1 <1>  -0.3630 
  8 C        9.3120     1.1530    -1.5420 C.ar  1 <1>  -0.1500 
  9 C        8.1790    -0.5190    -0.2450 C.ar  1 <1>  -0.1500 
 10 C        6.6690     0.1090     1.6690 C.3   1 <1>   0.4870 
 11 C        4.0650     2.8720     1.1980 C.ar  1 <1>  -0.1500 
 12 C        4.8280     2.2110    -0.9720 C.ar  1 <1>  -0.1500 
 13 C       10.0680     3.8970    -1.8080 C.3   1 <1>   0.1200 
 14 C        9.0280    -0.1760    -1.2820 C.ar  1 <1>  -0.1500 
 15 N        5.3230    -0.1040     1.0960 N.4   1 <1>  -0.9060 
 16 C        2.8820     2.1840     0.9910 C.ar  1 <1>  -0.1500 
 17 C        3.6470     1.5190    -1.1760 C.ar  1 <1>  -0.1500 
 18 C       10.1840     5.4130    -1.6950 C.3   1 <1>  -0.2400 
 19 C        4.3290    -0.6340     2.0650 C.3   1 <1>   0.2630 
 20 C        2.6700     1.4990    -0.1940 C.ar  1 <1>  -0.1430 
 21 C        1.3660     0.7590    -0.4350 C.3   1 <1>  -0.0970 
 22 H        6.7530     4.0090    -0.4760 H     1 <1>   0.0800 
 23 H        6.2090     4.4600     1.1200 H     1 <1>   0.0800 
 24 H        9.9800     1.3810    -2.3520 H     1 <1>   0.1500 
 25 H        7.9880    -1.5620    -0.0550 H     1 <1>   0.1500 
 26 H        6.6460     0.9050     2.3950 H     1 <1>   0.0800 
 27 H        7.0200    -0.7900     2.1480 H     1 <1>   0.0800 
 28 H        4.2140     3.4080     2.1210 H     1 <1>   0.1500 
 29 H        5.5770     2.2280    -1.7490 H     1 <1>   0.1500 
 30 H        9.8310     3.6100    -2.8180 H     1 <1>   0.0800 
 31 H       10.9790     3.4210    -1.4860 H     1 <1>   0.0800 
 32 H        9.4790    -0.9460    -1.8870 H     1 <1>   0.1500 
 33 H        5.4100    -0.7020     0.2680 H     1 <1>   0.4500 
 34 H        4.9960     0.8120     0.7280 H     1 <1>   0.4500 
 35 H        2.1190     2.1990     1.7520 H     1 <1>   0.1500 
 36 H        3.4850     1.0100    -2.1120 H     1 <1>   0.1500 
 37 H        9.2670     5.8800    -2.0070 H     1 <1>   0.0800 
 38 H       10.9800     5.7660    -2.3250 H     1 <1>   0.0800 
 39 H       10.4030     5.6920    -0.6790 H     1 <1>   0.0800 
 40 H        4.6350    -1.6010     2.4300 H     1 <1>   0.0800 
 41 H        3.3670    -0.7310     1.5880 H     1 <1>   0.0800 
 42 H        4.2280     0.0400     2.9010 H     1 <1>   0.0800 
 43 H        0.6960     1.3860    -0.9980 H     1 <1>   0.0800 
 44 H        0.8910     0.5030     0.4950 H     1 <1>   0.0800 
 45 H        1.5380    -0.1440    -0.9930 H     1 <1>   0.0800 
@<TRIPOS>BOND
  1   1   2  1   
  2   1   3  1   
  3   2   4  ar  
  4   2   5  ar  
  5   3   6  1   
  6   3  22  1   
  7   3  23  1   
  8   4   7  1   
  9   4   8  ar  
 10   5   9  ar  
 11   5  10  1   
 12   6  11  ar  
 13   6  12  ar  
 14   7  13  1   
 15   8  14  ar  
 16   8  24  1   
 17   9  14  ar  
 18   9  25  1   
 19  10  15  1   
 20  10  26  1   
 21  10  27  1   
 22  11  16  ar  
 23  11  28  1   
 24  12  17  ar  
 25  12  29  1   
 26  13  18  1   
 27  13  30  1   
 28  13  31  1   
 29  14  32  1   
 30  15  19  1   
 31  15  33  1   
 32  15  34  1   
 33  16  20  ar  
 34  16  35  1   
 35  17  20  ar  
 36  17  36  1   
 37  18  37  1   
 38  18  38  1   
 39  18  39  1   
 40  19  40  1   
 41  19  41  1   
 42  19  42  1   
 43  20  21  1   
 44  21  43  1   
 45  21  44  1   
 46  21  45  1   
@<TRIPOS>SUBSTRUCTURE
  1 ****   2 GROUP 4 **** **** 0

# MOE 2024.06 (io_trps.svl 2023.06)
