@<TRIPOS>MOLECULE
NONAME
36 36 1 0 0 
SMALL
USER_CHARGES


@<TRIPOS>ATOM
  1 S        0.3850     0.2920    -0.9710 S.o2  1 <1>   1.4470 
  2 O       -0.9020    -0.3720    -0.9800 O.2   1 <1>  -0.6500 
  3 O        0.7580     1.0870    -2.1220 O.2   1 <1>  -0.6500 
  4 N        0.4010     1.3570     0.3530 N.am  1 <1>  -0.8490 
  5 C        1.6990    -0.9110    -0.5740 C.ar  1 <1>  -0.0090 
  6 C       -0.7710     2.2360     0.3370 C.3   1 <1>   0.1960 
  7 C        1.6600     2.1050     0.4580 C.3   1 <1>   0.1960 
  8 C        1.6140    -1.8150     0.4890 C.ar  1 <1>  -0.1440 
  9 C        2.8570    -0.9270    -1.3440 C.ar  1 <1>  -0.1500 
 10 C       -0.9830     2.8810     1.7060 C.3   1 <1>  -0.2400 
 11 C        2.3330     1.7370     1.7750 C.3   1 <1>  -0.2400 
 12 C        2.6580    -2.6910     0.7400 C.ar  1 <1>  -0.1500 
 13 C        0.3910    -1.8760     1.3970 C.3   1 <1>  -0.0970 
 14 C        3.9260    -1.7890    -1.1070 C.ar  1 <1>   0.0860 
 15 C        3.7930    -2.6800    -0.0450 C.ar  1 <1>  -0.1500 
 16 C        5.1200    -1.7460    -1.9380 C.2   1 <1>   0.5440 
 17 O        5.1180    -1.2190    -3.0290 O.2   1 <1>  -0.5700 
 18 N        6.3010    -2.2710    -1.5400 N.am  1 <1>  -0.8000 
 19 H       -1.6530     1.6590     0.1110 H     1 <1>   0.0800 
 20 H       -0.6650     2.9860    -0.4300 H     1 <1>   0.0800 
 21 H        1.4850     3.1670     0.4210 H     1 <1>   0.0800 
 22 H        2.3280     1.8670    -0.3540 H     1 <1>   0.0800 
 23 H        2.9400    -0.2400    -2.1710 H     1 <1>   0.1500 
 24 H       -1.0430     2.1200     2.4640 H     1 <1>   0.0800 
 25 H       -1.9070     3.4290     1.7020 H     1 <1>   0.0800 
 26 H       -0.1910     3.5650     1.9450 H     1 <1>   0.0800 
 27 H        2.5620     0.6880     1.7990 H     1 <1>   0.0800 
 28 H        1.6930     1.9790     2.6040 H     1 <1>   0.0800 
 29 H        3.2500     2.2880     1.8790 H     1 <1>   0.0800 
 30 H        2.5900    -3.3940     1.5530 H     1 <1>   0.1500 
 31 H       -0.4680    -2.2080     0.8400 H     1 <1>   0.0800 
 32 H        0.1800    -0.9090     1.8160 H     1 <1>   0.0800 
 33 H        0.5440    -2.5610     2.2110 H     1 <1>   0.0800 
 34 H        4.5800    -3.3790     0.1710 H     1 <1>   0.1500 
 35 H        7.1040    -2.1840    -2.1650 H     1 <1>   0.3700 
 36 H        6.4820    -2.6450    -0.6100 H     1 <1>   0.3700 
@<TRIPOS>BOND
  1   1   2  2   
  2   1   3  2   
  3   1   4  am  
  4   1   5  1   
  5   4   6  1   
  6   4   7  1   
  7   5   8  ar  
  8   5   9  ar  
  9   6  10  1   
 10   6  19  1   
 11   6  20  1   
 12   7  11  1   
 13   7  21  1   
 14   7  22  1   
 15   8  12  ar  
 16   8  13  1   
 17   9  14  ar  
 18   9  23  1   
 19  10  24  1   
 20  10  25  1   
 21  10  26  1   
 22  11  27  1   
 23  11  28  1   
 24  11  29  1   
 25  12  15  ar  
 26  12  30  1   
 27  13  31  1   
 28  13  32  1   
 29  13  33  1   
 30  14  15  ar  
 31  14  16  1   
 32  15  34  1   
 33  16  17  2   
 34  16  18  am  
 35  18  35  1   
 36  18  36  1   
@<TRIPOS>SUBSTRUCTURE
  1 ****   5 GROUP 4 **** **** 0

# MOE 2024.06 (io_trps.svl 2023.06)
