@<TRIPOS>MOLECULE
NONAME
49 50 1 0 0 
SMALL
USER_CHARGES


@<TRIPOS>ATOM
  1 N       -0.3330     0.0690    -0.1040 N.4   1 <1>  -0.9590 
  2 C       -1.4890     0.7640     0.5230 C.3   1 <1>   0.3430 
  3 C       -0.1360    -1.3030     0.4430 C.3   1 <1>   0.3430 
  4 C        0.9000     0.9020     0.0510 C.3   1 <1>   0.3430 
  5 C       -2.7720    -0.0440     0.3140 C.3   1 <1>  -0.1600 
  6 C       -1.3980    -2.1380     0.2240 C.3   1 <1>  -0.1600 
  7 C        1.9910     0.4320    -0.9140 C.3   1 <1>  -0.1600 
  8 C       -2.6420    -1.4820     0.8440 C.3   1 <1>   0.4230 
  9 C        3.2110     1.3560    -0.8440 C.3   1 <1>  -0.2400 
 10 N       -3.8700    -2.2870     0.5290 N.4   1 <1>  -0.9590 
 11 C       -5.1590    -1.6830     1.0040 C.3   1 <1>   0.4860 
 12 C       -3.8070    -3.7020     1.0090 C.3   1 <1>   0.3430 
 13 C       -6.2980    -2.3540     0.2640 C.ar  1 <1>  -0.1430 
 14 C       -3.7590    -4.6260    -0.2010 C.3   1 <1>  -0.2400 
 15 C       -6.5220    -2.0690    -1.0760 C.ar  1 <1>  -0.1500 
 16 C       -7.1200    -3.2630     0.9170 C.ar  1 <1>  -0.1500 
 17 C       -7.5460    -2.7020    -1.7590 C.ar  1 <1>  -0.1500 
 18 C       -8.1420    -3.8930     0.2300 C.ar  1 <1>  -0.1500 
 19 C       -8.3530    -3.6150    -1.1070 C.ar  1 <1>  -0.1500 
 20 H       -0.4990     0.0020    -1.1200 H     1 <1>   0.4500 
 21 H       -1.6070     1.7450     0.0870 H     1 <1>   0.0800 
 22 H       -1.3060     0.8910     1.5790 H     1 <1>   0.0800 
 23 H        0.0900    -1.2470     1.4960 H     1 <1>   0.0800 
 24 H        0.6960    -1.7820    -0.0500 H     1 <1>   0.0800 
 25 H        1.2630     0.8530     1.0660 H     1 <1>   0.0800 
 26 H        0.6720     1.9330    -0.1720 H     1 <1>   0.0800 
 27 H       -3.0120    -0.0480    -0.7350 H     1 <1>   0.0800 
 28 H       -3.5500     0.4810     0.8370 H     1 <1>   0.0800 
 29 H       -1.2170    -3.0980     0.6730 H     1 <1>   0.0800 
 30 H       -1.5360    -2.2830    -0.8330 H     1 <1>   0.0800 
 31 H        1.6180     0.4400    -1.9240 H     1 <1>   0.0800 
 32 H        2.3130    -0.5640    -0.6690 H     1 <1>   0.0800 
 33 H       -2.5140    -1.4440     1.9160 H     1 <1>   0.0800 
 34 H        2.9470     2.3650    -1.1130 H     1 <1>   0.0800 
 35 H        3.9700     1.0160    -1.5290 H     1 <1>   0.0800 
 36 H        3.6350     1.3620     0.1460 H     1 <1>   0.0800 
 37 H       -3.9850    -2.3560    -0.4910 H     1 <1>   0.4500 
 38 H       -5.1990    -0.6300     0.7860 H     1 <1>   0.0800 
 39 H       -5.2740    -1.8180     2.0670 H     1 <1>   0.0800 
 40 H       -4.6810    -3.9440     1.5950 H     1 <1>   0.0800 
 41 H       -2.9410    -3.8600     1.6310 H     1 <1>   0.0800 
 42 H       -4.6500    -4.5240    -0.7960 H     1 <1>   0.0800 
 43 H       -3.7140    -5.6460     0.1380 H     1 <1>   0.0800 
 44 H       -2.8930    -4.4430    -0.8090 H     1 <1>   0.0800 
 45 H       -5.9190    -1.3550    -1.6080 H     1 <1>   0.1500 
 46 H       -6.9830    -3.4930     1.9600 H     1 <1>   0.1500 
 47 H       -7.7220    -2.4830    -2.8000 H     1 <1>   0.1500 
 48 H       -8.7800    -4.6000     0.7350 H     1 <1>   0.1500 
 49 H       -9.1500    -4.1070    -1.6400 H     1 <1>   0.1500 
@<TRIPOS>BOND
  1   1   2  1   
  2   1   3  1   
  3   1   4  1   
  4   1  20  1   
  5   2   5  1   
  6   2  21  1   
  7   2  22  1   
  8   3   6  1   
  9   3  23  1   
 10   3  24  1   
 11   4   7  1   
 12   4  25  1   
 13   4  26  1   
 14   5   8  1   
 15   5  27  1   
 16   5  28  1   
 17   6   8  1   
 18   6  29  1   
 19   6  30  1   
 20   7   9  1   
 21   7  31  1   
 22   7  32  1   
 23   8  10  1   
 24   8  33  1   
 25   9  34  1   
 26   9  35  1   
 27   9  36  1   
 28  10  11  1   
 29  10  12  1   
 30  10  37  1   
 31  11  13  1   
 32  11  38  1   
 33  11  39  1   
 34  12  14  1   
 35  12  40  1   
 36  12  41  1   
 37  13  15  ar  
 38  13  16  ar  
 39  14  42  1   
 40  14  43  1   
 41  14  44  1   
 42  15  17  ar  
 43  15  45  1   
 44  16  18  ar  
 45  16  46  1   
 46  17  19  ar  
 47  17  47  1   
 48  18  19  ar  
 49  18  48  1   
 50  19  49  1   
@<TRIPOS>SUBSTRUCTURE
  1 ****  10 GROUP 4 **** **** 0

# MOE 2024.06 (io_trps.svl 2023.06)
