@<TRIPOS>MOLECULE
NONAME
62 64 1 0 0 
SMALL
USER_CHARGES


@<TRIPOS>ATOM
  1 O       -0.3980    -3.8140    -0.8140 O.3   1 <1>  -0.5600 
  2 C       -1.7900    -3.7610    -0.8820 C.3   1 <1>   0.2000 
  3 C        0.2820    -2.8120    -1.5090 C.3   1 <1>   0.1200 
  4 C       -2.3130    -2.8030     0.1990 C.3   1 <1>  -0.1600 
  5 C       -2.3030    -5.1840    -0.6550 C.3   1 <1>  -0.1600 
  6 C        1.7870    -3.0420    -1.3190 C.3   1 <1>   0.2000 
  7 C       -3.8530    -2.8070     0.3040 C.3   1 <1>   0.0000 
  8 C       -3.8380    -5.2250    -0.6010 C.3   1 <1>  -0.0800 
  9 O        2.0220    -3.2900     0.0330 O.3   1 <1>  -0.6800 
 10 C        2.6510    -1.8460    -1.7710 C.3   1 <1>   0.3430 
 11 C       -4.3660    -4.2540     0.4720 C.3   1 <1>  -0.1600 
 12 C       -4.2690    -1.9890     1.5360 C.3   1 <1>  -0.2400 
 13 C       -4.4850    -2.1450    -0.9340 C.3   1 <1>  -0.2400 
 14 C       -4.3220    -6.6510    -0.3130 C.3   1 <1>  -0.2400 
 15 N        3.9690    -1.8590    -1.0640 N.4   1 <1>  -0.9590 
 16 C        4.6030    -0.4970    -0.9600 C.3   1 <1>   0.3430 
 17 C        4.9270    -2.8810    -1.6200 C.3   1 <1>   0.3430 
 18 C        5.9470    -0.5270    -0.2050 C.3   1 <1>   0.2090 
 19 C        6.2690    -2.9050    -0.8600 C.3   1 <1>   0.2090 
 20 N        6.8760    -1.5430    -0.7840 N.pl3 1 <1>  -0.8380 
 21 C        8.1420    -1.5210    -0.2410 C.ar  1 <1>   0.4100 
 22 N        8.2340    -1.8500     1.0400 N.ar  1 <1>  -0.6200 
 23 C        9.2310    -1.1680    -1.0310 C.ar  1 <1>  -0.1500 
 24 C        9.4560    -1.8240     1.5480 C.ar  1 <1>   0.1600 
 25 C       10.4940    -1.1460    -0.4890 C.ar  1 <1>  -0.1500 
 26 C       10.5990    -1.4870     0.8450 C.ar  1 <1>  -0.1500 
 27 H       -2.0840    -3.4310    -1.8650 H     1 <1>   0.0800 
 28 H       -0.0070    -1.8540    -1.1120 H     1 <1>   0.0800 
 29 H        0.0160    -2.8670    -2.5510 H     1 <1>   0.0800 
 30 H       -1.9790    -1.8020     0.0000 H     1 <1>   0.0800 
 31 H       -1.9020    -3.1120     1.1450 H     1 <1>   0.0800 
 32 H       -1.9060    -5.5560     0.2740 H     1 <1>   0.0800 
 33 H       -1.9560    -5.8160    -1.4530 H     1 <1>   0.0800 
 34 H        2.0720    -3.9250    -1.8650 H     1 <1>   0.0800 
 35 H       -4.2260    -4.9340    -1.5620 H     1 <1>   0.0800 
 36 H        1.2500    -3.8170     0.3570 H     1 <1>   0.4000 
 37 H        2.1230    -0.9420    -1.5160 H     1 <1>   0.0800 
 38 H        2.7860    -1.8620    -2.8400 H     1 <1>   0.0800 
 39 H       -5.4420    -4.2590     0.4580 H     1 <1>   0.0800 
 40 H       -4.0580    -4.6190     1.4370 H     1 <1>   0.0800 
 41 H       -3.8500    -2.4110     2.4330 H     1 <1>   0.0800 
 42 H       -5.3400    -1.9790     1.6390 H     1 <1>   0.0800 
 43 H       -3.9270    -0.9730     1.4510 H     1 <1>   0.0800 
 44 H       -5.5570    -2.1400    -0.8470 H     1 <1>   0.0800 
 45 H       -4.2290    -2.6600    -1.8400 H     1 <1>   0.0800 
 46 H       -4.1540    -1.1250    -1.0250 H     1 <1>   0.0800 
 47 H       -3.9560    -6.9930     0.6390 H     1 <1>   0.0800 
 48 H       -3.9740    -7.3250    -1.0760 H     1 <1>   0.0800 
 49 H       -5.3970    -6.6830    -0.3000 H     1 <1>   0.0800 
 50 H        3.7230    -2.1880    -0.1090 H     1 <1>   0.4500 
 51 H        3.9340     0.1790    -0.4530 H     1 <1>   0.0800 
 52 H        4.7850    -0.1080    -1.9470 H     1 <1>   0.0800 
 53 H        5.1320    -2.6600    -2.6530 H     1 <1>   0.0800 
 54 H        4.4830    -3.8620    -1.5690 H     1 <1>   0.0800 
 55 H        5.7740    -0.7500     0.8350 H     1 <1>   0.0800 
 56 H        6.4090     0.4440    -0.2580 H     1 <1>   0.0800 
 57 H        6.9530    -3.5690    -1.3620 H     1 <1>   0.0800 
 58 H        6.1150    -3.2870     0.1350 H     1 <1>   0.0800 
 59 H        9.0670    -0.9150    -2.0610 H     1 <1>   0.1500 
 60 H        9.5540    -2.0880     2.5880 H     1 <1>   0.1500 
 61 H       11.3580    -0.8770    -1.0720 H     1 <1>   0.1500 
 62 H       11.5570    -1.4900     1.3330 H     1 <1>   0.1500 
@<TRIPOS>BOND
  1   1   2  1   
  2   1   3  1   
  3   2   4  1   
  4   2   5  1   
  5   2  27  1   
  6   3   6  1   
  7   3  28  1   
  8   3  29  1   
  9   4   7  1   
 10   4  30  1   
 11   4  31  1   
 12   5   8  1   
 13   5  32  1   
 14   5  33  1   
 15   6   9  1   
 16   6  10  1   
 17   6  34  1   
 18   7  11  1   
 19   7  12  1   
 20   7  13  1   
 21   8  11  1   
 22   8  14  1   
 23   8  35  1   
 24   9  36  1   
 25  10  15  1   
 26  10  37  1   
 27  10  38  1   
 28  11  39  1   
 29  11  40  1   
 30  12  41  1   
 31  12  42  1   
 32  12  43  1   
 33  13  44  1   
 34  13  45  1   
 35  13  46  1   
 36  14  47  1   
 37  14  48  1   
 38  14  49  1   
 39  15  16  1   
 40  15  17  1   
 41  15  50  1   
 42  16  18  1   
 43  16  51  1   
 44  16  52  1   
 45  17  19  1   
 46  17  53  1   
 47  17  54  1   
 48  18  20  1   
 49  18  55  1   
 50  18  56  1   
 51  19  20  1   
 52  19  57  1   
 53  19  58  1   
 54  20  21  1   
 55  21  22  ar  
 56  21  23  ar  
 57  22  24  ar  
 58  23  25  ar  
 59  23  59  1   
 60  24  26  ar  
 61  24  60  1   
 62  25  26  ar  
 63  25  61  1   
 64  26  62  1   
@<TRIPOS>SUBSTRUCTURE
  1 ****   9 GROUP 4 **** **** 0

# MOE 2024.06 (io_trps.svl 2023.06)
