@<TRIPOS>MOLECULE
NONAME
41 41 1 0 0 
SMALL
USER_CHARGES


@<TRIPOS>ATOM
  1 S        0.5040     0.9440    -1.0290 S.o2  1 <1>   1.4470 
  2 O        1.1560     2.0260    -1.7320 O.2   1 <1>  -0.6500 
  3 O        0.6040    -0.4160    -1.5070 O.2   1 <1>  -0.6500 
  4 N        1.1390     0.8810     0.5250 N.am  1 <1>  -0.9140 
  5 C       -1.2340     1.3720    -0.7400 C.ar  1 <1>  -0.0090 
  6 C        2.5470     1.2320     0.6460 C.3   1 <1>   0.1960 
  7 C       -2.2680     0.5520    -1.1810 C.ar  1 <1>  -0.1500 
  8 C       -1.5810     2.5420    -0.0730 C.ar  1 <1>  -0.1500 
  9 C        3.4400     0.1000     0.1330 C.3   1 <1>  -0.1600 
 10 C       -3.5930     0.8840    -0.9600 C.ar  1 <1>  -0.1500 
 11 C       -2.9040     2.8780     0.1520 C.ar  1 <1>  -0.1500 
 12 C        4.9190     0.4190     0.3870 C.3   1 <1>  -0.1600 
 13 C       -3.9280     2.0490    -0.2840 C.ar  1 <1>   0.1170 
 14 C        5.8250    -0.7270    -0.0780 C.3   1 <1>  -0.1600 
 15 N       -5.2590     2.4100    -0.0530 N.am  1 <1>  -0.5470 
 16 C        7.3060    -0.3990     0.1730 C.3   1 <1>  -0.2660 
 17 C       -6.2930     1.7090     0.4800 C.2   1 <1>   0.5690 
 18 C        8.2280    -1.5190    -0.2560 C.2   1 <1>   0.9060 
 19 O       -7.3840     2.2100     0.5490 O.2   1 <1>  -0.5700 
 20 C       -6.0970     0.3090     1.0130 C.3   1 <1>  -0.1790 
 21 O        8.7340    -2.2330     0.6150 O.co2 1 <1>  -0.9000 
 22 O        8.4450    -1.6740    -1.4610 O.co2 1 <1>  -0.9000 
 23 H        1.0540    -0.1010     0.7780 H     1 <1>   0.4200 
 24 H        2.7640     1.3960     1.6880 H     1 <1>   0.0800 
 25 H        2.7580     2.1500     0.1220 H     1 <1>   0.0800 
 26 H       -2.0310    -0.3580    -1.7080 H     1 <1>   0.1500 
 27 H       -0.7980     3.1960     0.2750 H     1 <1>   0.1500 
 28 H        3.2940    -0.0350    -0.9250 H     1 <1>   0.0800 
 29 H        3.1900    -0.8170     0.6360 H     1 <1>   0.0800 
 30 H       -4.3710     0.2380    -1.3250 H     1 <1>   0.1500 
 31 H       -3.1440     3.7880     0.6730 H     1 <1>   0.1500 
 32 H        5.0810     0.5870     1.4380 H     1 <1>   0.0800 
 33 H        5.1900     1.3170    -0.1430 H     1 <1>   0.0800 
 34 H        5.6840    -0.9080    -1.1310 H     1 <1>   0.0800 
 35 H        5.5770    -1.6330     0.4490 H     1 <1>   0.0800 
 36 H       -5.5170     3.3730    -0.2720 H     1 <1>   0.3700 
 37 H        7.4750    -0.2180     1.2170 H     1 <1>   0.0800 
 38 H        7.5890     0.4770    -0.3770 H     1 <1>   0.0800 
 39 H       -5.1430     0.2220     1.4970 H     1 <1>   0.0800 
 40 H       -6.1610    -0.3970     0.2070 H     1 <1>   0.0800 
 41 H       -6.8680     0.0880     1.7280 H     1 <1>   0.0800 
@<TRIPOS>BOND
  1   1   2  2   
  2   1   3  2   
  3   1   4  am  
  4   1   5  1   
  5   4   6  1   
  6   4  23  1   
  7   5   7  ar  
  8   5   8  ar  
  9   6   9  1   
 10   6  24  1   
 11   6  25  1   
 12   7  10  ar  
 13   7  26  1   
 14   8  11  ar  
 15   8  27  1   
 16   9  12  1   
 17   9  28  1   
 18   9  29  1   
 19  10  13  ar  
 20  10  30  1   
 21  11  13  ar  
 22  11  31  1   
 23  12  14  1   
 24  12  32  1   
 25  12  33  1   
 26  13  15  1   
 27  14  16  1   
 28  14  34  1   
 29  14  35  1   
 30  15  17  am  
 31  15  36  1   
 32  16  18  1   
 33  16  37  1   
 34  16  38  1   
 35  17  19  2   
 36  17  20  1   
 37  18  21  ar  
 38  18  22  ar  
 39  20  39  1   
 40  20  40  1   
 41  20  41  1   
@<TRIPOS>SUBSTRUCTURE
  1 ****   1 GROUP 4 **** **** 0

# MOE 2024.06 (io_trps.svl 2023.06)
