@<TRIPOS>MOLECULE
NONAME
49 52 1 0 0 
SMALL
USER_CHARGES


@<TRIPOS>ATOM
  1 O        0.2180     1.4500    -2.4220 O.2   1 <1>  -0.5700 
  2 C       -0.0400     2.0060    -1.3820 C.2   1 <1>   0.5690 
  3 N        0.9120     2.0820    -0.3950 N.am  1 <1>  -0.6600 
  4 C       -1.4210     2.6340    -1.2410 C.3   1 <1>  -0.0990 
  5 C        1.0040     3.1550     0.6480 C.3   1 <1>   0.1400 
  6 C        2.1190     1.1970    -0.4550 C.3   1 <1>   0.1400 
  7 C       -2.4670     1.7540    -0.5180 C.3   1 <1>   0.0000 
  8 C        2.4540     3.6830     0.7970 C.3   1 <1>   0.3430 
  9 C        3.3840     2.0100    -0.8040 C.3   1 <1>   0.3430 
 10 C       -2.0740     1.4780     0.9540 C.3   1 <1>  -0.1600 
 11 C       -2.6480     0.3970    -1.2390 C.3   1 <1>  -0.1600 
 12 C       -3.8280     2.4920    -0.5240 C.3   1 <1>  -0.1600 
 13 N        3.2460     3.4760    -0.4670 N.4   1 <1>  -0.9590 
 14 C       -3.1510     0.6340     1.6600 C.3   1 <1>  -0.0800 
 15 C       -3.7280    -0.4530    -0.5430 C.3   1 <1>  -0.0800 
 16 C       -4.9150     1.6530     0.1740 C.3   1 <1>  -0.0800 
 17 C        4.5660     4.1760    -0.4530 C.3   1 <1>   0.2630 
 18 C       -3.3100    -0.7060     0.9170 C.3   1 <1>  -0.1600 
 19 C       -4.4920     1.3910     1.6310 C.3   1 <1>  -0.1600 
 20 C       -5.0650     0.3100    -0.5620 C.3   1 <1>  -0.1600 
 21 H       -1.7800     2.8310    -2.2350 H     1 <1>   0.0800 
 22 H       -1.3540     3.5850    -0.7530 H     1 <1>   0.0800 
 23 H        0.6610     2.7710     1.5940 H     1 <1>   0.0800 
 24 H        0.3740     3.9840     0.3850 H     1 <1>   0.0800 
 25 H        1.9870     0.4070    -1.1760 H     1 <1>   0.0800 
 26 H        2.2510     0.7240     0.5030 H     1 <1>   0.0800 
 27 H        2.9340     3.1610     1.6090 H     1 <1>   0.0800 
 28 H        2.4230     4.7290     1.0550 H     1 <1>   0.0800 
 29 H        3.5750     1.9050    -1.8600 H     1 <1>   0.0800 
 30 H        4.2220     1.5820    -0.2790 H     1 <1>   0.0800 
 31 H       -1.9500     2.4070     1.4820 H     1 <1>   0.0800 
 32 H       -1.1430     0.9420     0.9940 H     1 <1>   0.0800 
 33 H       -1.7230    -0.1520    -1.2420 H     1 <1>   0.0800 
 34 H       -2.9290     0.5610    -2.2650 H     1 <1>   0.0800 
 35 H       -4.1340     2.6880    -1.5370 H     1 <1>   0.0800 
 36 H       -3.7370     3.4390    -0.0230 H     1 <1>   0.0800 
 37 H        2.6630     3.8620    -1.2280 H     1 <1>   0.4500 
 38 H       -2.8620     0.4500     2.6800 H     1 <1>   0.0800 
 39 H       -3.8380    -1.3920    -1.0580 H     1 <1>   0.0800 
 40 H       -5.8520     2.1830     0.1570 H     1 <1>   0.0800 
 41 H        5.1930     3.7790     0.3290 H     1 <1>   0.0800 
 42 H        4.4280     5.2320    -0.2830 H     1 <1>   0.0800 
 43 H        5.0680     4.0450    -1.3980 H     1 <1>   0.0800 
 44 H       -4.0540    -1.3090     1.4090 H     1 <1>   0.0800 
 45 H       -2.3820    -1.2500     0.9410 H     1 <1>   0.0800 
 46 H       -5.2480     0.8100     2.1300 H     1 <1>   0.0800 
 47 H       -4.3970     2.3240     2.1570 H     1 <1>   0.0800 
 48 H       -5.8280    -0.2820    -0.0880 H     1 <1>   0.0800 
 49 H       -5.3710     0.4820    -1.5790 H     1 <1>   0.0800 
@<TRIPOS>BOND
  1   1   2  2   
  2   2   3  am  
  3   2   4  1   
  4   3   5  1   
  5   3   6  1   
  6   4   7  1   
  7   4  21  1   
  8   4  22  1   
  9   5   8  1   
 10   5  23  1   
 11   5  24  1   
 12   6   9  1   
 13   6  25  1   
 14   6  26  1   
 15   7  10  1   
 16   7  11  1   
 17   7  12  1   
 18   8  13  1   
 19   8  27  1   
 20   8  28  1   
 21   9  13  1   
 22   9  29  1   
 23   9  30  1   
 24  10  14  1   
 25  10  31  1   
 26  10  32  1   
 27  11  15  1   
 28  11  33  1   
 29  11  34  1   
 30  12  16  1   
 31  12  35  1   
 32  12  36  1   
 33  13  17  1   
 34  13  37  1   
 35  14  18  1   
 36  14  19  1   
 37  14  38  1   
 38  15  18  1   
 39  15  20  1   
 40  15  39  1   
 41  16  19  1   
 42  16  20  1   
 43  16  40  1   
 44  17  41  1   
 45  17  42  1   
 46  17  43  1   
 47  18  44  1   
 48  18  45  1   
 49  19  46  1   
 50  19  47  1   
 51  20  48  1   
 52  20  49  1   
@<TRIPOS>SUBSTRUCTURE
  1 ****   4 GROUP 4 **** **** 0

# MOE 2024.06 (io_trps.svl 2023.06)
