@<TRIPOS>MOLECULE
NONAME
55 57 1 0 0 
SMALL
USER_CHARGES


@<TRIPOS>ATOM
  1 S        0.0350     0.2100    -1.5240 S.o2  1 <1>   1.3330 
  2 O       -1.2900     0.1110    -2.0880 O.2   1 <1>  -0.6500 
  3 O        1.1970    -0.2080    -2.2690 O.2   1 <1>  -0.6500 
  4 N        0.2560     1.8610    -1.0330 N.am  1 <1>  -0.6930 
  5 C        0.0290    -0.6230     0.0470 C.3   1 <1>  -0.1350 
  6 C        1.4710     2.3700    -0.5960 C.ar  1 <1>   0.1990 
  7 C       -0.9330     2.7470    -1.0820 C.3   1 <1>   0.1160 
  8 C        1.5870     2.9270     0.6730 C.ar  1 <1>  -0.1500 
  9 C        2.5990     2.3620    -1.4090 C.ar  1 <1>  -0.1500 
 10 C        2.7860     3.4550     1.1100 C.ar  1 <1>  -0.1500 
 11 C        3.7970     2.8920    -0.9700 C.ar  1 <1>  -0.1500 
 12 C        3.9260     3.4480     0.3040 C.ar  1 <1>   0.0860 
 13 C        5.1690     4.0240     0.7790 C.2   1 <1>   0.5440 
 14 O        5.1430     5.1000     1.3480 O.2   1 <1>  -0.5700 
 15 N        6.3890     3.3990     0.6210 N.am  1 <1>  -0.6600 
 16 C        7.6550     4.1280     0.9610 C.3   1 <1>   0.1400 
 17 C        6.5380     1.9310     0.3500 C.3   1 <1>   0.1400 
 18 C        8.8940     3.5060     0.2950 C.3   1 <1>   0.2090 
 19 C        7.7970     1.3300     1.0050 C.3   1 <1>   0.2090 
 20 N        9.0480     2.0500     0.6100 N.pl3 1 <1>  -0.8380 
 21 C        9.9510     1.3320    -0.1760 C.ar  1 <1>   0.1000 
 22 C       11.1220     0.7960     0.3690 C.ar  1 <1>  -0.1430 
 23 C        9.6750     1.1330    -1.5230 C.ar  1 <1>  -0.1500 
 24 C       11.9890     0.0610    -0.4390 C.ar  1 <1>  -0.1430 
 25 C       11.4090     1.0330     1.8520 C.3   1 <1>  -0.0970 
 26 C       10.5360     0.4130    -2.3240 C.ar  1 <1>  -0.1500 
 27 C       11.6890    -0.1220    -1.7810 C.ar  1 <1>  -0.1500 
 28 C       13.2690    -0.5640     0.0970 C.3   1 <1>  -0.0970 
 29 H       -0.1160    -1.6760    -0.0980 H     1 <1>   0.0800 
 30 H       -0.7640    -0.2480     0.6630 H     1 <1>   0.0800 
 31 H        0.9630    -0.4700     0.5500 H     1 <1>   0.0800 
 32 H       -1.3290     2.7620    -2.0830 H     1 <1>   0.0800 
 33 H       -0.6670     3.7520    -0.8020 H     1 <1>   0.0800 
 34 H       -1.6910     2.3800    -0.4130 H     1 <1>   0.0800 
 35 H        0.7270     2.9480     1.3170 H     1 <1>   0.1500 
 36 H        2.5260     1.9460    -2.3990 H     1 <1>   0.1500 
 37 H        2.8550     3.8910     2.0930 H     1 <1>   0.1500 
 38 H        4.6480     2.8900    -1.6280 H     1 <1>   0.1500 
 39 H        7.7880     4.1160     2.0290 H     1 <1>   0.0800 
 40 H        7.5690     5.1550     0.6520 H     1 <1>   0.0800 
 41 H        6.6000     1.7750    -0.7120 H     1 <1>   0.0800 
 42 H        5.6740     1.4050     0.7160 H     1 <1>   0.0800 
 43 H        9.7740     4.0250     0.6320 H     1 <1>   0.0800 
 44 H        8.8210     3.6420    -0.7690 H     1 <1>   0.0800 
 45 H        7.8800     0.2930     0.7300 H     1 <1>   0.0800 
 46 H        7.6950     1.3770     2.0750 H     1 <1>   0.0800 
 47 H        8.7770     1.5450    -1.9410 H     1 <1>   0.1500 
 48 H       11.2030     2.0570     2.1050 H     1 <1>   0.0800 
 49 H       12.4290     0.8380     2.1150 H     1 <1>   0.0800 
 50 H       10.7700     0.4030     2.4430 H     1 <1>   0.0800 
 51 H       10.3130     0.2660    -3.3660 H     1 <1>   0.1500 
 52 H       12.3520    -0.6830    -2.4140 H     1 <1>   0.1500 
 53 H       13.0500    -1.1800     0.9500 H     1 <1>   0.0800 
 54 H       13.9600     0.2070     0.3850 H     1 <1>   0.0800 
 55 H       13.7410    -1.1810    -0.6460 H     1 <1>   0.0800 
@<TRIPOS>BOND
  1   1   2  2   
  2   1   3  2   
  3   1   4  am  
  4   1   5  1   
  5   4   6  1   
  6   4   7  1   
  7   5  29  1   
  8   5  30  1   
  9   5  31  1   
 10   6   8  ar  
 11   6   9  ar  
 12   7  32  1   
 13   7  33  1   
 14   7  34  1   
 15   8  10  ar  
 16   8  35  1   
 17   9  11  ar  
 18   9  36  1   
 19  10  12  ar  
 20  10  37  1   
 21  11  12  ar  
 22  11  38  1   
 23  12  13  1   
 24  13  14  2   
 25  13  15  am  
 26  15  16  1   
 27  15  17  1   
 28  16  18  1   
 29  16  39  1   
 30  16  40  1   
 31  17  19  1   
 32  17  41  1   
 33  17  42  1   
 34  18  20  1   
 35  18  43  1   
 36  18  44  1   
 37  19  20  1   
 38  19  45  1   
 39  19  46  1   
 40  20  21  1   
 41  21  22  ar  
 42  21  23  ar  
 43  22  24  ar  
 44  22  25  1   
 45  23  26  ar  
 46  23  47  1   
 47  24  27  ar  
 48  24  28  1   
 49  25  48  1   
 50  25  49  1   
 51  25  50  1   
 52  26  27  ar  
 53  26  51  1   
 54  27  52  1   
 55  28  53  1   
 56  28  54  1   
 57  28  55  1   
@<TRIPOS>SUBSTRUCTURE
  1 ****  17 GROUP 4 **** **** 0

# MOE 2024.06 (io_trps.svl 2023.06)
