@<TRIPOS>MOLECULE
NONAME
54 58 1 0 0 
SMALL
USER_CHARGES


@<TRIPOS>ATOM
  1 O        0.4350     0.1300     1.3230 O.2   1 <1>  -0.5700 
  2 C        1.1580    -0.5890     0.6650 C.2   1 <1>   0.5440 
  3 N        0.8270    -1.8590     0.2720 N.am  1 <1>  -0.4200 
  4 C        2.4750    -0.2850     0.1820 C.ar  1 <1>   0.0860 
  5 C        1.8790    -2.3870    -0.4300 C.2   1 <1>   0.5440 
  6 C       -0.4540    -2.5400     0.5460 C.3   1 <1>   0.1400 
  7 C        2.9240    -1.4060    -0.5010 C.ar  1 <1>   0.0860 
  8 C        3.2810     0.8420     0.2860 C.ar  1 <1>  -0.1500 
  9 O        1.8920    -3.5090    -0.8940 O.2   1 <1>  -0.5700 
 10 C       -1.4310    -2.2950    -0.6070 C.3   1 <1>  -0.1600 
 11 C        4.1840    -1.4120    -1.0860 C.ar  1 <1>  -0.1500 
 12 C        4.5370     0.8350    -0.2970 C.ar  1 <1>  -0.1500 
 13 C       -2.7880    -2.9770    -0.3480 C.3   1 <1>  -0.0990 
 14 C        4.9870    -0.2880    -0.9810 C.ar  1 <1>  -0.1500 
 15 C       -3.8060    -2.7850    -1.4650 C.2   1 <1>   0.5690 
 16 O       -3.5960    -1.9630    -2.3200 O.2   1 <1>  -0.5700 
 17 N       -4.9500    -3.5020    -1.5400 N.am  1 <1>  -0.7300 
 18 C       -5.5820    -4.5460    -0.7190 C.3   1 <1>   0.3000 
 19 C       -4.7970    -6.1060    -0.8390 C.3   1 <1>  -0.1600 
 20 C       -7.3650    -4.3730    -0.7750 C.3   1 <1>  -0.1600 
 21 C       -5.4920    -4.3580     0.7230 C.3   1 <1>  -0.1600 
 22 C       -5.6260    -7.3310     0.0830 C.3   1 <1>   0.2800 
 23 C       -8.1230    -5.8140    -0.0590 C.3   1 <1>  -0.0800 
 24 C       -6.3830    -5.5800     0.9120 C.3   1 <1>  -0.0800 
 25 O       -5.0100    -8.5560     0.0380 O.3   1 <1>  -0.6800 
 26 C       -7.4090    -7.4620     0.1220 C.3   1 <1>  -0.1600 
 27 C       -5.5090    -6.7330     1.4010 C.3   1 <1>  -0.1600 
 28 C       -7.3250    -6.0730    -0.8160 C.3   1 <1>  -0.1600 
 29 H       -0.8640    -2.1590     1.4660 H     1 <1>   0.0800 
 30 H       -0.2730    -3.5950     0.6610 H     1 <1>   0.0800 
 31 H        2.9190     1.7050     0.8190 H     1 <1>   0.1500 
 32 H       -1.0120    -2.6810    -1.5210 H     1 <1>   0.0800 
 33 H       -1.5860    -1.2360    -0.7220 H     1 <1>   0.0800 
 34 H        4.5210    -2.2900    -1.6130 H     1 <1>   0.1500 
 35 H        5.1690     1.7040    -0.2220 H     1 <1>   0.1500 
 36 H       -3.2100    -2.5750     0.5550 H     1 <1>   0.0800 
 37 H       -2.6220    -4.0290    -0.2160 H     1 <1>   0.0800 
 38 H        5.9660    -0.2830    -1.4310 H     1 <1>   0.1500 
 39 H       -5.5040    -3.2660    -2.3640 H     1 <1>   0.3700 
 40 H       -3.7840    -6.0260    -0.4910 H     1 <1>   0.0800 
 41 H       -4.7400    -6.4090    -1.8700 H     1 <1>   0.0800 
 42 H       -7.6900    -4.1220    -1.7880 H     1 <1>   0.0800 
 43 H       -7.6820    -3.5140    -0.2060 H     1 <1>   0.0800 
 44 H       -5.9480    -3.4440     1.0620 H     1 <1>   0.0800 
 45 H       -4.5060    -4.4510     1.1340 H     1 <1>   0.0800 
 46 H       -9.2110    -5.8250    -0.1790 H     1 <1>   0.0800 
 47 H       -7.0010    -5.3310     1.7760 H     1 <1>   0.0800 
 48 H       -4.0600    -8.4540     0.2270 H     1 <1>   0.4000 
 49 H       -7.7410    -7.8650     1.0660 H     1 <1>   0.0800 
 50 H       -7.7320    -8.2280    -0.5890 H     1 <1>   0.0800 
 51 H       -5.9780    -7.3190     2.1720 H     1 <1>   0.0800 
 52 H       -4.5000    -6.4920     1.6830 H     1 <1>   0.0800 
 53 H       -8.1630    -6.3530    -1.5120 H     1 <1>   0.0800 
 54 H       -6.8130    -6.2050    -1.7930 H     1 <1>   0.0800 
@<TRIPOS>BOND
  1   1   2  2   
  2   2   3  am  
  3   2   4  1   
  4   3   5  am  
  5   3   6  1   
  6   4   7  ar  
  7   4   8  ar  
  8   5   7  1   
  9   5   9  2   
 10   6  10  1   
 11   6  29  1   
 12   6  30  1   
 13   7  11  ar  
 14   8  12  ar  
 15   8  31  1   
 16  10  13  1   
 17  10  32  1   
 18  10  33  1   
 19  11  14  ar  
 20  11  34  1   
 21  12  14  ar  
 22  12  35  1   
 23  13  15  1   
 24  13  36  1   
 25  13  37  1   
 26  14  38  1   
 27  15  16  2   
 28  15  17  am  
 29  17  18  1   
 30  17  39  1   
 31  18  19  1   
 32  18  20  1   
 33  18  21  1   
 34  19  22  1   
 35  19  40  1   
 36  19  41  1   
 37  20  23  1   
 38  20  42  1   
 39  20  43  1   
 40  21  24  1   
 41  21  44  1   
 42  21  45  1   
 43  22  25  1   
 44  22  26  1   
 45  22  27  1   
 46  23  26  1   
 47  23  28  1   
 48  23  46  1   
 49  24  27  1   
 50  24  28  1   
 51  24  47  1   
 52  25  48  1   
 53  26  49  1   
 54  26  50  1   
 55  27  51  1   
 56  27  52  1   
 57  28  53  1   
 58  28  54  1   
@<TRIPOS>SUBSTRUCTURE
  1 ****  13 GROUP 4 **** **** 0

# MOE 2024.06 (io_trps.svl 2023.06)
