@<TRIPOS>MOLECULE
NONAME
49 50 1 0 0 
SMALL
USER_CHARGES


@<TRIPOS>ATOM
  1 O       -0.0560    -3.9060    -1.4770 O.2   1 <1>  -0.5700 
  2 C        0.1450    -2.9310    -0.8010 C.2   1 <1>   0.6590 
  3 O       -0.5970    -1.8380    -0.8850 O.3   1 <1>  -0.4300 
  4 C        1.2950    -2.8690     0.2020 C.3   1 <1>  -0.0190 
  5 C       -1.6840    -1.7550    -1.7780 C.3   1 <1>   0.1200 
  6 C        2.5290    -2.2040    -0.4330 C.3   1 <1>  -0.1600 
  7 C        1.6680    -4.2600     0.7540 C.3   1 <1>  -0.1600 
  8 C       -2.3130    -0.3730    -1.6310 C.3   1 <1>  -0.2400 
  9 C        3.7230    -2.1850     0.5190 C.3   1 <1>   0.3430 
 10 C        2.8760    -4.2020     1.6870 C.3   1 <1>   0.3430 
 11 N        4.0220    -3.5760     0.9740 N.4   1 <1>  -0.9590 
 12 C        5.2730    -3.6390     1.7790 C.3   1 <1>   0.4860 
 13 C        6.4280    -3.1960     0.9020 C.ar  1 <1>  -0.1430 
 14 C        6.8170    -3.9850    -0.1700 C.ar  1 <1>  -0.1500 
 15 C        7.0900    -2.0030     1.1470 C.ar  1 <1>  -0.1500 
 16 C        7.8370    -3.5970    -1.0210 C.ar  1 <1>   0.0830 
 17 C        8.1240    -1.5920     0.3110 C.ar  1 <1>   0.0830 
 18 O        8.0800    -4.4800    -2.0310 O.3   1 <1>  -0.3620 
 19 C        8.4930    -2.3810    -0.7770 C.ar  1 <1>   0.0830 
 20 O        8.8110    -0.4270     0.4990 O.3   1 <1>  -0.3630 
 21 C        9.1730    -4.3520    -2.9140 C.3   1 <1>   0.0400 
 22 O        9.4890    -1.8960    -1.5520 O.3   1 <1>  -0.5330 
 23 C        8.7280     0.2960     1.7090 C.3   1 <1>   0.0400 
 24 H        0.9620    -2.2600     1.0250 H     1 <1>   0.0800 
 25 H       -2.3910    -2.5300    -1.5300 H     1 <1>   0.0800 
 26 H       -1.3180    -1.9090    -2.7800 H     1 <1>   0.0800 
 27 H        2.2870    -1.1920    -0.7090 H     1 <1>   0.0800 
 28 H        2.8030    -2.7230    -1.3360 H     1 <1>   0.0800 
 29 H        1.8850    -4.9360    -0.0570 H     1 <1>   0.0800 
 30 H        0.8280    -4.6680     1.2900 H     1 <1>   0.0800 
 31 H       -2.6670    -0.2300    -0.6260 H     1 <1>   0.0800 
 32 H       -3.1480    -0.2830    -2.3020 H     1 <1>   0.0800 
 33 H       -1.5970     0.3900    -1.8750 H     1 <1>   0.0800 
 34 H        3.5000    -1.5600     1.3690 H     1 <1>   0.0800 
 35 H        4.5770    -1.7690     0.0060 H     1 <1>   0.0800 
 36 H        3.1330    -5.2020     2.0000 H     1 <1>   0.0800 
 37 H        2.6280    -3.6240     2.5630 H     1 <1>   0.0800 
 38 H        4.2050    -4.1230     0.1220 H     1 <1>   0.4500 
 39 H        5.4500    -4.6480     2.1140 H     1 <1>   0.0800 
 40 H        5.1960    -2.9990     2.6430 H     1 <1>   0.0800 
 41 H        6.3370    -4.9260    -0.3730 H     1 <1>   0.1500 
 42 H        6.7980    -1.3940     1.9830 H     1 <1>   0.1500 
 43 H        9.1920    -5.2160    -3.5540 H     1 <1>   0.0800 
 44 H       10.0820    -4.3000    -2.3420 H     1 <1>   0.0800 
 45 H        9.0410    -3.4640    -3.5060 H     1 <1>   0.0800 
 46 H        9.7910    -1.0390    -1.1870 H     1 <1>   0.4500 
 47 H        9.4430     1.0980     1.6680 H     1 <1>   0.0800 
 48 H        8.9660    -0.3600     2.5280 H     1 <1>   0.0800 
 49 H        7.7370     0.7010     1.8110 H     1 <1>   0.0800 
@<TRIPOS>BOND
  1   1   2  2   
  2   2   3  1   
  3   2   4  1   
  4   3   5  1   
  5   4   6  1   
  6   4   7  1   
  7   4  24  1   
  8   5   8  1   
  9   5  25  1   
 10   5  26  1   
 11   6   9  1   
 12   6  27  1   
 13   6  28  1   
 14   7  10  1   
 15   7  29  1   
 16   7  30  1   
 17   8  31  1   
 18   8  32  1   
 19   8  33  1   
 20   9  11  1   
 21   9  34  1   
 22   9  35  1   
 23  10  11  1   
 24  10  36  1   
 25  10  37  1   
 26  11  12  1   
 27  11  38  1   
 28  12  13  1   
 29  12  39  1   
 30  12  40  1   
 31  13  14  ar  
 32  13  15  ar  
 33  14  16  ar  
 34  14  41  1   
 35  15  17  ar  
 36  15  42  1   
 37  16  18  1   
 38  16  19  ar  
 39  17  19  ar  
 40  17  20  1   
 41  18  21  1   
 42  19  22  1   
 43  20  23  1   
 44  21  43  1   
 45  21  44  1   
 46  21  45  1   
 47  22  46  1   
 48  23  47  1   
 49  23  48  1   
 50  23  49  1   
@<TRIPOS>SUBSTRUCTURE
  1 ****   9 GROUP 4 **** **** 0

# MOE 2024.06 (io_trps.svl 2023.06)
