@<TRIPOS>MOLECULE
NONAME
44 45 1 0 0 
SMALL
USER_CHARGES


@<TRIPOS>ATOM
  1 S        0.2080     0.0840    -1.7660 S.o2  1 <1>   1.4470 
  2 O        0.2880    -1.2440    -2.3340 O.2   1 <1>  -0.6500 
  3 O        0.6620     1.2170    -2.5440 O.2   1 <1>  -0.6500 
  4 N        1.1080     0.0800    -0.3290 N.am  1 <1>  -0.8490 
  5 C       -1.4890     0.3720    -1.1930 C.ar  1 <1>  -0.0090 
  6 C        1.2280     1.4230     0.2500 C.3   1 <1>   0.1960 
  7 C        2.4300    -0.5220    -0.5300 C.3   1 <1>   0.1960 
  8 C       -2.2870     1.3520    -1.7720 C.ar  1 <1>  -0.1500 
  9 C       -2.0340    -0.3860    -0.1650 C.ar  1 <1>  -0.1500 
 10 C        1.9040     1.3500     1.6220 C.3   1 <1>  -0.1600 
 11 C        3.1640    -0.6580     0.8080 C.3   1 <1>  -0.1600 
 12 C       -3.5890     1.5800    -1.3400 C.ar  1 <1>   0.0830 
 13 C       -3.3270    -0.1700     0.2780 C.ar  1 <1>  -0.1500 
 14 C        3.2850     0.6920     1.5250 C.3   1 <1>  -0.1600 
 15 O       -4.3920     2.5290    -1.9020 O.3   1 <1>  -0.3630 
 16 C       -4.1170     0.8150    -0.2940 C.ar  1 <1>   0.1170 
 17 C       -3.9920     3.2650    -3.0370 C.3   1 <1>   0.0400 
 18 N       -5.4200     1.0000     0.1920 N.am  1 <1>  -0.5470 
 19 C       -5.9420     2.0350     0.9000 C.2   1 <1>   0.5690 
 20 O       -7.1110     2.0280     1.1920 O.2   1 <1>  -0.5700 
 21 C       -5.0710     3.1950     1.3610 C.3   1 <1>  -0.0990 
 22 C       -4.1810     2.8360     2.5620 C.3   1 <1>  -0.2400 
 23 H        0.2500     1.8600     0.3660 H     1 <1>   0.0800 
 24 H        1.8040     2.0570    -0.4060 H     1 <1>   0.0800 
 25 H        3.0070     0.0820    -1.2120 H     1 <1>   0.0800 
 26 H        2.3230    -1.5040    -0.9620 H     1 <1>   0.0800 
 27 H       -1.8620     1.9320    -2.5710 H     1 <1>   0.1500 
 28 H       -1.4340    -1.1560     0.2930 H     1 <1>   0.1500 
 29 H        1.2760     0.7860     2.2890 H     1 <1>   0.0800 
 30 H        2.0040     2.3430     2.0240 H     1 <1>   0.0800 
 31 H        4.1440    -1.0660     0.6370 H     1 <1>   0.0800 
 32 H        2.6230    -1.3510     1.4280 H     1 <1>   0.0800 
 33 H       -3.7260    -0.7690     1.0780 H     1 <1>   0.1500 
 34 H        3.6980     0.5520     2.5100 H     1 <1>   0.0800 
 35 H        3.9490     1.3330     0.9710 H     1 <1>   0.0800 
 36 H       -4.8060     3.9090    -3.3200 H     1 <1>   0.0800 
 37 H       -3.7730     2.5820    -3.8390 H     1 <1>   0.0800 
 38 H       -3.1300     3.8570    -2.7870 H     1 <1>   0.0800 
 39 H       -6.1130     0.2950    -0.0550 H     1 <1>   0.3700 
 40 H       -5.7170     4.0100     1.6340 H     1 <1>   0.0800 
 41 H       -4.4610     3.5310     0.5440 H     1 <1>   0.0800 
 42 H       -3.4970     2.0490     2.3020 H     1 <1>   0.0800 
 43 H       -4.7910     2.5070     3.3850 H     1 <1>   0.0800 
 44 H       -3.6160     3.6960     2.8730 H     1 <1>   0.0800 
@<TRIPOS>BOND
  1   1   2  2   
  2   1   3  2   
  3   1   4  am  
  4   1   5  1   
  5   4   6  1   
  6   4   7  1   
  7   5   8  ar  
  8   5   9  ar  
  9   6  10  1   
 10   6  23  1   
 11   6  24  1   
 12   7  11  1   
 13   7  25  1   
 14   7  26  1   
 15   8  12  ar  
 16   8  27  1   
 17   9  13  ar  
 18   9  28  1   
 19  10  14  1   
 20  10  29  1   
 21  10  30  1   
 22  11  14  1   
 23  11  31  1   
 24  11  32  1   
 25  12  15  1   
 26  12  16  ar  
 27  13  16  ar  
 28  13  33  1   
 29  14  34  1   
 30  14  35  1   
 31  15  17  1   
 32  16  18  1   
 33  17  36  1   
 34  17  37  1   
 35  17  38  1   
 36  18  19  am  
 37  18  39  1   
 38  19  20  2   
 39  19  21  1   
 40  21  22  1   
 41  21  40  1   
 42  21  41  1   
 43  22  42  1   
 44  22  43  1   
 45  22  44  1   
@<TRIPOS>SUBSTRUCTURE
  1 ****   5 GROUP 4 **** **** 0

# MOE 2024.06 (io_trps.svl 2023.06)
