@<TRIPOS>MOLECULE
NONAME
53 55 1 0 0 
SMALL
USER_CHARGES


@<TRIPOS>ATOM
  1 O        0.2910    -0.3130    -0.2040 O.2   1 <1>  -0.5700 
  2 C        0.2810    -1.5160    -0.3260 C.2   1 <1>   0.4950 
  3 C        1.4640    -2.2930    -0.5540 C.2   1 <1>   0.0290 
  4 C       -1.0890    -2.1610    -0.2290 C.3   1 <1>  -0.0990 
  5 C        1.3340    -3.7200    -0.6770 C.2   1 <1>   0.4950 
  6 C        2.6800    -1.6470    -0.6460 C.2   1 <1>  -0.0500 
  7 C       -0.9990    -3.6010     0.2730 C.3   1 <1>   0.0640 
  8 O        2.2580    -4.4840    -0.8490 O.2   1 <1>  -0.5700 
  9 C       -0.0270    -4.3890    -0.6040 C.3   1 <1>  -0.0990 
 10 N        3.8840    -2.2300    -0.8580 N.pl3 1 <1>  -0.8690 
 11 C       -2.3740    -4.2630     0.3170 C.ar  1 <1>  -0.1430 
 12 C        5.1900    -1.5400    -0.9590 C.3   1 <1>   0.2090 
 13 C       -2.8840    -4.7040     1.5300 C.ar  1 <1>  -0.1500 
 14 C       -3.1340    -4.4360    -0.8330 C.ar  1 <1>  -0.1500 
 15 C        6.0760    -1.9480     0.2160 C.3   1 <1>  -0.0170 
 16 C       -4.1280    -5.3070     1.5940 C.ar  1 <1>  -0.1500 
 17 C       -4.3780    -5.0390    -0.7710 C.ar  1 <1>  -0.1500 
 18 C        7.4200    -1.2420     0.1330 C.ar  1 <1>  -0.1430 
 19 C       -4.8770    -5.4750     0.4430 C.ar  1 <1>  -0.1500 
 20 C        7.5860     0.0110     0.7010 C.ar  1 <1>  -0.1500 
 21 C        8.4850    -1.8430    -0.5160 C.ar  1 <1>  -0.1500 
 22 C        8.8100     0.6720     0.6230 C.ar  1 <1>   0.0830 
 23 C        9.7070    -1.1990    -0.6010 C.ar  1 <1>  -0.1500 
 24 O        9.0110     1.9070     1.1680 O.3   1 <1>  -0.3620 
 25 C        9.8810     0.0610    -0.0350 C.ar  1 <1>   0.0830 
 26 C        7.9950     2.5860     1.8690 C.3   1 <1>   0.0400 
 27 O       11.0670     0.7330    -0.0950 O.3   1 <1>  -0.3630 
 28 C       12.2030     0.1820    -0.7200 C.3   1 <1>   0.0400 
 29 H       -1.5490    -2.1220    -1.1990 H     1 <1>   0.0800 
 30 H       -1.7000    -1.5910     0.4480 H     1 <1>   0.0800 
 31 H        2.6940    -0.5710    -0.5420 H     1 <1>   0.1500 
 32 H       -0.5970    -3.5780     1.2720 H     1 <1>   0.0800 
 33 H        0.0880    -5.3780    -0.1970 H     1 <1>   0.0800 
 34 H       -0.4080    -4.4890    -1.6040 H     1 <1>   0.0800 
 35 H        3.9190    -3.2620    -0.9670 H     1 <1>   0.4000 
 36 H        5.0400    -0.4730    -0.9470 H     1 <1>   0.0800 
 37 H        5.6640    -1.8050    -1.8880 H     1 <1>   0.0800 
 38 H       -2.3190    -4.5840     2.4370 H     1 <1>   0.1500 
 39 H       -2.7690    -4.1060    -1.7890 H     1 <1>   0.1500 
 40 H        6.2230    -3.0130     0.2010 H     1 <1>   0.0800 
 41 H        5.5860    -1.6900     1.1370 H     1 <1>   0.0800 
 42 H       -4.5140    -5.6460     2.5390 H     1 <1>   0.1500 
 43 H       -4.9600    -5.1690    -1.6670 H     1 <1>   0.1500 
 44 H       -5.8440    -5.9440     0.4920 H     1 <1>   0.1500 
 45 H        6.7500     0.4610     1.1990 H     1 <1>   0.1500 
 46 H        8.3690    -2.8160    -0.9610 H     1 <1>   0.1500 
 47 H       10.5080    -1.6960    -1.1130 H     1 <1>   0.1500 
 48 H        8.3970     3.5240     2.2090 H     1 <1>   0.0800 
 49 H        7.6950     1.9900     2.7120 H     1 <1>   0.0800 
 50 H        7.1700     2.7620     1.2030 H     1 <1>   0.0800 
 51 H       13.0070     0.8900    -0.6300 H     1 <1>   0.0800 
 52 H       11.9810     0.0120    -1.7590 H     1 <1>   0.0800 
 53 H       12.4650    -0.7340    -0.2220 H     1 <1>   0.0800 
@<TRIPOS>BOND
  1   1   2  2   
  2   2   3  1   
  3   2   4  1   
  4   3   5  1   
  5   3   6  2   
  6   4   7  1   
  7   4  29  1   
  8   4  30  1   
  9   5   8  2   
 10   5   9  1   
 11   6  10  1   
 12   6  31  1   
 13   7   9  1   
 14   7  11  1   
 15   7  32  1   
 16   9  33  1   
 17   9  34  1   
 18  10  12  1   
 19  10  35  1   
 20  11  13  ar  
 21  11  14  ar  
 22  12  15  1   
 23  12  36  1   
 24  12  37  1   
 25  13  16  ar  
 26  13  38  1   
 27  14  17  ar  
 28  14  39  1   
 29  15  18  1   
 30  15  40  1   
 31  15  41  1   
 32  16  19  ar  
 33  16  42  1   
 34  17  19  ar  
 35  17  43  1   
 36  18  20  ar  
 37  18  21  ar  
 38  19  44  1   
 39  20  22  ar  
 40  20  45  1   
 41  21  23  ar  
 42  21  46  1   
 43  22  24  1   
 44  22  25  ar  
 45  23  25  ar  
 46  23  47  1   
 47  24  26  1   
 48  25  27  1   
 49  26  48  1   
 50  26  49  1   
 51  26  50  1   
 52  27  28  1   
 53  28  51  1   
 54  28  52  1   
 55  28  53  1   
@<TRIPOS>SUBSTRUCTURE
  1 ****   6 GROUP 4 **** **** 0

# MOE 2024.06 (io_trps.svl 2023.06)
