@<TRIPOS>MOLECULE
NONAME
29 30 1 0 0 
SMALL
USER_CHARGES


@<TRIPOS>ATOM
  1 F        0.3370    -0.4910     2.2300 F     1 <1>  -0.3400 
  2 C       -0.4240    -1.1290     1.3460 C.3   1 <1>   1.0810 
  3 F       -1.5230    -1.4940     1.9990 F     1 <1>  -0.3400 
  4 F       -0.8030    -0.2110     0.4630 F     1 <1>  -0.3400 
  5 C        0.3300    -2.2990     0.6810 C.2   1 <1>   0.3280 
  6 N        0.0420    -3.5350     0.6910 N.2   1 <1>  -0.5120 
  7 C        1.5920    -1.9700    -0.0910 C.3   1 <1>  -0.0990 
  8 N        0.9760    -4.2420    -0.0440 N.am  1 <1>  -0.2980 
  9 C        2.0410    -3.3530    -0.5550 C.3   1 <1>   0.7240 
 10 C        0.9250    -5.5750    -0.3850 C.2   1 <1>   0.5690 
 11 O        1.9840    -3.4090    -1.9250 O.3   1 <1>  -0.6800 
 12 C        3.4450    -3.6960    -0.0510 C.ar  1 <1>  -0.1440 
 13 O        1.7050    -6.0740    -1.1610 O.2   1 <1>  -0.5700 
 14 C       -0.1580    -6.4460     0.2110 C.3   1 <1>  -0.1790 
 15 C        4.5600    -3.3380    -0.7990 C.ar  1 <1>   0.1600 
 16 C        3.6520    -4.3350     1.1610 C.ar  1 <1>  -0.1500 
 17 N        5.8170    -3.5550    -0.4490 N.ar  1 <1>  -0.6200 
 18 C        4.9560    -4.5780     1.5360 C.ar  1 <1>  -0.1500 
 19 C        5.9860    -4.1740     0.7070 C.ar  1 <1>   0.1600 
 20 H        2.3240    -1.5250     0.5570 H     1 <1>   0.0800 
 21 H        1.3900    -1.3170    -0.9210 H     1 <1>   0.0800 
 22 H        2.0540    -4.3650    -2.1490 H     1 <1>   0.4000 
 23 H       -0.1160    -6.3930     1.2820 H     1 <1>   0.0800 
 24 H       -0.0210    -7.4660    -0.0970 H     1 <1>   0.0800 
 25 H       -1.1190    -6.1030    -0.1240 H     1 <1>   0.0800 
 26 H        4.4170    -2.8380    -1.7440 H     1 <1>   0.1500 
 27 H        2.8390    -4.6390     1.7990 H     1 <1>   0.1500 
 28 H        5.1760    -5.0760     2.4630 H     1 <1>   0.1500 
 29 H        7.0010    -4.3690     1.0090 H     1 <1>   0.1500 
@<TRIPOS>BOND
  1   1   2  1   
  2   2   3  1   
  3   2   4  1   
  4   2   5  1   
  5   5   6  2   
  6   5   7  1   
  7   6   8  1   
  8   7   9  1   
  9   7  20  1   
 10   7  21  1   
 11   8   9  1   
 12   8  10  am  
 13   9  11  1   
 14   9  12  1   
 15  10  13  2   
 16  10  14  1   
 17  11  22  1   
 18  12  15  ar  
 19  12  16  ar  
 20  14  23  1   
 21  14  24  1   
 22  14  25  1   
 23  15  17  ar  
 24  15  26  1   
 25  16  18  ar  
 26  16  27  1   
 27  17  19  ar  
 28  18  19  ar  
 29  18  28  1   
 30  19  29  1   
@<TRIPOS>SUBSTRUCTURE
  1 ****   9 GROUP 4 **** **** 0

# MOE 2024.06 (io_trps.svl 2023.06)
