@<TRIPOS>MOLECULE
NONAME
50 51 1 0 0 
SMALL
USER_CHARGES


@<TRIPOS>ATOM
  1 N       -0.0790     0.8240     0.3620 N.4   1 <1>  -0.9590 
  2 C       -0.9900     1.1650     1.4930 C.3   1 <1>   0.4810 
  3 C        1.2390     0.3080     0.8830 C.3   1 <1>   0.3430 
  4 C        0.0250     2.0000    -0.5560 C.3   1 <1>   0.3430 
  5 C       -2.3780     1.3270     0.9210 C.2   1 <1>  -0.2540 
  6 C        2.1980    -0.2600    -0.2040 C.3   1 <1>   0.3430 
  7 C       -0.1110     1.5150    -1.9930 C.3   1 <1>  -0.2400 
  8 C       -3.0480     2.5820     0.8920 C.2   1 <1>  -0.2880 
  9 C       -3.0320    -0.1510     0.3320 C.3   1 <1>   0.1160 
 10 N        3.5020    -0.8100     0.3280 N.4   1 <1>  -0.9590 
 11 C       -4.6020     2.4880     0.1830 C.3   1 <1>  -0.0220 
 12 C       -4.4780    -0.6510    -0.4510 C.3   1 <1>   0.0000 
 13 C       -3.9670     0.7120     0.0850 C.3   1 <1>   0.0000 
 14 C        4.4230    -1.1470    -0.8100 C.3   1 <1>   0.2630 
 15 C        3.3330    -2.0320     1.1880 C.3   1 <1>   0.2630 
 16 C       -5.1260     0.9410    -0.4150 C.3   1 <1>   0.0000 
 17 C       -5.3340    -1.6710     0.3450 C.3   1 <1>  -0.2400 
 18 C       -4.2400    -1.2180    -1.8750 C.3   1 <1>  -0.2400 
 19 H       -0.5980     0.0980    -0.1530 H     1 <1>   0.4500 
 20 H       -0.6780     2.0820     1.9670 H     1 <1>   0.0800 
 21 H       -1.0000     0.3780     2.2310 H     1 <1>   0.0800 
 22 H        1.0390    -0.4750     1.5950 H     1 <1>   0.0800 
 23 H        1.7420     1.1080     1.4020 H     1 <1>   0.0800 
 24 H        0.9590     2.5190    -0.4140 H     1 <1>   0.0800 
 25 H       -0.7740     2.6990    -0.3600 H     1 <1>   0.0800 
 26 H        2.4220     0.5320    -0.9000 H     1 <1>   0.0800 
 27 H        1.6870    -1.0410    -0.7430 H     1 <1>   0.0800 
 28 H        0.6750     0.8410    -2.2750 H     1 <1>   0.0800 
 29 H       -0.0640     2.3650    -2.6520 H     1 <1>   0.0800 
 30 H       -1.0670     1.0440    -2.1450 H     1 <1>   0.0800 
 31 H       -2.7240     3.5480     1.2460 H     1 <1>   0.1500 
 32 H       -3.0530    -0.7630     1.2210 H     1 <1>   0.0000 
 33 H        3.9920    -0.0900     0.8880 H     1 <1>   0.4500 
 34 H       -4.6470     3.1950    -0.6280 H     1 <1>   0.0800 
 35 H       -5.3250     2.8250     0.9090 H     1 <1>   0.0800 
 36 H       -3.4060     1.1120    -0.8580 H     1 <1>   0.0000 
 37 H       -4.3650     0.6850     1.1800 H     1 <1>   0.0000 
 38 H        3.9900    -1.9140    -1.4340 H     1 <1>   0.0800 
 39 H        5.3680    -1.5080    -0.4350 H     1 <1>   0.0800 
 40 H        4.6120    -0.2760    -1.4170 H     1 <1>   0.0800 
 41 H        2.8540    -2.8220     0.6330 H     1 <1>   0.0800 
 42 H        2.7390    -1.8100     2.0600 H     1 <1>   0.0800 
 43 H        4.2960    -2.3890     1.5210 H     1 <1>   0.0800 
 44 H       -5.2590     1.1360    -1.4690 H     1 <1>   0.0000 
 45 H       -5.5360    -1.3180     1.3410 H     1 <1>   0.0800 
 46 H       -4.8240    -2.6150     0.4160 H     1 <1>   0.0800 
 47 H       -6.2760    -1.8270    -0.1500 H     1 <1>   0.0800 
 48 H       -3.6530    -0.5450    -2.4730 H     1 <1>   0.0800 
 49 H       -5.1820    -1.3710    -2.3720 H     1 <1>   0.0800 
 50 H       -3.7280    -2.1630    -1.8210 H     1 <1>   0.0800 
@<TRIPOS>BOND
  1   1   2  1   
  2   1   3  1   
  3   1   4  1   
  4   1  19  1   
  5   2   5  1   
  6   2  20  1   
  7   2  21  1   
  8   3   6  1   
  9   3  22  1   
 10   3  23  1   
 11   4   7  1   
 12   4  24  1   
 13   4  25  1   
 14   5   8  2   
 15   5   9  1   
 16   6  10  1   
 17   6  26  1   
 18   6  27  1   
 19   7  28  1   
 20   7  29  1   
 21   7  30  1   
 22   8  11  1   
 23   8  31  1   
 24   9  12  1   
 25   9  13  1   
 26   9  32  1   
 27  10  14  1   
 28  10  15  1   
 29  10  33  1   
 30  11  16  1   
 31  11  34  1   
 32  11  35  1   
 33  12  16  1   
 34  12  17  1   
 35  12  18  1   
 36  13  16  1   
 37  13  36  1   
 38  13  37  1   
 39  14  38  1   
 40  14  39  1   
 41  14  40  1   
 42  15  41  1   
 43  15  42  1   
 44  15  43  1   
 45  16  44  1   
 46  17  45  1   
 47  17  46  1   
 48  17  47  1   
 49  18  48  1   
 50  18  49  1   
 51  18  50  1   
@<TRIPOS>SUBSTRUCTURE
  1 ****   1 GROUP 4 **** **** 0

# MOE 2024.06 (io_trps.svl 2023.06)
