@<TRIPOS>MOLECULE
NONAME
41 43 1 0 0 
SMALL
USER_CHARGES


@<TRIPOS>ATOM
  1 O       -0.9750    -2.5450    -2.0200 O.2   1 <1>  -0.5700 
  2 C       -0.5090    -2.5430    -0.8930 C.2   1 <1>   0.7150 
  3 N       -1.3450    -2.0870     0.1120 N.am  1 <1>  -0.6600 
  4 C        0.8400    -3.0280    -0.6480 C.2   1 <1>   0.0550 
  5 C       -2.4430    -1.1350    -0.2210 C.3   1 <1>   0.1400 
  6 C       -1.2800    -2.5930     1.5070 C.3   1 <1>   0.1400 
  7 O        1.4830    -2.6500     0.4690 O.3   1 <1>  -0.2800 
  8 C        1.6590    -3.8370    -1.3780 C.2   1 <1>  -0.1810 
  9 C       -3.6650    -1.8870    -0.7790 C.3   1 <1>   0.3430 
 10 C       -2.6530    -3.0620     2.0030 C.3   1 <1>  -0.1600 
 11 C        2.6920    -3.2020     0.4690 C.ar  1 <1>   0.1400 
 12 C        2.8670    -3.9650    -0.6690 C.ar  1 <1>   0.0000 
 13 C        1.4270    -4.5230    -2.7150 C.3   1 <1>  -0.0590 
 14 N       -4.3790    -2.7580     0.2260 N.4   1 <1>  -0.9590 
 15 C       -3.4930    -3.7460     0.9190 C.3   1 <1>   0.3430 
 16 C        3.6820    -3.0770     1.4340 C.ar  1 <1>  -0.1500 
 17 C        4.0770    -4.6360    -0.8600 C.ar  1 <1>  -0.1500 
 18 C       -5.4990    -3.4740    -0.4550 C.3   1 <1>   0.2630 
 19 C        4.8750    -3.7430     1.2380 C.ar  1 <1>  -0.1500 
 20 C        5.0690    -4.5210     0.0920 C.ar  1 <1>  -0.1500 
 21 H       -2.0880    -0.4550    -0.9780 H     1 <1>   0.0800 
 22 H       -2.7110    -0.5480     0.6390 H     1 <1>   0.0800 
 23 H       -0.8880    -1.8230     2.1530 H     1 <1>   0.0800 
 24 H       -0.6030    -3.4300     1.5510 H     1 <1>   0.0800 
 25 H       -3.3330    -2.4890    -1.6100 H     1 <1>   0.0800 
 26 H       -4.3590    -1.1590    -1.1670 H     1 <1>   0.0800 
 27 H       -3.1910    -2.2430     2.4460 H     1 <1>   0.0800 
 28 H       -2.4760    -3.7720     2.7910 H     1 <1>   0.0800 
 29 H        2.1190    -4.1390    -3.4440 H     1 <1>   0.0800 
 30 H        1.5830    -5.5810    -2.6140 H     1 <1>   0.0800 
 31 H        0.4290    -4.3580    -3.0740 H     1 <1>   0.0800 
 32 H       -4.7800    -2.1460     0.9500 H     1 <1>   0.4500 
 33 H       -4.1080    -4.4940     1.3930 H     1 <1>   0.0800 
 34 H       -2.8520    -4.2430     0.2070 H     1 <1>   0.0800 
 35 H        3.5070    -2.4710     2.3040 H     1 <1>   0.1500 
 36 H        4.2210    -5.2300    -1.7440 H     1 <1>   0.1500 
 37 H       -5.1130    -4.1290    -1.2200 H     1 <1>   0.0800 
 38 H       -6.1730    -2.7680    -0.9140 H     1 <1>   0.0800 
 39 H       -6.0550    -4.0650     0.2560 H     1 <1>   0.0800 
 40 H        5.6640    -3.6680     1.9670 H     1 <1>   0.1500 
 41 H        6.0070    -5.0320    -0.0420 H     1 <1>   0.1500 
@<TRIPOS>BOND
  1   1   2  2   
  2   2   3  am  
  3   2   4  1   
  4   3   5  1   
  5   3   6  1   
  6   4   7  1   
  7   4   8  2   
  8   5   9  1   
  9   5  21  1   
 10   5  22  1   
 11   6  10  1   
 12   6  23  1   
 13   6  24  1   
 14   7  11  1   
 15   8  12  1   
 16   8  13  1   
 17   9  14  1   
 18   9  25  1   
 19   9  26  1   
 20  10  15  1   
 21  10  27  1   
 22  10  28  1   
 23  11  12  ar  
 24  11  16  ar  
 25  12  17  ar  
 26  13  29  1   
 27  13  30  1   
 28  13  31  1   
 29  14  15  1   
 30  14  18  1   
 31  14  32  1   
 32  15  33  1   
 33  15  34  1   
 34  16  19  ar  
 35  16  35  1   
 36  17  20  ar  
 37  17  36  1   
 38  18  37  1   
 39  18  38  1   
 40  18  39  1   
 41  19  20  ar  
 42  19  40  1   
 43  20  41  1   
@<TRIPOS>SUBSTRUCTURE
  1 ****   4 GROUP 4 **** **** 0

# MOE 2024.06 (io_trps.svl 2023.06)
