@<TRIPOS>MOLECULE
NONAME
50 50 1 0 0 
SMALL
USER_CHARGES


@<TRIPOS>ATOM
  1 O       -8.3780    -1.3030    -0.2880 O.3   1 <1>  -0.3630 
  2 C       -9.7320    -1.2570    -0.2220 C.ar  1 <1>   0.0830 
  3 C       -7.6340    -2.1770     0.5330 C.3   1 <1>   0.1200 
  4 C      -10.4980    -2.0680     0.6050 C.ar  1 <1>  -0.1500 
  5 C      -10.3680    -0.3380    -1.0380 C.ar  1 <1>  -0.1500 
  6 C       -6.1450    -1.9810     0.2210 C.3   1 <1>   0.2000 
  7 C      -11.8770    -1.9490     0.6050 C.ar  1 <1>  -0.1500 
  8 C      -11.7470    -0.2250    -1.0320 C.ar  1 <1>  -0.1500 
  9 O       -5.9520    -2.0890    -1.1570 O.3   1 <1>  -0.6800 
 10 C       -5.2450    -3.0140     0.9310 C.3   1 <1>   0.3430 
 11 C      -12.5310    -1.0300    -0.2090 C.ar  1 <1>  -0.1440 
 12 N       -3.9250    -3.1280     0.2330 N.4   1 <1>  -0.9590 
 13 C      -14.0730    -0.9410    -0.1690 C.3   1 <1>   0.1440 
 14 C       -3.4080    -4.5200     0.2490 C.3   1 <1>   0.3430 
 15 C       -2.9360    -2.1230     0.7020 C.3   1 <1>   0.3430 
 16 C      -14.6770    -2.2960    -0.5670 C.3   1 <1>  -0.2400 
 17 C      -14.6450     0.1200    -1.1250 C.3   1 <1>  -0.2400 
 18 C      -14.5290    -0.5770     1.2520 C.3   1 <1>  -0.2400 
 19 C       -2.3660    -4.6920    -0.8500 C.3   1 <1>  -0.2400 
 20 C       -2.7390    -1.0850    -0.3940 C.3   1 <1>  -0.2400 
 21 H       -7.9400    -3.1860     0.3180 H     1 <1>   0.0800 
 22 H       -7.8450    -1.9380     1.5610 H     1 <1>   0.0800 
 23 H      -10.0530    -2.7950     1.2550 H     1 <1>   0.1500 
 24 H       -9.7810     0.2930    -1.6800 H     1 <1>   0.1500 
 25 H       -5.8560    -0.9870     0.5160 H     1 <1>   0.0800 
 26 H      -12.4430    -2.5900     1.2560 H     1 <1>   0.1500 
 27 H      -12.1850     0.5050    -1.6860 H     1 <1>   0.1500 
 28 H       -6.6920    -1.6180    -1.6100 H     1 <1>   0.4000 
 29 H       -5.7490    -3.9660     0.8950 H     1 <1>   0.0800 
 30 H       -5.1120    -2.7510     1.9680 H     1 <1>   0.0800 
 31 H       -4.1680    -2.8890    -0.7490 H     1 <1>   0.4500 
 32 H       -4.2180    -5.2090     0.0670 H     1 <1>   0.0800 
 33 H       -2.9770    -4.7490     1.2110 H     1 <1>   0.0800 
 34 H       -1.9920    -2.6000     0.9140 H     1 <1>   0.0800 
 35 H       -3.2810    -1.6450     1.6040 H     1 <1>   0.0800 
 36 H      -14.3910    -3.0680     0.1230 H     1 <1>   0.0800 
 37 H      -14.3350    -2.5760    -1.5470 H     1 <1>   0.0800 
 38 H      -15.7510    -2.2440    -0.5810 H     1 <1>   0.0800 
 39 H      -14.3760    -0.1040    -2.1410 H     1 <1>   0.0800 
 40 H      -14.2740     1.0960    -0.8700 H     1 <1>   0.0800 
 41 H      -15.7190     0.1460    -1.0630 H     1 <1>   0.0800 
 42 H      -14.2410    -1.3330     1.9590 H     1 <1>   0.0800 
 43 H      -15.5990    -0.4730     1.2930 H     1 <1>   0.0800 
 44 H      -14.0830     0.3540     1.5540 H     1 <1>   0.0800 
 45 H       -2.7860    -4.4550    -1.8110 H     1 <1>   0.0800 
 46 H       -2.0450    -5.7190    -0.8730 H     1 <1>   0.0800 
 47 H       -1.5000    -4.0820    -0.6720 H     1 <1>   0.0800 
 48 H       -2.3790    -1.5470    -1.2960 H     1 <1>   0.0800 
 49 H       -2.0060    -0.3660    -0.0740 H     1 <1>   0.0800 
 50 H       -3.6530    -0.5580    -0.5990 H     1 <1>   0.0800 
@<TRIPOS>BOND
  1   1   2  1   
  2   1   3  1   
  3   2   4  ar  
  4   2   5  ar  
  5   3   6  1   
  6   3  21  1   
  7   3  22  1   
  8   4   7  ar  
  9   4  23  1   
 10   5   8  ar  
 11   5  24  1   
 12   6   9  1   
 13   6  10  1   
 14   6  25  1   
 15   7  11  ar  
 16   7  26  1   
 17   8  11  ar  
 18   8  27  1   
 19   9  28  1   
 20  10  12  1   
 21  10  29  1   
 22  10  30  1   
 23  11  13  1   
 24  12  14  1   
 25  12  15  1   
 26  12  31  1   
 27  13  16  1   
 28  13  17  1   
 29  13  18  1   
 30  14  19  1   
 31  14  32  1   
 32  14  33  1   
 33  15  20  1   
 34  15  34  1   
 35  15  35  1   
 36  16  36  1   
 37  16  37  1   
 38  16  38  1   
 39  17  39  1   
 40  17  40  1   
 41  17  41  1   
 42  18  42  1   
 43  18  43  1   
 44  18  44  1   
 45  19  45  1   
 46  19  46  1   
 47  19  47  1   
 48  20  48  1   
 49  20  49  1   
 50  20  50  1   
@<TRIPOS>SUBSTRUCTURE
  1 ****   1 GROUP 4 **** **** 0

# MOE 2024.06 (io_trps.svl 2023.06)
