@<TRIPOS>MOLECULE
NONAME
44 46 1 0 0 
SMALL
USER_CHARGES


@<TRIPOS>ATOM
  1 CL      -1.6740     0.3920     0.1480 Cl    1 <1>  -0.1770 
  2 C       -0.9810     1.9940     0.1160 C.ar  1 <1>   0.1770 
  3 C       -1.6700     3.0200    -0.5080 C.ar  1 <1>  -0.1440 
  4 C        0.2420     2.2090     0.7280 C.ar  1 <1>  -0.1500 
  5 C       -1.1020     4.2820    -0.4960 C.ar  1 <1>   0.1770 
  6 C       -2.9990     2.7650    -1.1880 C.3   1 <1>   0.4870 
  7 C        0.7950     3.4790     0.7230 C.ar  1 <1>  -0.1500 
  8 CL      -1.9470     5.6150    -1.2430 Cl    1 <1>  -0.1770 
  9 C        0.1200     4.5220     0.1090 C.ar  1 <1>  -0.1500 
 10 N       -4.0650     2.5830    -0.1680 N.4   1 <1>  -0.9590 
 11 C       -5.3700     2.2240    -0.8300 C.3   1 <1>   0.3430 
 12 C       -4.2330     3.8150     0.6910 C.3   1 <1>   0.3430 
 13 C       -6.5260     2.0400     0.1740 C.3   1 <1>   0.2090 
 14 C       -5.3780     3.6930     1.7190 C.3   1 <1>   0.2090 
 15 N       -6.6460     3.1950     1.1100 N.pl3 1 <1>  -0.8380 
 16 C       -7.6290     4.1490     0.8080 C.ar  1 <1>   0.1000 
 17 C       -7.5200     5.1060    -0.2190 C.ar  1 <1>   0.0830 
 18 C       -8.7790     4.1320     1.5840 C.ar  1 <1>  -0.1500 
 19 O       -6.3810     5.1250    -0.9840 O.3   1 <1>  -0.3620 
 20 C       -8.5630     6.0020    -0.4350 C.ar  1 <1>  -0.1500 
 21 C       -9.8080     5.0280     1.3650 C.ar  1 <1>  -0.1500 
 22 C       -6.1290     6.1910    -1.8770 C.3   1 <1>   0.0400 
 23 C       -9.7010     5.9640     0.3540 C.ar  1 <1>  -0.1500 
 24 H        0.7570     1.3900     1.2030 H     1 <1>   0.1500 
 25 H       -2.9180     1.8760    -1.7930 H     1 <1>   0.0800 
 26 H       -3.2500     3.5880    -1.8370 H     1 <1>   0.0800 
 27 H        1.7480     3.6560     1.1960 H     1 <1>   0.1500 
 28 H        0.5390     5.5140     0.1000 H     1 <1>   0.1500 
 29 H       -3.7910     1.8040     0.4450 H     1 <1>   0.4500 
 30 H       -5.2570     1.3140    -1.3960 H     1 <1>   0.0800 
 31 H       -5.6520     3.0040    -1.5170 H     1 <1>   0.0800 
 32 H       -4.4380     4.6650     0.0640 H     1 <1>   0.0800 
 33 H       -3.3190     4.0220     1.2210 H     1 <1>   0.0800 
 34 H       -6.3730     1.1410     0.7450 H     1 <1>   0.0800 
 35 H       -7.4490     1.9260    -0.3690 H     1 <1>   0.0800 
 36 H       -5.5530     4.6570     2.1660 H     1 <1>   0.0800 
 37 H       -5.0840     3.0220     2.5080 H     1 <1>   0.0800 
 38 H       -8.8630     3.4040     2.3700 H     1 <1>   0.1500 
 39 H       -8.5230     6.7420    -1.2110 H     1 <1>   0.1500 
 40 H      -10.6910     4.9960     1.9800 H     1 <1>   0.1500 
 41 H       -5.1480     6.0610    -2.2950 H     1 <1>   0.0800 
 42 H       -6.1720     7.1210    -1.3350 H     1 <1>   0.0800 
 43 H       -6.8640     6.1730    -2.6630 H     1 <1>   0.0800 
 44 H      -10.5020     6.6620     0.1810 H     1 <1>   0.1500 
@<TRIPOS>BOND
  1   1   2  1   
  2   2   3  ar  
  3   2   4  ar  
  4   3   5  ar  
  5   3   6  1   
  6   4   7  ar  
  7   4  24  1   
  8   5   8  1   
  9   5   9  ar  
 10   6  10  1   
 11   6  25  1   
 12   6  26  1   
 13   7   9  ar  
 14   7  27  1   
 15   9  28  1   
 16  10  11  1   
 17  10  12  1   
 18  10  29  1   
 19  11  13  1   
 20  11  30  1   
 21  11  31  1   
 22  12  14  1   
 23  12  32  1   
 24  12  33  1   
 25  13  15  1   
 26  13  34  1   
 27  13  35  1   
 28  14  15  1   
 29  14  36  1   
 30  14  37  1   
 31  15  16  1   
 32  16  17  ar  
 33  16  18  ar  
 34  17  19  1   
 35  17  20  ar  
 36  18  21  ar  
 37  18  38  1   
 38  19  22  1   
 39  20  23  ar  
 40  20  39  1   
 41  21  23  ar  
 42  21  40  1   
 43  22  41  1   
 44  22  42  1   
 45  22  43  1   
 46  23  44  1   
@<TRIPOS>SUBSTRUCTURE
  1 ****  12 GROUP 4 **** **** 0

# MOE 2024.06 (io_trps.svl 2023.06)
