@<TRIPOS>MOLECULE
NONAME
34 36 1 0 0 
SMALL
USER_CHARGES


@<TRIPOS>ATOM
  1 N       -2.0260     0.4480    -0.0040 N.pl3 1 <1>  -0.8440 
  2 C       -3.3120     0.1620    -0.0030 C.cat 1 <1>   1.2000 
  3 C       -1.8040     1.9200    -0.0060 C.3   1 <1>   0.1680 
  4 N       -4.0550     1.2470    -0.0050 N.pl3 1 <1>  -0.7050 
  5 N       -4.0380    -0.9600    -0.0010 N.pl3 1 <1>  -0.7050 
  6 C       -3.2460     2.4840    -0.0070 C.3   1 <1>   0.1680 
  7 C       -5.3750     0.8520    -0.0040 C.ar  1 <1>   0.3110 
  8 C       -5.3680    -0.5330    -0.0020 C.ar  1 <1>   0.3110 
  9 C       -3.6680    -2.4000     0.0010 C.3   1 <1>   0.1680 
 10 C       -6.5630     1.5660    -0.0050 C.ar  1 <1>  -0.1500 
 11 C       -6.5670    -1.2330    -0.0010 C.ar  1 <1>  -0.1500 
 12 C       -2.1590    -2.6350     0.0010 C.3   1 <1>  -0.2400 
 13 C       -7.7600     0.8710    -0.0040 C.ar  1 <1>  -0.1430 
 14 C       -7.7620    -0.5330    -0.0020 C.ar  1 <1>  -0.1430 
 15 C       -9.0650     1.6570    -0.0050 C.3   1 <1>  -0.0970 
 16 C       -9.0710    -1.3130    -0.0010 C.3   1 <1>  -0.0970 
 17 H       -1.2830    -0.2470    -0.0030 H     1 <1>   0.4500 
 18 H       -1.2680     2.2290    -0.8890 H     1 <1>   0.0800 
 19 H       -1.2680     2.2320     0.8750 H     1 <1>   0.0800 
 20 H       -3.4390     3.0680    -0.8910 H     1 <1>   0.0800 
 21 H       -3.4390     3.0710     0.8750 H     1 <1>   0.0800 
 22 H       -4.0970    -2.8700    -0.8690 H     1 <1>   0.0800 
 23 H       -4.0960    -2.8670     0.8730 H     1 <1>   0.0800 
 24 H       -6.5340     2.6400    -0.0070 H     1 <1>   0.1500 
 25 H       -6.5540    -2.3070     0.0010 H     1 <1>   0.1500 
 26 H       -1.7060    -2.2280    -0.8860 H     1 <1>   0.0800 
 27 H       -1.9720    -3.6950     0.0030 H     1 <1>   0.0800 
 28 H       -1.7060    -2.2250     0.8860 H     1 <1>   0.0800 
 29 H       -8.8820     2.7170    -0.0070 H     1 <1>   0.0800 
 30 H       -9.6430     1.4200     0.8700 H     1 <1>   0.0800 
 31 H       -9.6430     1.4170    -0.8800 H     1 <1>   0.0800 
 32 H       -8.8930    -2.3730     0.0010 H     1 <1>   0.0800 
 33 H       -9.6470    -1.0720    -0.8760 H     1 <1>   0.0800 
 34 H       -9.6470    -1.0690     0.8740 H     1 <1>   0.0800 
@<TRIPOS>BOND
  1   1   2  ar  
  2   1   3  1   
  3   1  17  1   
  4   2   4  ar  
  5   2   5  ar  
  6   3   6  1   
  7   3  18  1   
  8   3  19  1   
  9   4   6  1   
 10   4   7  1   
 11   5   8  1   
 12   5   9  1   
 13   6  20  1   
 14   6  21  1   
 15   7   8  ar  
 16   7  10  ar  
 17   8  11  ar  
 18   9  12  1   
 19   9  22  1   
 20   9  23  1   
 21  10  13  ar  
 22  10  24  1   
 23  11  14  ar  
 24  11  25  1   
 25  12  26  1   
 26  12  27  1   
 27  12  28  1   
 28  13  14  ar  
 29  13  15  1   
 30  14  16  1   
 31  15  29  1   
 32  15  30  1   
 33  15  31  1   
 34  16  32  1   
 35  16  33  1   
 36  16  34  1   
@<TRIPOS>SUBSTRUCTURE
  1 ****   8 GROUP 4 **** **** 0

# MOE 2024.06 (io_trps.svl 2023.06)
