@<TRIPOS>MOLECULE
NONAME
44 46 1 0 0 
SMALL
USER_CHARGES


@<TRIPOS>ATOM
  1 N        0.1700    -0.1890    -0.6060 N.4   1 <1>  -0.9590 
  2 C        1.3750     0.7080    -0.4690 C.3   1 <1>   0.4230 
  3 C       -1.0650     0.6140    -0.9620 C.3   1 <1>   0.3430 
  4 C       -0.0610    -1.0900     0.5950 C.3   1 <1>   0.3430 
  5 C        2.6780    -0.0990    -0.5540 C.3   1 <1>  -0.0170 
  6 C        1.3530     1.5370     0.8220 C.3   1 <1>  -0.1600 
  7 C       -2.3570    -0.2470    -1.0680 C.3   1 <1>   0.3430 
  8 C       -1.3530    -1.9500     0.4860 C.3   1 <1>   0.3430 
  9 C        3.8910     0.7880    -0.3350 C.ar  1 <1>  -0.1440 
 10 C        2.4590     2.5970     0.7670 C.3   1 <1>  -0.0160 
 11 N       -2.5850    -1.1470     0.1300 N.4   1 <1>  -0.9590 
 12 C        3.7880     2.0280     0.2870 C.ar  1 <1>  -0.1440 
 13 C        5.1310     0.3330    -0.7590 C.ar  1 <1>  -0.1500 
 14 C       -3.7540    -2.0580    -0.0740 C.3   1 <1>   0.3430 
 15 C        4.9290     2.7940     0.4720 C.ar  1 <1>  -0.1500 
 16 C        6.2630     1.1030    -0.5700 C.ar  1 <1>  -0.1500 
 17 C       -5.0460    -1.2510    -0.0430 C.3   1 <1>  -0.2400 
 18 C        6.1620     2.3360     0.0470 C.ar  1 <1>  -0.1500 
 19 H        0.3890    -0.7910    -1.4150 H     1 <1>   0.4500 
 20 H        1.3840     1.4010    -1.2970 H     1 <1>   0.0800 
 21 H       -0.9070     1.1220    -1.9000 H     1 <1>   0.0800 
 22 H       -1.2280     1.3730    -0.2140 H     1 <1>   0.0800 
 23 H       -0.1340    -0.4880     1.4860 H     1 <1>   0.0800 
 24 H        0.7840    -1.7470     0.7250 H     1 <1>   0.0800 
 25 H        2.7560    -0.5550    -1.5250 H     1 <1>   0.0800 
 26 H        2.7050    -0.8670     0.1960 H     1 <1>   0.0800 
 27 H        1.5430     0.9100     1.6750 H     1 <1>   0.0800 
 28 H        0.4140     2.0420     0.9580 H     1 <1>   0.0800 
 29 H       -2.2930    -0.8500    -1.9590 H     1 <1>   0.0800 
 30 H       -3.2020     0.4120    -1.1910 H     1 <1>   0.0800 
 31 H       -1.5120    -2.4600     1.4230 H     1 <1>   0.0800 
 32 H       -1.1930    -2.7080    -0.2640 H     1 <1>   0.0800 
 33 H        2.5880     3.0310     1.7450 H     1 <1>   0.0800 
 34 H        2.1720     3.3890     0.0960 H     1 <1>   0.0800 
 35 H       -2.8390    -0.5590     0.9410 H     1 <1>   0.4500 
 36 H        5.2330    -0.6260    -1.2380 H     1 <1>   0.1500 
 37 H       -3.7890    -2.7920     0.7170 H     1 <1>   0.0800 
 38 H       -3.6680    -2.5830    -1.0130 H     1 <1>   0.0800 
 39 H        4.8680     3.7570     0.9490 H     1 <1>   0.1500 
 40 H        7.2230     0.7460    -0.9000 H     1 <1>   0.1500 
 41 H       -5.1450    -0.7090     0.8810 H     1 <1>   0.0800 
 42 H       -5.8800    -1.9290    -0.1120 H     1 <1>   0.0800 
 43 H       -5.1170    -0.5740    -0.8750 H     1 <1>   0.0800 
 44 H        7.0420     2.9370     0.1950 H     1 <1>   0.1500 
@<TRIPOS>BOND
  1   1   2  1   
  2   1   3  1   
  3   1   4  1   
  4   1  19  1   
  5   2   5  1   
  6   2   6  1   
  7   2  20  1   
  8   3   7  1   
  9   3  21  1   
 10   3  22  1   
 11   4   8  1   
 12   4  23  1   
 13   4  24  1   
 14   5   9  1   
 15   5  25  1   
 16   5  26  1   
 17   6  10  1   
 18   6  27  1   
 19   6  28  1   
 20   7  11  1   
 21   7  29  1   
 22   7  30  1   
 23   8  11  1   
 24   8  31  1   
 25   8  32  1   
 26   9  12  ar  
 27   9  13  ar  
 28  10  12  1   
 29  10  33  1   
 30  10  34  1   
 31  11  14  1   
 32  11  35  1   
 33  12  15  ar  
 34  13  16  ar  
 35  13  36  1   
 36  14  17  1   
 37  14  37  1   
 38  14  38  1   
 39  15  18  ar  
 40  15  39  1   
 41  16  18  ar  
 42  16  40  1   
 43  17  41  1   
 44  17  42  1   
 45  17  43  1   
 46  18  44  1   
@<TRIPOS>SUBSTRUCTURE
  1 ****   2 GROUP 4 **** **** 0

# MOE 2024.06 (io_trps.svl 2023.06)
