@<TRIPOS>MOLECULE
NONAME
29 29 1 0 0 
SMALL
USER_CHARGES


@<TRIPOS>ATOM
  1 O       -0.1740    -3.3750     0.9090 O.2   1 <1>  -0.5700 
  2 C        0.1760    -2.3590     0.3520 C.2   1 <1>   0.5690 
  3 N        1.4550    -1.9740     0.1520 N.am  1 <1>  -0.6600 
  4 C       -0.7850    -1.3450    -0.2130 C.3   1 <1>  -0.0990 
  5 C        1.5610    -0.6580    -0.5140 C.3   1 <1>   0.1400 
  6 C        2.6550    -2.6680     0.7470 C.3   1 <1>   0.2010 
  7 C        0.1220    -0.3480    -0.9610 C.3   1 <1>  -0.1600 
  8 C        3.8550    -1.7430     0.9790 C.2   1 <1>   0.7200 
  9 O        3.8130    -0.8980     1.8500 O.2   1 <1>  -0.5700 
 10 N        4.8990    -1.8960     0.1200 N.2   1 <1>  -0.6610 
 11 C        5.6880    -0.8800     0.0560 C.2   1 <1>   0.4400 
 12 N        6.5370     0.2130    -0.0130 N.pl3 1 <1>  -0.7880 
 13 C        7.7040     0.3690    -0.9370 C.3   1 <1>   0.1290 
 14 C        6.3420     1.3250     0.9510 C.3   1 <1>   0.1290 
 15 H       -1.4890    -1.8170    -0.8790 H     1 <1>   0.0800 
 16 H       -1.3000    -0.8590     0.5970 H     1 <1>   0.0800 
 17 H        1.9030     0.0820     0.1960 H     1 <1>   0.0800 
 18 H        2.2310    -0.6990    -1.3540 H     1 <1>   0.0800 
 19 H        2.3800    -3.1130     1.6850 H     1 <1>   0.0800 
 20 H        2.9610    -3.4600     0.0870 H     1 <1>   0.0800 
 21 H       -0.1390     0.6780    -0.7560 H     1 <1>   0.0800 
 22 H        0.0470    -0.5100    -2.0260 H     1 <1>   0.0800 
 23 H        6.2970    -1.3990    -0.6620 H     1 <1>   0.0600 
 24 H        7.6460     1.3190    -1.4390 H     1 <1>   0.0800 
 25 H        7.7170    -0.4070    -1.6820 H     1 <1>   0.0800 
 26 H        8.6200     0.3250    -0.3740 H     1 <1>   0.0800 
 27 H        7.1940     1.3920     1.6080 H     1 <1>   0.0800 
 28 H        5.4610     1.1500     1.5470 H     1 <1>   0.0800 
 29 H        6.2240     2.2550     0.4220 H     1 <1>   0.0800 
@<TRIPOS>BOND
  1   1   2  2   
  2   2   3  am  
  3   2   4  1   
  4   3   5  1   
  5   3   6  1   
  6   4   7  1   
  7   4  15  1   
  8   4  16  1   
  9   5   7  1   
 10   5  17  1   
 11   5  18  1   
 12   6   8  1   
 13   6  19  1   
 14   6  20  1   
 15   7  21  1   
 16   7  22  1   
 17   8   9  2   
 18   8  10  1   
 19  10  11  2   
 20  11  12  1   
 21  11  23  1   
 22  12  13  1   
 23  12  14  1   
 24  13  24  1   
 25  13  25  1   
 26  13  26  1   
 27  14  27  1   
 28  14  28  1   
 29  14  29  1   
@<TRIPOS>SUBSTRUCTURE
  1 ****   8 GROUP 4 **** **** 0

# MOE 2024.06 (io_trps.svl 2023.06)
