@<TRIPOS>MOLECULE
NONAME
48 52 1 0 0 
SMALL
USER_CHARGES


@<TRIPOS>ATOM
  1 S        0.8220     1.0630    -1.7240 S.3   1 <1>  -0.0800 
  2 C        0.4360    -0.5030    -1.0140 C.2   1 <1>   0.3250 
  3 C       -0.7700     1.1630    -2.4040 C.2   1 <1>  -0.1100 
  4 N       -0.7720    -0.8710    -1.2810 N.2   1 <1>  -0.5650 
  5 C        1.4380    -1.2050    -0.2410 C.ar  1 <1>   0.0530 
  6 C       -1.4460     0.0560    -2.0630 C.2   1 <1>   0.0460 
  7 C        1.2450    -2.5580     0.0660 C.ar  1 <1>  -0.1500 
  8 C        2.6110    -0.5900     0.2310 C.ar  1 <1>  -0.1500 
  9 C       -2.8840    -0.2760    -2.4340 C.3   1 <1>   0.5240 
 10 C        2.1920    -3.2280     0.8080 C.ar  1 <1>   0.0830 
 11 C        3.5580    -1.2790     0.9760 C.ar  1 <1>  -0.1500 
 12 N       -3.5470    -0.8260    -1.2190 N.4   1 <1>  -0.9590 
 13 O        2.1840    -4.5070     1.1990 O.3   1 <1>  -0.3630 
 14 C        3.3210    -2.6090     1.2530 C.ar  1 <1>   0.0830 
 15 C       -4.7590    -1.6570    -1.5440 C.3   1 <1>   0.3430 
 16 C       -3.8180     0.2590    -0.2080 C.3   1 <1>   0.3430 
 17 C        3.3870    -4.7150     1.9370 C.3   1 <1>   0.4000 
 18 O        4.0760    -3.4660     1.9430 O.3   1 <1>  -0.3630 
 19 C       -5.4810    -2.1680    -0.2760 C.3   1 <1>   0.1400 
 20 C       -4.5280    -0.2900     1.0430 C.3   1 <1>   0.1400 
 21 N       -5.7630    -1.0280     0.6400 N.am  1 <1>  -0.6600 
 22 C       -6.9350    -0.3210     0.4710 C.2   1 <1>   0.7150 
 23 O       -6.8260     0.8590     0.1840 O.2   1 <1>  -0.5700 
 24 C       -8.2200    -0.9810     0.5560 C.2   1 <1>   0.0550 
 25 O       -9.2820    -0.5020    -0.0860 O.3   1 <1>  -0.2800 
 26 C       -8.5950    -2.1140     1.2160 C.2   1 <1>  -0.1500 
 27 C      -10.3100    -1.2840     0.1470 C.2   1 <1>  -0.0100 
 28 C       -9.9510    -2.3080     0.9490 C.2   1 <1>  -0.1500 
 29 H       -1.0100     2.0390    -2.9820 H     1 <1>   0.1500 
 30 H        0.3720    -3.0850    -0.2710 H     1 <1>   0.1500 
 31 H        2.7990     0.4480     0.0220 H     1 <1>   0.1500 
 32 H       -2.8700    -1.0230    -3.2100 H     1 <1>   0.0800 
 33 H       -3.4000     0.5970    -2.7960 H     1 <1>   0.0800 
 34 H        4.4540    -0.8040     1.3350 H     1 <1>   0.1500 
 35 H       -2.8090    -1.4270    -0.8120 H     1 <1>   0.4500 
 36 H       -4.4740    -2.5000    -2.1520 H     1 <1>   0.0800 
 37 H       -5.4590    -1.0630    -2.1090 H     1 <1>   0.0800 
 38 H       -4.4490     1.0170    -0.6440 H     1 <1>   0.0800 
 39 H       -2.8920     0.7260     0.0880 H     1 <1>   0.0800 
 40 H        3.9900    -5.4570     1.4440 H     1 <1>   0.0800 
 41 H        3.1480    -5.0000     2.9460 H     1 <1>   0.0800 
 42 H       -4.8690    -2.8950     0.2300 H     1 <1>   0.0800 
 43 H       -6.3990    -2.6530    -0.5620 H     1 <1>   0.0800 
 44 H       -4.7890     0.5280     1.6940 H     1 <1>   0.0800 
 45 H       -3.8710    -0.9460     1.5870 H     1 <1>   0.0800 
 46 H       -7.9880    -2.7490     1.8360 H     1 <1>   0.1500 
 47 H      -11.2630    -1.0410    -0.2930 H     1 <1>   0.1500 
 48 H      -10.5610    -3.1130     1.3220 H     1 <1>   0.1500 
@<TRIPOS>BOND
  1   1   2  1   
  2   1   3  1   
  3   2   4  2   
  4   2   5  1   
  5   3   6  2   
  6   3  29  1   
  7   4   6  1   
  8   5   7  ar  
  9   5   8  ar  
 10   6   9  1   
 11   7  10  ar  
 12   7  30  1   
 13   8  11  ar  
 14   8  31  1   
 15   9  12  1   
 16   9  32  1   
 17   9  33  1   
 18  10  13  1   
 19  10  14  ar  
 20  11  14  ar  
 21  11  34  1   
 22  12  15  1   
 23  12  16  1   
 24  12  35  1   
 25  13  17  1   
 26  14  18  1   
 27  15  19  1   
 28  15  36  1   
 29  15  37  1   
 30  16  20  1   
 31  16  38  1   
 32  16  39  1   
 33  17  18  1   
 34  17  40  1   
 35  17  41  1   
 36  19  21  1   
 37  19  42  1   
 38  19  43  1   
 39  20  21  1   
 40  20  44  1   
 41  20  45  1   
 42  21  22  am  
 43  22  23  2   
 44  22  24  1   
 45  24  25  1   
 46  24  26  2   
 47  25  27  1   
 48  26  28  1   
 49  26  46  1   
 50  27  28  2   
 51  27  47  1   
 52  28  48  1   
@<TRIPOS>SUBSTRUCTURE
  1 ****  12 GROUP 4 **** **** 0

# MOE 2024.06 (io_trps.svl 2023.06)
