@<TRIPOS>MOLECULE
NONAME
58 60 1 0 0 
SMALL
USER_CHARGES


@<TRIPOS>ATOM
  1 O       -4.3950    -3.0660    -0.2630 O.3   1 <1>  -0.3630 
  2 C       -5.6900    -2.7600     0.0130 C.ar  1 <1>   0.0830 
  3 C       -3.3710    -2.0980    -0.1830 C.3   1 <1>   0.1200 
  4 C       -6.6370    -3.7700    -0.1320 C.ar  1 <1>  -0.1440 
  5 C       -6.0960    -1.4930     0.4290 C.ar  1 <1>  -0.1500 
  6 C       -2.0460    -2.7680    -0.5630 C.3   1 <1>   0.2000 
  7 C       -7.9700    -3.5020     0.1390 C.ar  1 <1>  -0.1500 
  8 C       -6.2300    -5.1650    -0.5840 C.3   1 <1>  -0.0960 
  9 C       -7.4290    -1.2410     0.6950 C.ar  1 <1>  -0.1500 
 10 O       -1.8930    -3.9320     0.1940 O.3   1 <1>  -0.6800 
 11 C       -0.8260    -1.8520    -0.3270 C.3   1 <1>   0.3430 
 12 C       -8.3730    -2.2430     0.5510 C.ar  1 <1>  -0.1440 
 13 N        0.4170    -2.6660    -0.1630 N.4   1 <1>  -0.9590 
 14 C       -9.8370    -1.9680     0.8450 C.3   1 <1>  -0.0970 
 15 C        1.4870    -1.9660     0.6350 C.3   1 <1>   0.3430 
 16 C        0.9560    -3.1930    -1.4700 C.3   1 <1>   0.3430 
 17 C        2.7480    -2.8340     0.8210 C.3   1 <1>   0.2090 
 18 C        2.2140    -4.0630    -1.2790 C.3   1 <1>   0.2090 
 19 N        3.2520    -3.3330    -0.4920 N.pl3 1 <1>  -0.8380 
 20 C        4.4960    -3.9770    -0.4310 C.ar  1 <1>   0.1000 
 21 C        4.7180    -5.2010     0.2270 C.ar  1 <1>   0.0830 
 22 C        5.5640    -3.3570    -1.0630 C.ar  1 <1>  -0.1500 
 23 O        3.6570    -5.8070     0.8490 O.3   1 <1>  -0.3630 
 24 C        5.9930    -5.7590     0.2300 C.ar  1 <1>  -0.1500 
 25 C        6.8280    -3.9170    -1.0560 C.ar  1 <1>  -0.1500 
 26 C        3.8080    -7.0410     1.5180 C.3   1 <1>   0.0400 
 27 C        7.0430    -5.1190    -0.4090 C.ar  1 <1>  -0.1500 
 28 H       -3.3360    -1.7260     0.8260 H     1 <1>   0.0800 
 29 H       -3.6060    -1.2990    -0.8640 H     1 <1>   0.0800 
 30 H       -5.4000    -0.6880     0.5540 H     1 <1>   0.1500 
 31 H       -2.0870    -3.0560    -1.6000 H     1 <1>   0.0800 
 32 H       -8.7050    -4.2800     0.0300 H     1 <1>   0.1500 
 33 H       -5.7400    -5.1110    -1.5390 H     1 <1>   0.0800 
 34 H       -7.0860    -5.8080    -0.6770 H     1 <1>   0.0800 
 35 H       -5.5550    -5.5970     0.1320 H     1 <1>   0.0800 
 36 H       -7.7310    -0.2600     1.0170 H     1 <1>   0.1500 
 37 H       -2.7720    -4.3770     0.2510 H     1 <1>   0.4000 
 38 H       -1.0020    -1.2930     0.5770 H     1 <1>   0.0800 
 39 H       -0.7200    -1.1490    -1.1370 H     1 <1>   0.0800 
 40 H        0.0980    -3.4980     0.3710 H     1 <1>   0.4500 
 41 H      -10.0600    -2.2410     1.8600 H     1 <1>   0.0800 
 42 H      -10.4640    -2.5390     0.1840 H     1 <1>   0.0800 
 43 H      -10.0610    -0.9260     0.7070 H     1 <1>   0.0800 
 44 H        1.1040    -1.6970     1.6050 H     1 <1>   0.0800 
 45 H        1.7800    -1.0620     0.1290 H     1 <1>   0.0800 
 46 H        1.2150    -2.3690    -2.1130 H     1 <1>   0.0800 
 47 H        0.2010    -3.7810    -1.9660 H     1 <1>   0.0800 
 48 H        2.5210    -3.6640     1.4670 H     1 <1>   0.0800 
 49 H        3.5190    -2.2510     1.2940 H     1 <1>   0.0800 
 50 H        2.6210    -4.3220    -2.2420 H     1 <1>   0.0800 
 51 H        1.9470    -4.9770    -0.7790 H     1 <1>   0.0800 
 52 H        5.3980    -2.4220    -1.5660 H     1 <1>   0.1500 
 53 H        6.2000    -6.6900     0.7210 H     1 <1>   0.1500 
 54 H        7.6420    -3.4190    -1.5520 H     1 <1>   0.1500 
 55 H        2.8520    -7.3240     1.9220 H     1 <1>   0.0800 
 56 H        4.5190    -6.9220     2.3170 H     1 <1>   0.0800 
 57 H        4.1390    -7.7830     0.8130 H     1 <1>   0.0800 
 58 H        8.0260    -5.5580    -0.4020 H     1 <1>   0.1500 
@<TRIPOS>BOND
  1   1   2  1   
  2   1   3  1   
  3   2   4  ar  
  4   2   5  ar  
  5   3   6  1   
  6   3  28  1   
  7   3  29  1   
  8   4   7  ar  
  9   4   8  1   
 10   5   9  ar  
 11   5  30  1   
 12   6  10  1   
 13   6  11  1   
 14   6  31  1   
 15   7  12  ar  
 16   7  32  1   
 17   8  33  1   
 18   8  34  1   
 19   8  35  1   
 20   9  12  ar  
 21   9  36  1   
 22  10  37  1   
 23  11  13  1   
 24  11  38  1   
 25  11  39  1   
 26  12  14  1   
 27  13  15  1   
 28  13  16  1   
 29  13  40  1   
 30  14  41  1   
 31  14  42  1   
 32  14  43  1   
 33  15  17  1   
 34  15  44  1   
 35  15  45  1   
 36  16  18  1   
 37  16  46  1   
 38  16  47  1   
 39  17  19  1   
 40  17  48  1   
 41  17  49  1   
 42  18  19  1   
 43  18  50  1   
 44  18  51  1   
 45  19  20  1   
 46  20  21  ar  
 47  20  22  ar  
 48  21  23  1   
 49  21  24  ar  
 50  22  25  ar  
 51  22  52  1   
 52  23  26  1   
 53  24  27  ar  
 54  24  53  1   
 55  25  27  ar  
 56  25  54  1   
 57  26  55  1   
 58  26  56  1   
 59  26  57  1   
 60  27  58  1   
@<TRIPOS>SUBSTRUCTURE
  1 ****  10 GROUP 4 **** **** 0

# MOE 2024.06 (io_trps.svl 2023.06)
