@<TRIPOS>MOLECULE
NONAME
48 51 1 0 0 
SMALL
USER_CHARGES


@<TRIPOS>ATOM
  1 S        0.4260    -0.1000     0.3460 S.3   1 <1>  -0.0800 
  2 C       -0.1390     1.5450     0.0870 C.2   1 <1>  -0.1400 
  3 C       -0.4570    -0.6710    -1.0590 C.2   1 <1>  -0.1100 
  4 C       -0.9340     1.6040    -0.9980 C.2   1 <1>  -0.1500 
  5 C        0.3240     2.6050     1.0650 C.3   1 <1>   0.3200 
  6 C       -1.1150     0.3430    -1.6500 C.2   1 <1>  -0.1500 
  7 N        1.7770     2.7710     0.9100 N.am  1 <1>  -0.7300 
  8 C        2.4610     3.9140     1.2120 C.2   1 <1>   0.7160 
  9 O        1.8370     4.8160     1.7440 O.2   1 <1>  -0.5700 
 10 C        3.8840     4.0130     0.9100 C.2   1 <1>   0.2030 
 11 N        4.5500     5.1030     0.5710 N.2   1 <1>  -0.7070 
 12 C        4.7540     2.9120     0.9450 C.2   1 <1>  -0.1500 
 13 N        5.8170     4.7040     0.3570 N.pl3 1 <1>   0.3140 
 14 C        5.9710     3.3830     0.6130 C.2   1 <1>  -0.0680 
 15 C        6.9520     5.6080     0.0720 C.3   1 <1>   0.1760 
 16 N        7.2070     2.7310     0.5440 N.pl3 1 <1>  -0.8530 
 17 C        6.6090     6.5400    -1.0980 C.3   1 <1>   1.0200 
 18 C        8.2620     4.8030    -0.1720 C.3   1 <1>  -0.1600 
 19 C        8.3940     3.5850     0.7480 C.3   1 <1>   0.4330 
 20 F        7.6750     7.2440    -1.4690 F     1 <1>  -0.3400 
 21 F        5.6750     7.4410    -0.8250 F     1 <1>  -0.3400 
 22 F        6.2150     5.8950    -2.1910 F     1 <1>  -0.3400 
 23 C        9.6620     2.7960     0.4490 C.ar  1 <1>  -0.1430 
 24 C       10.7430     2.8630     1.3170 C.ar  1 <1>  -0.1500 
 25 C        9.7640     2.0070    -0.6890 C.ar  1 <1>  -0.1500 
 26 C       11.9030     2.1570     1.0490 C.ar  1 <1>  -0.1500 
 27 C       10.9250     1.3020    -0.9560 C.ar  1 <1>  -0.1500 
 28 C       12.0020     1.3750    -0.0890 C.ar  1 <1>  -0.1430 
 29 C       13.2740     0.6000    -0.3800 C.3   1 <1>  -0.0970 
 30 H       -0.3870    -1.7180    -1.2960 H     1 <1>   0.1500 
 31 H       -1.4090     2.4920    -1.3790 H     1 <1>   0.1500 
 32 H        0.0990     2.3040     2.0730 H     1 <1>   0.0800 
 33 H       -0.1750     3.5380     0.8610 H     1 <1>   0.0800 
 34 H       -1.7300     0.2600    -2.5300 H     1 <1>   0.1500 
 35 H        2.2210     2.0560     0.3340 H     1 <1>   0.3700 
 36 H        4.4900     1.9040     1.2050 H     1 <1>   0.1500 
 37 H        7.0820     6.2190     0.9440 H     1 <1>   0.0800 
 38 H        7.2870     1.8490     1.0660 H     1 <1>   0.4000 
 39 H        9.1130     5.4440    -0.0330 H     1 <1>   0.0800 
 40 H        8.2900     4.4560    -1.1910 H     1 <1>   0.0800 
 41 H        8.4100     3.9090     1.7760 H     1 <1>   0.0800 
 42 H       10.6940     3.4630     2.2080 H     1 <1>   0.1500 
 43 H        8.9340     1.9380    -1.3720 H     1 <1>   0.1500 
 44 H       12.7320     2.2180     1.7330 H     1 <1>   0.1500 
 45 H       10.9830     0.6950    -1.8420 H     1 <1>   0.1500 
 46 H       13.2150    -0.3760     0.0660 H     1 <1>   0.0800 
 47 H       14.1280     1.1150     0.0200 H     1 <1>   0.0800 
 48 H       13.4120     0.4890    -1.4410 H     1 <1>   0.0800 
@<TRIPOS>BOND
  1   1   2  1   
  2   1   3  1   
  3   2   4  2   
  4   2   5  1   
  5   3   6  2   
  6   3  30  1   
  7   4   6  1   
  8   4  31  1   
  9   5   7  1   
 10   5  32  1   
 11   5  33  1   
 12   6  34  1   
 13   7   8  am  
 14   7  35  1   
 15   8   9  2   
 16   8  10  1   
 17  10  11  2   
 18  10  12  1   
 19  11  13  1   
 20  12  14  2   
 21  12  36  1   
 22  13  14  1   
 23  13  15  1   
 24  14  16  1   
 25  15  17  1   
 26  15  18  1   
 27  15  37  1   
 28  16  19  1   
 29  16  38  1   
 30  17  20  1   
 31  17  21  1   
 32  17  22  1   
 33  18  19  1   
 34  18  39  1   
 35  18  40  1   
 36  19  23  1   
 37  19  41  1   
 38  23  24  ar  
 39  23  25  ar  
 40  24  26  ar  
 41  24  42  1   
 42  25  27  ar  
 43  25  43  1   
 44  26  28  ar  
 45  26  44  1   
 46  27  28  ar  
 47  27  45  1   
 48  28  29  1   
 49  29  46  1   
 50  29  47  1   
 51  29  48  1   
@<TRIPOS>SUBSTRUCTURE
  1 ****  14 GROUP 4 **** **** 0

# MOE 2024.06 (io_trps.svl 2023.06)
