@<TRIPOS>MOLECULE
NONAME
34 36 1 0 0 
SMALL
USER_CHARGES


@<TRIPOS>ATOM
  1 N       -0.3340     0.2340     0.2550 N.2   1 <1>  -0.6520 
  2 N       -0.6840     1.5090    -0.1490 N.pl3 1 <1>   0.5050 
  3 C        0.9370     0.0000     0.2510 C.2   1 <1>   0.3750 
  4 C        0.1670     2.4900    -0.5230 C.2   1 <1>   0.1410 
  5 C       -1.8720     2.0970    -0.2630 C.2   1 <1>   0.0360 
  6 C        1.9170     0.9450    -0.1220 C.2   1 <1>  -0.1360 
  7 C        1.4050    -1.3750     0.6740 C.3   1 <1>  -0.1790 
  8 N       -0.4890     3.5860    -0.8370 N.2   1 <1>  -0.3380 
  9 C        1.5560     2.2050    -0.5110 C.2   1 <1>   0.1450 
 10 N       -1.7800     3.3250    -0.6690 N.2   1 <1>  -0.3380 
 11 N        2.4690     3.1750    -0.8950 N.pl3 1 <1>  -0.8690 
 12 C        3.6540     3.4880    -0.0800 C.3   1 <1>   0.2890 
 13 C        3.4660     4.8720     0.5470 C.3   1 <1>  -0.1600 
 14 C        4.8920     3.4490    -0.9790 C.3   1 <1>  -0.1600 
 15 C        4.7190     5.3050     1.3230 C.3   1 <1>  -0.1600 
 16 C        6.1520     3.8790    -0.2110 C.3   1 <1>  -0.1600 
 17 C        5.9660     5.2620     0.4280 C.3   1 <1>  -0.1600 
 18 H       -2.7850     1.5820    -0.0360 H     1 <1>   0.1500 
 19 H        2.9500     0.6560    -0.1060 H     1 <1>   0.1500 
 20 H        2.0470    -1.2960     1.5310 H     1 <1>   0.0800 
 21 H        1.9420    -1.8410    -0.1310 H     1 <1>   0.0800 
 22 H        0.5640    -1.9950     0.9300 H     1 <1>   0.0800 
 23 H        2.0190     4.0330    -1.2420 H     1 <1>   0.4000 
 24 H        3.7650     2.7610     0.7070 H     1 <1>   0.0800 
 25 H        2.6210     4.8490     1.2130 H     1 <1>   0.0800 
 26 H        3.2690     5.5920    -0.2280 H     1 <1>   0.0800 
 27 H        4.7450     4.1110    -1.8140 H     1 <1>   0.0800 
 28 H        5.0240     2.4510    -1.3580 H     1 <1>   0.0800 
 29 H        4.8620     4.6500     2.1660 H     1 <1>   0.0800 
 30 H        4.5810     6.3030     1.7010 H     1 <1>   0.0800 
 31 H        6.9920     3.9020    -0.8830 H     1 <1>   0.0800 
 32 H        6.3660     3.1570     0.5580 H     1 <1>   0.0800 
 33 H        6.8360     5.5100     1.0110 H     1 <1>   0.0800 
 34 H        5.8700     6.0020    -0.3490 H     1 <1>   0.0800 
@<TRIPOS>BOND
  1   1   2  1   
  2   1   3  2   
  3   2   4  1   
  4   2   5  1   
  5   3   6  1   
  6   3   7  1   
  7   4   8  2   
  8   4   9  1   
  9   5  10  2   
 10   5  18  1   
 11   6   9  2   
 12   6  19  1   
 13   7  20  1   
 14   7  21  1   
 15   7  22  1   
 16   8  10  1   
 17   9  11  1   
 18  11  12  1   
 19  11  23  1   
 20  12  13  1   
 21  12  14  1   
 22  12  24  1   
 23  13  15  1   
 24  13  25  1   
 25  13  26  1   
 26  14  16  1   
 27  14  27  1   
 28  14  28  1   
 29  15  17  1   
 30  15  29  1   
 31  15  30  1   
 32  16  17  1   
 33  16  31  1   
 34  16  32  1   
 35  17  33  1   
 36  17  34  1   
@<TRIPOS>SUBSTRUCTURE
  1 ****   9 GROUP 4 **** **** 0

# MOE 2024.06 (io_trps.svl 2023.06)
