@<TRIPOS>MOLECULE
NONAME
32 32 1 0 0 
SMALL
USER_CHARGES


@<TRIPOS>ATOM
  1 O        0.0220     1.2120    -2.1930 O.2   1 <1>  -0.5700 
  2 C       -0.0190     1.7570    -1.1190 C.2   1 <1>   0.5690 
  3 N        1.0590     1.8680    -0.2840 N.am  1 <1>  -0.5470 
  4 C       -1.3260     2.3960    -0.6790 C.3   1 <1>  -0.0990 
  5 C        2.3660     1.3700    -0.3970 C.ar  1 <1>   0.1170 
  6 C       -2.2070     1.5280     0.2510 C.3   1 <1>   0.0000 
  7 C        3.3760     1.9730     0.3410 C.ar  1 <1>  -0.1500 
  8 C        2.6960     0.2870    -1.2040 C.ar  1 <1>  -0.1500 
  9 C       -2.5590     0.1940    -0.4240 C.3   1 <1>  -0.2400 
 10 C       -3.5100     2.2890     0.5390 C.3   1 <1>  -0.2400 
 11 C       -1.5090     1.2420     1.5900 C.3   1 <1>  -0.2400 
 12 C        4.6900     1.5260     0.2860 C.ar  1 <1>   0.0730 
 13 C        3.9970    -0.1730    -1.2740 C.ar  1 <1>  -0.1500 
 14 C        5.7150     2.1680     1.0580 C.1   1 <1>   0.4840 
 15 C        4.9890     0.4430    -0.5330 C.ar  1 <1>  -0.1500 
 16 N        6.5220     2.6830     1.6770 N.1   1 <1>  -0.5570 
 17 H        0.8750     2.4010     0.5630 H     1 <1>   0.3700 
 18 H       -1.8830     2.6260    -1.5690 H     1 <1>   0.0800 
 19 H       -1.1060     3.3310    -0.1990 H     1 <1>   0.0800 
 20 H        3.1370     2.8120     0.9700 H     1 <1>   0.1500 
 21 H        1.9360    -0.2070    -1.7820 H     1 <1>   0.1500 
 22 H       -1.6760    -0.3940    -0.6010 H     1 <1>   0.0800 
 23 H       -3.2250    -0.3810     0.1950 H     1 <1>   0.0800 
 24 H       -3.0410     0.3660    -1.3710 H     1 <1>   0.0800 
 25 H       -3.3060     3.2260     1.0260 H     1 <1>   0.0800 
 26 H       -4.1540     1.7100     1.1790 H     1 <1>   0.0800 
 27 H       -4.0410     2.4900    -0.3750 H     1 <1>   0.0800 
 28 H       -1.2180     2.1580     2.0730 H     1 <1>   0.0800 
 29 H       -0.6370     0.6290     1.4480 H     1 <1>   0.0800 
 30 H       -2.1730     0.7120     2.2500 H     1 <1>   0.0800 
 31 H        4.2350    -1.0120    -1.9060 H     1 <1>   0.1500 
 32 H        6.0010     0.0800    -0.5930 H     1 <1>   0.1500 
@<TRIPOS>BOND
  1   1   2  2   
  2   2   3  am  
  3   2   4  1   
  4   3   5  1   
  5   3  17  1   
  6   4   6  1   
  7   4  18  1   
  8   4  19  1   
  9   5   7  ar  
 10   5   8  ar  
 11   6   9  1   
 12   6  10  1   
 13   6  11  1   
 14   7  12  ar  
 15   7  20  1   
 16   8  13  ar  
 17   8  21  1   
 18   9  22  1   
 19   9  23  1   
 20   9  24  1   
 21  10  25  1   
 22  10  26  1   
 23  10  27  1   
 24  11  28  1   
 25  11  29  1   
 26  11  30  1   
 27  12  14  1   
 28  12  15  ar  
 29  13  15  ar  
 30  13  31  1   
 31  14  16  3   
 32  15  32  1   
@<TRIPOS>SUBSTRUCTURE
  1 ****   3 GROUP 4 **** **** 0

# MOE 2024.06 (io_trps.svl 2023.06)
