@<TRIPOS>MOLECULE
NONAME
34 35 1 0 0 
SMALL
USER_CHARGES


@<TRIPOS>ATOM
  1 S        0.0550    -0.2790    -0.0220 S.3   1 <1>  -0.0800 
  2 C        1.3210     0.9440     0.0680 C.2   1 <1>  -0.1400 
  3 C       -1.2060     0.9390     0.0330 C.2   1 <1>  -0.1400 
  4 C        0.7750     2.1800     0.1210 C.2   1 <1>   0.0630 
  5 C        2.7390     0.4040     0.0700 C.3   1 <1>   0.0200 
  6 C       -0.6590     2.1670     0.1080 C.2   1 <1>  -0.1500 
  7 C       -2.6370     0.4310    -0.0110 C.3   1 <1>   0.0200 
  8 N        1.4450     3.4120     0.1860 N.am  1 <1>  -0.4930 
  9 C        3.8040     1.4500     0.4230 C.3   1 <1>  -0.1600 
 10 C       -3.6620     1.5700     0.0370 C.3   1 <1>  -0.1600 
 11 C        2.7420     3.7300    -0.0450 C.2   1 <1>   0.5690 
 12 C        3.7550     2.6880    -0.4880 C.3   1 <1>  -0.0990 
 13 C       -5.0960     1.0300    -0.0110 C.3   1 <1>  -0.1600 
 14 O        3.1070     4.8700     0.0900 O.2   1 <1>  -0.5700 
 15 C       -6.1260     2.1700     0.0360 C.3   1 <1>  -0.2660 
 16 C       -7.5460     1.6540    -0.0100 C.2   1 <1>   0.9060 
 17 O       -8.1110     1.3920     1.0560 O.co2 1 <1>  -0.9000 
 18 O       -8.0840     1.5080    -1.1110 O.co2 1 <1>  -0.9000 
 19 H        2.9480    -0.0090    -0.9010 H     1 <1>   0.0800 
 20 H        2.7990    -0.3990     0.7840 H     1 <1>   0.0800 
 21 H       -1.2120     3.0860     0.1520 H     1 <1>   0.1500 
 22 H       -2.7980    -0.2280     0.8240 H     1 <1>   0.0800 
 23 H       -2.7770    -0.1360    -0.9150 H     1 <1>   0.0800 
 24 H        0.8820     4.2250     0.4310 H     1 <1>   0.3700 
 25 H        4.7710     0.9870     0.3280 H     1 <1>   0.0800 
 26 H        3.6890     1.7530     1.4500 H     1 <1>   0.0800 
 27 H       -3.5040     2.2280    -0.8010 H     1 <1>   0.0800 
 28 H       -3.5270     2.1350     0.9430 H     1 <1>   0.0800 
 29 H        3.5450     2.4030    -1.5030 H     1 <1>   0.0800 
 30 H        4.7230     3.1550    -0.4790 H     1 <1>   0.0800 
 31 H       -5.2730     0.3730     0.8250 H     1 <1>   0.0800 
 32 H       -5.2500     0.4650    -0.9150 H     1 <1>   0.0800 
 33 H       -5.9910     2.8280    -0.8010 H     1 <1>   0.0800 
 34 H       -6.0140     2.7360     0.9400 H     1 <1>   0.0800 
@<TRIPOS>BOND
  1   1   2  1   
  2   1   3  1   
  3   2   4  2   
  4   2   5  1   
  5   3   6  2   
  6   3   7  1   
  7   4   6  1   
  8   4   8  1   
  9   5   9  1   
 10   5  19  1   
 11   5  20  1   
 12   6  21  1   
 13   7  10  1   
 14   7  22  1   
 15   7  23  1   
 16   8  11  am  
 17   8  24  1   
 18   9  12  1   
 19   9  25  1   
 20   9  26  1   
 21  10  13  1   
 22  10  27  1   
 23  10  28  1   
 24  11  12  1   
 25  11  14  2   
 26  12  29  1   
 27  12  30  1   
 28  13  15  1   
 29  13  31  1   
 30  13  32  1   
 31  15  16  1   
 32  15  33  1   
 33  15  34  1   
 34  16  17  ar  
 35  16  18  ar  
@<TRIPOS>SUBSTRUCTURE
  1 ****   6 GROUP 4 **** **** 0

# MOE 2024.06 (io_trps.svl 2023.06)
