@<TRIPOS>MOLECULE
NONAME
38 39 1 0 0 
SMALL
USER_CHARGES


@<TRIPOS>ATOM
  1 O        0.2170    -0.9040     0.3620 O.3   1 <1>  -0.3630 
  2 C       -0.9920    -0.9570    -0.2580 C.ar  1 <1>   0.0830 
  3 C        1.3850    -0.5410    -0.3280 C.3   1 <1>   0.1200 
  4 C       -2.0850    -1.3730     0.4980 C.ar  1 <1>  -0.1440 
  5 C       -1.1710    -0.6160    -1.5980 C.ar  1 <1>  -0.1500 
  6 C        2.5410    -0.6120     0.6740 C.3   1 <1>   0.3430 
  7 C       -3.3370    -1.4460    -0.0910 C.ar  1 <1>  -0.1500 
  8 C       -1.9250    -1.7510     1.9640 C.3   1 <1>  -0.0960 
  9 C       -2.4260    -0.6920    -2.1740 C.ar  1 <1>  -0.1500 
 10 N        3.8590    -0.2160     0.0780 N.4   1 <1>  -0.9590 
 11 C       -3.5080    -1.1070    -1.4220 C.ar  1 <1>  -0.1500 
 12 C        4.3350    -1.1940    -0.9490 C.3   1 <1>   0.3430 
 13 C        4.8730    -0.0350     1.1590 C.3   1 <1>   0.3430 
 14 C        5.6240    -0.6800    -1.5930 C.3   1 <1>  -0.1600 
 15 C        6.1740     0.5060     0.5630 C.3   1 <1>  -0.1600 
 16 C        6.7120    -0.4060    -0.5470 C.3   1 <1>  -0.1600 
 17 H        1.2560     0.4620    -0.6960 H     1 <1>   0.0800 
 18 H        1.5200    -1.2380    -1.1360 H     1 <1>   0.0800 
 19 H       -0.3570    -0.2880    -2.2140 H     1 <1>   0.1500 
 20 H        2.6060    -1.6170     1.0590 H     1 <1>   0.0800 
 21 H        2.3080     0.0480     1.4940 H     1 <1>   0.0800 
 22 H       -4.1890    -1.7660     0.4820 H     1 <1>   0.1500 
 23 H       -1.5410    -0.9130     2.5170 H     1 <1>   0.0800 
 24 H       -1.2390    -2.5740     2.0560 H     1 <1>   0.0800 
 25 H       -2.8660    -2.0420     2.3950 H     1 <1>   0.0800 
 26 H       -2.5650    -0.4290    -3.2090 H     1 <1>   0.1500 
 27 H        3.7560     0.6970    -0.3850 H     1 <1>   0.4500 
 28 H       -4.4850    -1.1670    -1.8690 H     1 <1>   0.1500 
 29 H        3.5880    -1.3300    -1.7130 H     1 <1>   0.0800 
 30 H        4.5230    -2.1490    -0.4840 H     1 <1>   0.0800 
 31 H        5.0650    -0.9800     1.6420 H     1 <1>   0.0800 
 32 H        4.5050     0.6560     1.9010 H     1 <1>   0.0800 
 33 H        5.4140     0.2180    -2.1480 H     1 <1>   0.0800 
 34 H        5.9840    -1.4130    -2.2940 H     1 <1>   0.0800 
 35 H        6.9110     0.5880     1.3430 H     1 <1>   0.0800 
 36 H        6.0070     1.4970     0.1770 H     1 <1>   0.0800 
 37 H        7.5660     0.0540    -1.0170 H     1 <1>   0.0800 
 38 H        7.0400    -1.3380    -0.1170 H     1 <1>   0.0800 
@<TRIPOS>BOND
  1   1   2  1   
  2   1   3  1   
  3   2   4  ar  
  4   2   5  ar  
  5   3   6  1   
  6   3  17  1   
  7   3  18  1   
  8   4   7  ar  
  9   4   8  1   
 10   5   9  ar  
 11   5  19  1   
 12   6  10  1   
 13   6  20  1   
 14   6  21  1   
 15   7  11  ar  
 16   7  22  1   
 17   8  23  1   
 18   8  24  1   
 19   8  25  1   
 20   9  11  ar  
 21   9  26  1   
 22  10  12  1   
 23  10  13  1   
 24  10  27  1   
 25  11  28  1   
 26  12  14  1   
 27  12  29  1   
 28  12  30  1   
 29  13  15  1   
 30  13  31  1   
 31  13  32  1   
 32  14  16  1   
 33  14  33  1   
 34  14  34  1   
 35  15  16  1   
 36  15  35  1   
 37  15  36  1   
 38  16  37  1   
 39  16  38  1   
@<TRIPOS>SUBSTRUCTURE
  1 ****   3 GROUP 4 **** **** 0

# MOE 2024.06 (io_trps.svl 2023.06)
