@<TRIPOS>MOLECULE
NONAME
38 39 1 0 0 
SMALL
USER_CHARGES


@<TRIPOS>ATOM
  1 O       -0.5950    -0.0550     0.6010 O.3   1 <1>  -0.3630 
  2 C       -1.7590    -0.6200     0.2440 C.ar  1 <1>   0.0830 
  3 C        0.4400    -0.9310     0.1630 C.3   1 <1>   0.4000 
  4 C       -3.0520    -0.1550     0.4390 C.ar  1 <1>   0.0830 
  5 C       -1.5220    -1.8050    -0.3860 C.ar  1 <1>   0.0830 
  6 O       -0.2090    -2.0410    -0.4560 O.3   1 <1>  -0.3630 
  7 O       -3.2220     1.0350     1.0760 O.3   1 <1>  -0.3630 
  8 C       -4.1030    -0.9460    -0.0310 C.ar  1 <1>  -0.1500 
  9 C       -2.5470    -2.6000    -0.8580 C.ar  1 <1>  -0.1500 
 10 C       -4.4950     1.6220     1.2260 C.3   1 <1>   0.0400 
 11 C       -3.8530    -2.1610    -0.6730 C.ar  1 <1>  -0.1430 
 12 C       -5.0080    -3.0080    -1.1540 C.3   1 <1>   0.4870 
 13 N       -5.4960    -3.7480     0.0220 N.4   1 <1>  -0.9060 
 14 C       -6.7750    -4.4570    -0.1620 C.3   1 <1>   0.4230 
 15 C       -7.9250    -3.4240    -0.1630 C.3   1 <1>   0.1200 
 16 C       -6.9100    -5.4210     1.0120 C.3   1 <1>  -0.2400 
 17 O       -7.5920    -2.3650     0.6970 O.3   1 <1>  -0.5600 
 18 C       -8.6270    -1.4500     0.8930 C.3   1 <1>   0.0400 
 19 H        1.0090    -1.2690     1.0100 H     1 <1>   0.0800 
 20 H        1.0580    -0.4260    -0.5570 H     1 <1>   0.0800 
 21 H       -5.1170    -0.6180     0.1020 H     1 <1>   0.1500 
 22 H       -2.3030    -3.5250    -1.3510 H     1 <1>   0.1500 
 23 H       -4.3670     2.5670     1.7230 H     1 <1>   0.0800 
 24 H       -5.1100     0.9770     1.8270 H     1 <1>   0.0800 
 25 H       -4.9260     1.7780     0.2530 H     1 <1>   0.0800 
 26 H       -4.6800    -3.6880    -1.9240 H     1 <1>   0.0800 
 27 H       -5.7830    -2.3720    -1.5480 H     1 <1>   0.0800 
 28 H       -5.7110    -3.0350     0.7400 H     1 <1>   0.4500 
 29 H       -4.7620    -4.3500     0.4030 H     1 <1>   0.4500 
 30 H       -6.7770    -5.0210    -1.0820 H     1 <1>   0.0800 
 31 H       -8.8440    -3.8790     0.1670 H     1 <1>   0.0800 
 32 H       -8.0710    -3.0250    -1.1530 H     1 <1>   0.0800 
 33 H       -6.9260    -4.8900     1.9480 H     1 <1>   0.0800 
 34 H       -6.1050    -6.1340     1.0160 H     1 <1>   0.0800 
 35 H       -7.8310    -5.9700     0.9260 H     1 <1>   0.0800 
 36 H       -8.2760    -0.6780     1.5560 H     1 <1>   0.0800 
 37 H       -9.4680    -1.9500     1.3440 H     1 <1>   0.0800 
 38 H       -8.9090    -1.0150    -0.0510 H     1 <1>   0.0800 
@<TRIPOS>BOND
  1   1   2  1   
  2   1   3  1   
  3   2   4  ar  
  4   2   5  ar  
  5   3   6  1   
  6   3  19  1   
  7   3  20  1   
  8   4   7  1   
  9   4   8  ar  
 10   5   6  1   
 11   5   9  ar  
 12   7  10  1   
 13   8  11  ar  
 14   8  21  1   
 15   9  11  ar  
 16   9  22  1   
 17  10  23  1   
 18  10  24  1   
 19  10  25  1   
 20  11  12  1   
 21  12  13  1   
 22  12  26  1   
 23  12  27  1   
 24  13  14  1   
 25  13  28  1   
 26  13  29  1   
 27  14  15  1   
 28  14  16  1   
 29  14  30  1   
 30  15  17  1   
 31  15  31  1   
 32  15  32  1   
 33  16  33  1   
 34  16  34  1   
 35  16  35  1   
 36  17  18  1   
 37  18  36  1   
 38  18  37  1   
 39  18  38  1   
@<TRIPOS>SUBSTRUCTURE
  1 ****   8 GROUP 4 **** **** 0

# MOE 2024.06 (io_trps.svl 2023.06)
