@<TRIPOS>MOLECULE
NONAME
35 35 1 0 0 
SMALL
USER_CHARGES


@<TRIPOS>ATOM
  1 BR       1.4660    -1.2990     2.0270 Br    1 <1>  -0.1110 
  2 C        2.9420    -1.1950     0.7780 C.ar  1 <1>   0.1110 
  3 C        3.5820     0.0140     0.5740 C.ar  1 <1>  -0.1440 
  4 C        3.3300    -2.3460     0.1050 C.ar  1 <1>   0.1660 
  5 C        4.6240    -0.0010    -0.3460 C.ar  1 <1>   0.0730 
  6 C        3.1720     1.2970     1.2860 C.3   1 <1>   0.2640 
  7 N        4.3220    -2.3660    -0.7670 N.ar  1 <1>  -0.6200 
  8 C        2.6250    -3.6700     0.3360 C.3   1 <1>  -0.0960 
  9 C        5.3780     1.1790    -0.6550 C.1   1 <1>   0.4840 
 10 C        4.9450    -1.2090    -0.9750 C.ar  1 <1>   0.3920 
 11 O        2.4550     2.0590     0.3730 O.3   1 <1>  -0.5600 
 12 N        5.9800     2.1290    -0.8460 N.1   1 <1>  -0.5570 
 13 O        5.9700    -1.2130    -1.8570 O.3   1 <1>  -0.3630 
 14 C        2.1350     3.3360     0.8210 C.3   1 <1>   0.0400 
 15 C        6.5020    -2.4260    -2.3870 C.3   1 <1>   0.1810 
 16 C        7.1930    -3.2800    -1.3280 C.2   1 <1>   0.6590 
 17 O        7.2540    -4.4800    -1.4340 O.2   1 <1>  -0.5700 
 18 O        7.7460    -2.6390    -0.3020 O.3   1 <1>  -0.4300 
 19 C        8.3920    -3.3320     0.7380 C.3   1 <1>   0.1200 
 20 C        8.8560    -2.3070     1.7680 C.3   1 <1>  -0.2400 
 21 H        4.0400     1.8540     1.5980 H     1 <1>   0.0800 
 22 H        2.5510     1.1150     2.1430 H     1 <1>   0.0800 
 23 H        3.0830    -4.4480    -0.2490 H     1 <1>   0.0800 
 24 H        1.5920    -3.5920     0.0480 H     1 <1>   0.0800 
 25 H        2.6850    -3.9460     1.3730 H     1 <1>   0.0800 
 26 H        1.5690     3.8280     0.0490 H     1 <1>   0.0800 
 27 H        3.0410     3.8870     1.0080 H     1 <1>   0.0800 
 28 H        1.5400     3.2630     1.7150 H     1 <1>   0.0800 
 29 H        7.2190    -2.1590    -3.1390 H     1 <1>   0.0800 
 30 H        5.7060    -2.9820    -2.8470 H     1 <1>   0.0800 
 31 H        9.2260    -3.8710     0.3220 H     1 <1>   0.0800 
 32 H        7.6920    -4.0260     1.1720 H     1 <1>   0.0800 
 33 H        9.5440    -1.6130     1.3160 H     1 <1>   0.0800 
 34 H        9.3560    -2.8060     2.5780 H     1 <1>   0.0800 
 35 H        8.0120    -1.7710     2.1630 H     1 <1>   0.0800 
@<TRIPOS>BOND
  1   1   2  1   
  2   2   3  ar  
  3   2   4  ar  
  4   3   5  ar  
  5   3   6  1   
  6   4   7  ar  
  7   4   8  1   
  8   5   9  1   
  9   5  10  ar  
 10   6  11  1   
 11   6  21  1   
 12   6  22  1   
 13   7  10  ar  
 14   8  23  1   
 15   8  24  1   
 16   8  25  1   
 17   9  12  3   
 18  10  13  1   
 19  11  14  1   
 20  13  15  1   
 21  14  26  1   
 22  14  27  1   
 23  14  28  1   
 24  15  16  1   
 25  15  29  1   
 26  15  30  1   
 27  16  17  2   
 28  16  18  1   
 29  18  19  1   
 30  19  20  1   
 31  19  31  1   
 32  19  32  1   
 33  20  33  1   
 34  20  34  1   
 35  20  35  1   
@<TRIPOS>SUBSTRUCTURE
  1 ****  10 GROUP 4 **** **** 0

# MOE 2024.06 (io_trps.svl 2023.06)
