@<TRIPOS>MOLECULE
NONAME
40 41 1 0 0 
SMALL
USER_CHARGES


@<TRIPOS>ATOM
  1 CL      -0.0520    -0.5500    -1.8010 Cl    1 <1>  -0.1770 
  2 C        0.8650    -1.6420    -0.7880 C.ar  1 <1>   0.1770 
  3 C        0.2420    -2.7370    -0.2070 C.ar  1 <1>  -0.1440 
  4 C        2.2050    -1.3780    -0.5880 C.ar  1 <1>  -0.1500 
  5 C        1.0030    -3.5760     0.5920 C.ar  1 <1>  -0.1500 
  6 C       -1.2360    -3.0190    -0.4350 C.3   1 <1>  -0.0960 
  7 C        2.9710    -2.2200     0.2110 C.ar  1 <1>   0.1170 
  8 C        2.3480    -3.3170     0.7970 C.ar  1 <1>  -0.1500 
  9 N        4.3340    -2.0040     0.4670 N.am  1 <1>  -0.5470 
 10 C        5.2730    -1.2900    -0.2290 C.2   1 <1>   0.5690 
 11 O        5.0430    -0.7290    -1.2710 O.2   1 <1>  -0.5700 
 12 C        6.6790    -1.2270     0.3540 C.3   1 <1>  -0.0190 
 13 C        7.4160     0.0360    -0.1150 C.3   1 <1>   0.1960 
 14 C        7.4960    -2.4800    -0.0090 C.3   1 <1>  -0.1600 
 15 N        8.7480     0.1150     0.5100 N.am  1 <1>  -0.8490 
 16 C        8.9290    -2.3450     0.5220 C.3   1 <1>  -0.1600 
 17 S        9.5260     1.5840     0.1830 S.o2  1 <1>   1.3330 
 18 C        9.5750    -1.0230     0.0900 C.3   1 <1>   0.1960 
 19 O        9.1870     1.9750    -1.1660 O.2   1 <1>  -0.6500 
 20 O       10.9120     1.4570     0.5700 O.2   1 <1>  -0.6500 
 21 C        8.7540     2.7070     1.3290 C.3   1 <1>  -0.1350 
 22 H        2.6370    -0.5150    -1.0570 H     1 <1>   0.1500 
 23 H        0.5510    -4.4350     1.0580 H     1 <1>   0.1500 
 24 H       -1.4250    -3.1570    -1.4850 H     1 <1>   0.0800 
 25 H       -1.8250    -2.1910    -0.0840 H     1 <1>   0.0800 
 26 H       -1.5460    -3.9060     0.0870 H     1 <1>   0.0800 
 27 H        2.9160    -3.9840     1.4190 H     1 <1>   0.1500 
 28 H        4.6900    -2.4980     1.2820 H     1 <1>   0.3700 
 29 H        6.5890    -1.1640     1.4230 H     1 <1>   0.0800 
 30 H        6.8330     0.9000     0.1540 H     1 <1>   0.0800 
 31 H        7.5140     0.0270    -1.1900 H     1 <1>   0.0800 
 32 H        7.5220    -2.5870    -1.0810 H     1 <1>   0.0800 
 33 H        7.0360    -3.3620     0.4020 H     1 <1>   0.0800 
 34 H        9.5270    -3.1630     0.1630 H     1 <1>   0.0800 
 35 H        8.9270    -2.3890     1.5970 H     1 <1>   0.0800 
 36 H       10.5500    -0.9560     0.5460 H     1 <1>   0.0800 
 37 H        9.7050    -1.0030    -0.9810 H     1 <1>   0.0800 
 38 H        9.2010     3.6780     1.2430 H     1 <1>   0.0800 
 39 H        7.7060     2.7920     1.1240 H     1 <1>   0.0800 
 40 H        8.8870     2.3540     2.3320 H     1 <1>   0.0800 
@<TRIPOS>BOND
  1   1   2  1   
  2   2   3  ar  
  3   2   4  ar  
  4   3   5  ar  
  5   3   6  1   
  6   4   7  ar  
  7   4  22  1   
  8   5   8  ar  
  9   5  23  1   
 10   6  24  1   
 11   6  25  1   
 12   6  26  1   
 13   7   8  ar  
 14   7   9  1   
 15   8  27  1   
 16   9  10  am  
 17   9  28  1   
 18  10  11  2   
 19  10  12  1   
 20  12  13  1   
 21  12  14  1   
 22  12  29  1   
 23  13  15  1   
 24  13  30  1   
 25  13  31  1   
 26  14  16  1   
 27  14  32  1   
 28  14  33  1   
 29  15  17  am  
 30  15  18  1   
 31  16  18  1   
 32  16  34  1   
 33  16  35  1   
 34  17  19  2   
 35  17  20  2   
 36  17  21  1   
 37  18  36  1   
 38  18  37  1   
 39  21  38  1   
 40  21  39  1   
 41  21  40  1   
@<TRIPOS>SUBSTRUCTURE
  1 ****  10 GROUP 4 **** **** 0

# MOE 2024.06 (io_trps.svl 2023.06)
