@<TRIPOS>MOLECULE
NONAME
34 34 1 0 0 
SMALL
USER_CHARGES


@<TRIPOS>ATOM
  1 BR       1.7150     1.0510     2.0390 Br    1 <1>  -0.1110 
  2 C        0.0310     1.4020     1.1560 C.ar  1 <1>   0.1110 
  3 C       -0.0950     2.4590     0.2570 C.ar  1 <1>   0.0830 
  4 C       -1.0320     0.5730     1.4610 C.ar  1 <1>  -0.1500 
  5 O        0.9320     3.2820    -0.0610 O.3   1 <1>  -0.3630 
  6 C       -1.3310     2.6900    -0.3260 C.ar  1 <1>  -0.1500 
  7 C       -2.2580     0.8100     0.8590 C.ar  1 <1>  -0.1500 
  8 C        2.0090     2.7390    -0.7880 C.3   1 <1>   0.1200 
  9 C       -2.4050     1.8660    -0.0280 C.ar  1 <1>  -0.1500 
 10 C        3.2960     3.2110    -0.1080 C.3   1 <1>   0.3430 
 11 N        4.4740     2.3790    -0.5150 N.4   1 <1>  -0.9060 
 12 C        5.7430     2.6890     0.1460 C.3   1 <1>   0.5030 
 13 C        6.1490     4.1300    -0.1570 C.3   1 <1>  -0.2400 
 14 C        5.6120     2.4570     1.6510 C.3   1 <1>  -0.2400 
 15 C        6.7730     1.7270    -0.4370 C.3   1 <1>  -0.2400 
 16 H       -0.9090    -0.2380     2.1570 H     1 <1>   0.1500 
 17 H       -1.4520     3.5120    -1.0100 H     1 <1>   0.1500 
 18 H       -3.0990     0.1760     1.0830 H     1 <1>   0.1500 
 19 H        1.9400     3.1030    -1.7970 H     1 <1>   0.0800 
 20 H        1.9310     1.6660    -0.7790 H     1 <1>   0.0800 
 21 H       -3.3630     2.0480    -0.4870 H     1 <1>   0.1500 
 22 H        3.1580     3.1350     0.9580 H     1 <1>   0.0800 
 23 H        3.4660     4.2450    -0.3570 H     1 <1>   0.0800 
 24 H        4.6280     2.4580    -1.5250 H     1 <1>   0.4500 
 25 H        4.2720     1.3930    -0.3150 H     1 <1>   0.4500 
 26 H        6.1930     4.3080    -1.2170 H     1 <1>   0.0800 
 27 H        7.1270     4.3230     0.2480 H     1 <1>   0.0800 
 28 H        5.4760     4.8360     0.2950 H     1 <1>   0.0800 
 29 H        4.9430     3.1650     2.1070 H     1 <1>   0.0800 
 30 H        6.5720     2.5820     2.1220 H     1 <1>   0.0800 
 31 H        5.2720     1.4590     1.8640 H     1 <1>   0.0800 
 32 H        6.8810     1.8670    -1.4980 H     1 <1>   0.0800 
 33 H        6.5060     0.7030    -0.2390 H     1 <1>   0.0800 
 34 H        7.7350     1.9040     0.0130 H     1 <1>   0.0800 
@<TRIPOS>BOND
  1   1   2  1   
  2   2   3  ar  
  3   2   4  ar  
  4   3   5  1   
  5   3   6  ar  
  6   4   7  ar  
  7   4  16  1   
  8   5   8  1   
  9   6   9  ar  
 10   6  17  1   
 11   7   9  ar  
 12   7  18  1   
 13   8  10  1   
 14   8  19  1   
 15   8  20  1   
 16   9  21  1   
 17  10  11  1   
 18  10  22  1   
 19  10  23  1   
 20  11  12  1   
 21  11  24  1   
 22  11  25  1   
 23  12  13  1   
 24  12  14  1   
 25  12  15  1   
 26  13  26  1   
 27  13  27  1   
 28  13  28  1   
 29  14  29  1   
 30  14  30  1   
 31  14  31  1   
 32  15  32  1   
 33  15  33  1   
 34  15  34  1   
@<TRIPOS>SUBSTRUCTURE
  1 ****   8 GROUP 4 **** **** 0

# MOE 2024.06 (io_trps.svl 2023.06)
