@<TRIPOS>MOLECULE
NONAME
40 41 1 0 0 
SMALL
USER_CHARGES


@<TRIPOS>ATOM
  1 N        0.2160     0.3120    -0.6590 N.4   1 <1>  -0.9590 
  2 C       -0.9320    -0.4710    -1.2410 C.3   1 <1>   0.3430 
  3 C        0.0480     1.8000    -0.6380 C.3   1 <1>   0.3430 
  4 C        1.5020    -0.0200    -1.3510 C.3   1 <1>   0.4860 
  5 C       -2.0540    -0.8050    -0.2130 C.3   1 <1>   0.3430 
  6 C       -1.3430     2.2730    -0.2120 C.3   1 <1>  -0.1600 
  7 C        2.6210     0.4290    -0.4350 C.ar  1 <1>  -0.1440 
  8 N       -2.8080     0.3640     0.3820 N.4   1 <1>  -0.9590 
  9 C       -1.9810     1.4830     0.9290 C.3   1 <1>   0.3430 
 10 C        2.9950    -0.3150     0.6820 C.ar  1 <1>  -0.1440 
 11 C        3.2700     1.6250    -0.7170 C.ar  1 <1>  -0.1500 
 12 C       -3.7400    -0.1310     1.4520 C.3   1 <1>   0.2630 
 13 C        3.9900     0.1730     1.5150 C.ar  1 <1>  -0.1500 
 14 C        2.3760    -1.6640     1.0320 C.3   1 <1>  -0.0970 
 15 C        4.2630     2.0980     0.1200 C.ar  1 <1>  -0.1500 
 16 C        4.6180     1.3730     1.2410 C.ar  1 <1>  -0.1500 
 17 H        0.4110     0.0130     0.3070 H     1 <1>   0.4500 
 18 H       -0.5570    -1.4100    -1.6160 H     1 <1>   0.0800 
 19 H       -1.3540     0.0580    -2.0800 H     1 <1>   0.0800 
 20 H        0.2610     2.2040    -1.6150 H     1 <1>   0.0800 
 21 H        0.7780     2.2170     0.0410 H     1 <1>   0.0800 
 22 H        1.5690     0.4830    -2.3030 H     1 <1>   0.0800 
 23 H        1.5860    -1.0820    -1.5180 H     1 <1>   0.0800 
 24 H       -1.6120    -1.3800     0.5840 H     1 <1>   0.0800 
 25 H       -2.7640    -1.4530    -0.7020 H     1 <1>   0.0800 
 26 H       -1.9990     2.3160    -1.0630 H     1 <1>   0.0800 
 27 H       -1.2270     3.2890     0.1230 H     1 <1>   0.0800 
 28 H       -3.4160     0.7700    -0.3490 H     1 <1>   0.4500 
 29 H       -2.6250     2.1520     1.4800 H     1 <1>   0.0800 
 30 H       -1.2320     1.1140     1.6110 H     1 <1>   0.0800 
 31 H        3.0200     2.2060    -1.5880 H     1 <1>   0.1500 
 32 H       -3.1840    -0.5590     2.2720 H     1 <1>   0.0800 
 33 H       -4.4040    -0.8850     1.0580 H     1 <1>   0.0800 
 34 H       -4.3400     0.6800     1.8340 H     1 <1>   0.0800 
 35 H        4.2960    -0.3800     2.3880 H     1 <1>   0.1500 
 36 H        1.4180    -1.5350     1.5000 H     1 <1>   0.0800 
 37 H        3.0090    -2.1960     1.7210 H     1 <1>   0.0800 
 38 H        2.2750    -2.2810     0.1570 H     1 <1>   0.0800 
 39 H        4.7660     3.0250    -0.0980 H     1 <1>   0.1500 
 40 H        5.3910     1.7390     1.8960 H     1 <1>   0.1500 
@<TRIPOS>BOND
  1   1   2  1   
  2   1   3  1   
  3   1   4  1   
  4   1  17  1   
  5   2   5  1   
  6   2  18  1   
  7   2  19  1   
  8   3   6  1   
  9   3  20  1   
 10   3  21  1   
 11   4   7  1   
 12   4  22  1   
 13   4  23  1   
 14   5   8  1   
 15   5  24  1   
 16   5  25  1   
 17   6   9  1   
 18   6  26  1   
 19   6  27  1   
 20   7  10  ar  
 21   7  11  ar  
 22   8   9  1   
 23   8  12  1   
 24   8  28  1   
 25   9  29  1   
 26   9  30  1   
 27  10  13  ar  
 28  10  14  1   
 29  11  15  ar  
 30  11  31  1   
 31  12  32  1   
 32  12  33  1   
 33  12  34  1   
 34  13  16  ar  
 35  13  35  1   
 36  14  36  1   
 37  14  37  1   
 38  14  38  1   
 39  15  16  ar  
 40  15  39  1   
 41  16  40  1   
@<TRIPOS>SUBSTRUCTURE
  1 ****   1 GROUP 4 **** **** 0

# MOE 2024.06 (io_trps.svl 2023.06)
