@<TRIPOS>MOLECULE
NONAME
40 42 1 0 0 
SMALL
USER_CHARGES


@<TRIPOS>ATOM
  1 O       -0.6860    -0.3120    -1.2140 O.2   1 <1>  -0.5700 
  2 C       -1.6560    -0.9350    -0.8270 C.2   1 <1>   0.7060 
  3 O       -2.8150    -0.2900    -0.7660 O.3   1 <1>  -0.2330 
  4 C       -1.6290    -2.3150    -0.4380 C.2   1 <1>  -0.1240 
  5 C       -3.9600    -0.8660    -0.3520 C.ar  1 <1>   0.0820 
  6 C       -2.7680    -2.9680    -0.0830 C.2   1 <1>  -0.1670 
  7 C       -0.2500    -2.9770    -0.4450 C.3   1 <1>  -0.0220 
  8 C       -4.0210    -2.2350    -0.0260 C.ar  1 <1>   0.0280 
  9 C       -5.0560    -0.0240    -0.2520 C.ar  1 <1>  -0.1500 
 10 C       -2.7250    -4.4530     0.2880 C.3   1 <1>  -0.0220 
 11 C       -0.2130    -4.2400     0.4170 C.3   1 <1>  -0.1600 
 12 C       -5.2980    -2.7100     0.3650 C.ar  1 <1>   0.0830 
 13 C       -6.2700    -0.5030     0.1900 C.ar  1 <1>  -0.1430 
 14 C       -1.3790    -5.1460     0.0390 C.3   1 <1>  -0.1600 
 15 O       -5.5450    -4.0060     0.6640 O.3   1 <1>  -0.3630 
 16 C       -6.3720    -1.8440     0.5050 C.ar  1 <1>  -0.1500 
 17 C       -7.4740     0.4100     0.3360 C.3   1 <1>  -0.0970 
 18 C       -6.0920    -4.8670    -0.3220 C.3   1 <1>   0.2000 
 19 C       -7.5580    -4.5280    -0.6100 C.3   1 <1>  -0.2400 
 20 C       -5.9830    -6.2930     0.2180 C.3   1 <1>  -0.2400 
 21 H        0.4900    -2.2910    -0.0690 H     1 <1>   0.0800 
 22 H        0.0140    -3.2180    -1.4600 H     1 <1>   0.0800 
 23 H       -4.9420     1.0120    -0.5160 H     1 <1>   0.1500 
 24 H       -3.4420    -4.9820    -0.3030 H     1 <1>   0.0800 
 25 H       -2.9920    -4.5550     1.3260 H     1 <1>   0.0800 
 26 H       -0.2870    -3.9690     1.4560 H     1 <1>   0.0800 
 27 H        0.7210    -4.7540     0.2680 H     1 <1>   0.0800 
 28 H       -1.3010    -5.4010    -1.0040 H     1 <1>   0.0800 
 29 H       -1.3360    -6.0610     0.6060 H     1 <1>   0.0800 
 30 H       -7.3070    -2.2270     0.8680 H     1 <1>   0.1500 
 31 H       -7.2300     1.4170     0.0490 H     1 <1>   0.0800 
 32 H       -7.8070     0.4160     1.3580 H     1 <1>   0.0800 
 33 H       -8.2760     0.0600    -0.2890 H     1 <1>   0.0800 
 34 H       -5.5070    -4.7620    -1.2200 H     1 <1>   0.0800 
 35 H       -8.1260    -4.5060     0.3020 H     1 <1>   0.0800 
 36 H       -7.9830    -5.2720    -1.2590 H     1 <1>   0.0800 
 37 H       -7.6350    -3.5820    -1.1140 H     1 <1>   0.0800 
 38 H       -6.5680    -6.3960     1.1140 H     1 <1>   0.0800 
 39 H       -4.9610    -6.5400     0.4370 H     1 <1>   0.0800 
 40 H       -6.3490    -6.9920    -0.5120 H     1 <1>   0.0800 
@<TRIPOS>BOND
  1   1   2  2   
  2   2   3  1   
  3   2   4  1   
  4   3   5  1   
  5   4   6  2   
  6   4   7  1   
  7   5   8  ar  
  8   5   9  ar  
  9   6   8  1   
 10   6  10  1   
 11   7  11  1   
 12   7  21  1   
 13   7  22  1   
 14   8  12  ar  
 15   9  13  ar  
 16   9  23  1   
 17  10  14  1   
 18  10  24  1   
 19  10  25  1   
 20  11  14  1   
 21  11  26  1   
 22  11  27  1   
 23  12  15  1   
 24  12  16  ar  
 25  13  16  ar  
 26  13  17  1   
 27  14  28  1   
 28  14  29  1   
 29  15  18  1   
 30  16  30  1   
 31  17  31  1   
 32  17  32  1   
 33  17  33  1   
 34  18  19  1   
 35  18  20  1   
 36  18  34  1   
 37  19  35  1   
 38  19  36  1   
 39  19  37  1   
 40  20  38  1   
 41  20  39  1   
 42  20  40  1   
@<TRIPOS>SUBSTRUCTURE
  1 ****   8 GROUP 4 **** **** 0

# MOE 2024.06 (io_trps.svl 2023.06)
