@<TRIPOS>MOLECULE
NONAME
42 44 1 0 0 
SMALL
USER_CHARGES


@<TRIPOS>ATOM
  1 N       -1.0990     0.5390     1.4390 N.ar  1 <1>  -0.6200 
  2 C       -2.3040     0.0370     1.2520 C.ar  1 <1>   0.1600 
  3 C       -0.5320     1.0850     0.3750 C.ar  1 <1>   0.1600 
  4 C       -2.9980     0.0730     0.0520 C.ar  1 <1>  -0.1440 
  5 C       -1.1260     1.1600    -0.8730 C.ar  1 <1>  -0.1500 
  6 C       -2.3920     0.6450    -1.0520 C.ar  1 <1>  -0.1500 
  7 C       -4.3960    -0.5020    -0.0340 C.3   1 <1>   0.4870 
  8 N       -5.3530     0.4370     0.6160 N.4   1 <1>  -0.9590 
  9 C       -6.7500    -0.1330     0.6660 C.3   1 <1>   0.3430 
 10 C       -5.3550     1.7980    -0.0440 C.3   1 <1>   0.3430 
 11 C       -7.7540     0.8090     1.3640 C.3   1 <1>   0.2090 
 12 C       -6.3220     2.7880     0.6360 C.3   1 <1>   0.2090 
 13 N       -7.6780     2.1950     0.8200 N.pl3 1 <1>  -0.8380 
 14 C       -8.6920     2.6130    -0.0400 C.ar  1 <1>   0.1000 
 15 C       -9.6780     3.5000     0.3960 C.ar  1 <1>  -0.1430 
 16 C       -8.7340     2.1490    -1.3510 C.ar  1 <1>  -0.1500 
 17 C      -10.6760     3.9020    -0.4760 C.ar  1 <1>  -0.1500 
 18 C       -9.6690     4.0340     1.8210 C.3   1 <1>  -0.0970 
 19 C       -9.7340     2.5540    -2.2150 C.ar  1 <1>  -0.1500 
 20 C      -10.7070     3.4320    -1.7770 C.ar  1 <1>  -0.1500 
 21 H       -2.7540    -0.4240     2.1150 H     1 <1>   0.1500 
 22 H        0.4580     1.4920     0.5050 H     1 <1>   0.1500 
 23 H       -0.5950     1.6160    -1.6910 H     1 <1>   0.1500 
 24 H       -2.8670     0.6920    -2.0180 H     1 <1>   0.1500 
 25 H       -4.4180    -1.4590     0.4620 H     1 <1>   0.0800 
 26 H       -4.6650    -0.6490    -1.0680 H     1 <1>   0.0800 
 27 H       -5.0420     0.5890     1.5840 H     1 <1>   0.4500 
 28 H       -6.7460    -1.0780     1.1840 H     1 <1>   0.0800 
 29 H       -7.1040    -0.3080    -0.3360 H     1 <1>   0.0800 
 30 H       -5.6500     1.6990    -1.0750 H     1 <1>   0.0800 
 31 H       -4.3630     2.2190    -0.0250 H     1 <1>   0.0800 
 32 H       -7.5560     0.8370     2.4210 H     1 <1>   0.0800 
 33 H       -8.7530     0.4290     1.2320 H     1 <1>   0.0800 
 34 H       -6.4010     3.6800     0.0360 H     1 <1>   0.0800 
 35 H       -5.9320     3.0790     1.5960 H     1 <1>   0.0800 
 36 H       -7.9850     1.4690    -1.7010 H     1 <1>   0.1500 
 37 H      -11.4400     4.5860    -0.1480 H     1 <1>   0.1500 
 38 H       -9.7530     3.2180     2.5160 H     1 <1>   0.0800 
 39 H      -10.4870     4.7120     1.9880 H     1 <1>   0.0800 
 40 H       -8.7490     4.5560     2.0090 H     1 <1>   0.0800 
 41 H       -9.7600     2.1900    -3.2280 H     1 <1>   0.1500 
 42 H      -11.4880     3.7510    -2.4460 H     1 <1>   0.1500 
@<TRIPOS>BOND
  1   1   2  ar  
  2   1   3  ar  
  3   2   4  ar  
  4   2  21  1   
  5   3   5  ar  
  6   3  22  1   
  7   4   6  ar  
  8   4   7  1   
  9   5   6  ar  
 10   5  23  1   
 11   6  24  1   
 12   7   8  1   
 13   7  25  1   
 14   7  26  1   
 15   8   9  1   
 16   8  10  1   
 17   8  27  1   
 18   9  11  1   
 19   9  28  1   
 20   9  29  1   
 21  10  12  1   
 22  10  30  1   
 23  10  31  1   
 24  11  13  1   
 25  11  32  1   
 26  11  33  1   
 27  12  13  1   
 28  12  34  1   
 29  12  35  1   
 30  13  14  1   
 31  14  15  ar  
 32  14  16  ar  
 33  15  17  ar  
 34  15  18  1   
 35  16  19  ar  
 36  16  36  1   
 37  17  20  ar  
 38  17  37  1   
 39  18  38  1   
 40  18  39  1   
 41  18  40  1   
 42  19  20  ar  
 43  19  41  1   
 44  20  42  1   
@<TRIPOS>SUBSTRUCTURE
  1 ****  10 GROUP 4 **** **** 0

# MOE 2024.06 (io_trps.svl 2023.06)
