@<TRIPOS>MOLECULE
NONAME
53 56 1 0 0 
SMALL
USER_CHARGES


@<TRIPOS>ATOM
  1 S        0.3670    -0.4260    -1.2390 S.3   1 <1>  -0.0800 
  2 C        1.2020    -0.7610     0.2740 C.2   1 <1>   0.4340 
  3 C       -1.1450    -0.4780    -0.3560 C.ar  1 <1>   0.0400 
  4 S        2.9870    -0.6890     0.2770 S.3   1 <1>  -0.2860 
  5 N        0.4710    -0.9870     1.2860 N.2   1 <1>  -0.5650 
  6 C       -0.8690    -0.8150     0.9590 C.ar  1 <1>   0.2270 
  7 C       -2.4110    -0.1820    -0.8190 C.ar  1 <1>  -0.1500 
  8 C        3.4450     0.5230    -1.0600 C.3   1 <1>   0.1310 
  9 C       -1.9280    -0.8890     1.8500 C.ar  1 <1>  -0.1500 
 10 C       -3.4610    -0.2100     0.0900 C.ar  1 <1>   0.1170 
 11 C        2.6560     1.8250    -0.9690 C.2   1 <1>   0.5690 
 12 C       -3.2070    -0.5850     1.4140 C.ar  1 <1>  -0.1500 
 13 N       -4.7430     0.1540    -0.3270 N.am  1 <1>  -0.5470 
 14 O        2.4860     2.4430    -1.9910 O.2   1 <1>  -0.5700 
 15 N        2.1400     2.2510     0.2180 N.am  1 <1>  -0.7300 
 16 C       -5.6370     0.9850     0.3040 C.2   1 <1>   0.5440 
 17 C        1.1750     3.3820     0.3630 C.3   1 <1>   0.1400 
 18 O       -5.3420     1.4970     1.3670 O.2   1 <1>  -0.5700 
 19 C       -6.9100     1.2500    -0.3340 C.ar  1 <1>   0.0860 
 20 C       -0.1820     2.8820     0.8770 C.3   1 <1>   0.2000 
 21 C       -7.3080     2.5350    -0.7250 C.ar  1 <1>  -0.1430 
 22 C       -7.7790     0.1890    -0.5920 C.ar  1 <1>  -0.1500 
 23 O       -1.1280     3.8940     0.8050 O.3   1 <1>  -0.5600 
 24 C       -0.2070     2.4730     2.3460 C.3   1 <1>  -0.1600 
 25 C       -8.5290     2.7270    -1.3520 C.ar  1 <1>  -0.1500 
 26 C       -6.4120     3.7420    -0.4710 C.3   1 <1>  -0.0970 
 27 C       -8.9950     0.3850    -1.2190 C.ar  1 <1>  -0.1500 
 28 C       -2.2220     3.5460     1.5920 C.3   1 <1>   0.1200 
 29 C       -1.6490     2.7420     2.7560 C.3   1 <1>  -0.1600 
 30 C       -9.3710     1.6590    -1.6020 C.ar  1 <1>  -0.1500 
 31 H       -2.5660     0.0910    -1.8460 H     1 <1>   0.1500 
 32 H        3.2560     0.0420    -2.0020 H     1 <1>   0.0800 
 33 H        4.4950     0.7210    -0.9610 H     1 <1>   0.0800 
 34 H       -1.7370    -1.1640     2.8710 H     1 <1>   0.1500 
 35 H       -4.0270    -0.6210     2.1100 H     1 <1>   0.1500 
 36 H       -4.9900    -0.0900    -1.2860 H     1 <1>   0.3700 
 37 H        2.2960     1.6920     1.0620 H     1 <1>   0.3700 
 38 H        1.0270     3.8530    -0.5940 H     1 <1>   0.0800 
 39 H        1.5780     4.1120     1.0420 H     1 <1>   0.0800 
 40 H       -0.5380     2.0850     0.2500 H     1 <1>   0.0800 
 41 H       -7.4990    -0.8050    -0.2900 H     1 <1>   0.1500 
 42 H        0.4580     3.1010     2.9120 H     1 <1>   0.0800 
 43 H        0.0770     1.4460     2.4840 H     1 <1>   0.0800 
 44 H       -8.8360     3.7150    -1.6510 H     1 <1>   0.1500 
 45 H       -5.4300     3.5710    -0.8760 H     1 <1>   0.0800 
 46 H       -6.3220     3.9130     0.5870 H     1 <1>   0.0800 
 47 H       -6.8150     4.6290    -0.9250 H     1 <1>   0.0800 
 48 H       -9.6500    -0.4480    -1.4080 H     1 <1>   0.1500 
 49 H       -2.8890     2.9430     0.9970 H     1 <1>   0.0800 
 50 H       -2.7230     4.4420     1.9150 H     1 <1>   0.0800 
 51 H       -1.6970     3.3080     3.6690 H     1 <1>   0.0800 
 52 H       -2.2090     1.8320     2.8780 H     1 <1>   0.0800 
 53 H      -10.3170     1.8200    -2.0890 H     1 <1>   0.1500 
@<TRIPOS>BOND
  1   1   2  1   
  2   1   3  1   
  3   2   4  1   
  4   2   5  2   
  5   3   6  ar  
  6   3   7  ar  
  7   4   8  1   
  8   5   6  1   
  9   6   9  ar  
 10   7  10  ar  
 11   7  31  1   
 12   8  11  1   
 13   8  32  1   
 14   8  33  1   
 15   9  12  ar  
 16   9  34  1   
 17  10  12  ar  
 18  10  13  1   
 19  11  14  2   
 20  11  15  am  
 21  12  35  1   
 22  13  16  am  
 23  13  36  1   
 24  15  17  1   
 25  15  37  1   
 26  16  18  2   
 27  16  19  1   
 28  17  20  1   
 29  17  38  1   
 30  17  39  1   
 31  19  21  ar  
 32  19  22  ar  
 33  20  23  1   
 34  20  24  1   
 35  20  40  1   
 36  21  25  ar  
 37  21  26  1   
 38  22  27  ar  
 39  22  41  1   
 40  23  28  1   
 41  24  29  1   
 42  24  42  1   
 43  24  43  1   
 44  25  30  ar  
 45  25  44  1   
 46  26  45  1   
 47  26  46  1   
 48  26  47  1   
 49  27  30  ar  
 50  27  48  1   
 51  28  29  1   
 52  28  49  1   
 53  28  50  1   
 54  29  51  1   
 55  29  52  1   
 56  30  53  1   
@<TRIPOS>SUBSTRUCTURE
  1 ****   7 GROUP 4 **** **** 0

# MOE 2024.06 (io_trps.svl 2023.06)
