@<TRIPOS>MOLECULE
NONAME
55 57 1 0 0 
SMALL
USER_CHARGES


@<TRIPOS>ATOM
  1 O       -1.1240     0.2060     2.5280 O.2   1 <1>  -0.5700 
  2 C       -0.4020    -0.4270     1.7950 C.2   1 <1>   0.5690 
  3 N       -0.7920    -0.8240     0.5560 N.am  1 <1>  -0.7300 
  4 C        1.0050    -0.8100     2.2660 C.3   1 <1>   0.1710 
  5 C       -2.0950    -0.5430    -0.0850 C.3   1 <1>   0.1400 
  6 N        1.9850    -1.0350     1.1630 N.3   1 <1>  -0.8100 
  7 C       -2.9400    -1.8150    -0.1280 C.3   1 <1>  -0.0170 
  8 C        3.2100    -1.6890     1.6760 C.3   1 <1>   0.1100 
  9 C        2.3500     0.2490     0.5130 C.3   1 <1>   0.1100 
 10 C       -4.2560    -1.5490    -0.8410 C.ar  1 <1>  -0.1430 
 11 C        4.2530    -1.9450     0.5700 C.3   1 <1>   0.2090 
 12 C        3.3670     0.0690    -0.6310 C.3   1 <1>   0.2090 
 13 C       -4.3950    -1.8340    -2.1900 C.ar  1 <1>  -0.1500 
 14 C       -5.3270    -1.0120    -0.1440 C.ar  1 <1>  -0.1500 
 15 N        4.5650    -0.7120    -0.2100 N.pl3 1 <1>  -0.8380 
 16 C       -5.5940    -1.5850    -2.8370 C.ar  1 <1>  -0.1500 
 17 C       -6.5260    -0.7620    -0.7900 C.ar  1 <1>  -0.1500 
 18 C        5.7420    -0.0220     0.0850 C.ar  1 <1>   0.1000 
 19 C       -6.6600    -1.0490    -2.1370 C.ar  1 <1>  -0.1500 
 20 C        6.8500    -0.0850    -0.7670 C.ar  1 <1>  -0.1430 
 21 C        5.8200     0.7400     1.2440 C.ar  1 <1>  -0.1500 
 22 C        8.0140     0.6100    -0.4440 C.ar  1 <1>  -0.1430 
 23 C        6.7300    -0.9300    -2.0360 C.3   1 <1>  -0.0970 
 24 C        6.9700     1.4300     1.5630 C.ar  1 <1>  -0.1500 
 25 C        8.0630     1.3640     0.7200 C.ar  1 <1>  -0.1500 
 26 C        9.2560     0.5770    -1.3240 C.3   1 <1>  -0.0970 
 27 H       -0.0820    -1.3200     0.0060 H     1 <1>   0.3700 
 28 H        0.9040    -1.7150     2.8380 H     1 <1>   0.0800 
 29 H        1.3670    -0.0430     2.9280 H     1 <1>   0.0800 
 30 H       -1.9310    -0.1750    -1.0830 H     1 <1>   0.0800 
 31 H       -2.6190     0.2170     0.4720 H     1 <1>   0.0800 
 32 H       -3.1360    -2.1470     0.8770 H     1 <1>   0.0800 
 33 H       -2.4010    -2.5920    -0.6410 H     1 <1>   0.0800 
 34 H        2.9490    -2.6330     2.1210 H     1 <1>   0.0800 
 35 H        3.6590    -1.0780     2.4390 H     1 <1>   0.0800 
 36 H        2.7690     0.9210     1.2420 H     1 <1>   0.0800 
 37 H        1.4690     0.7160     0.1110 H     1 <1>   0.0800 
 38 H        3.8760    -2.6940    -0.1030 H     1 <1>   0.0800 
 39 H        5.1580    -2.3240     1.0120 H     1 <1>   0.0800 
 40 H        3.6800     1.0360    -0.9870 H     1 <1>   0.0800 
 41 H        2.8910    -0.4430    -1.4480 H     1 <1>   0.0800 
 42 H       -3.5730    -2.2500    -2.7450 H     1 <1>   0.1500 
 43 H       -5.2320    -0.7840     0.9040 H     1 <1>   0.1500 
 44 H       -5.6970    -1.8090    -3.8840 H     1 <1>   0.1500 
 45 H       -7.3540    -0.3460    -0.2430 H     1 <1>   0.1500 
 46 H       -7.5920    -0.8560    -2.6380 H     1 <1>   0.1500 
 47 H        4.9730     0.7890     1.8980 H     1 <1>   0.1500 
 48 H        5.8660    -0.6170    -2.5930 H     1 <1>   0.0800 
 49 H        6.6020    -1.9610    -1.7640 H     1 <1>   0.0800 
 50 H        7.5830    -0.8520    -2.6800 H     1 <1>   0.0800 
 51 H        7.0180     2.0170     2.4620 H     1 <1>   0.1500 
 52 H        8.9550     1.9050     0.9790 H     1 <1>   0.1500 
 53 H        9.5880    -0.4370    -1.4510 H     1 <1>   0.0800 
 54 H       10.0580     1.1410    -0.8860 H     1 <1>   0.0800 
 55 H        9.0330     1.0010    -2.2870 H     1 <1>   0.0800 
@<TRIPOS>BOND
  1   1   2  2   
  2   2   3  am  
  3   2   4  1   
  4   3   5  1   
  5   3  27  1   
  6   4   6  1   
  7   4  28  1   
  8   4  29  1   
  9   5   7  1   
 10   5  30  1   
 11   5  31  1   
 12   6   8  1   
 13   6   9  1   
 14   7  10  1   
 15   7  32  1   
 16   7  33  1   
 17   8  11  1   
 18   8  34  1   
 19   8  35  1   
 20   9  12  1   
 21   9  36  1   
 22   9  37  1   
 23  10  13  ar  
 24  10  14  ar  
 25  11  15  1   
 26  11  38  1   
 27  11  39  1   
 28  12  15  1   
 29  12  40  1   
 30  12  41  1   
 31  13  16  ar  
 32  13  42  1   
 33  14  17  ar  
 34  14  43  1   
 35  15  18  1   
 36  16  19  ar  
 37  16  44  1   
 38  17  19  ar  
 39  17  45  1   
 40  18  20  ar  
 41  18  21  ar  
 42  19  46  1   
 43  20  22  ar  
 44  20  23  1   
 45  21  24  ar  
 46  21  47  1   
 47  22  25  ar  
 48  22  26  1   
 49  23  48  1   
 50  23  49  1   
 51  23  50  1   
 52  24  25  ar  
 53  24  51  1   
 54  25  52  1   
 55  26  53  1   
 56  26  54  1   
 57  26  55  1   
@<TRIPOS>SUBSTRUCTURE
  1 ****   9 GROUP 4 **** **** 0

# MOE 2024.06 (io_trps.svl 2023.06)
