@<TRIPOS>MOLECULE
NONAME
39 40 1 0 0 
SMALL
USER_CHARGES


@<TRIPOS>ATOM
  1 N        0.0190     0.0580    -0.1380 N.pl3 1 <1>  -0.8380 
  2 C        1.4090     0.0520    -0.1330 C.ar  1 <1>   0.1000 
  3 C       -0.6380     0.8880     0.9070 C.3   1 <1>   0.2090 
  4 C       -0.6430    -1.2450    -0.4110 C.3   1 <1>   0.2090 
  5 C        2.1320    -0.5680     0.8800 C.ar  1 <1>  -0.1500 
  6 C        2.1010     0.6770    -1.1620 C.ar  1 <1>  -0.1500 
  7 C       -2.1330     1.0800     0.5760 C.3   1 <1>   0.3430 
  8 C       -2.1380    -1.0300    -0.7290 C.3   1 <1>   0.3430 
  9 C        3.5150    -0.5620     0.8640 C.ar  1 <1>  -0.1500 
 10 C        3.4830     0.6860    -1.1810 C.ar  1 <1>  -0.1500 
 11 N       -2.8670    -0.2300     0.3390 N.4   1 <1>  -0.9590 
 12 C        4.1930     0.0650    -0.1670 C.ar  1 <1>  -0.1500 
 13 C       -4.2970     0.0370     0.0070 C.3   1 <1>   0.3430 
 14 C       -5.1490    -1.2410     0.0960 C.3   1 <1>  -0.1600 
 15 C       -6.6340    -0.9300    -0.1480 C.3   1 <1>   0.3430 
 16 N       -7.4510    -2.1680    -0.0420 N.4   1 <1>  -0.8530 
 17 H       -0.1540     1.8500     0.9490 H     1 <1>   0.0800 
 18 H       -0.5260     0.4200     1.8700 H     1 <1>   0.0800 
 19 H       -0.5320    -1.8950     0.4400 H     1 <1>   0.0800 
 20 H       -0.1600    -1.7150    -1.2520 H     1 <1>   0.0800 
 21 H        1.6140    -1.0560     1.6830 H     1 <1>   0.1500 
 22 H        1.5480     1.1580    -1.9470 H     1 <1>   0.1500 
 23 H       -2.1940     1.6920    -0.3090 H     1 <1>   0.0800 
 24 H       -2.5970     1.6230     1.3830 H     1 <1>   0.0800 
 25 H       -2.6020    -1.9940    -0.8530 H     1 <1>   0.0800 
 26 H       -2.1980    -0.5100    -1.6710 H     1 <1>   0.0800 
 27 H        4.0680    -1.0440     1.6520 H     1 <1>   0.1500 
 28 H        4.0090     1.1740    -1.9840 H     1 <1>   0.1500 
 29 H       -2.7940    -0.7580     1.2200 H     1 <1>   0.4500 
 30 H        5.2690     0.0710    -0.1810 H     1 <1>   0.1500 
 31 H       -4.3620     0.4590    -0.9850 H     1 <1>   0.0800 
 32 H       -4.6860     0.7660     0.7010 H     1 <1>   0.0800 
 33 H       -5.0340    -1.6660     1.0780 H     1 <1>   0.0800 
 34 H       -4.8130    -1.9450    -0.6440 H     1 <1>   0.0800 
 35 H       -6.7600    -0.5000    -1.1310 H     1 <1>   0.0800 
 36 H       -6.9790    -0.2090     0.5780 H     1 <1>   0.0800 
 37 H       -7.1840    -2.8780    -0.7360 H     1 <1>   0.4500 
 38 H       -8.4480    -1.9620    -0.2030 H     1 <1>   0.4500 
 39 H       -7.3910    -2.6000     0.8900 H     1 <1>   0.4500 
@<TRIPOS>BOND
  1   1   2  1   
  2   1   3  1   
  3   1   4  1   
  4   2   5  ar  
  5   2   6  ar  
  6   3   7  1   
  7   3  17  1   
  8   3  18  1   
  9   4   8  1   
 10   4  19  1   
 11   4  20  1   
 12   5   9  ar  
 13   5  21  1   
 14   6  10  ar  
 15   6  22  1   
 16   7  11  1   
 17   7  23  1   
 18   7  24  1   
 19   8  11  1   
 20   8  25  1   
 21   8  26  1   
 22   9  12  ar  
 23   9  27  1   
 24  10  12  ar  
 25  10  28  1   
 26  11  13  1   
 27  11  29  1   
 28  12  30  1   
 29  13  14  1   
 30  13  31  1   
 31  13  32  1   
 32  14  15  1   
 33  14  33  1   
 34  14  34  1   
 35  15  16  1   
 36  15  35  1   
 37  15  36  1   
 38  16  37  1   
 39  16  38  1   
 40  16  39  1   
@<TRIPOS>SUBSTRUCTURE
  1 ****   1 GROUP 4 **** **** 0

# MOE 2024.06 (io_trps.svl 2023.06)
