@<TRIPOS>MOLECULE
NONAME
32 32 1 0 0 
SMALL
USER_CHARGES


@<TRIPOS>ATOM
  1 F       -0.1170    -0.1260     0.1940 F     1 <1>  -0.3400 
  2 C        0.9430    -0.8960     0.4220 C.3   1 <1>   1.1640 
  3 F        0.8560    -1.2760     1.6900 F     1 <1>  -0.3400 
  4 F        0.7670    -1.9880    -0.3100 F     1 <1>  -0.3400 
  5 C        2.2760    -0.1930     0.1180 C.ar  1 <1>  -0.1440 
  6 C        3.4600    -0.9210     0.1520 C.ar  1 <1>  -0.1500 
  7 C        2.3390     1.1620    -0.1890 C.ar  1 <1>  -0.1500 
  8 C        4.6910    -0.3310    -0.1140 C.ar  1 <1>   0.1170 
  9 C        3.5530     1.7700    -0.4580 C.ar  1 <1>  -0.1500 
 10 N        5.9090    -1.0340    -0.0890 N.am  1 <1>  -0.5470 
 11 C        4.7310     1.0330    -0.4230 C.ar  1 <1>   0.0830 
 12 C        6.2470    -2.3280     0.1920 C.2   1 <1>   0.5690 
 13 O        5.9570     1.5800    -0.6800 O.3   1 <1>  -0.3630 
 14 O        5.4450    -3.1760     0.5030 O.2   1 <1>  -0.5700 
 15 C        7.7310    -2.7050     0.1030 C.3   1 <1>  -0.0190 
 16 C        6.0990     2.9480    -0.9980 C.3   1 <1>   0.0400 
 17 C        7.9740    -3.7960    -0.9530 C.3   1 <1>  -0.2400 
 18 C        8.2780    -3.1600     1.4660 C.3   1 <1>  -0.2400 
 19 H        3.4160    -1.9690     0.3900 H     1 <1>   0.1500 
 20 H        1.4430     1.7600    -0.2220 H     1 <1>   0.1500 
 21 H        3.5550     2.8180    -0.6910 H     1 <1>   0.1500 
 22 H        6.6900    -0.4200    -0.3270 H     1 <1>   0.3700 
 23 H        8.2840    -1.8320    -0.1960 H     1 <1>   0.0800 
 24 H        7.1430     3.1490    -1.1570 H     1 <1>   0.0800 
 25 H        5.7360     3.5380    -0.1740 H     1 <1>   0.0800 
 26 H        5.5470     3.1590    -1.8960 H     1 <1>   0.0800 
 27 H        7.4510    -4.6970    -0.6840 H     1 <1>   0.0800 
 28 H        9.0240    -4.0160    -1.0350 H     1 <1>   0.0800 
 29 H        7.6140    -3.4690    -1.9120 H     1 <1>   0.0800 
 30 H        7.7620    -4.0440     1.7980 H     1 <1>   0.0800 
 31 H        8.1330    -2.3870     2.2000 H     1 <1>   0.0800 
 32 H        9.3290    -3.3770     1.3990 H     1 <1>   0.0800 
@<TRIPOS>BOND
  1   1   2  1   
  2   2   3  1   
  3   2   4  1   
  4   2   5  1   
  5   5   6  ar  
  6   5   7  ar  
  7   6   8  ar  
  8   6  19  1   
  9   7   9  ar  
 10   7  20  1   
 11   8  10  1   
 12   8  11  ar  
 13   9  11  ar  
 14   9  21  1   
 15  10  12  am  
 16  10  22  1   
 17  11  13  1   
 18  12  14  2   
 19  12  15  1   
 20  13  16  1   
 21  15  17  1   
 22  15  18  1   
 23  15  23  1   
 24  16  24  1   
 25  16  25  1   
 26  16  26  1   
 27  17  27  1   
 28  17  28  1   
 29  17  29  1   
 30  18  30  1   
 31  18  31  1   
 32  18  32  1   
@<TRIPOS>SUBSTRUCTURE
  1 ****   8 GROUP 4 **** **** 0

# MOE 2024.06 (io_trps.svl 2023.06)
