@<TRIPOS>MOLECULE
NONAME
37 38 1 0 0 
SMALL
USER_CHARGES


@<TRIPOS>ATOM
  1 CL      -0.0820    -0.1520     1.6760 Cl    1 <1>  -0.1770 
  2 C       -1.5570    -0.9450     1.1920 C.ar  1 <1>   0.1770 
  3 C       -1.6670    -1.4540    -0.0870 C.ar  1 <1>  -0.1500 
  4 C       -2.5980    -1.0540     2.0930 C.ar  1 <1>  -0.1500 
  5 C       -2.8420    -2.0820    -0.4670 C.ar  1 <1>  -0.1500 
  6 C       -3.7680    -1.6850     1.7000 C.ar  1 <1>  -0.1500 
  7 C       -3.9110    -2.2090     0.4180 C.ar  1 <1>  -0.0090 
  8 S       -5.4540    -3.0260    -0.0800 S.o2  1 <1>   1.4470 
  9 O       -5.8350    -4.0100     0.9070 O.2   1 <1>  -0.6500 
 10 O       -5.4180    -3.3690    -1.4820 O.2   1 <1>  -0.6500 
 11 N       -6.5830    -1.7890    -0.0030 N.am  1 <1>  -0.9140 
 12 C       -7.9450    -2.2790     0.0820 C.3   1 <1>   0.1960 
 13 C       -8.8950    -1.0860     0.0420 C.3   1 <1>  -0.1600 
 14 C      -10.3460    -1.5490     0.1680 C.3   1 <1>   0.1400 
 15 N      -11.2470    -0.3850     0.0430 N.am  1 <1>  -0.6600 
 16 C      -11.8990    -0.0250    -1.0840 C.2   1 <1>   0.5690 
 17 C      -11.5160     0.5140     1.1770 C.3   1 <1>   0.1400 
 18 O      -11.8350    -0.5890    -2.1490 O.2   1 <1>  -0.5700 
 19 C      -12.7280     1.2070    -0.8510 C.3   1 <1>  -0.0990 
 20 C      -12.6510     1.4180     0.6720 C.3   1 <1>  -0.1600 
 21 H       -0.8440    -1.3580    -0.7730 H     1 <1>   0.1500 
 22 H       -2.4920    -0.6520     3.0840 H     1 <1>   0.1500 
 23 H       -2.9300    -2.4810    -1.4650 H     1 <1>   0.1500 
 24 H       -4.5850    -1.7740     2.3980 H     1 <1>   0.1500 
 25 H       -6.4950    -1.3320    -0.9090 H     1 <1>   0.4200 
 26 H       -8.0790    -2.8200     1.0060 H     1 <1>   0.0800 
 27 H       -8.1500    -2.9460    -0.7410 H     1 <1>   0.0800 
 28 H       -8.7780    -0.5680    -0.8940 H     1 <1>   0.0800 
 29 H       -8.6610    -0.4200     0.8530 H     1 <1>   0.0800 
 30 H      -10.5110    -2.0330     1.1150 H     1 <1>   0.0800 
 31 H      -10.5730    -2.2520    -0.6170 H     1 <1>   0.0800 
 32 H      -10.6330     1.0910     1.3970 H     1 <1>   0.0800 
 33 H      -11.8170    -0.0460     2.0460 H     1 <1>   0.0800 
 34 H      -13.7370     1.0510    -1.1850 H     1 <1>   0.0800 
 35 H      -12.2860     2.0300    -1.3810 H     1 <1>   0.0800 
 36 H      -12.4740     2.4480     0.9270 H     1 <1>   0.0800 
 37 H      -13.5740     1.1040     1.1280 H     1 <1>   0.0800 
@<TRIPOS>BOND
  1   1   2  1   
  2   2   3  ar  
  3   2   4  ar  
  4   3   5  ar  
  5   3  21  1   
  6   4   6  ar  
  7   4  22  1   
  8   5   7  ar  
  9   5  23  1   
 10   6   7  ar  
 11   6  24  1   
 12   7   8  1   
 13   8   9  2   
 14   8  10  2   
 15   8  11  am  
 16  11  12  1   
 17  11  25  1   
 18  12  13  1   
 19  12  26  1   
 20  12  27  1   
 21  13  14  1   
 22  13  28  1   
 23  13  29  1   
 24  14  15  1   
 25  14  30  1   
 26  14  31  1   
 27  15  16  am  
 28  15  17  1   
 29  16  18  2   
 30  16  19  1   
 31  17  20  1   
 32  17  32  1   
 33  17  33  1   
 34  19  20  1   
 35  19  34  1   
 36  19  35  1   
 37  20  36  1   
 38  20  37  1   
@<TRIPOS>SUBSTRUCTURE
  1 ****  11 GROUP 4 **** **** 0

# MOE 2024.06 (io_trps.svl 2023.06)
