@<TRIPOS>MOLECULE
NONAME
59 61 1 0 0 
SMALL
USER_CHARGES


@<TRIPOS>ATOM
  1 S        0.2740    -0.4650    -1.1380 S.o2  1 <1>   1.3330 
  2 O       -1.0120    -0.0070    -1.6120 O.2   1 <1>  -0.6500 
  3 O        1.1650    -1.1150    -2.0720 O.2   1 <1>  -0.6500 
  4 N        0.0100    -1.5360     0.1520 N.am  1 <1>  -0.8490 
  5 C        1.0820     0.9370    -0.3930 C.3   1 <1>  -0.1350 
  6 C        1.1650    -2.4330     0.4360 C.3   1 <1>   0.2570 
  7 C       -1.2350    -2.3060     0.0230 C.3   1 <1>   0.1960 
  8 C        2.4870    -1.7370     0.8190 C.2   1 <1>   0.5690 
  9 C       -2.3840    -1.5900     0.7380 C.3   1 <1>  -0.0170 
 10 O        2.4800    -1.1110     1.8550 O.2   1 <1>  -0.5700 
 11 N        3.6310    -1.8050     0.0490 N.am  1 <1>  -0.6600 
 12 C       -3.6520    -2.4200     0.6300 C.ar  1 <1>  -0.1440 
 13 C        4.8960    -1.1570     0.5000 C.3   1 <1>   0.1400 
 14 C        3.7680    -2.4650    -1.2820 C.3   1 <1>   0.1400 
 15 C       -4.0290    -3.2730     1.6560 C.ar  1 <1>  -0.1500 
 16 C       -4.4400    -2.3320    -0.5060 C.ar  1 <1>  -0.1500 
 17 C        6.0080    -2.2050     0.5930 C.3   1 <1>  -0.1600 
 18 C        4.8580    -3.5390    -1.2110 C.3   1 <1>  -0.1600 
 19 C       -5.1810    -4.0320     1.5460 C.ar  1 <1>  -0.1500 
 20 C       -5.5930    -3.0900    -0.6180 C.ar  1 <1>  -0.1500 
 21 C        6.2020    -2.9570    -0.7370 C.3   1 <1>  -0.0800 
 22 C       -5.9640    -3.9420     0.4080 C.ar  1 <1>  -0.1500 
 23 C        7.2590    -4.0700    -0.6200 C.3   1 <1>  -0.0170 
 24 C        8.6310    -3.5240    -0.2500 C.ar  1 <1>  -0.1440 
 25 C        9.1000    -3.6200     1.0520 C.ar  1 <1>  -0.1500 
 26 C        9.4260    -2.9230    -1.2140 C.ar  1 <1>  -0.1500 
 27 C       10.3470    -3.1200     1.3860 C.ar  1 <1>  -0.1500 
 28 C       10.6730    -2.4220    -0.8820 C.ar  1 <1>  -0.1500 
 29 C       11.1340    -2.5200     0.4190 C.ar  1 <1>  -0.1500 
 30 H        2.0610     0.6810    -0.0470 H     1 <1>   0.0800 
 31 H        0.5050     1.2940     0.4370 H     1 <1>   0.0800 
 32 H        1.1750     1.7270    -1.1120 H     1 <1>   0.0800 
 33 H        1.3060    -3.1010    -0.3900 H     1 <1>   0.0800 
 34 H        0.9090    -3.0440     1.2830 H     1 <1>   0.0800 
 35 H       -1.1270    -3.2760     0.4760 H     1 <1>   0.0800 
 36 H       -1.4790    -2.4590    -1.0160 H     1 <1>   0.0800 
 37 H       -2.5570    -0.6240     0.3000 H     1 <1>   0.0800 
 38 H       -2.1270    -1.4480     1.7720 H     1 <1>   0.0800 
 39 H        4.7710    -0.6860     1.4610 H     1 <1>   0.0800 
 40 H        5.1720    -0.3940    -0.2080 H     1 <1>   0.0800 
 41 H        4.0390    -1.7200    -2.0110 H     1 <1>   0.0800 
 42 H        2.8520    -2.9130    -1.6120 H     1 <1>   0.0800 
 43 H       -3.4280    -3.3510     2.5460 H     1 <1>   0.1500 
 44 H       -4.1580    -1.6710    -1.3090 H     1 <1>   0.1500 
 45 H        5.7630    -2.8980     1.3790 H     1 <1>   0.0800 
 46 H        6.9210    -1.7080     0.8690 H     1 <1>   0.0800 
 47 H        4.9770    -3.9760    -2.1870 H     1 <1>   0.0800 
 48 H        4.5340    -4.3150    -0.5400 H     1 <1>   0.0800 
 49 H       -5.4700    -4.6920     2.3450 H     1 <1>   0.1500 
 50 H       -6.2000    -3.0170    -1.5030 H     1 <1>   0.1500 
 51 H        6.5400    -2.2500    -1.4750 H     1 <1>   0.0800 
 52 H       -6.8600    -4.5310     0.3220 H     1 <1>   0.1500 
 53 H        7.3400    -4.5880    -1.5590 H     1 <1>   0.0800 
 54 H        6.9470    -4.7910     0.1160 H     1 <1>   0.0800 
 55 H        8.4950    -4.0830     1.8110 H     1 <1>   0.1500 
 56 H        9.0760    -2.8420    -2.2280 H     1 <1>   0.1500 
 57 H       10.7040    -3.1970     2.3980 H     1 <1>   0.1500 
 58 H       11.2840    -1.9570    -1.6360 H     1 <1>   0.1500 
 59 H       12.1030    -2.1310     0.6780 H     1 <1>   0.1500 
@<TRIPOS>BOND
  1   1   2  2   
  2   1   3  2   
  3   1   4  am  
  4   1   5  1   
  5   4   6  1   
  6   4   7  1   
  7   5  30  1   
  8   5  31  1   
  9   5  32  1   
 10   6   8  1   
 11   6  33  1   
 12   6  34  1   
 13   7   9  1   
 14   7  35  1   
 15   7  36  1   
 16   8  10  2   
 17   8  11  am  
 18   9  12  1   
 19   9  37  1   
 20   9  38  1   
 21  11  13  1   
 22  11  14  1   
 23  12  15  ar  
 24  12  16  ar  
 25  13  17  1   
 26  13  39  1   
 27  13  40  1   
 28  14  18  1   
 29  14  41  1   
 30  14  42  1   
 31  15  19  ar  
 32  15  43  1   
 33  16  20  ar  
 34  16  44  1   
 35  17  21  1   
 36  17  45  1   
 37  17  46  1   
 38  18  21  1   
 39  18  47  1   
 40  18  48  1   
 41  19  22  ar  
 42  19  49  1   
 43  20  22  ar  
 44  20  50  1   
 45  21  23  1   
 46  21  51  1   
 47  22  52  1   
 48  23  24  1   
 49  23  53  1   
 50  23  54  1   
 51  24  25  ar  
 52  24  26  ar  
 53  25  27  ar  
 54  25  55  1   
 55  26  28  ar  
 56  26  56  1   
 57  27  29  ar  
 58  27  57  1   
 59  28  29  ar  
 60  28  58  1   
 61  29  59  1   
@<TRIPOS>SUBSTRUCTURE
  1 ****   8 GROUP 4 **** **** 0

# MOE 2024.06 (io_trps.svl 2023.06)
