@<TRIPOS>MOLECULE
NONAME
35 35 1 0 0 
SMALL
USER_CHARGES


@<TRIPOS>ATOM
  1 O        2.2740     4.9710    -0.6850 O.3   1 <1>  -0.3630 
  2 C        3.3650     4.1660    -0.6840 C.ar  1 <1>   0.0830 
  3 C        1.1180     4.6490     0.0540 C.3   1 <1>   0.0400 
  4 C        3.4580     2.9860     0.0470 C.ar  1 <1>  -0.1500 
  5 C        4.4340     4.5670    -1.4680 C.ar  1 <1>  -0.1500 
  6 C        4.6140     2.2260    -0.0080 C.ar  1 <1>  -0.1500 
  7 C        5.5880     3.8080    -1.5240 C.ar  1 <1>  -0.1500 
  8 C        5.6850     2.6340    -0.7900 C.ar  1 <1>  -0.1430 
  9 C        6.9540     1.8150    -0.8330 C.3   1 <1>   0.4860 
 10 N        7.8710     2.4190     0.1520 N.4   1 <1>  -0.9060 
 11 C        9.1750     1.7920     0.4140 C.3   1 <1>   0.5030 
 12 C       10.0430     2.8510     1.1470 C.3   1 <1>   0.1200 
 13 C        8.9580     0.5560     1.2850 C.3   1 <1>  -0.2400 
 14 C        9.8420     1.4060    -0.9110 C.3   1 <1>  -0.2400 
 15 O        9.8340     4.1170     0.5820 O.3   1 <1>  -0.6800 
 16 H        0.3910     5.4250    -0.1090 H     1 <1>   0.0800 
 17 H        1.3720     4.6010     1.0980 H     1 <1>   0.0800 
 18 H        0.7300     3.7080    -0.2940 H     1 <1>   0.0800 
 19 H        2.6420     2.6490     0.6590 H     1 <1>   0.1500 
 20 H        4.3490     5.4780    -2.0330 H     1 <1>   0.1500 
 21 H        4.6600     1.3150     0.5650 H     1 <1>   0.1500 
 22 H        6.3990     4.1470    -2.1470 H     1 <1>   0.1500 
 23 H        7.3820     1.8470    -1.8220 H     1 <1>   0.0800 
 24 H        6.7410     0.7910    -0.5740 H     1 <1>   0.0800 
 25 H        7.3650     2.5530     1.0290 H     1 <1>   0.4500 
 26 H        8.1130     3.3780    -0.1450 H     1 <1>   0.4500 
 27 H       11.0890     2.6060     1.0730 H     1 <1>   0.0800 
 28 H        9.7770     2.9060     2.1890 H     1 <1>   0.0800 
 29 H        9.9070     0.1080     1.5230 H     1 <1>   0.0800 
 30 H        8.4750     0.8150     2.2110 H     1 <1>   0.0800 
 31 H        8.3690    -0.1830     0.7730 H     1 <1>   0.0800 
 32 H        9.3070     0.6240    -1.4190 H     1 <1>   0.0800 
 33 H        9.9310     2.2610    -1.5580 H     1 <1>   0.0800 
 34 H       10.8350     1.0360    -0.7230 H     1 <1>   0.0800 
 35 H       10.4450     4.7830     0.9710 H     1 <1>   0.4000 
@<TRIPOS>BOND
  1   1   2  1   
  2   1   3  1   
  3   2   4  ar  
  4   2   5  ar  
  5   3  16  1   
  6   3  17  1   
  7   3  18  1   
  8   4   6  ar  
  9   4  19  1   
 10   5   7  ar  
 11   5  20  1   
 12   6   8  ar  
 13   6  21  1   
 14   7   8  ar  
 15   7  22  1   
 16   8   9  1   
 17   9  10  1   
 18   9  23  1   
 19   9  24  1   
 20  10  11  1   
 21  10  25  1   
 22  10  26  1   
 23  11  12  1   
 24  11  13  1   
 25  11  14  1   
 26  12  15  1   
 27  12  27  1   
 28  12  28  1   
 29  13  29  1   
 30  13  30  1   
 31  13  31  1   
 32  14  32  1   
 33  14  33  1   
 34  14  34  1   
 35  15  35  1   
@<TRIPOS>SUBSTRUCTURE
  1 ****   8 GROUP 4 **** **** 0

# MOE 2024.06 (io_trps.svl 2023.06)
