@<TRIPOS>MOLECULE
NONAME
41 43 1 0 0 
SMALL
USER_CHARGES


@<TRIPOS>ATOM
  1 CL      -0.0200    -0.4090     0.9280 Cl    1 <1>  -0.1770 
  2 C        1.5290    -1.1370     0.5730 C.ar  1 <1>   0.1770 
  3 C        2.2340    -1.7590     1.5870 C.ar  1 <1>  -0.1500 
  4 C        2.0260    -1.0800    -0.7150 C.ar  1 <1>  -0.1500 
  5 C        3.4610    -2.3340     1.3030 C.ar  1 <1>  -0.1500 
  6 C        3.2530    -1.6580    -0.9900 C.ar  1 <1>  -0.1500 
  7 C        3.9810    -2.2890     0.0120 C.ar  1 <1>   0.1000 
  8 N        5.2100    -2.8610    -0.2950 N.pl3 1 <1>  -0.8380 
  9 C        5.2680    -4.3510    -0.2870 C.3   1 <1>   0.2090 
 10 C        6.4160    -2.1930     0.2770 C.3   1 <1>   0.2090 
 11 C        6.5580    -4.8500    -0.9730 C.3   1 <1>   0.3430 
 12 C        7.7010    -2.7060    -0.4070 C.3   1 <1>   0.3430 
 13 N        7.8040    -4.2160    -0.4020 N.4   1 <1>  -0.9590 
 14 C        9.0300    -4.6820    -1.1050 C.3   1 <1>   0.4860 
 15 C       10.2420    -4.1700    -0.3520 C.ar  1 <1>  -0.1430 
 16 C       10.9600    -3.0870    -0.8450 C.ar  1 <1>  -0.1500 
 17 C       10.6420    -4.7740     0.8340 C.ar  1 <1>  -0.1500 
 18 C       12.0550    -2.6050    -0.1520 C.ar  1 <1>  -0.1500 
 19 C       11.7390    -4.2930     1.5280 C.ar  1 <1>  -0.1500 
 20 C       12.4400    -3.2070     1.0320 C.ar  1 <1>   0.0830 
 21 O       13.5030    -2.7250     1.6900 O.3   1 <1>  -0.5330 
 22 H        1.8230    -1.7870     2.5800 H     1 <1>   0.1500 
 23 H        1.4580    -0.5900    -1.4860 H     1 <1>   0.1500 
 24 H        4.0140    -2.8180     2.0850 H     1 <1>   0.1500 
 25 H        3.6550    -1.6230    -1.9860 H     1 <1>   0.1500 
 26 H        4.4100    -4.7400    -0.8110 H     1 <1>   0.0800 
 27 H        5.2270    -4.7110     0.7270 H     1 <1>   0.0800 
 28 H        6.4660    -2.3770     1.3360 H     1 <1>   0.0800 
 29 H        6.3340    -1.1290     0.1300 H     1 <1>   0.0800 
 30 H        6.4840    -4.6150    -2.0220 H     1 <1>   0.0800 
 31 H        6.6120    -5.9220    -0.8770 H     1 <1>   0.0800 
 32 H        8.5550    -2.2770     0.0910 H     1 <1>   0.0800 
 33 H        7.7000    -2.3490    -1.4230 H     1 <1>   0.0800 
 34 H        7.8980    -4.5010     0.5800 H     1 <1>   0.4500 
 35 H        9.0430    -4.3160    -2.1180 H     1 <1>   0.0800 
 36 H        9.0590    -5.7600    -1.1300 H     1 <1>   0.0800 
 37 H       10.6830    -2.6080    -1.7700 H     1 <1>   0.1500 
 38 H       10.1130    -5.6250     1.2300 H     1 <1>   0.1500 
 39 H       12.6210    -1.7670    -0.5210 H     1 <1>   0.1500 
 40 H       12.0470    -4.7630     2.4450 H     1 <1>   0.1500 
 41 H       13.7340    -3.2270     2.4910 H     1 <1>   0.4500 
@<TRIPOS>BOND
  1   1   2  1   
  2   2   3  ar  
  3   2   4  ar  
  4   3   5  ar  
  5   3  22  1   
  6   4   6  ar  
  7   4  23  1   
  8   5   7  ar  
  9   5  24  1   
 10   6   7  ar  
 11   6  25  1   
 12   7   8  1   
 13   8   9  1   
 14   8  10  1   
 15   9  11  1   
 16   9  26  1   
 17   9  27  1   
 18  10  12  1   
 19  10  28  1   
 20  10  29  1   
 21  11  13  1   
 22  11  30  1   
 23  11  31  1   
 24  12  13  1   
 25  12  32  1   
 26  12  33  1   
 27  13  14  1   
 28  13  34  1   
 29  14  15  1   
 30  14  35  1   
 31  14  36  1   
 32  15  16  ar  
 33  15  17  ar  
 34  16  18  ar  
 35  16  37  1   
 36  17  19  ar  
 37  17  38  1   
 38  18  20  ar  
 39  18  39  1   
 40  19  20  ar  
 41  19  40  1   
 42  20  21  1   
 43  21  41  1   
@<TRIPOS>SUBSTRUCTURE
  1 ****  10 GROUP 4 **** **** 0

# MOE 2024.06 (io_trps.svl 2023.06)
