@<TRIPOS>MOLECULE
NONAME
24 28 1 0 0 
SMALL
USER_CHARGES


@<TRIPOS>ATOM
  1 O        0.7840     0.6670    -0.8780 O.2   1 <1>  -0.5700 
  2 C       -0.2900     1.0730    -0.5490 C.2   1 <1>   0.4480 
  3 C       -1.6540     0.6570    -0.9660 C.3   1 <1>  -0.0190 
  4 C       -0.6700     2.1490     0.4030 C.3   1 <1>  -0.0190 
  5 C       -2.4020     2.0000    -1.2300 C.3   1 <1>  -0.0800 
  6 C       -2.2500     0.2830     0.3960 C.3   1 <1>  -0.0800 
  7 C       -1.8230     1.5250     1.2490 C.3   1 <1>  -0.0800 
  8 C       -1.4840     3.0560    -0.5280 C.3   1 <1>  -0.0800 
  9 C       -3.6150     1.9080    -0.2560 C.3   1 <1>  -0.0800 
 10 C       -3.7300     0.4510     0.1350 C.3   1 <1>  -0.1600 
 11 C       -2.9970     2.5200     1.0060 C.3   1 <1>  -0.0800 
 12 C       -2.3700     3.7830     0.4580 C.3   1 <1>  -0.1600 
 13 H       -1.7150    -0.0940    -1.7330 H     1 <1>   0.0800 
 14 H        0.1310     2.6200     0.9430 H     1 <1>   0.0800 
 15 H       -2.6460     2.2040    -2.2580 H     1 <1>   0.0800 
 16 H       -1.9320    -0.6730     0.7760 H     1 <1>   0.0800 
 17 H       -1.5880     1.3250     2.2800 H     1 <1>   0.0800 
 18 H       -0.8910     3.6680    -1.1860 H     1 <1>   0.0800 
 19 H       -4.5190     2.3870    -0.5910 H     1 <1>   0.0800 
 20 H       -4.3270     0.3030     1.0190 H     1 <1>   0.0800 
 21 H       -4.0850    -0.1680    -0.6720 H     1 <1>   0.0800 
 22 H       -3.6820     2.6420     1.8270 H     1 <1>   0.0800 
 23 H       -3.0860     4.4280    -0.0230 H     1 <1>   0.0800 
 24 H       -1.8110     4.3250     1.2020 H     1 <1>   0.0800 
@<TRIPOS>BOND
  1   1   2  2   
  2   2   3  1   
  3   2   4  1   
  4   3   5  1   
  5   3   6  1   
  6   3  13  1   
  7   4   7  1   
  8   4   8  1   
  9   4  14  1   
 10   5   8  1   
 11   5   9  1   
 12   5  15  1   
 13   6   7  1   
 14   6  10  1   
 15   6  16  1   
 16   7  11  1   
 17   7  17  1   
 18   8  12  1   
 19   8  18  1   
 20   9  10  1   
 21   9  11  1   
 22   9  19  1   
 23  10  20  1   
 24  10  21  1   
 25  11  12  1   
 26  11  22  1   
 27  12  23  1   
 28  12  24  1   
@<TRIPOS>SUBSTRUCTURE
  1 ****   5 GROUP 4 **** **** 0

# MOE 2024.06 (io_trps.svl 2023.06)
