@<TRIPOS>MOLECULE
NONAME
28 27 1 0 0 
SMALL
USER_CHARGES


@<TRIPOS>ATOM
  1 CL       1.7800     0.1050    -1.8530 Cl    1 <1>  -0.2900 
  2 C        1.4100     0.7080    -0.2510 C.3   1 <1>   0.4300 
  3 N        1.4880     2.1840    -0.2950 N.am  1 <1>  -0.6600 
  4 C        0.3710     2.9580    -0.1760 C.2   1 <1>   0.7800 
  5 C        2.8260     2.7840    -0.5470 C.3   1 <1>   0.1400 
  6 O        0.4120     4.1720    -0.2180 O.2   1 <1>  -0.5700 
  7 O       -0.7980     2.3420     0.0110 O.3   1 <1>  -0.4300 
  8 C        3.5220     3.0850     0.7800 C.3   1 <1>  -0.0990 
  9 C       -1.9990     3.0790     0.1320 C.3   1 <1>   0.0400 
 10 C        4.9160     3.6050     0.5300 C.2   1 <1>   0.6590 
 11 O        5.2340     4.7310     0.8040 O.2   1 <1>  -0.5700 
 12 O        5.7640     2.7380    -0.0080 O.3   1 <1>  -0.4300 
 13 C        7.0950     3.0980    -0.2950 C.3   1 <1>   0.1200 
 14 C        7.7890     1.8890    -0.9140 C.3   1 <1>  -0.2400 
 15 H        2.1360     0.3030     0.4310 H     1 <1>   0.0800 
 16 H        0.4270     0.3560     0.0110 H     1 <1>   0.0800 
 17 H        2.7130     3.6970    -1.1080 H     1 <1>   0.0800 
 18 H        3.4260     2.1110    -1.1370 H     1 <1>   0.0800 
 19 H        3.5940     2.1970     1.3760 H     1 <1>   0.0800 
 20 H        2.9650     3.8300     1.3180 H     1 <1>   0.0800 
 21 H       -2.8110     2.3880     0.2700 H     1 <1>   0.0800 
 22 H       -2.1470     3.6520    -0.7670 H     1 <1>   0.0800 
 23 H       -1.9200     3.7360     0.9810 H     1 <1>   0.0800 
 24 H        7.5740     3.3930     0.6240 H     1 <1>   0.0800 
 25 H        7.0840     3.9300    -0.9790 H     1 <1>   0.0800 
 26 H        7.7830     1.0640    -0.2230 H     1 <1>   0.0800 
 27 H        8.8100     2.1350    -1.1440 H     1 <1>   0.0800 
 28 H        7.2930     1.6010    -1.8230 H     1 <1>   0.0800 
@<TRIPOS>BOND
  1   1   2  1   
  2   2   3  1   
  3   2  15  1   
  4   2  16  1   
  5   3   4  am  
  6   3   5  1   
  7   4   6  2   
  8   4   7  1   
  9   5   8  1   
 10   5  17  1   
 11   5  18  1   
 12   7   9  1   
 13   8  10  1   
 14   8  19  1   
 15   8  20  1   
 16   9  21  1   
 17   9  22  1   
 18   9  23  1   
 19  10  11  2   
 20  10  12  1   
 21  12  13  1   
 22  13  14  1   
 23  13  24  1   
 24  13  25  1   
 25  14  26  1   
 26  14  27  1   
 27  14  28  1   
@<TRIPOS>SUBSTRUCTURE
  1 ****   5 GROUP 4 **** **** 0

# MOE 2024.06 (io_trps.svl 2023.06)
