@<TRIPOS>MOLECULE
NONAME
44 46 1 0 0 
SMALL
USER_CHARGES


@<TRIPOS>ATOM
  1 CL      -5.1160     2.7900    -4.3320 Cl    1 <1>  -0.1770 
  2 C       -4.4950     2.4220    -2.7450 C.ar  1 <1>   0.1770 
  3 C       -5.1850     1.5310    -1.9450 C.ar  1 <1>  -0.1500 
  4 C       -3.3310     3.0250    -2.3110 C.ar  1 <1>  -0.1500 
  5 C       -4.7070     1.2390    -0.6740 C.ar  1 <1>  -0.1440 
  6 C       -2.8480     2.7280    -1.0490 C.ar  1 <1>  -0.1500 
  7 C       -3.5330     1.8390    -0.2350 C.ar  1 <1>  -0.1500 
  8 C       -5.4640     0.2810     0.2270 C.3   1 <1>   0.4870 
  9 N       -6.7230     0.9370     0.6630 N.4   1 <1>  -0.9590 
 10 C       -6.5200     2.2250     1.4100 C.3   1 <1>   0.3430 
 11 C       -7.6670     0.0360     1.3970 C.3   1 <1>   0.3430 
 12 C       -7.8750     2.8940     1.7530 C.3   1 <1>   0.1100 
 13 C       -9.0210     0.7440     1.6430 C.3   1 <1>   0.1100 
 14 N       -9.0280     2.1600     1.1790 N.3   1 <1>  -0.8100 
 15 C      -10.3210     2.8230     1.5300 C.3   1 <1>   0.1710 
 16 C      -11.5550     2.1460     0.9250 C.2   1 <1>   0.5690 
 17 O      -12.2200     1.4270     1.6340 O.2   1 <1>  -0.5700 
 18 N      -11.8370     2.3490    -0.3900 N.am  1 <1>  -0.5790 
 19 C      -12.9720     1.7690    -1.1210 C.3   1 <1>   0.0490 
 20 C      -12.7570     1.3640    -2.5410 C.3   1 <1>  -0.2000 
 21 C      -13.5830     2.5730    -2.2190 C.3   1 <1>  -0.2000 
 22 H       -6.0820     1.0820    -2.3330 H     1 <1>   0.1500 
 23 H       -2.8120     3.7140    -2.9550 H     1 <1>   0.1500 
 24 H       -1.9370     3.1900    -0.7030 H     1 <1>   0.1500 
 25 H       -3.1320     1.6220     0.7420 H     1 <1>   0.1500 
 26 H       -4.8610     0.0250     1.0830 H     1 <1>   0.0800 
 27 H       -5.6860    -0.6210    -0.3190 H     1 <1>   0.0800 
 28 H       -7.2490     1.2310    -0.1720 H     1 <1>   0.4500 
 29 H       -5.9410     2.9070     0.8080 H     1 <1>   0.0800 
 30 H       -5.9710     2.0460     2.3190 H     1 <1>   0.0800 
 31 H       -7.2420    -0.2530     2.3440 H     1 <1>   0.0800 
 32 H       -7.8440    -0.8620     0.8270 H     1 <1>   0.0800 
 33 H       -7.8670     3.9030     1.3760 H     1 <1>   0.0800 
 34 H       -7.9750     2.9520     2.8250 H     1 <1>   0.0800 
 35 H       -9.2560     0.6990     2.6940 H     1 <1>   0.0800 
 36 H       -9.7890     0.1930     1.1260 H     1 <1>   0.0800 
 37 H      -10.3020     3.8420     1.1890 H     1 <1>   0.0800 
 38 H      -10.4420     2.8390     2.5990 H     1 <1>   0.0800 
 39 H      -11.2080     2.9180    -0.9550 H     1 <1>   0.3700 
 40 H      -13.6190     1.1670    -0.5010 H     1 <1>   0.1000 
 41 H      -13.2650     0.4900    -2.9100 H     1 <1>   0.1000 
 42 H      -11.7880     1.4990    -2.9860 H     1 <1>   0.1000 
 43 H      -13.1880     3.5500    -2.4340 H     1 <1>   0.1000 
 44 H      -14.6470     2.5150    -2.3670 H     1 <1>   0.1000 
@<TRIPOS>BOND
  1   1   2  1   
  2   2   3  ar  
  3   2   4  ar  
  4   3   5  ar  
  5   3  22  1   
  6   4   6  ar  
  7   4  23  1   
  8   5   7  ar  
  9   5   8  1   
 10   6   7  ar  
 11   6  24  1   
 12   7  25  1   
 13   8   9  1   
 14   8  26  1   
 15   8  27  1   
 16   9  10  1   
 17   9  11  1   
 18   9  28  1   
 19  10  12  1   
 20  10  29  1   
 21  10  30  1   
 22  11  13  1   
 23  11  31  1   
 24  11  32  1   
 25  12  14  1   
 26  12  33  1   
 27  12  34  1   
 28  13  14  1   
 29  13  35  1   
 30  13  36  1   
 31  14  15  1   
 32  15  16  1   
 33  15  37  1   
 34  15  38  1   
 35  16  17  2   
 36  16  18  am  
 37  18  19  1   
 38  18  39  1   
 39  19  20  1   
 40  19  21  1   
 41  19  40  1   
 42  20  21  1   
 43  20  41  1   
 44  20  42  1   
 45  21  43  1   
 46  21  44  1   
@<TRIPOS>SUBSTRUCTURE
  1 ****   9 GROUP 4 **** **** 0

# MOE 2024.06 (io_trps.svl 2023.06)
