@<TRIPOS>MOLECULE
NONAME
59 62 1 0 0 
SMALL
USER_CHARGES


@<TRIPOS>ATOM
  1 O       -0.0150     1.1210     1.0050 O.2   1 <1>  -0.5700 
  2 C       -0.0690     2.0100     0.1770 C.2   1 <1>   0.5440 
  3 N        1.0560     2.3240    -0.5600 N.am  1 <1>  -0.6600 
  4 C       -1.3270     2.7090     0.0010 C.ar  1 <1>   0.0860 
  5 C        1.2200     3.5860    -1.3300 C.3   1 <1>   0.1400 
  6 C        2.2910     1.4940    -0.4920 C.3   1 <1>   0.1400 
  7 C       -1.9440     3.3440     1.0750 C.ar  1 <1>  -0.1500 
  8 C       -1.9730     2.7550    -1.2330 C.ar  1 <1>  -0.1500 
  9 C        2.3420     4.4230    -0.7070 C.3   1 <1>  -0.1600 
 10 C        3.4260     2.3080     0.1340 C.3   1 <1>  -0.1600 
 11 C       -3.1570     3.9920     0.9310 C.ar  1 <1>  -0.1500 
 12 C       -3.1860     3.4000    -1.3870 C.ar  1 <1>  -0.1500 
 13 C        3.6610     3.6350    -0.6130 C.3   1 <1>  -0.0800 
 14 C       -3.7930     4.0140    -0.3020 C.ar  1 <1>  -0.1430 
 15 C        4.7500     4.4880     0.0630 C.3   1 <1>  -0.0170 
 16 C       -5.1480     4.6800    -0.4550 C.3   1 <1>   0.4860 
 17 C        6.1040     3.7920     0.0700 C.ar  1 <1>  -0.1440 
 18 N       -6.1710     3.8120     0.1870 N.4   1 <1>  -0.9590 
 19 C        6.5760     3.1800     1.2210 C.ar  1 <1>  -0.1500 
 20 C        6.8790     3.7660    -1.0800 C.ar  1 <1>  -0.1500 
 21 C       -6.2380     2.4510    -0.4580 C.3   1 <1>   0.3430 
 22 C       -7.5280     4.4590     0.2120 C.3   1 <1>   0.3430 
 23 C        7.8070     2.5470     1.2230 C.ar  1 <1>  -0.1500 
 24 C        8.1110     3.1330    -1.0790 C.ar  1 <1>  -0.1500 
 25 C       -7.3680     1.5960     0.1430 C.3   1 <1>   0.1200 
 26 C       -8.5970     3.5050     0.7810 C.3   1 <1>   0.1200 
 27 C        8.5750     2.5230     0.0720 C.ar  1 <1>  -0.1500 
 28 O       -8.5800     2.2910     0.0880 O.3   1 <1>  -0.5600 
 29 H        0.3130     4.1620    -1.3310 H     1 <1>   0.0800 
 30 H        1.4670     3.3440    -2.3500 H     1 <1>   0.0800 
 31 H        2.5650     1.1920    -1.4880 H     1 <1>   0.0800 
 32 H        2.1240     0.6030     0.0880 H     1 <1>   0.0800 
 33 H       -1.4550     3.3150     2.0350 H     1 <1>   0.1500 
 34 H       -1.5090     2.2690    -2.0750 H     1 <1>   0.1500 
 35 H        2.0310     4.7350     0.2750 H     1 <1>   0.0800 
 36 H        2.4890     5.3070    -1.3020 H     1 <1>   0.0800 
 37 H        4.3220     1.7130     0.1160 H     1 <1>   0.0800 
 38 H        3.1820     2.5000     1.1640 H     1 <1>   0.0800 
 39 H       -3.5900     4.4730     1.7920 H     1 <1>   0.1500 
 40 H       -3.6480     3.4110    -2.3610 H     1 <1>   0.1500 
 41 H        3.9870     3.4040    -1.6130 H     1 <1>   0.0800 
 42 H        4.4550     4.7170     1.0720 H     1 <1>   0.0800 
 43 H        4.8490     5.4230    -0.4610 H     1 <1>   0.0800 
 44 H       -5.3760     4.8170    -1.5000 H     1 <1>   0.0800 
 45 H       -5.1260     5.6480     0.0210 H     1 <1>   0.0800 
 46 H       -5.8650     3.6580     1.1560 H     1 <1>   0.4500 
 47 H        5.9860     3.1920     2.1200 H     1 <1>   0.1500 
 48 H        6.5270     4.2380    -1.9790 H     1 <1>   0.1500 
 49 H       -5.2990     1.9350    -0.3330 H     1 <1>   0.0800 
 50 H       -6.4190     2.5560    -1.5150 H     1 <1>   0.0800 
 51 H       -7.8210     4.7310    -0.7890 H     1 <1>   0.0800 
 52 H       -7.5010     5.3570     0.8060 H     1 <1>   0.0800 
 53 H        8.1660     2.0730     2.1190 H     1 <1>   0.1500 
 54 H        8.7070     3.1170    -1.9750 H     1 <1>   0.1500 
 55 H       -7.1600     1.3370     1.1670 H     1 <1>   0.0800 
 56 H       -7.4860     0.6870    -0.4220 H     1 <1>   0.0800 
 57 H       -9.5770     3.9350     0.6630 H     1 <1>   0.0800 
 58 H       -8.4330     3.3110     1.8270 H     1 <1>   0.0800 
 59 H        9.5320     2.0310     0.0730 H     1 <1>   0.1500 
@<TRIPOS>BOND
  1   1   2  2   
  2   2   3  am  
  3   2   4  1   
  4   3   5  1   
  5   3   6  1   
  6   4   7  ar  
  7   4   8  ar  
  8   5   9  1   
  9   5  29  1   
 10   5  30  1   
 11   6  10  1   
 12   6  31  1   
 13   6  32  1   
 14   7  11  ar  
 15   7  33  1   
 16   8  12  ar  
 17   8  34  1   
 18   9  13  1   
 19   9  35  1   
 20   9  36  1   
 21  10  13  1   
 22  10  37  1   
 23  10  38  1   
 24  11  14  ar  
 25  11  39  1   
 26  12  14  ar  
 27  12  40  1   
 28  13  15  1   
 29  13  41  1   
 30  14  16  1   
 31  15  17  1   
 32  15  42  1   
 33  15  43  1   
 34  16  18  1   
 35  16  44  1   
 36  16  45  1   
 37  17  19  ar  
 38  17  20  ar  
 39  18  21  1   
 40  18  22  1   
 41  18  46  1   
 42  19  23  ar  
 43  19  47  1   
 44  20  24  ar  
 45  20  48  1   
 46  21  25  1   
 47  21  49  1   
 48  21  50  1   
 49  22  26  1   
 50  22  51  1   
 51  22  52  1   
 52  23  27  ar  
 53  23  53  1   
 54  24  27  ar  
 55  24  54  1   
 56  25  28  1   
 57  25  55  1   
 58  25  56  1   
 59  26  28  1   
 60  26  57  1   
 61  26  58  1   
 62  27  59  1   
@<TRIPOS>SUBSTRUCTURE
  1 ****   2 GROUP 4 **** **** 0

# MOE 2024.06 (io_trps.svl 2023.06)
