@<TRIPOS>MOLECULE
NONAME
49 50 1 0 0 
SMALL
USER_CHARGES


@<TRIPOS>ATOM
  1 S       -0.0690     0.0620     0.4400 S.o2  1 <1>   1.3330 
  2 O        0.2840     1.4230     0.7700 O.2   1 <1>  -0.6500 
  3 O        0.2120    -1.0030     1.3760 O.2   1 <1>  -0.6500 
  4 N       -1.7220     0.0060     0.0700 N.am  1 <1>  -0.8490 
  5 C        0.6840    -0.3240    -1.1260 C.3   1 <1>  -0.1350 
  6 C       -2.4980     0.9410     0.8910 C.3   1 <1>   0.1960 
  7 C       -2.2630    -1.3560     0.1430 C.3   1 <1>   0.1960 
  8 C       -3.9570     0.9790     0.4270 C.3   1 <1>  -0.1600 
  9 C       -3.7060    -1.3850    -0.3630 C.3   1 <1>  -0.1600 
 10 C       -4.5920    -0.4210     0.4410 C.3   1 <1>  -0.0190 
 11 C       -6.0240    -0.3930    -0.0880 C.2   1 <1>   0.5690 
 12 O       -6.2200    -0.0980    -1.2430 O.2   1 <1>  -0.5700 
 13 N       -7.0330    -0.7100     0.7690 N.am  1 <1>  -0.7300 
 14 C       -8.4830    -0.7440     0.4650 C.3   1 <1>   0.2200 
 15 C       -8.7700    -1.8530    -0.5690 C.3   1 <1>  -0.1600 
 16 C       -8.9480     0.6550     0.0280 C.3   1 <1>  -0.1600 
 17 C       -9.7860    -2.8980    -0.0810 C.3   1 <1>  -0.1600 
 18 C      -10.4140     0.9760     0.3610 C.3   1 <1>  -0.1600 
 19 C      -11.2580    -2.5140    -0.2990 C.3   1 <1>  -0.1600 
 20 C      -11.4500     0.0640    -0.3140 C.3   1 <1>  -0.1600 
 21 C      -11.7260    -1.2510     0.4420 C.3   1 <1>  -0.1600 
 22 H        0.3850     0.3950    -1.8620 H     1 <1>   0.0800 
 23 H        0.3870    -1.3000    -1.4540 H     1 <1>   0.0800 
 24 H        1.7520    -0.3010    -1.0340 H     1 <1>   0.0800 
 25 H       -2.0900     1.9340     0.7990 H     1 <1>   0.0800 
 26 H       -2.4400     0.6500     1.9280 H     1 <1>   0.0800 
 27 H       -2.2250    -1.7110     1.1610 H     1 <1>   0.0800 
 28 H       -1.6660    -2.0170    -0.4620 H     1 <1>   0.0800 
 29 H       -3.9910     1.3830    -0.5710 H     1 <1>   0.0800 
 30 H       -4.5170     1.6390     1.0640 H     1 <1>   0.0800 
 31 H       -4.0940    -2.3850    -0.2840 H     1 <1>   0.0800 
 32 H       -3.7160    -1.1110    -1.4040 H     1 <1>   0.0800 
 33 H       -4.6160    -0.7640     1.4600 H     1 <1>   0.0800 
 34 H       -6.8050    -0.9620     1.7290 H     1 <1>   0.3700 
 35 H       -8.9840    -0.9820     1.3870 H     1 <1>   0.0800 
 36 H       -7.8560    -2.3750    -0.7880 H     1 <1>   0.0800 
 37 H       -9.1050    -1.4310    -1.5000 H     1 <1>   0.0800 
 38 H       -8.7810     0.7810    -1.0270 H     1 <1>   0.0800 
 39 H       -8.3440     1.3900     0.5320 H     1 <1>   0.0800 
 40 H       -9.6140    -3.1260     0.9560 H     1 <1>   0.0800 
 41 H       -9.6100    -3.8070    -0.6310 H     1 <1>   0.0800 
 42 H      -10.6000     1.9840     0.0280 H     1 <1>   0.0800 
 43 H      -10.5580     0.9720     1.4280 H     1 <1>   0.0800 
 44 H      -11.8550    -3.3390     0.0500 H     1 <1>   0.0800 
 45 H      -11.4560    -2.4160    -1.3530 H     1 <1>   0.0800 
 46 H      -11.1710    -0.1190    -1.3370 H     1 <1>   0.0800 
 47 H      -12.3760     0.6120    -0.3480 H     1 <1>   0.0800 
 48 H      -11.3220    -1.2300     1.4380 H     1 <1>   0.0800 
 49 H      -12.7940    -1.3330     0.5520 H     1 <1>   0.0800 
@<TRIPOS>BOND
  1   1   2  2   
  2   1   3  2   
  3   1   4  am  
  4   1   5  1   
  5   4   6  1   
  6   4   7  1   
  7   5  22  1   
  8   5  23  1   
  9   5  24  1   
 10   6   8  1   
 11   6  25  1   
 12   6  26  1   
 13   7   9  1   
 14   7  27  1   
 15   7  28  1   
 16   8  10  1   
 17   8  29  1   
 18   8  30  1   
 19   9  10  1   
 20   9  31  1   
 21   9  32  1   
 22  10  11  1   
 23  10  33  1   
 24  11  12  2   
 25  11  13  am  
 26  13  14  1   
 27  13  34  1   
 28  14  15  1   
 29  14  16  1   
 30  14  35  1   
 31  15  17  1   
 32  15  36  1   
 33  15  37  1   
 34  16  18  1   
 35  16  38  1   
 36  16  39  1   
 37  17  19  1   
 38  17  40  1   
 39  17  41  1   
 40  18  20  1   
 41  18  42  1   
 42  18  43  1   
 43  19  21  1   
 44  19  44  1   
 45  19  45  1   
 46  20  21  1   
 47  20  46  1   
 48  20  47  1   
 49  21  48  1   
 50  21  49  1   
@<TRIPOS>SUBSTRUCTURE
  1 ****  11 GROUP 4 **** **** 0

# MOE 2024.06 (io_trps.svl 2023.06)
