@<TRIPOS>MOLECULE
NONAME
38 39 1 0 0 
SMALL
USER_CHARGES


@<TRIPOS>ATOM
  1 O       -2.4180    -0.2840     1.6190 O.3   1 <1>  -0.3630 
  2 C       -2.5780     0.6390     0.6260 C.ar  1 <1>   0.0830 
  3 C       -1.1680    -0.5410     2.2160 C.3   1 <1>   0.0400 
  4 C       -1.6970     1.6820     0.2940 C.ar  1 <1>   0.0830 
  5 C       -3.7480     0.5020    -0.1020 C.ar  1 <1>  -0.1500 
  6 O       -0.5440     1.9210     0.9540 O.3   1 <1>  -0.5330 
  7 C       -2.0060     2.5380    -0.7520 C.ar  1 <1>  -0.1500 
  8 C       -4.0650     1.3660    -1.1400 C.ar  1 <1>  -0.1440 
  9 C       -3.1820     2.3830    -1.4650 C.ar  1 <1>  -0.1500 
 10 C       -5.3750     1.1960    -1.8940 C.3   1 <1>   0.2530 
 11 N       -6.5110     1.2240    -0.9510 N.3   1 <1>  -0.8100 
 12 C       -6.6050     2.5080    -0.2090 C.3   1 <1>   0.1100 
 13 C       -7.7980     0.8970    -1.6020 C.3   1 <1>   0.1100 
 14 C       -7.7780     2.5170     0.8010 C.3   1 <1>   0.3430 
 15 C       -8.9660     0.8550    -0.5820 C.3   1 <1>   0.3430 
 16 N       -8.4950     1.1990     0.8010 N.4   1 <1>  -0.9590 
 17 C       -9.5540     1.0950     1.8440 C.3   1 <1>   0.2630 
 18 H       -1.2560    -1.4340     2.8080 H     1 <1>   0.0800 
 19 H       -0.9060     0.2900     2.8460 H     1 <1>   0.0800 
 20 H       -0.4340    -0.6830     1.4430 H     1 <1>   0.0800 
 21 H       -4.4210    -0.2940     0.1560 H     1 <1>   0.1500 
 22 H       -0.0670     2.6950     0.6090 H     1 <1>   0.4500 
 23 H       -1.3350     3.3340    -1.0180 H     1 <1>   0.1500 
 24 H       -3.4030     3.0600    -2.2720 H     1 <1>   0.1500 
 25 H       -5.3540     0.2480    -2.4050 H     1 <1>   0.0800 
 26 H       -5.4870     1.9740    -2.6310 H     1 <1>   0.0800 
 27 H       -6.7230     3.3260    -0.9000 H     1 <1>   0.0800 
 28 H       -5.6940     2.6800     0.3390 H     1 <1>   0.0800 
 29 H       -7.7230    -0.0650    -2.0810 H     1 <1>   0.0800 
 30 H       -8.0190     1.6240    -2.3650 H     1 <1>   0.0800 
 31 H       -8.4620     3.3100     0.5450 H     1 <1>   0.0800 
 32 H       -7.3870     2.7240     1.7840 H     1 <1>   0.0800 
 33 H       -9.3940    -0.1340    -0.5860 H     1 <1>   0.0800 
 34 H       -9.7330     1.5440    -0.8940 H     1 <1>   0.0800 
 35 H       -7.7350     0.5190     0.9770 H     1 <1>   0.4500 
 36 H      -10.3370     1.8110     1.6570 H     1 <1>   0.0800 
 37 H       -9.1360     1.2850     2.8190 H     1 <1>   0.0800 
 38 H       -9.9810     0.1050     1.8430 H     1 <1>   0.0800 
@<TRIPOS>BOND
  1   1   2  1   
  2   1   3  1   
  3   2   4  ar  
  4   2   5  ar  
  5   3  18  1   
  6   3  19  1   
  7   3  20  1   
  8   4   6  1   
  9   4   7  ar  
 10   5   8  ar  
 11   5  21  1   
 12   6  22  1   
 13   7   9  ar  
 14   7  23  1   
 15   8   9  ar  
 16   8  10  1   
 17   9  24  1   
 18  10  11  1   
 19  10  25  1   
 20  10  26  1   
 21  11  12  1   
 22  11  13  1   
 23  12  14  1   
 24  12  27  1   
 25  12  28  1   
 26  13  15  1   
 27  13  29  1   
 28  13  30  1   
 29  14  16  1   
 30  14  31  1   
 31  14  32  1   
 32  15  16  1   
 33  15  33  1   
 34  15  34  1   
 35  16  17  1   
 36  16  35  1   
 37  17  36  1   
 38  17  37  1   
 39  17  38  1   
@<TRIPOS>SUBSTRUCTURE
  1 ****   5 GROUP 4 **** **** 0

# MOE 2024.06 (io_trps.svl 2023.06)
