@<TRIPOS>MOLECULE
NONAME
41 42 1 0 0 
SMALL
USER_CHARGES


@<TRIPOS>ATOM
  1 O        0.5830    -2.3660    -2.5230 O.2   1 <1>  -0.5700 
  2 C       -0.1010    -1.8880    -1.6510 C.2   1 <1>   0.5690 
  3 N        0.4340    -1.2600    -0.5730 N.am  1 <1>  -0.7300 
  4 C       -1.6130    -1.9960    -1.7720 C.3   1 <1>   0.0440 
  5 C        1.8650    -1.0640    -0.2990 C.3   1 <1>   0.2200 
  6 C       -2.3540    -1.3640    -0.5960 C.ar  1 <1>  -0.1440 
  7 C        2.1800    -1.7890     1.0170 C.3   1 <1>  -0.1600 
  8 C        2.1210     0.4470    -0.2110 C.3   1 <1>  -0.1600 
  9 C       -2.6740    -0.0150    -0.6160 C.ar  1 <1>  -0.1500 
 10 C       -2.6910    -2.1280     0.5100 C.ar  1 <1>  -0.1500 
 11 C        3.6740    -1.9370     1.3370 C.3   1 <1>  -0.1600 
 12 C        3.5590     0.8770    -0.5450 C.3   1 <1>  -0.1600 
 13 C       -3.3230     0.5730     0.4580 C.ar  1 <1>  -0.1430 
 14 C       -3.3420    -1.5470     1.5840 C.ar  1 <1>  -0.1500 
 15 C        4.4660    -0.6210     1.3630 C.3   1 <1>  -0.1600 
 16 C        4.6850    -0.0400    -0.0410 C.3   1 <1>  -0.1600 
 17 C       -3.6560    -0.2000     1.5570 C.ar  1 <1>  -0.1500 
 18 C       -3.6710     2.0500     0.4290 C.3   1 <1>  -0.0970 
 19 H       -0.2100    -0.8810     0.1270 H     1 <1>   0.3700 
 20 H       -1.8700    -3.0350    -1.8500 H     1 <1>   0.0800 
 21 H       -1.9120    -1.5200    -2.6870 H     1 <1>   0.0800 
 22 H        2.4370    -1.4920    -1.1070 H     1 <1>   0.0800 
 23 H        1.7650    -2.7810     0.9630 H     1 <1>   0.0800 
 24 H        1.6970    -1.2790     1.8310 H     1 <1>   0.0800 
 25 H        1.8700     0.7930     0.7760 H     1 <1>   0.0800 
 26 H        1.4720     0.9560    -0.9020 H     1 <1>   0.0800 
 27 H       -2.4140     0.5830    -1.4720 H     1 <1>   0.1500 
 28 H       -2.4480    -3.1760     0.5430 H     1 <1>   0.1500 
 29 H        4.1230    -2.6090     0.6240 H     1 <1>   0.0800 
 30 H        3.7610    -2.4040     2.3030 H     1 <1>   0.0800 
 31 H        3.7110     1.8640    -0.1440 H     1 <1>   0.0800 
 32 H        3.6550     0.9560    -1.6150 H     1 <1>   0.0800 
 33 H       -3.6040    -2.1430     2.4410 H     1 <1>   0.1500 
 34 H        5.4330    -0.8340     1.7850 H     1 <1>   0.0800 
 35 H        3.9910     0.1000     2.0070 H     1 <1>   0.0800 
 36 H        5.5960     0.5340    -0.0370 H     1 <1>   0.0800 
 37 H        4.8320    -0.8430    -0.7430 H     1 <1>   0.0800 
 38 H       -4.1640     0.2430     2.3960 H     1 <1>   0.1500 
 39 H       -2.9910     2.5870    -0.2080 H     1 <1>   0.0800 
 40 H       -3.6110     2.4680     1.4180 H     1 <1>   0.0800 
 41 H       -4.6710     2.1800     0.0570 H     1 <1>   0.0800 
@<TRIPOS>BOND
  1   1   2  2   
  2   2   3  am  
  3   2   4  1   
  4   3   5  1   
  5   3  19  1   
  6   4   6  1   
  7   4  20  1   
  8   4  21  1   
  9   5   7  1   
 10   5   8  1   
 11   5  22  1   
 12   6   9  ar  
 13   6  10  ar  
 14   7  11  1   
 15   7  23  1   
 16   7  24  1   
 17   8  12  1   
 18   8  25  1   
 19   8  26  1   
 20   9  13  ar  
 21   9  27  1   
 22  10  14  ar  
 23  10  28  1   
 24  11  15  1   
 25  11  29  1   
 26  11  30  1   
 27  12  16  1   
 28  12  31  1   
 29  12  32  1   
 30  13  17  ar  
 31  13  18  1   
 32  14  17  ar  
 33  14  33  1   
 34  15  16  1   
 35  15  34  1   
 36  15  35  1   
 37  16  36  1   
 38  16  37  1   
 39  17  38  1   
 40  18  39  1   
 41  18  40  1   
 42  18  41  1   
@<TRIPOS>SUBSTRUCTURE
  1 ****   3 GROUP 4 **** **** 0

# MOE 2024.06 (io_trps.svl 2023.06)
