@<TRIPOS>MOLECULE
NONAME
44 47 1 0 0 
SMALL
USER_CHARGES


@<TRIPOS>ATOM
  1 S        1.5680     0.0750    -0.3140 S.3   1 <1>   0.1810 
  2 N        3.1090     0.2020     0.3730 N.2   1 <1>  -0.2210 
  3 C        1.4690     1.7650    -0.6700 C.2   1 <1>  -0.0450 
  4 N        3.5180     1.3910     0.3240 N.2   1 <1>  -0.2270 
  5 C        2.6410     2.2760    -0.2540 C.2   1 <1>   0.0460 
  6 C        0.3030     2.2950    -1.3190 C.2   1 <1>   0.7150 
  7 C        3.0870     3.7220    -0.3590 C.3   1 <1>  -0.0590 
  8 O        0.4160     3.1120    -2.2080 O.2   1 <1>  -0.5700 
  9 N       -0.9690     1.9630    -0.9810 N.am  1 <1>  -0.7300 
 10 C       -1.4790     1.5300     0.3380 C.3   1 <1>   0.2200 
 11 C       -2.5860     0.4400     0.1770 C.3   1 <1>   0.0000 
 12 C       -1.9110     2.8040     1.0720 C.3   1 <1>  -0.2400 
 13 C       -1.9930    -0.8050    -0.5370 C.3   1 <1>  -0.1600 
 14 C       -3.1080    -0.0230     1.5630 C.3   1 <1>  -0.1600 
 15 C       -3.8030     0.9360    -0.6510 C.3   1 <1>  -0.1600 
 16 C       -3.0430    -1.9190    -0.6930 C.3   1 <1>  -0.0800 
 17 C       -4.1630    -1.1370     1.4220 C.3   1 <1>  -0.0800 
 18 C       -4.8600    -0.1740    -0.8020 C.3   1 <1>  -0.0800 
 19 C       -3.5380    -2.3430     0.7000 C.3   1 <1>  -0.1600 
 20 C       -4.2290    -1.3830    -1.5160 C.3   1 <1>  -0.1600 
 21 C       -5.3470    -0.6070     0.5920 C.3   1 <1>  -0.1600 
 22 H        2.3240     4.3300    -0.8100 H     1 <1>   0.0800 
 23 H        3.9760     3.7830    -0.9610 H     1 <1>   0.0800 
 24 H        3.3050     4.1080     0.6200 H     1 <1>   0.0800 
 25 H       -1.6780     2.3910    -1.5760 H     1 <1>   0.3700 
 26 H       -0.6730     1.0960     0.9040 H     1 <1>   0.0800 
 27 H       -2.7230     3.2920     0.5650 H     1 <1>   0.0800 
 28 H       -1.0840     3.4880     1.1320 H     1 <1>   0.0800 
 29 H       -2.2150     2.5810     2.0770 H     1 <1>   0.0800 
 30 H       -1.1610    -1.1870     0.0280 H     1 <1>   0.0800 
 31 H       -1.6290    -0.5370    -1.5130 H     1 <1>   0.0800 
 32 H       -3.5610     0.7980     2.0880 H     1 <1>   0.0800 
 33 H       -2.2900    -0.3830     2.1620 H     1 <1>   0.0800 
 34 H       -3.4850     1.2460    -1.6310 H     1 <1>   0.0800 
 35 H       -4.2620     1.7820    -0.1720 H     1 <1>   0.0800 
 36 H       -2.6050    -2.7640    -1.1960 H     1 <1>   0.0800 
 37 H       -4.5090    -1.4370     2.3960 H     1 <1>   0.0800 
 38 H       -5.6920     0.1920    -1.3790 H     1 <1>   0.0800 
 39 H       -2.7170    -2.7300     1.2780 H     1 <1>   0.0800 
 40 H       -4.2670    -3.1290     0.6040 H     1 <1>   0.0800 
 41 H       -4.9650    -2.1580    -1.6390 H     1 <1>   0.0800 
 42 H       -3.8920    -1.0940    -2.4960 H     1 <1>   0.0800 
 43 H       -5.8010     0.2290     1.0960 H     1 <1>   0.0800 
 44 H       -6.0950    -1.3740     0.4950 H     1 <1>   0.0800 
@<TRIPOS>BOND
  1   1   2  1   
  2   1   3  1   
  3   2   4  2   
  4   3   5  2   
  5   3   6  1   
  6   4   5  1   
  7   5   7  1   
  8   6   8  2   
  9   6   9  am  
 10   7  22  1   
 11   7  23  1   
 12   7  24  1   
 13   9  10  1   
 14   9  25  1   
 15  10  11  1   
 16  10  12  1   
 17  10  26  1   
 18  11  13  1   
 19  11  14  1   
 20  11  15  1   
 21  12  27  1   
 22  12  28  1   
 23  12  29  1   
 24  13  16  1   
 25  13  30  1   
 26  13  31  1   
 27  14  17  1   
 28  14  32  1   
 29  14  33  1   
 30  15  18  1   
 31  15  34  1   
 32  15  35  1   
 33  16  19  1   
 34  16  20  1   
 35  16  36  1   
 36  17  19  1   
 37  17  21  1   
 38  17  37  1   
 39  18  20  1   
 40  18  21  1   
 41  18  38  1   
 42  19  39  1   
 43  19  40  1   
 44  20  41  1   
 45  20  42  1   
 46  21  43  1   
 47  21  44  1   
@<TRIPOS>SUBSTRUCTURE
  1 ****  10 GROUP 4 **** **** 0

# MOE 2024.06 (io_trps.svl 2023.06)
