@<TRIPOS>MOLECULE
NONAME
39 41 1 0 0 
SMALL
USER_CHARGES


@<TRIPOS>ATOM
  1 O       -2.2480     0.5190    -0.3980 O.2   1 <1>  -0.5700 
  2 C       -2.5680    -0.6230    -0.2720 C.2   1 <1>   0.4480 
  3 C       -1.7550    -1.6670     0.4750 C.3   1 <1>   0.0610 
  4 C       -3.8060    -1.1730    -0.9230 C.3   1 <1>  -0.0190 
  5 C       -1.3010    -2.6780    -0.5930 C.3   1 <1>   0.3430 
  6 C       -2.6840    -2.3130     1.5210 C.3   1 <1>   0.1100 
  7 C       -0.5220    -1.0260     1.1720 C.3   1 <1>  -0.1600 
  8 C       -3.3360    -2.1330    -2.0140 C.3   1 <1>   0.3430 
  9 C       -4.6880    -1.8330     0.1400 C.3   1 <1>   0.1100 
 10 N       -2.3810    -3.1880    -1.5180 N.4   1 <1>  -0.9590 
 11 N       -3.9320    -2.8190     0.9270 N.3   1 <1>  -0.8100 
 12 C        0.3720    -2.0010     1.9620 C.3   1 <1>   0.1200 
 13 C       -3.0930    -4.3850    -0.9490 C.3   1 <1>   0.3430 
 14 C       -3.8730    -4.1840     0.3720 C.3   1 <1>   0.1100 
 15 O        1.7020    -1.9220     1.4920 O.3   1 <1>  -0.4300 
 16 C        2.1530    -2.5950     0.4430 C.2   1 <1>   0.6590 
 17 O        1.4370    -3.3000    -0.2220 O.2   1 <1>  -0.5700 
 18 C        3.6150    -2.4200     0.1280 C.3   1 <1>  -0.1790 
 19 H       -4.3560    -0.3700    -1.3800 H     1 <1>   0.0800 
 20 H       -0.8300    -3.5150    -0.1040 H     1 <1>   0.0800 
 21 H       -0.5440    -2.1950    -1.1890 H     1 <1>   0.0800 
 22 H       -2.9450    -1.5710     2.2580 H     1 <1>   0.0800 
 23 H       -2.1860    -3.1140     2.0410 H     1 <1>   0.0800 
 24 H       -0.8750    -0.2750     1.8580 H     1 <1>   0.0800 
 25 H        0.0720    -0.5090     0.4370 H     1 <1>   0.0800 
 26 H       -4.1900    -2.5990    -2.4760 H     1 <1>   0.0800 
 27 H       -2.8370    -1.5460    -2.7690 H     1 <1>   0.0800 
 28 H       -5.5500    -2.2980    -0.3090 H     1 <1>   0.0800 
 29 H       -5.0480    -1.0710     0.8130 H     1 <1>   0.0800 
 30 H       -1.8810    -3.5400    -2.3480 H     1 <1>   0.4500 
 31 H        0.0490    -3.0250     1.8900 H     1 <1>   0.0800 
 32 H        0.3890    -1.7240     3.0020 H     1 <1>   0.0800 
 33 H       -2.3750    -5.1720    -0.7850 H     1 <1>   0.0800 
 34 H       -3.7870    -4.7600    -1.6840 H     1 <1>   0.0800 
 35 H       -4.8800    -4.5330     0.2210 H     1 <1>   0.0800 
 36 H       -3.4470    -4.8360     1.1160 H     1 <1>   0.0800 
 37 H        3.8190    -1.3850    -0.0700 H     1 <1>   0.0800 
 38 H        3.8770    -3.0040    -0.7350 H     1 <1>   0.0800 
 39 H        4.2030    -2.7430     0.9650 H     1 <1>   0.0800 
@<TRIPOS>BOND
  1   1   2  2   
  2   2   3  1   
  3   2   4  1   
  4   3   5  1   
  5   3   6  1   
  6   3   7  1   
  7   4   8  1   
  8   4   9  1   
  9   4  19  1   
 10   5  10  1   
 11   5  20  1   
 12   5  21  1   
 13   6  11  1   
 14   6  22  1   
 15   6  23  1   
 16   7  12  1   
 17   7  24  1   
 18   7  25  1   
 19   8  10  1   
 20   8  26  1   
 21   8  27  1   
 22   9  11  1   
 23   9  28  1   
 24   9  29  1   
 25  10  13  1   
 26  10  30  1   
 27  11  14  1   
 28  12  15  1   
 29  12  31  1   
 30  12  32  1   
 31  13  14  1   
 32  13  33  1   
 33  13  34  1   
 34  14  35  1   
 35  14  36  1   
 36  15  16  1   
 37  16  17  2   
 38  16  18  1   
 39  18  37  1   
 40  18  38  1   
 41  18  39  1   
@<TRIPOS>SUBSTRUCTURE
  1 ****   3 GROUP 4 **** **** 0

# MOE 2024.06 (io_trps.svl 2023.06)
