@<TRIPOS>MOLECULE
NONAME
46 47 1 0 0 
SMALL
USER_CHARGES


@<TRIPOS>ATOM
  1 O        0.1010     0.9180    -1.2590 O.2   1 <1>  -0.5700 
  2 C       -0.0810     1.8010    -0.4630 C.2   1 <1>   0.6590 
  3 O       -1.2320     1.9740     0.1680 O.3   1 <1>  -0.4300 
  4 C        1.0240     2.7970    -0.1230 C.3   1 <1>  -0.0190 
  5 C       -2.3290     1.1190    -0.0590 C.3   1 <1>   0.1200 
  6 C        1.4580     3.5880    -1.3730 C.3   1 <1>  -0.1600 
  7 C        2.2360     2.0820     0.5040 C.3   1 <1>  -0.1600 
  8 C       -3.4850     1.5890     0.8170 C.3   1 <1>  -0.2400 
  9 C        2.6450     4.5060    -1.0890 C.3   1 <1>   0.3430 
 10 C        3.4020     3.0380     0.7450 C.3   1 <1>   0.3430 
 11 N        3.7750     3.7030    -0.5410 N.4   1 <1>  -0.9590 
 12 C        5.0240     4.5160    -0.4700 C.3   1 <1>   0.4230 
 13 C        6.2570     3.5940    -0.4250 C.3   1 <1>  -0.1600 
 14 C        5.0180     5.5190     0.6940 C.3   1 <1>  -0.1600 
 15 C        7.4830     4.2500     0.2440 C.3   1 <1>  -0.0800 
 16 C        6.2440     6.4490     0.6170 C.3   1 <1>  -0.1600 
 17 C        7.4890     5.7690     0.0140 C.3   1 <1>  -0.1600 
 18 C        8.7830     3.6150    -0.2630 C.3   1 <1>  -0.2400 
 19 H        0.6280     3.4920     0.5980 H     1 <1>   0.0800 
 20 H       -2.0380     0.1120     0.1930 H     1 <1>   0.0800 
 21 H       -2.5900     1.1670    -1.1030 H     1 <1>   0.0800 
 22 H        0.6300     4.1820    -1.7220 H     1 <1>   0.0800 
 23 H        1.7190     2.9090    -2.1670 H     1 <1>   0.0800 
 24 H        2.5630     1.2790    -0.1350 H     1 <1>   0.0800 
 25 H        1.9430     1.6430     1.4420 H     1 <1>   0.0800 
 26 H       -3.2080     1.5430     1.8550 H     1 <1>   0.0800 
 27 H       -4.3380     0.9530     0.6630 H     1 <1>   0.0800 
 28 H       -3.7600     2.5970     0.5610 H     1 <1>   0.0800 
 29 H        2.3550     5.2640    -0.3790 H     1 <1>   0.0800 
 30 H        2.9460     4.9940    -2.0020 H     1 <1>   0.0800 
 31 H        4.2410     2.4870     1.1380 H     1 <1>   0.0800 
 32 H        3.1160     3.7810     1.4720 H     1 <1>   0.0800 
 33 H        3.9590     2.9540    -1.2200 H     1 <1>   0.4500 
 34 H        5.1040     5.0960    -1.3760 H     1 <1>   0.0800 
 35 H        6.5040     3.3410    -1.4420 H     1 <1>   0.0800 
 36 H        6.0500     2.6790     0.0990 H     1 <1>   0.0800 
 37 H        5.0610     4.9900     1.6300 H     1 <1>   0.0800 
 38 H        4.1290     6.1230     0.6830 H     1 <1>   0.0800 
 39 H        7.4300     4.0790     1.3080 H     1 <1>   0.0800 
 40 H        6.4760     6.7960     1.6110 H     1 <1>   0.0800 
 41 H        6.0100     7.3190     0.0260 H     1 <1>   0.0800 
 42 H        7.5290     5.9650    -1.0450 H     1 <1>   0.0800 
 43 H        8.3730     6.2050     0.4500 H     1 <1>   0.0800 
 44 H        8.9100     3.7850    -1.3180 H     1 <1>   0.0800 
 45 H        8.7790     2.5540    -0.0830 H     1 <1>   0.0800 
 46 H        9.6280     4.0370     0.2520 H     1 <1>   0.0800 
@<TRIPOS>BOND
  1   1   2  2   
  2   2   3  1   
  3   2   4  1   
  4   3   5  1   
  5   4   6  1   
  6   4   7  1   
  7   4  19  1   
  8   5   8  1   
  9   5  20  1   
 10   5  21  1   
 11   6   9  1   
 12   6  22  1   
 13   6  23  1   
 14   7  10  1   
 15   7  24  1   
 16   7  25  1   
 17   8  26  1   
 18   8  27  1   
 19   8  28  1   
 20   9  11  1   
 21   9  29  1   
 22   9  30  1   
 23  10  11  1   
 24  10  31  1   
 25  10  32  1   
 26  11  12  1   
 27  11  33  1   
 28  12  13  1   
 29  12  14  1   
 30  12  34  1   
 31  13  15  1   
 32  13  35  1   
 33  13  36  1   
 34  14  16  1   
 35  14  37  1   
 36  14  38  1   
 37  15  17  1   
 38  15  18  1   
 39  15  39  1   
 40  16  17  1   
 41  16  40  1   
 42  16  41  1   
 43  17  42  1   
 44  17  43  1   
 45  18  44  1   
 46  18  45  1   
 47  18  46  1   
@<TRIPOS>SUBSTRUCTURE
  1 ****  11 GROUP 4 **** **** 0

# MOE 2024.06 (io_trps.svl 2023.06)
