@<TRIPOS>MOLECULE
NONAME
46 47 1 0 0 
SMALL
USER_CHARGES


@<TRIPOS>ATOM
  1 CL      -0.0790     0.2670     0.5080 Cl    1 <1>  -0.1770 
  2 C       -1.5000    -0.7460     0.4380 C.ar  1 <1>   0.1770 
  3 C       -2.7070    -0.1930     0.0590 C.ar  1 <1>  -0.1500 
  4 C       -1.3910    -2.0790     0.7630 C.ar  1 <1>  -0.1500 
  5 C       -3.8670    -0.9660    -0.0100 C.ar  1 <1>  -0.1440 
  6 C       -2.5210    -2.8690     0.7040 C.ar  1 <1>  -0.1500 
  7 C       -3.7510    -2.3290     0.3200 C.ar  1 <1>   0.0830 
  8 C       -5.2190    -0.3200    -0.4380 C.3   1 <1>   0.1440 
  9 O       -4.8570    -3.1170     0.2620 O.3   1 <1>  -0.3630 
 10 C       -5.0990     1.1860    -0.7480 C.3   1 <1>  -0.2400 
 11 C       -6.2600    -0.4390     0.6880 C.3   1 <1>  -0.2400 
 12 C       -5.7520    -0.9750    -1.7240 C.3   1 <1>  -0.2400 
 13 C       -4.8260    -4.5100     0.4780 C.3   1 <1>   0.1200 
 14 C       -6.2480    -5.0430     0.2910 C.3   1 <1>   0.1100 
 15 N       -6.3170    -6.5090     0.4930 N.3   1 <1>  -0.8100 
 16 C       -7.6940    -6.9230     0.8310 C.3   1 <1>   0.1100 
 17 C       -5.7950    -7.2590    -0.6700 C.3   1 <1>   0.1100 
 18 C       -7.7760    -8.4390     1.0990 C.3   1 <1>   0.3430 
 19 C       -5.8520    -8.7820    -0.4280 C.3   1 <1>   0.3430 
 20 N       -7.2340    -9.2320    -0.0550 N.4   1 <1>  -0.9060 
 21 H       -2.6910     0.8530    -0.1730 H     1 <1>   0.1500 
 22 H       -0.4400    -2.4830     1.0570 H     1 <1>   0.1500 
 23 H       -2.4160    -3.9040     0.9650 H     1 <1>   0.1500 
 24 H       -4.4130     1.3550    -1.5580 H     1 <1>   0.0800 
 25 H       -4.7640     1.7270     0.1190 H     1 <1>   0.0800 
 26 H       -6.0520     1.5930    -1.0370 H     1 <1>   0.0800 
 27 H       -5.8660    -0.0180     1.5960 H     1 <1>   0.0800 
 28 H       -6.5240    -1.4600     0.8800 H     1 <1>   0.0800 
 29 H       -7.1620     0.0860     0.4310 H     1 <1>   0.0800 
 30 H       -5.0050    -0.9290    -2.4960 H     1 <1>   0.0800 
 31 H       -6.6350    -0.4690    -2.0710 H     1 <1>   0.0800 
 32 H       -6.0110    -2.0040    -1.5680 H     1 <1>   0.0800 
 33 H       -4.4900    -4.6900     1.4840 H     1 <1>   0.0800 
 34 H       -4.1500    -4.9400    -0.2380 H     1 <1>   0.0800 
 35 H       -6.6070    -4.7850    -0.6910 H     1 <1>   0.0800 
 36 H       -6.8700    -4.5510     1.0210 H     1 <1>   0.0800 
 37 H       -8.3670    -6.6540     0.0340 H     1 <1>   0.0800 
 38 H       -8.0110    -6.4020     1.7200 H     1 <1>   0.0800 
 39 H       -4.7700    -6.9830    -0.8480 H     1 <1>   0.0800 
 40 H       -6.3600    -7.0100    -1.5530 H     1 <1>   0.0800 
 41 H       -8.8000    -8.7140     1.2890 H     1 <1>   0.0800 
 42 H       -7.2040    -8.6550     1.9870 H     1 <1>   0.0800 
 43 H       -5.1670    -9.0210     0.3700 H     1 <1>   0.0800 
 44 H       -5.5210    -9.2980    -1.3150 H     1 <1>   0.0800 
 45 H       -7.8540    -9.1030    -0.8630 H     1 <1>   0.4500 
 46 H       -7.2280   -10.2320     0.1780 H     1 <1>   0.4500 
@<TRIPOS>BOND
  1   1   2  1   
  2   2   3  ar  
  3   2   4  ar  
  4   3   5  ar  
  5   3  21  1   
  6   4   6  ar  
  7   4  22  1   
  8   5   7  ar  
  9   5   8  1   
 10   6   7  ar  
 11   6  23  1   
 12   7   9  1   
 13   8  10  1   
 14   8  11  1   
 15   8  12  1   
 16   9  13  1   
 17  10  24  1   
 18  10  25  1   
 19  10  26  1   
 20  11  27  1   
 21  11  28  1   
 22  11  29  1   
 23  12  30  1   
 24  12  31  1   
 25  12  32  1   
 26  13  14  1   
 27  13  33  1   
 28  13  34  1   
 29  14  15  1   
 30  14  35  1   
 31  14  36  1   
 32  15  16  1   
 33  15  17  1   
 34  16  18  1   
 35  16  37  1   
 36  16  38  1   
 37  17  19  1   
 38  17  39  1   
 39  17  40  1   
 40  18  20  1   
 41  18  41  1   
 42  18  42  1   
 43  19  20  1   
 44  19  43  1   
 45  19  44  1   
 46  20  45  1   
 47  20  46  1   
@<TRIPOS>SUBSTRUCTURE
  1 ****   9 GROUP 4 **** **** 0

# MOE 2024.06 (io_trps.svl 2023.06)
