@<TRIPOS>MOLECULE
NONAME
43 44 1 0 0 
SMALL
USER_CHARGES


@<TRIPOS>ATOM
  1 O        0.0840    -0.2260     1.0700 O.2   1 <1>  -0.5700 
  2 C        0.0390    -1.0740     0.2010 C.2   1 <1>   0.6900 
  3 N        1.1540    -1.6670    -0.3090 N.am  1 <1>  -0.5470 
  4 N       -1.1650    -1.4580    -0.2920 N.am  1 <1>  -0.7300 
  5 C        2.5150    -1.4000    -0.0980 C.ar  1 <1>   0.1170 
  6 C       -2.4400    -0.9280     0.2110 C.3   1 <1>   0.2200 
  7 C        3.4400    -2.4100    -0.3430 C.ar  1 <1>  -0.1500 
  8 C        2.9890    -0.1620     0.3270 C.ar  1 <1>  -0.1500 
  9 C       -3.5420    -1.9660     0.0390 C.3   1 <1>  -0.1600 
 10 C       -2.7900     0.3510    -0.5420 C.3   1 <1>  -0.1600 
 11 C        4.7950    -2.1940    -0.1660 C.ar  1 <1>  -0.1500 
 12 C        4.3430     0.0580     0.5060 C.ar  1 <1>  -0.1500 
 13 C       -4.8790    -1.3930     0.5050 C.3   1 <1>   0.3430 
 14 C       -4.1330     0.8920    -0.0640 C.3   1 <1>   0.3430 
 15 C        5.2490    -0.9590     0.2600 C.ar  1 <1>  -0.1500 
 16 N       -5.2100    -0.1380    -0.2480 N.4   1 <1>  -0.9590 
 17 C       -6.5630     0.3930     0.0990 C.3   1 <1>   0.4230 
 18 C       -7.6300    -0.6720    -0.1670 C.3   1 <1>  -0.2400 
 19 C       -6.8790     1.6260    -0.7520 C.3   1 <1>  -0.2400 
 20 H        0.9700    -2.5080    -0.8430 H     1 <1>   0.3700 
 21 H       -1.1910    -2.0050    -1.1500 H     1 <1>   0.3700 
 22 H       -2.3310    -0.7010     1.2610 H     1 <1>   0.0800 
 23 H        3.1020    -3.3750    -0.6710 H     1 <1>   0.1500 
 24 H        2.3010     0.6410     0.5180 H     1 <1>   0.1500 
 25 H       -3.3090    -2.8310     0.6360 H     1 <1>   0.0800 
 26 H       -3.6210    -2.2730    -0.9880 H     1 <1>   0.0800 
 27 H       -2.8250     0.1730    -1.6020 H     1 <1>   0.0800 
 28 H       -2.0330     1.0910    -0.3490 H     1 <1>   0.0800 
 29 H        5.4980    -2.9860    -0.3580 H     1 <1>   0.1500 
 30 H        4.6910     1.0210     0.8380 H     1 <1>   0.1500 
 31 H       -4.8300    -1.1800     1.5610 H     1 <1>   0.0800 
 32 H       -5.6420    -2.1370     0.3470 H     1 <1>   0.0800 
 33 H       -4.3620     1.7810    -0.6270 H     1 <1>   0.0800 
 34 H       -4.0600     1.1620     0.9780 H     1 <1>   0.0800 
 35 H        6.3030    -0.7880     0.4000 H     1 <1>   0.1500 
 36 H       -5.2420    -0.3730    -1.2470 H     1 <1>   0.4500 
 37 H       -6.5930     0.6690     1.1420 H     1 <1>   0.0800 
 38 H       -7.5660    -1.0450    -1.1740 H     1 <1>   0.0800 
 39 H       -8.6090    -0.2440    -0.0360 H     1 <1>   0.0800 
 40 H       -7.5610    -1.4860     0.5300 H     1 <1>   0.0800 
 41 H       -6.7600     1.4160    -1.8010 H     1 <1>   0.0800 
 42 H       -6.2680     2.4650    -0.4770 H     1 <1>   0.0800 
 43 H       -7.8990     1.9270    -0.5900 H     1 <1>   0.0800 
@<TRIPOS>BOND
  1   1   2  2   
  2   2   3  am  
  3   2   4  am  
  4   3   5  1   
  5   3  20  1   
  6   4   6  1   
  7   4  21  1   
  8   5   7  ar  
  9   5   8  ar  
 10   6   9  1   
 11   6  10  1   
 12   6  22  1   
 13   7  11  ar  
 14   7  23  1   
 15   8  12  ar  
 16   8  24  1   
 17   9  13  1   
 18   9  25  1   
 19   9  26  1   
 20  10  14  1   
 21  10  27  1   
 22  10  28  1   
 23  11  15  ar  
 24  11  29  1   
 25  12  15  ar  
 26  12  30  1   
 27  13  16  1   
 28  13  31  1   
 29  13  32  1   
 30  14  16  1   
 31  14  33  1   
 32  14  34  1   
 33  15  35  1   
 34  16  17  1   
 35  16  36  1   
 36  17  18  1   
 37  17  19  1   
 38  17  37  1   
 39  18  38  1   
 40  18  39  1   
 41  18  40  1   
 42  19  41  1   
 43  19  42  1   
 44  19  43  1   
@<TRIPOS>SUBSTRUCTURE
  1 ****   4 GROUP 4 **** **** 0

# MOE 2024.06 (io_trps.svl 2023.06)
