@<TRIPOS>MOLECULE
NONAME
32 32 1 0 0 
SMALL
USER_CHARGES


@<TRIPOS>ATOM
  1 S        0.3020     0.5180     0.5280 S.o2  1 <1>   1.5010 
  2 O        0.9530     0.9630     1.7400 O.2   1 <1>  -0.6500 
  3 O        0.4690     1.2470    -0.7070 O.2   1 <1>  -0.6500 
  4 N        0.9070    -1.0020     0.1660 N.am  1 <1>  -0.9140 
  5 C       -1.4360     0.1970     0.8410 C.2   1 <1>  -0.0630 
  6 C        2.3460    -1.0890     0.3270 C.3   1 <1>   0.1960 
  7 C       -1.9750     0.0090     2.1070 C.2   1 <1>   0.1390 
  8 C       -2.5010     0.0470     0.0130 C.2   1 <1>  -0.3020 
  9 C        2.8120    -2.4570    -0.1650 C.3   1 <1>  -0.1600 
 10 N       -3.2510    -0.2280     2.0810 N.2   1 <1>  -0.7070 
 11 N       -3.5790    -0.2050     0.7790 N.pl3 1 <1>   0.3140 
 12 C        4.3300    -2.6170    -0.0060 C.3   1 <1>  -0.1600 
 13 C       -4.9630    -0.4330     0.3160 C.3   1 <1>   0.0960 
 14 C        4.7940    -3.9900    -0.4990 C.3   1 <1>  -0.2400 
 15 C       -5.1390    -1.8580    -0.2250 C.3   1 <1>  -0.2400 
 16 H        0.7140    -1.0990    -0.8270 H     1 <1>   0.4200 
 17 H        2.6010    -0.9700     1.3680 H     1 <1>   0.0800 
 18 H        2.8290    -0.3070    -0.2380 H     1 <1>   0.0800 
 19 H       -1.3980     0.0550     3.0170 H     1 <1>   0.1500 
 20 H       -2.5410     0.1070    -1.0590 H     1 <1>   0.1500 
 21 H        2.5520    -2.5730    -1.2030 H     1 <1>   0.0800 
 22 H        2.3130    -3.2230     0.4040 H     1 <1>   0.0800 
 23 H        4.5990    -2.5060     1.0320 H     1 <1>   0.0800 
 24 H        4.8380    -1.8500    -0.5660 H     1 <1>   0.0800 
 25 H       -5.1910     0.2880    -0.4470 H     1 <1>   0.0800 
 26 H       -5.6250    -0.2720     1.1480 H     1 <1>   0.0800 
 27 H        4.3150    -4.7730     0.0620 H     1 <1>   0.0800 
 28 H        5.8590    -4.0840    -0.3760 H     1 <1>   0.0800 
 29 H        4.5590    -4.1160    -1.5410 H     1 <1>   0.0800 
 30 H       -4.4930    -2.0240    -1.0680 H     1 <1>   0.0800 
 31 H       -6.1570    -2.0060    -0.5370 H     1 <1>   0.0800 
 32 H       -4.9110    -2.5740     0.5460 H     1 <1>   0.0800 
@<TRIPOS>BOND
  1   1   2  2   
  2   1   3  2   
  3   1   4  am  
  4   1   5  1   
  5   4   6  1   
  6   4  16  1   
  7   5   7  1   
  8   5   8  2   
  9   6   9  1   
 10   6  17  1   
 11   6  18  1   
 12   7  10  2   
 13   7  19  1   
 14   8  11  1   
 15   8  20  1   
 16   9  12  1   
 17   9  21  1   
 18   9  22  1   
 19  10  11  1   
 20  11  13  1   
 21  12  14  1   
 22  12  23  1   
 23  12  24  1   
 24  13  15  1   
 25  13  25  1   
 26  13  26  1   
 27  14  27  1   
 28  14  28  1   
 29  14  29  1   
 30  15  30  1   
 31  15  31  1   
 32  15  32  1   
@<TRIPOS>SUBSTRUCTURE
  1 ****   4 GROUP 4 **** **** 0

# MOE 2024.06 (io_trps.svl 2023.06)
