@<TRIPOS>MOLECULE
NONAME
49 52 1 0 0 
SMALL
USER_CHARGES


@<TRIPOS>ATOM
  1 O       -5.1360    -3.9470    -2.1310 O.2   1 <1>  -0.5700 
  2 C       -5.2050    -4.1890    -0.9500 C.2   1 <1>   0.5690 
  3 N       -6.3920    -4.2170    -0.2840 N.am  1 <1>  -0.7300 
  4 C       -3.8840    -4.3970    -0.1930 C.3   1 <1>   0.4040 
  5 C       -7.7080    -3.8930    -0.9010 C.3   1 <1>   0.1400 
  6 N       -3.1520    -3.1080     0.1180 N.4   1 <1>  -0.9590 
  7 C       -8.2660    -2.5430    -0.4010 C.3   1 <1>   0.0000 
  8 C       -2.8490    -2.3260    -1.1110 C.3   1 <1>   0.3430 
  9 C       -1.8570    -3.2980     0.8100 C.3   1 <1>   0.3430 
 10 C       -9.6360    -2.2900    -1.0730 C.3   1 <1>  -0.1600 
 11 C       -7.3210    -1.3740    -0.7740 C.3   1 <1>  -0.1600 
 12 C       -8.4720    -2.5460     1.1350 C.3   1 <1>  -0.1600 
 13 C       -1.7330    -1.3790    -0.6900 C.3   1 <1>  -0.1600 
 14 C       -1.1110    -1.9930     0.5690 C.3   1 <1>  -0.1600 
 15 C      -10.2360    -0.9490    -0.6120 C.3   1 <1>  -0.0800 
 16 C       -7.9080    -0.0280    -0.3080 C.3   1 <1>  -0.0800 
 17 C       -9.0630    -1.2030     1.6060 C.3   1 <1>  -0.0800 
 18 C       -9.2720     0.1910    -0.9870 C.3   1 <1>  -0.1600 
 19 C      -10.4200    -0.9770     0.9160 C.3   1 <1>  -0.1600 
 20 C       -8.1030    -0.0620     1.2200 C.3   1 <1>  -0.1600 
 21 H       -6.4530    -4.4170     0.7170 H     1 <1>   0.3700 
 22 H       -3.2580    -5.0250    -0.8030 H     1 <1>   0.0800 
 23 H       -4.0940    -4.9250     0.7210 H     1 <1>   0.0800 
 24 H       -8.4050    -4.6800    -0.6680 H     1 <1>   0.0800 
 25 H       -7.6080    -3.8580    -1.9740 H     1 <1>   0.0800 
 26 H       -3.7500    -2.5110     0.7030 H     1 <1>   0.4500 
 27 H       -3.7170    -1.7950    -1.4720 H     1 <1>   0.0800 
 28 H       -2.4930    -2.9850    -1.8870 H     1 <1>   0.0800 
 29 H       -1.3130    -4.1100     0.3540 H     1 <1>   0.0800 
 30 H       -1.9870    -3.4960     1.8630 H     1 <1>   0.0800 
 31 H      -10.3190    -3.0860    -0.8290 H     1 <1>   0.0800 
 32 H       -9.5230    -2.2770    -2.1440 H     1 <1>   0.0800 
 33 H       -7.1740    -1.3520    -1.8410 H     1 <1>   0.0800 
 34 H       -6.3600    -1.5100    -0.3170 H     1 <1>   0.0800 
 35 H       -7.5370    -2.7060     1.6400 H     1 <1>   0.0800 
 36 H       -9.1380    -3.3440     1.4130 H     1 <1>   0.0800 
 37 H       -2.1400    -0.4060    -0.4750 H     1 <1>   0.0800 
 38 H       -1.0130    -1.2780    -1.4840 H     1 <1>   0.0800 
 39 H       -0.0570    -2.1770     0.4450 H     1 <1>   0.0800 
 40 H       -1.2450    -1.3360     1.4110 H     1 <1>   0.0800 
 41 H      -11.1880    -0.7920    -1.0900 H     1 <1>   0.0800 
 42 H       -7.2410     0.7740    -0.5730 H     1 <1>   0.0800 
 43 H       -9.1990    -1.2180     2.6740 H     1 <1>   0.0800 
 44 H       -9.6870     1.1340    -0.6770 H     1 <1>   0.0800 
 45 H       -9.1470     0.2260    -2.0560 H     1 <1>   0.0800 
 46 H      -11.1040    -1.7630     1.1870 H     1 <1>   0.0800 
 47 H      -10.8470    -0.0460     1.2470 H     1 <1>   0.0800 
 48 H       -7.1550    -0.1990     1.7080 H     1 <1>   0.0800 
 49 H       -8.5070     0.8790     1.5530 H     1 <1>   0.0800 
@<TRIPOS>BOND
  1   1   2  2   
  2   2   3  am  
  3   2   4  1   
  4   3   5  1   
  5   3  21  1   
  6   4   6  1   
  7   4  22  1   
  8   4  23  1   
  9   5   7  1   
 10   5  24  1   
 11   5  25  1   
 12   6   8  1   
 13   6   9  1   
 14   6  26  1   
 15   7  10  1   
 16   7  11  1   
 17   7  12  1   
 18   8  13  1   
 19   8  27  1   
 20   8  28  1   
 21   9  14  1   
 22   9  29  1   
 23   9  30  1   
 24  10  15  1   
 25  10  31  1   
 26  10  32  1   
 27  11  16  1   
 28  11  33  1   
 29  11  34  1   
 30  12  17  1   
 31  12  35  1   
 32  12  36  1   
 33  13  14  1   
 34  13  37  1   
 35  13  38  1   
 36  14  39  1   
 37  14  40  1   
 38  15  18  1   
 39  15  19  1   
 40  15  41  1   
 41  16  18  1   
 42  16  20  1   
 43  16  42  1   
 44  17  19  1   
 45  17  20  1   
 46  17  43  1   
 47  18  44  1   
 48  18  45  1   
 49  19  46  1   
 50  19  47  1   
 51  20  48  1   
 52  20  49  1   
@<TRIPOS>SUBSTRUCTURE
  1 ****  11 GROUP 4 **** **** 0

# MOE 2024.06 (io_trps.svl 2023.06)
