@<TRIPOS>MOLECULE
NONAME
41 42 1 0 0 
SMALL
USER_CHARGES


@<TRIPOS>ATOM
  1 O       -0.0610    -0.8050    -1.5870 O.2   1 <1>  -0.5700 
  2 C        0.1580    -1.5440    -0.6440 C.2   1 <1>   0.7150 
  3 N        1.4340    -1.6140    -0.1670 N.am  1 <1>  -0.7300 
  4 C       -0.8800    -2.3430    -0.0270 C.2   1 <1>   0.0550 
  5 C        2.6020    -1.0120    -0.8110 C.3   1 <1>   0.3640 
  6 O       -2.1290    -2.3260    -0.4840 O.3   1 <1>  -0.2800 
  7 C       -0.8310    -3.1980     1.0350 C.2   1 <1>  -0.1500 
  8 C        3.7950    -1.9200    -0.5370 C.ar  1 <1>  -0.1440 
  9 C        2.8060     0.3970    -0.2610 C.3   1 <1>  -0.2400 
 10 C       -2.8660    -3.1310     0.2430 C.2   1 <1>  -0.0400 
 11 C       -2.1190    -3.7060     1.2070 C.2   1 <1>  -0.1500 
 12 C        4.4060    -2.5860    -1.5880 C.ar  1 <1>  -0.1500 
 13 C        4.2840    -2.1110     0.7480 C.ar  1 <1>  -0.1500 
 14 C       -4.3340    -3.2740    -0.0940 C.3   1 <1>  -0.0600 
 15 C        5.4840    -3.4230    -1.3610 C.ar  1 <1>  -0.1500 
 16 C        5.3630    -2.9480     0.9740 C.ar  1 <1>  -0.1500 
 17 C        5.9740    -3.6130    -0.0770 C.ar  1 <1>  -0.1430 
 18 C        7.1630    -4.5340     0.1900 C.3   1 <1>   0.0630 
 19 C        8.4170    -4.0300    -0.5330 C.3   1 <1>  -0.2400 
 20 C        6.8420    -5.9750    -0.2170 C.3   1 <1>  -0.2400 
 21 H        1.6730    -2.3430     0.5000 H     1 <1>   0.3700 
 22 H        2.4310    -0.9500    -1.8730 H     1 <1>   0.0800 
 23 H        0.0150    -3.4540     1.6460 H     1 <1>   0.1500 
 24 H        2.8970     0.3890     0.8090 H     1 <1>   0.0800 
 25 H        1.9730     1.0180    -0.5400 H     1 <1>   0.0800 
 26 H        3.6990     0.8210    -0.6810 H     1 <1>   0.0800 
 27 H       -2.4230    -4.4100     1.9620 H     1 <1>   0.1500 
 28 H        4.0440    -2.4590    -2.5940 H     1 <1>   0.1500 
 29 H        3.8310    -1.6090     1.5840 H     1 <1>   0.1500 
 30 H       -4.8170    -2.3170    -0.0180 H     1 <1>   0.0800 
 31 H       -4.8070    -3.9620     0.5830 H     1 <1>   0.0800 
 32 H       -4.4400    -3.6390    -1.0990 H     1 <1>   0.0800 
 33 H        5.9400    -3.9280    -2.1930 H     1 <1>   0.1500 
 34 H        5.7250    -3.0780     1.9790 H     1 <1>   0.1500 
 35 H        7.3720    -4.5310     1.2460 H     1 <1>   0.0800 
 36 H        8.2830    -4.0600    -1.5990 H     1 <1>   0.0800 
 37 H        9.2640    -4.6400    -0.2760 H     1 <1>   0.0800 
 38 H        8.6230    -3.0160    -0.2410 H     1 <1>   0.0800 
 39 H        6.6740    -6.0460    -1.2760 H     1 <1>   0.0800 
 40 H        5.9570    -6.3090     0.2940 H     1 <1>   0.0800 
 41 H        7.6560    -6.6270     0.0460 H     1 <1>   0.0800 
@<TRIPOS>BOND
  1   1   2  2   
  2   2   3  am  
  3   2   4  1   
  4   3   5  1   
  5   3  21  1   
  6   4   6  1   
  7   4   7  2   
  8   5   8  1   
  9   5   9  1   
 10   5  22  1   
 11   6  10  1   
 12   7  11  1   
 13   7  23  1   
 14   8  12  ar  
 15   8  13  ar  
 16   9  24  1   
 17   9  25  1   
 18   9  26  1   
 19  10  11  2   
 20  10  14  1   
 21  11  27  1   
 22  12  15  ar  
 23  12  28  1   
 24  13  16  ar  
 25  13  29  1   
 26  14  30  1   
 27  14  31  1   
 28  14  32  1   
 29  15  17  ar  
 30  15  33  1   
 31  16  17  ar  
 32  16  34  1   
 33  17  18  1   
 34  18  19  1   
 35  18  20  1   
 36  18  35  1   
 37  19  36  1   
 38  19  37  1   
 39  19  38  1   
 40  20  39  1   
 41  20  40  1   
 42  20  41  1   
@<TRIPOS>SUBSTRUCTURE
  1 ****   3 GROUP 4 **** **** 0

# MOE 2024.06 (io_trps.svl 2023.06)
