@<TRIPOS>MOLECULE
NONAME
27 27 1 0 0 
SMALL
USER_CHARGES


@<TRIPOS>ATOM
  1 I        0.0940    -0.2660     0.6290 I     1 <1>  -0.0810 
  2 C       -0.8950     1.6090     0.3300 C.ar  1 <1>   0.0810 
  3 C       -0.1750     2.7980     0.3580 C.ar  1 <1>   0.0830 
  4 C       -2.2550     1.5570     0.1080 C.ar  1 <1>  -0.1500 
  5 O        1.1680     2.7250     0.5840 O.3   1 <1>  -0.3630 
  6 C       -0.8880     3.9910     0.1600 C.ar  1 <1>   0.0830 
  7 C       -2.9730     2.7330    -0.0920 C.ar  1 <1>   0.0860 
  8 C        2.0730     3.5760    -0.0840 C.3   1 <1>   0.0400 
  9 O       -0.2270     5.1840     0.2100 O.3   1 <1>  -0.3630 
 10 C       -2.2630     3.9360    -0.0680 C.ar  1 <1>  -0.1500 
 11 C       -4.4060     2.6940    -0.3150 C.2   1 <1>   0.5440 
 12 C       -0.8710     6.4250     0.0150 C.3   1 <1>   0.0400 
 13 O       -4.9110     1.7720    -0.9230 O.2   1 <1>  -0.5700 
 14 N       -5.2140     3.6870     0.1720 N.am  1 <1>  -0.7300 
 15 C       -6.6880     3.7580    -0.0020 C.3   1 <1>   0.0600 
 16 H       -2.7710     0.6120     0.0880 H     1 <1>   0.1500 
 17 H        3.0360     3.1000    -0.0900 H     1 <1>   0.0800 
 18 H        2.1320     4.5080     0.4490 H     1 <1>   0.0800 
 19 H        1.7320     3.7330    -1.0920 H     1 <1>   0.0800 
 20 H       -2.8200     4.8350    -0.2410 H     1 <1>   0.1500 
 21 H       -0.1310     7.2000     0.0990 H     1 <1>   0.0800 
 22 H       -1.6190     6.5550     0.7770 H     1 <1>   0.0800 
 23 H       -1.3070     6.4430    -0.9670 H     1 <1>   0.0800 
 24 H       -4.8120     4.3780     0.8070 H     1 <1>   0.3700 
 25 H       -7.0210     3.0130    -0.7060 H     1 <1>   0.0800 
 26 H       -6.9660     4.7290    -0.3720 H     1 <1>   0.0800 
 27 H       -7.1740     3.5830     0.9420 H     1 <1>   0.0800 
@<TRIPOS>BOND
  1   1   2  1   
  2   2   3  ar  
  3   2   4  ar  
  4   3   5  1   
  5   3   6  ar  
  6   4   7  ar  
  7   4  16  1   
  8   5   8  1   
  9   6   9  1   
 10   6  10  ar  
 11   7  10  ar  
 12   7  11  1   
 13   8  17  1   
 14   8  18  1   
 15   8  19  1   
 16   9  12  1   
 17  10  20  1   
 18  11  13  2   
 19  11  14  am  
 20  12  21  1   
 21  12  22  1   
 22  12  23  1   
 23  14  15  1   
 24  14  24  1   
 25  15  25  1   
 26  15  26  1   
 27  15  27  1   
@<TRIPOS>SUBSTRUCTURE
  1 ****  10 GROUP 4 **** **** 0

# MOE 2024.06 (io_trps.svl 2023.06)
