@<TRIPOS>MOLECULE
NONAME
38 39 1 0 0 
SMALL
USER_CHARGES


@<TRIPOS>ATOM
  1 CL      -0.2620    -0.5000    -0.5880 Cl    1 <1>  -0.1770 
  2 C        1.3680    -1.0850    -0.3690 C.ar  1 <1>   0.1770 
  3 C        1.5740    -2.3950     0.0200 C.ar  1 <1>  -0.1500 
  4 C        2.4320    -0.2310    -0.5850 C.ar  1 <1>  -0.1500 
  5 C        2.8680    -2.8550     0.1920 C.ar  1 <1>  -0.1500 
  6 C        3.7230    -0.6980    -0.4090 C.ar  1 <1>  -0.1500 
  7 C        3.9600    -2.0170    -0.0220 C.ar  1 <1>   0.1170 
  8 N        5.2490    -2.5380     0.1810 N.am  1 <1>  -0.5470 
  9 C        6.4510    -2.1430    -0.3520 C.2   1 <1>   0.5690 
 10 O        6.5670    -1.2350    -1.1410 O.2   1 <1>  -0.5700 
 11 C        7.7450    -2.8720     0.0550 C.3   1 <1>   0.4040 
 12 N        8.9990    -2.0740    -0.2300 N.4   1 <1>  -0.9590 
 13 C       10.2310    -2.9110    -0.2370 C.3   1 <1>   0.3430 
 14 C        9.1140    -0.8830     0.6630 C.3   1 <1>   0.3430 
 15 C       11.4210    -2.0700    -0.7000 C.3   1 <1>  -0.1600 
 16 C       10.2900    -0.0160     0.2130 C.3   1 <1>  -0.1600 
 17 C       11.6010    -0.8140     0.1660 C.3   1 <1>  -0.0800 
 18 C       12.7410     0.0540    -0.3740 C.3   1 <1>  -0.2400 
 19 H        0.7280    -3.0390     0.1820 H     1 <1>   0.1500 
 20 H        2.2480     0.7850    -0.8870 H     1 <1>   0.1500 
 21 H        3.0190    -3.8760     0.4920 H     1 <1>   0.1500 
 22 H        4.5410    -0.0210    -0.5750 H     1 <1>   0.1500 
 23 H        5.2480    -3.3710     0.7710 H     1 <1>   0.3700 
 24 H        7.7810    -3.7940    -0.4990 H     1 <1>   0.0800 
 25 H        7.7000    -3.1110     1.1030 H     1 <1>   0.0800 
 26 H        8.8620    -1.6840    -1.1790 H     1 <1>   0.4500 
 27 H       10.1070    -3.7490    -0.9040 H     1 <1>   0.0800 
 28 H       10.4230    -3.2880     0.7540 H     1 <1>   0.0800 
 29 H        9.2710    -1.2000     1.6820 H     1 <1>   0.0800 
 30 H        8.2080    -0.2990     0.6210 H     1 <1>   0.0800 
 31 H       11.2800    -1.7940    -1.7310 H     1 <1>   0.0800 
 32 H       12.3120    -2.6710    -0.6470 H     1 <1>   0.0800 
 33 H       10.3960     0.8070     0.8990 H     1 <1>   0.0800 
 34 H       10.0700     0.4000    -0.7550 H     1 <1>   0.0800 
 35 H       11.8570    -1.1190     1.1690 H     1 <1>   0.0800 
 36 H       12.5330     0.3870    -1.3770 H     1 <1>   0.0800 
 37 H       13.6640    -0.5000    -0.3840 H     1 <1>   0.0800 
 38 H       12.8810     0.9210     0.2490 H     1 <1>   0.0800 
@<TRIPOS>BOND
  1   1   2  1   
  2   2   3  ar  
  3   2   4  ar  
  4   3   5  ar  
  5   3  19  1   
  6   4   6  ar  
  7   4  20  1   
  8   5   7  ar  
  9   5  21  1   
 10   6   7  ar  
 11   6  22  1   
 12   7   8  1   
 13   8   9  am  
 14   8  23  1   
 15   9  10  2   
 16   9  11  1   
 17  11  12  1   
 18  11  24  1   
 19  11  25  1   
 20  12  13  1   
 21  12  14  1   
 22  12  26  1   
 23  13  15  1   
 24  13  27  1   
 25  13  28  1   
 26  14  16  1   
 27  14  29  1   
 28  14  30  1   
 29  15  17  1   
 30  15  31  1   
 31  15  32  1   
 32  16  17  1   
 33  16  33  1   
 34  16  34  1   
 35  17  18  1   
 36  17  35  1   
 37  18  36  1   
 38  18  37  1   
 39  18  38  1   
@<TRIPOS>SUBSTRUCTURE
  1 ****   9 GROUP 4 **** **** 0

# MOE 2024.06 (io_trps.svl 2023.06)
