@<TRIPOS>MOLECULE
NONAME
49 50 1 0 0 
SMALL
USER_CHARGES


@<TRIPOS>ATOM
  1 S       -0.2210     0.4770    -0.5520 S.3   1 <1>  -0.0800 
  2 C        0.3960    -1.1610    -0.3870 C.2   1 <1>   0.1040 
  3 C        1.3820     1.1680    -0.3650 C.2   1 <1>  -0.1400 
  4 N       -0.4520    -2.2570    -0.4470 N.am  1 <1>  -0.4940 
  5 C        1.7510    -1.1450    -0.1980 C.2   1 <1>  -0.0860 
  6 C        2.2880     0.1920    -0.1910 C.2   1 <1>  -0.1500 
  7 C        1.4900     2.6770    -0.4260 C.3   1 <1>  -0.0600 
  8 C       -1.8010    -2.3840    -0.6750 C.2   1 <1>   0.5690 
  9 C        2.5590    -2.3170    -0.0220 C.2   1 <1>   0.8060 
 10 O       -2.5250    -1.4510    -0.9280 O.2   1 <1>  -0.5700 
 11 C       -2.3890    -3.8070    -0.5930 C.3   1 <1>   0.1710 
 12 O        2.0910    -3.4450    -0.0050 O.2   1 <1>  -0.5700 
 13 O        3.8780    -2.1630     0.1310 O.3   1 <1>  -0.4300 
 14 N       -3.8570    -3.9020    -0.3370 N.3   1 <1>  -0.8100 
 15 C        4.7360    -3.2680     0.3090 C.3   1 <1>   0.1200 
 16 C       -4.3900    -5.2770    -0.4440 C.3   1 <1>   0.1100 
 17 C       -4.2750    -3.2680     0.9390 C.3   1 <1>   0.1100 
 18 C        6.1600    -2.7420     0.4500 C.3   1 <1>  -0.2400 
 19 C       -5.9270    -5.3180    -0.2380 C.3   1 <1>   0.3430 
 20 C       -5.8160    -3.2420     1.0910 C.3   1 <1>   0.3430 
 21 N       -6.4880    -3.9370    -0.0610 N.4   1 <1>  -0.9590 
 22 C       -7.9690    -3.9000    -0.0390 C.3   1 <1>   0.3430 
 23 C       -8.4520    -2.4710    -0.2540 C.3   1 <1>  -0.2400 
 24 H        0.0490    -3.1410    -0.3070 H     1 <1>   0.3700 
 25 H        3.3430     0.3590    -0.0540 H     1 <1>   0.1500 
 26 H        0.8970     3.1180     0.3540 H     1 <1>   0.0800 
 27 H        1.1330     3.0300    -1.3770 H     1 <1>   0.0800 
 28 H        2.5130     2.9820    -0.3020 H     1 <1>   0.0800 
 29 H       -1.8660    -4.3470     0.1770 H     1 <1>   0.0800 
 30 H       -2.1750    -4.2860    -1.5320 H     1 <1>   0.0800 
 31 H        4.6460    -3.9140    -0.5490 H     1 <1>   0.0800 
 32 H        4.4320    -3.7990     1.1960 H     1 <1>   0.0800 
 33 H       -3.9150    -5.9140     0.2840 H     1 <1>   0.0800 
 34 H       -4.1610    -5.6710    -1.4200 H     1 <1>   0.0800 
 35 H       -3.9200    -2.2520     0.9820 H     1 <1>   0.0800 
 36 H       -3.8420    -3.7960     1.7710 H     1 <1>   0.0800 
 37 H        6.4490    -2.2070    -0.4370 H     1 <1>   0.0800 
 38 H        6.8390    -3.5650     0.5870 H     1 <1>   0.0800 
 39 H        6.2350    -2.0920     1.3040 H     1 <1>   0.0800 
 40 H       -6.1520    -5.9200     0.6270 H     1 <1>   0.0800 
 41 H       -6.3780    -5.7910    -1.0940 H     1 <1>   0.0800 
 42 H       -6.1350    -2.2140     1.1340 H     1 <1>   0.0800 
 43 H       -6.0910    -3.7110     2.0210 H     1 <1>   0.0800 
 44 H       -6.1330    -3.4210    -0.8840 H     1 <1>   0.4500 
 45 H       -8.3380    -4.2800     0.9010 H     1 <1>   0.0800 
 46 H       -8.3570    -4.5210    -0.8310 H     1 <1>   0.0800 
 47 H       -8.1770    -1.8350     0.5670 H     1 <1>   0.0800 
 48 H       -9.5250    -2.4680    -0.3240 H     1 <1>   0.0800 
 49 H       -8.0590    -2.0690    -1.1720 H     1 <1>   0.0800 
@<TRIPOS>BOND
  1   1   2  1   
  2   1   3  1   
  3   2   4  1   
  4   2   5  2   
  5   3   6  2   
  6   3   7  1   
  7   4   8  am  
  8   4  24  1   
  9   5   6  1   
 10   5   9  1   
 11   6  25  1   
 12   7  26  1   
 13   7  27  1   
 14   7  28  1   
 15   8  10  2   
 16   8  11  1   
 17   9  12  2   
 18   9  13  1   
 19  11  14  1   
 20  11  29  1   
 21  11  30  1   
 22  13  15  1   
 23  14  16  1   
 24  14  17  1   
 25  15  18  1   
 26  15  31  1   
 27  15  32  1   
 28  16  19  1   
 29  16  33  1   
 30  16  34  1   
 31  17  20  1   
 32  17  35  1   
 33  17  36  1   
 34  18  37  1   
 35  18  38  1   
 36  18  39  1   
 37  19  21  1   
 38  19  40  1   
 39  19  41  1   
 40  20  21  1   
 41  20  42  1   
 42  20  43  1   
 43  21  22  1   
 44  21  44  1   
 45  22  23  1   
 46  22  45  1   
 47  22  46  1   
 48  23  47  1   
 49  23  48  1   
 50  23  49  1   
@<TRIPOS>SUBSTRUCTURE
  1 ****   8 GROUP 4 **** **** 0

# MOE 2024.06 (io_trps.svl 2023.06)
