@<TRIPOS>MOLECULE
NONAME
31 32 1 0 0 
SMALL
USER_CHARGES


@<TRIPOS>ATOM
  1 O        0.3220     1.4950    -1.2350 O.2   1 <1>  -0.5700 
  2 C        0.2990     1.7940    -0.0650 C.2   1 <1>   0.5770 
  3 N        1.3120     1.5020     0.7960 N.am  1 <1>  -0.7300 
  4 C       -0.9020     2.5500     0.4940 C.3   1 <1>   0.0530 
  5 C        2.6210     0.8650     0.5340 C.3   1 <1>   0.3640 
  6 C       -2.2970     2.0090     0.0760 C.3   1 <1>   0.0000 
  7 C       -1.2680     3.8580    -0.2570 C.3   1 <1>   0.0000 
  8 C        3.6230     1.9190     0.0770 C.ar  1 <1>  -0.1440 
  9 C        2.5320    -0.3170    -0.4320 C.3   1 <1>  -0.2400 
 10 C       -2.7540     3.4880    -0.0110 C.3   1 <1>   0.0000 
 11 C        3.4740     2.6290    -1.1000 C.ar  1 <1>  -0.1500 
 12 C        4.7450     2.2240     0.8250 C.ar  1 <1>  -0.1500 
 13 C        4.4170     3.5760    -1.4580 C.ar  1 <1>   0.1600 
 14 C        5.6300     3.1900     0.3750 C.ar  1 <1>   0.1600 
 15 N        5.4930     3.8740    -0.7480 N.ar  1 <1>  -0.6200 
 16 H        1.2490     1.8930     1.7340 H     1 <1>   0.3700 
 17 H       -0.8440     2.7100     1.5580 H     1 <1>   0.0000 
 18 H        2.9640     0.4660     1.4740 H     1 <1>   0.0800 
 19 H       -2.7930     1.4460     0.8470 H     1 <1>   0.0000 
 20 H       -2.3050     1.5220    -0.8840 H     1 <1>   0.0000 
 21 H       -1.0100     3.8420    -1.3030 H     1 <1>   0.0000 
 22 H       -0.9530     4.7530     0.2490 H     1 <1>   0.0000 
 23 H        2.3170     0.0110    -1.4320 H     1 <1>   0.0800 
 24 H        1.7700    -1.0030    -0.1110 H     1 <1>   0.0800 
 25 H        3.4740    -0.8320    -0.4520 H     1 <1>   0.0800 
 26 H       -3.1260     3.8640     0.9270 H     1 <1>   0.0000 
 27 H       -3.3990     3.6960    -0.8460 H     1 <1>   0.0000 
 28 H        2.6300     2.4540    -1.7430 H     1 <1>   0.1500 
 29 H        4.9440     1.7210     1.7530 H     1 <1>   0.1500 
 30 H        4.2770     4.1160    -2.3790 H     1 <1>   0.1500 
 31 H        6.4980     3.4120     0.9720 H     1 <1>   0.1500 
@<TRIPOS>BOND
  1   1   2  2   
  2   2   3  am  
  3   2   4  1   
  4   3   5  1   
  5   3  16  1   
  6   4   6  1   
  7   4   7  1   
  8   4  17  1   
  9   5   8  1   
 10   5   9  1   
 11   5  18  1   
 12   6  10  1   
 13   6  19  1   
 14   6  20  1   
 15   7  10  1   
 16   7  21  1   
 17   7  22  1   
 18   8  11  ar  
 19   8  12  ar  
 20   9  23  1   
 21   9  24  1   
 22   9  25  1   
 23  10  26  1   
 24  10  27  1   
 25  11  13  ar  
 26  11  28  1   
 27  12  14  ar  
 28  12  29  1   
 29  13  15  ar  
 30  13  30  1   
 31  14  15  ar  
 32  14  31  1   
@<TRIPOS>SUBSTRUCTURE
  1 ****   3 GROUP 4 **** **** 0

# MOE 2024.06 (io_trps.svl 2023.06)
