@<TRIPOS>MOLECULE
NONAME
53 55 1 0 0 
SMALL
USER_CHARGES


@<TRIPOS>ATOM
  1 S        0.5390     0.4090    -0.9550 S.o2  1 <1>   1.4470 
  2 O        0.1570     1.4130     0.0160 O.2   1 <1>  -0.6500 
  3 O        0.8120     0.8150    -2.3160 O.2   1 <1>  -0.6500 
  4 N        1.9470    -0.3180    -0.3610 N.am  1 <1>  -0.8490 
  5 C       -0.6700    -0.9450    -0.9690 C.ar  1 <1>  -0.0090 
  6 C        3.0830     0.5860    -0.5610 C.3   1 <1>   0.3390 
  7 C        1.8310    -0.7190     1.0500 C.3   1 <1>   0.1160 
  8 C       -1.6600    -1.0370    -0.0010 C.ar  1 <1>  -0.1500 
  9 C       -0.6180    -1.9390    -1.9350 C.ar  1 <1>  -0.1500 
 10 C        4.3970    -0.0560    -0.1290 C.ar  1 <1>  -0.1430 
 11 C       -2.5840    -2.0780     0.0310 C.ar  1 <1>   0.0860 
 12 C       -1.5230    -2.9850    -1.9330 C.ar  1 <1>  -0.1500 
 13 C        5.1730     0.5240     0.8640 C.ar  1 <1>  -0.1500 
 14 C        4.8290    -1.2300    -0.7290 C.ar  1 <1>  -0.1500 
 15 C       -2.5030    -3.0620    -0.9580 C.ar  1 <1>  -0.1430 
 16 C       -3.5920    -2.1040     1.0730 C.2   1 <1>   0.5440 
 17 C        6.3650    -0.0630     1.2520 C.ar  1 <1>  -0.1500 
 18 C        6.0200    -1.8180    -0.3420 C.ar  1 <1>  -0.1500 
 19 C       -3.4860    -4.2250    -0.9680 C.3   1 <1>  -0.0970 
 20 O       -3.4350    -2.8330     2.0350 O.2   1 <1>  -0.5700 
 21 N       -4.7180    -1.3120     1.0000 N.am  1 <1>  -0.6600 
 22 C        6.7890    -1.2340     0.6490 C.ar  1 <1>  -0.1500 
 23 C       -5.0400    -0.4870    -0.2050 C.3   1 <1>   0.1400 
 24 C       -5.6970    -1.2880     2.1290 C.3   1 <1>   0.1400 
 25 C       -6.5570    -0.3790    -0.3870 C.3   1 <1>  -0.1600 
 26 C       -6.4820     0.0280     2.1410 C.3   1 <1>  -0.1600 
 27 C       -7.2490     0.2650     0.8280 C.3   1 <1>  -0.1600 
 28 H        2.9210     1.5020    -0.0160 H     1 <1>   0.0800 
 29 H        3.1680     0.8360    -1.6060 H     1 <1>   0.0800 
 30 H        0.9820    -1.3680     1.1850 H     1 <1>   0.0800 
 31 H        1.7120     0.1450     1.6830 H     1 <1>   0.0800 
 32 H        2.7070    -1.2620     1.3620 H     1 <1>   0.0800 
 33 H       -1.7220    -0.2800     0.7640 H     1 <1>   0.1500 
 34 H        0.1420    -1.8930    -2.6970 H     1 <1>   0.1500 
 35 H       -1.4550    -3.7410    -2.6960 H     1 <1>   0.1500 
 36 H        4.8560     1.4350     1.3400 H     1 <1>   0.1500 
 37 H        4.2300    -1.6880    -1.4970 H     1 <1>   0.1500 
 38 H        6.9640     0.3910     2.0220 H     1 <1>   0.1500 
 39 H        6.3470    -2.7290    -0.8120 H     1 <1>   0.1500 
 40 H       -4.4950    -3.8570    -1.0380 H     1 <1>   0.0800 
 41 H       -3.3900    -4.7920    -0.0590 H     1 <1>   0.0800 
 42 H       -3.3050    -4.8820    -1.7990 H     1 <1>   0.0800 
 43 H        7.7160    -1.6910     0.9500 H     1 <1>   0.1500 
 44 H       -4.6120    -0.9330    -1.0860 H     1 <1>   0.0800 
 45 H       -4.6180     0.4950    -0.0800 H     1 <1>   0.0800 
 46 H       -5.1740    -1.4020     3.0640 H     1 <1>   0.0800 
 47 H       -6.3730    -2.1180     2.0200 H     1 <1>   0.0800 
 48 H       -6.9470    -1.3700    -0.5390 H     1 <1>   0.0800 
 49 H       -6.7760     0.1930    -1.2710 H     1 <1>   0.0800 
 50 H       -5.7840     0.8310     2.3020 H     1 <1>   0.0800 
 51 H       -7.1710     0.0290     2.9670 H     1 <1>   0.0800 
 52 H       -8.2430    -0.1400     0.9120 H     1 <1>   0.0800 
 53 H       -7.3430     1.3260     0.6730 H     1 <1>   0.0800 
@<TRIPOS>BOND
  1   1   2  2   
  2   1   3  2   
  3   1   4  am  
  4   1   5  1   
  5   4   6  1   
  6   4   7  1   
  7   5   8  ar  
  8   5   9  ar  
  9   6  10  1   
 10   6  28  1   
 11   6  29  1   
 12   7  30  1   
 13   7  31  1   
 14   7  32  1   
 15   8  11  ar  
 16   8  33  1   
 17   9  12  ar  
 18   9  34  1   
 19  10  13  ar  
 20  10  14  ar  
 21  11  15  ar  
 22  11  16  1   
 23  12  15  ar  
 24  12  35  1   
 25  13  17  ar  
 26  13  36  1   
 27  14  18  ar  
 28  14  37  1   
 29  15  19  1   
 30  16  20  2   
 31  16  21  am  
 32  17  22  ar  
 33  17  38  1   
 34  18  22  ar  
 35  18  39  1   
 36  19  40  1   
 37  19  41  1   
 38  19  42  1   
 39  21  23  1   
 40  21  24  1   
 41  22  43  1   
 42  23  25  1   
 43  23  44  1   
 44  23  45  1   
 45  24  26  1   
 46  24  46  1   
 47  24  47  1   
 48  25  27  1   
 49  25  48  1   
 50  25  49  1   
 51  26  27  1   
 52  26  50  1   
 53  26  51  1   
 54  27  52  1   
 55  27  53  1   
@<TRIPOS>SUBSTRUCTURE
  1 ****   5 GROUP 4 **** **** 0

# MOE 2024.06 (io_trps.svl 2023.06)
