@<TRIPOS>MOLECULE
NONAME
41 43 1 0 0 
SMALL
USER_CHARGES


@<TRIPOS>ATOM
  1 O        0.1010    -0.9530    -0.2190 O.co2 1 <1>  -0.9000 
  2 C        0.2930    -1.3760     0.9260 C.2   1 <1>   0.9060 
  3 O       -0.4390    -1.0660     1.8670 O.co2 1 <1>  -0.9000 
  4 C        1.5090    -2.2480     1.1890 C.3   1 <1>  -0.1860 
  5 C        3.0030    -1.4820     1.0230 C.3   1 <1>  -0.0190 
  6 C        1.5280    -3.5810     0.2290 C.3   1 <1>  -0.0800 
  7 C        3.0940     0.0480     0.8880 C.2   1 <1>   0.5690 
  8 C        3.8190    -2.2580    -0.1690 C.3   1 <1>  -0.0800 
  9 C        2.6840    -2.9360     0.0460 C.3   1 <1>  -0.1600 
 10 C        2.3720    -4.3690    -0.9300 C.3   1 <1>  -0.1600 
 11 O        4.0060     0.5850     1.4760 O.2   1 <1>  -0.5700 
 12 N        2.2340     0.7540     0.0920 N.am  1 <1>  -0.5470 
 13 C        3.8520    -3.6060    -1.0920 C.3   1 <1>  -0.1600 
 14 C        2.2670     2.1170    -0.2550 C.ar  1 <1>   0.1170 
 15 C        1.1000     2.8840    -0.3300 C.ar  1 <1>  -0.1440 
 16 C        3.4830     2.7280    -0.5500 C.ar  1 <1>  -0.1500 
 17 C        1.1750     4.2190    -0.6970 C.ar  1 <1>  -0.1500 
 18 C       -0.2770     2.3060    -0.0140 C.3   1 <1>  -0.0170 
 19 C        3.5510     4.0600    -0.9130 C.ar  1 <1>  -0.1500 
 20 C        2.3920     4.8090    -0.9880 C.ar  1 <1>  -0.1500 
 21 C       -0.9860     1.8700    -1.2980 C.3   1 <1>  -0.2400 
 22 H        1.4110    -2.5590     2.2160 H     1 <1>   0.0800 
 23 H        3.5310    -1.6820     1.9450 H     1 <1>   0.0800 
 24 H        1.4190    -4.3610     0.9680 H     1 <1>   0.0800 
 25 H        3.8800    -1.4890    -0.9290 H     1 <1>   0.0800 
 26 H        2.1710    -2.2940    -0.7970 H     1 <1>   0.0800 
 27 H        3.1830    -3.5740     0.8970 H     1 <1>   0.0800 
 28 H        1.8300    -4.3290    -1.8630 H     1 <1>   0.0800 
 29 H        2.5060    -5.4090    -0.6740 H     1 <1>   0.0800 
 30 H        1.3690     0.2450    -0.1830 H     1 <1>   0.3700 
 31 H        4.6470    -4.2600    -0.7650 H     1 <1>   0.0800 
 32 H        4.0360    -3.3590    -2.1250 H     1 <1>   0.0800 
 33 H        4.3850     2.1470    -0.4930 H     1 <1>   0.1500 
 34 H        0.2770     4.8060    -0.7570 H     1 <1>   0.1500 
 35 H       -0.8720     3.0470     0.4860 H     1 <1>   0.0800 
 36 H       -0.1990     1.4710     0.6600 H     1 <1>   0.0800 
 37 H        4.5020     4.5080    -1.1340 H     1 <1>   0.1500 
 38 H        2.4360     5.8460    -1.2700 H     1 <1>   0.1500 
 39 H       -0.3930     1.1310    -1.8070 H     1 <1>   0.0800 
 40 H       -1.1400     2.7080    -1.9520 H     1 <1>   0.0800 
 41 H       -1.9350     1.4260    -1.0540 H     1 <1>   0.0800 
@<TRIPOS>BOND
  1   1   2  ar  
  2   2   3  ar  
  3   2   4  1   
  4   4   5  1   
  5   4   6  1   
  6   4  22  1   
  7   5   7  1   
  8   5   8  1   
  9   5  23  1   
 10   6   9  1   
 11   6  10  1   
 12   6  24  1   
 13   7  11  2   
 14   7  12  am  
 15   8   9  1   
 16   8  13  1   
 17   8  25  1   
 18   9  26  1   
 19   9  27  1   
 20  10  13  1   
 21  10  28  1   
 22  10  29  1   
 23  12  14  1   
 24  12  30  1   
 25  13  31  1   
 26  13  32  1   
 27  14  15  ar  
 28  14  16  ar  
 29  15  17  ar  
 30  15  18  1   
 31  16  19  ar  
 32  16  33  1   
 33  17  20  ar  
 34  17  34  1   
 35  18  21  1   
 36  18  35  1   
 37  18  36  1   
 38  19  20  ar  
 39  19  37  1   
 40  20  38  1   
 41  21  39  1   
 42  21  40  1   
 43  21  41  1   
@<TRIPOS>SUBSTRUCTURE
  1 ****  12 GROUP 4 **** **** 0

# MOE 2024.06 (io_trps.svl 2023.06)
