@<TRIPOS>MOLECULE
NONAME
52 54 1 0 0 
SMALL
USER_CHARGES


@<TRIPOS>ATOM
  1 S        2.0960    -2.5870    -2.2230 S.3   1 <1>  -0.0800 
  2 C        0.7670    -2.5520    -1.0720 C.2   1 <1>   0.1040 
  3 C        3.1320    -1.6670    -1.1480 C.2   1 <1>  -0.1100 
  4 N       -0.4270    -3.1880    -1.3690 N.am  1 <1>  -0.4940 
  5 C        1.1240    -1.8620     0.0540 C.2   1 <1>  -0.0860 
  6 C        2.4780    -1.3720    -0.0120 C.2   1 <1>  -0.1500 
  7 C       -0.9680    -3.6960    -2.5190 C.2   1 <1>   0.5690 
  8 C        0.2650    -1.6290     1.1800 C.2   1 <1>   0.8060 
  9 O       -0.4420    -3.6520    -3.6030 O.2   1 <1>  -0.5700 
 10 C       -2.3470    -4.3470    -2.3910 C.3   1 <1>   0.1710 
 11 O       -0.9020    -1.9790     1.2160 O.2   1 <1>  -0.5700 
 12 O        0.7740    -0.9900     2.2410 O.3   1 <1>  -0.4300 
 13 N       -3.0460    -4.0450    -1.1060 N.3   1 <1>  -0.8100 
 14 C       -0.0010    -0.7240     3.3950 C.3   1 <1>   0.0400 
 15 C       -4.1480    -5.0050    -0.8670 C.3   1 <1>   0.1100 
 16 C       -3.5860    -2.6600    -1.0840 C.3   1 <1>   0.1100 
 17 C       -4.8860    -4.7450     0.4630 C.3   1 <1>   0.2090 
 18 C       -4.2980    -2.3240     0.2420 C.3   1 <1>   0.2090 
 19 N       -5.3420    -3.3320     0.5890 N.pl3 1 <1>  -0.8380 
 20 C       -6.6790    -3.0340     0.3200 C.ar  1 <1>   0.1000 
 21 C       -7.5740    -2.7360     1.3530 C.ar  1 <1>  -0.1430 
 22 C       -7.1340    -3.0330    -0.9920 C.ar  1 <1>  -0.1500 
 23 C       -8.9050    -2.4480     1.0570 C.ar  1 <1>  -0.1430 
 24 C       -7.0400    -2.7430     2.7860 C.3   1 <1>  -0.0970 
 25 C       -8.4500    -2.7450    -1.2860 C.ar  1 <1>  -0.1500 
 26 C       -9.3320    -2.4540    -0.2630 C.ar  1 <1>  -0.1500 
 27 C       -9.9290    -2.1220     2.1350 C.3   1 <1>  -0.0970 
 28 H        4.1270    -1.4480    -1.4930 H     1 <1>   0.1500 
 29 H       -1.1030    -3.2580    -0.5930 H     1 <1>   0.3700 
 30 H        2.9030    -0.8130     0.8050 H     1 <1>   0.1500 
 31 H       -2.1950    -5.4080    -2.4700 H     1 <1>   0.0800 
 32 H       -2.9560    -4.0390    -3.2230 H     1 <1>   0.0800 
 33 H        0.6160    -0.2090     4.1090 H     1 <1>   0.0800 
 34 H       -0.3460    -1.6560     3.8080 H     1 <1>   0.0800 
 35 H       -0.8400    -0.1070     3.1180 H     1 <1>   0.0800 
 36 H       -3.7490    -6.0040    -0.8410 H     1 <1>   0.0800 
 37 H       -4.8590    -4.9540    -1.6720 H     1 <1>   0.0800 
 38 H       -4.2840    -2.5260    -1.8920 H     1 <1>   0.0800 
 39 H       -2.7890    -1.9510    -1.2230 H     1 <1>   0.0800 
 40 H       -4.2240    -4.9690     1.2810 H     1 <1>   0.0800 
 41 H       -5.7360    -5.4010     0.5360 H     1 <1>   0.0800 
 42 H       -4.7520    -1.3520     0.1700 H     1 <1>   0.0800 
 43 H       -3.5700    -2.2910     1.0340 H     1 <1>   0.0800 
 44 H       -6.4510    -3.2600    -1.7850 H     1 <1>   0.1500 
 45 H       -6.7160    -3.7360     3.0390 H     1 <1>   0.0800 
 46 H       -7.7630    -2.4280     3.5110 H     1 <1>   0.0800 
 47 H       -6.1930    -2.0840     2.8550 H     1 <1>   0.0800 
 48 H       -8.7900    -2.7470    -2.3060 H     1 <1>   0.1500 
 49 H      -10.3560    -2.2330    -0.5050 H     1 <1>   0.1500 
 50 H       -9.6390    -1.2280     2.6570 H     1 <1>   0.0800 
 51 H       -9.9970    -2.9360     2.8340 H     1 <1>   0.0800 
 52 H      -10.9040    -1.9630     1.7110 H     1 <1>   0.0800 
@<TRIPOS>BOND
  1   1   2  1   
  2   1   3  1   
  3   2   4  1   
  4   2   5  2   
  5   3   6  2   
  6   3  28  1   
  7   4   7  am  
  8   4  29  1   
  9   5   6  1   
 10   5   8  1   
 11   6  30  1   
 12   7   9  2   
 13   7  10  1   
 14   8  11  2   
 15   8  12  1   
 16  10  13  1   
 17  10  31  1   
 18  10  32  1   
 19  12  14  1   
 20  13  15  1   
 21  13  16  1   
 22  14  33  1   
 23  14  34  1   
 24  14  35  1   
 25  15  17  1   
 26  15  36  1   
 27  15  37  1   
 28  16  18  1   
 29  16  38  1   
 30  16  39  1   
 31  17  19  1   
 32  17  40  1   
 33  17  41  1   
 34  18  19  1   
 35  18  42  1   
 36  18  43  1   
 37  19  20  1   
 38  20  21  ar  
 39  20  22  ar  
 40  21  23  ar  
 41  21  24  1   
 42  22  25  ar  
 43  22  44  1   
 44  23  26  ar  
 45  23  27  1   
 46  24  45  1   
 47  24  46  1   
 48  24  47  1   
 49  25  26  ar  
 50  25  48  1   
 51  26  49  1   
 52  27  50  1   
 53  27  51  1   
 54  27  52  1   
@<TRIPOS>SUBSTRUCTURE
  1 ****  16 GROUP 4 **** **** 0

# MOE 2024.06 (io_trps.svl 2023.06)
