@<TRIPOS>MOLECULE
NONAME
32 33 1 0 0 
SMALL
USER_CHARGES


@<TRIPOS>ATOM
  1 F       -0.4910     0.6020     2.2960 F     1 <1>  -0.1900 
  2 C       -1.3330     1.0500     1.4060 C.ar  1 <1>   0.1900 
  3 C       -0.9480     2.0940     0.5710 C.ar  1 <1>   0.0860 
  4 C       -2.5740     0.4400     1.3370 C.ar  1 <1>  -0.1500 
  5 C       -1.9010     2.4900    -0.3620 C.ar  1 <1>   0.1900 
  6 C        0.3450     2.7180     0.6670 C.2   1 <1>   0.5440 
  7 C       -3.4930     0.8740     0.3950 C.ar  1 <1>  -0.1500 
  8 F       -1.6130     3.4490    -1.1980 F     1 <1>  -0.1900 
  9 C       -3.1530     1.9070    -0.4640 C.ar  1 <1>  -0.1500 
 10 O        0.4930     3.6280     1.4610 O.2   1 <1>  -0.5700 
 11 N        1.4130     2.3110    -0.1120 N.am  1 <1>  -0.6600 
 12 C        2.7430     2.9610     0.0410 C.3   1 <1>   0.1400 
 13 C        1.3030     1.2300    -1.1340 C.3   1 <1>   0.1400 
 14 C        3.5430     2.2510     1.1390 C.3   1 <1>  -0.1600 
 15 C        2.5150     0.2890    -1.1760 C.3   1 <1>  -0.1600 
 16 C        4.1070     0.8790     0.7370 C.3   1 <1>  -0.1600 
 17 C        3.0630    -0.1150     0.2040 C.3   1 <1>  -0.1600 
 18 H       -2.8150    -0.3610     2.0140 H     1 <1>   0.1500 
 19 H       -4.4640     0.4110     0.3300 H     1 <1>   0.1500 
 20 H       -3.8490     2.2600    -1.2050 H     1 <1>   0.1500 
 21 H        2.6030     3.9930     0.3190 H     1 <1>   0.0800 
 22 H        3.2780     2.9480    -0.8920 H     1 <1>   0.0800 
 23 H        1.1680     1.6820    -2.1030 H     1 <1>   0.0800 
 24 H        0.4340     0.6310    -0.9320 H     1 <1>   0.0800 
 25 H        2.9200     2.1500     2.0110 H     1 <1>   0.0800 
 26 H        4.3670     2.8840     1.4130 H     1 <1>   0.0800 
 27 H        3.2960     0.7310    -1.7690 H     1 <1>   0.0800 
 28 H        2.2080    -0.6020    -1.6950 H     1 <1>   0.0800 
 29 H        4.5760     0.4460     1.6040 H     1 <1>   0.0800 
 30 H        4.8770     1.0150    -0.0030 H     1 <1>   0.0800 
 31 H        3.5430    -1.0730     0.1090 H     1 <1>   0.0800 
 32 H        2.2580    -0.2270     0.9120 H     1 <1>   0.0800 
@<TRIPOS>BOND
  1   1   2  1   
  2   2   3  ar  
  3   2   4  ar  
  4   3   5  ar  
  5   3   6  1   
  6   4   7  ar  
  7   4  18  1   
  8   5   8  1   
  9   5   9  ar  
 10   6  10  2   
 11   6  11  am  
 12   7   9  ar  
 13   7  19  1   
 14   9  20  1   
 15  11  12  1   
 16  11  13  1   
 17  12  14  1   
 18  12  21  1   
 19  12  22  1   
 20  13  15  1   
 21  13  23  1   
 22  13  24  1   
 23  14  16  1   
 24  14  25  1   
 25  14  26  1   
 26  15  17  1   
 27  15  27  1   
 28  15  28  1   
 29  16  17  1   
 30  16  29  1   
 31  16  30  1   
 32  17  31  1   
 33  17  32  1   
@<TRIPOS>SUBSTRUCTURE
  1 ****   6 GROUP 4 **** **** 0

# MOE 2024.06 (io_trps.svl 2023.06)
