@<TRIPOS>MOLECULE
Structure2266
32 33 1 0 0 
SMALL
USER_CHARGES


@<TRIPOS>ATOM
  1 O        0.2090     0.3590    -0.3430 O.3   1 <1>  -0.3630 
  2 C        1.5450     0.2370    -0.1450 C.ar  1 <1>   0.0830 
  3 C       -0.5050     1.4740     0.1320 C.3   1 <1>   0.1200 
  4 C        2.3230     1.1880     0.5120 C.ar  1 <1>  -0.1500 
  5 C        2.1450    -0.9110    -0.6370 C.ar  1 <1>  -0.1500 
  6 C       -1.9870     1.2880    -0.2280 C.3   1 <1>  -0.0800 
  7 C        3.6820     0.9800     0.6700 C.ar  1 <1>  -0.1500 
  8 C        3.5040    -1.1170    -0.4780 C.ar  1 <1>  -0.1500 
  9 C       -2.7860     2.5300     0.1860 C.3   1 <1>   0.3430 
 10 C       -2.5710     0.0180     0.4240 C.3   1 <1>  -0.1600 
 11 C        4.2730    -0.1700     0.1760 C.ar  1 <1>  -0.1500 
 12 N       -4.2330     2.3440    -0.1290 N.4   1 <1>  -0.9060 
 13 C       -4.0780    -0.0980     0.1590 C.3   1 <1>  -0.1600 
 14 C       -4.8280     1.1710     0.5680 C.3   1 <1>   0.3430 
 15 H       -0.0980     2.3510    -0.3420 H     1 <1>   0.0800 
 16 H       -0.3680     1.5300     1.1980 H     1 <1>   0.0800 
 17 H        1.8980     2.0900     0.9060 H     1 <1>   0.1500 
 18 H        1.5430    -1.6430    -1.1440 H     1 <1>   0.1500 
 19 H       -2.0450     1.1950    -1.3000 H     1 <1>   0.0800 
 20 H        4.2840     1.7140     1.1780 H     1 <1>   0.1500 
 21 H        3.9620    -2.0120    -0.8630 H     1 <1>   0.1500 
 22 H       -2.4040     3.3930    -0.3360 H     1 <1>   0.0800 
 23 H       -2.6640     2.6940     1.2450 H     1 <1>   0.0800 
 24 H       -2.3950     0.0410     1.4870 H     1 <1>   0.0800 
 25 H       -2.0740    -0.8560     0.0350 H     1 <1>   0.0800 
 26 H        5.3310    -0.3290     0.3000 H     1 <1>   0.1500 
 27 H       -4.3350     2.2050    -1.1420 H     1 <1>   0.4500 
 28 H       -4.7580     3.1940     0.1130 H     1 <1>   0.4500 
 29 H       -4.4720    -0.9330     0.7130 H     1 <1>   0.0800 
 30 H       -4.2520    -0.2980    -0.8850 H     1 <1>   0.0800 
 31 H       -5.8720     1.0740     0.3110 H     1 <1>   0.0800 
 32 H       -4.7530     1.3030     1.6360 H     1 <1>   0.0800 
@<TRIPOS>BOND
  1   1   2  1   
  2   1   3  1   
  3   2   4  ar  
  4   2   5  ar  
  5   3   6  1   
  6   3  15  1   
  7   3  16  1   
  8   4   7  ar  
  9   4  17  1   
 10   5   8  ar  
 11   5  18  1   
 12   6   9  1   
 13   6  10  1   
 14   6  19  1   
 15   7  11  ar  
 16   7  20  1   
 17   8  11  ar  
 18   8  21  1   
 19   9  12  1   
 20   9  22  1   
 21   9  23  1   
 22  10  13  1   
 23  10  24  1   
 24  10  25  1   
 25  11  26  1   
 26  12  14  1   
 27  12  27  1   
 28  12  28  1   
 29  13  14  1   
 30  13  29  1   
 31  13  30  1   
 32  14  31  1   
 33  14  32  1   
@<TRIPOS>SUBSTRUCTURE
  1 ****   1 GROUP 4 **** **** 0

# MOE 2024.06 (io_trps.svl 2023.06)
