@<TRIPOS>MOLECULE
NONAME
43 44 1 0 0 
SMALL
USER_CHARGES


@<TRIPOS>ATOM
  1 F        0.5340    -0.4030     0.7730 F     1 <1>  -0.3400 
  2 C        0.3790    -1.7050     0.9790 C.3   1 <1>   1.1640 
  3 F        1.4300    -2.3000     0.4310 F     1 <1>  -0.3400 
  4 F        0.4840    -1.8880     2.2900 F     1 <1>  -0.3400 
  5 C       -0.9470    -2.2420     0.4090 C.ar  1 <1>  -0.1440 
  6 C       -1.5160    -1.6710    -0.7240 C.ar  1 <1>  -0.1500 
  7 C       -1.5970    -3.3170     1.0050 C.ar  1 <1>  -0.1500 
  8 C       -2.7060    -2.1530    -1.2400 C.ar  1 <1>  -0.1500 
  9 C       -2.7860    -3.8010     0.4910 C.ar  1 <1>  -0.1500 
 10 C       -3.3540    -3.2160    -0.6310 C.ar  1 <1>  -0.1430 
 11 C       -4.6670    -3.7350    -1.1840 C.3   1 <1>   0.4870 
 12 N       -5.7700    -3.3050    -0.2620 N.4   1 <1>  -0.9590 
 13 C       -7.0540    -4.0620    -0.4480 C.3   1 <1>   0.4230 
 14 C       -5.9180    -1.8090    -0.3710 C.3   1 <1>   0.2630 
 15 C       -8.1350    -3.5350     0.5100 C.3   1 <1>  -0.1600 
 16 C       -6.8350    -5.5630    -0.1950 C.3   1 <1>  -0.1600 
 17 C       -9.4240    -4.3550     0.4330 C.3   1 <1>   0.3430 
 18 C       -8.1420    -6.3560    -0.2610 C.3   1 <1>   0.3430 
 19 N       -9.1320    -5.7900     0.6960 N.4   1 <1>  -0.9590 
 20 C      -10.4010    -6.5910     0.6630 C.3   1 <1>   0.2630 
 21 H       -1.0290    -0.8440    -1.2160 H     1 <1>   0.1500 
 22 H       -1.1710    -3.7890     1.8780 H     1 <1>   0.1500 
 23 H       -3.1100    -1.6860    -2.1240 H     1 <1>   0.1500 
 24 H       -3.2490    -4.6430     0.9790 H     1 <1>   0.1500 
 25 H       -4.6040    -4.8070    -1.2420 H     1 <1>   0.0800 
 26 H       -4.8300    -3.3480    -2.1770 H     1 <1>   0.0800 
 27 H       -5.4040    -3.4890     0.6830 H     1 <1>   0.4500 
 28 H       -7.3990    -3.9270    -1.4620 H     1 <1>   0.0800 
 29 H       -6.2890    -1.5340    -1.3450 H     1 <1>   0.0800 
 30 H       -4.9650    -1.3250    -0.2190 H     1 <1>   0.0800 
 31 H       -6.5960    -1.4360     0.3790 H     1 <1>   0.0800 
 32 H       -8.3980    -2.5240     0.2560 H     1 <1>   0.0800 
 33 H       -7.7790    -3.5450     1.5260 H     1 <1>   0.0800 
 34 H       -6.3840    -5.7220     0.7690 H     1 <1>   0.0800 
 35 H       -6.1860    -5.9800    -0.9430 H     1 <1>   0.0800 
 36 H       -9.8680    -4.2470    -0.5450 H     1 <1>   0.0800 
 37 H      -10.1310    -3.9850     1.1610 H     1 <1>   0.0800 
 38 H       -7.9490    -7.3900    -0.0200 H     1 <1>   0.0800 
 39 H       -8.5420    -6.3170    -1.2630 H     1 <1>   0.0800 
 40 H       -8.7530    -5.8780     1.6530 H     1 <1>   0.4500 
 41 H      -10.8560    -6.5430    -0.3140 H     1 <1>   0.0800 
 42 H      -11.1050    -6.2110     1.3870 H     1 <1>   0.0800 
 43 H      -10.2000    -7.6250     0.8970 H     1 <1>   0.0800 
@<TRIPOS>BOND
  1   1   2  1   
  2   2   3  1   
  3   2   4  1   
  4   2   5  1   
  5   5   6  ar  
  6   5   7  ar  
  7   6   8  ar  
  8   6  21  1   
  9   7   9  ar  
 10   7  22  1   
 11   8  10  ar  
 12   8  23  1   
 13   9  10  ar  
 14   9  24  1   
 15  10  11  1   
 16  11  12  1   
 17  11  25  1   
 18  11  26  1   
 19  12  13  1   
 20  12  14  1   
 21  12  27  1   
 22  13  15  1   
 23  13  16  1   
 24  13  28  1   
 25  14  29  1   
 26  14  30  1   
 27  14  31  1   
 28  15  17  1   
 29  15  32  1   
 30  15  33  1   
 31  16  18  1   
 32  16  34  1   
 33  16  35  1   
 34  17  19  1   
 35  17  36  1   
 36  17  37  1   
 37  18  19  1   
 38  18  38  1   
 39  18  39  1   
 40  19  20  1   
 41  19  40  1   
 42  20  41  1   
 43  20  42  1   
 44  20  43  1   
@<TRIPOS>SUBSTRUCTURE
  1 ****  10 GROUP 4 **** **** 0

# MOE 2024.06 (io_trps.svl 2023.06)
