@<TRIPOS>MOLECULE
NONAME
50 51 1 0 0 
SMALL
USER_CHARGES


@<TRIPOS>ATOM
  1 O        0.8200    -0.3970     0.3350 O.3   1 <1>  -0.3630 
  2 C        0.4890    -1.7020     0.1350 C.ar  1 <1>   0.0830 
  3 C       -0.1650     0.6180     0.2830 C.3   1 <1>   0.0400 
  4 C        1.4540    -2.6630     0.4270 C.ar  1 <1>  -0.1440 
  5 C       -0.7530    -2.1030    -0.3510 C.ar  1 <1>  -0.1500 
  6 C        1.1740    -4.0070     0.2310 C.ar  1 <1>  -0.1500 
  7 C        2.8030    -2.2400     0.9600 C.3   1 <1>   0.4870 
  8 C       -1.0230    -3.4450    -0.5440 C.ar  1 <1>  -0.1500 
  9 C       -0.0610    -4.3960    -0.2540 C.ar  1 <1>  -0.1500 
 10 N        3.4340    -1.4120    -0.0840 N.4   1 <1>  -0.9060 
 11 C        4.7010    -0.7760     0.3000 C.3   1 <1>   0.4230 
 12 C        5.0450     0.2770    -0.7530 C.3   1 <1>  -0.1600 
 13 C        5.8120    -1.8260     0.3930 C.3   1 <1>  -0.1600 
 14 C        6.3960     0.9420    -0.4520 C.3   1 <1>  -0.1600 
 15 C        7.1680    -1.1710     0.6950 C.3   1 <1>  -0.1600 
 16 C        7.5460    -0.0910    -0.3480 C.3   1 <1>  -0.0800 
 17 C        8.9540     0.5530    -0.1100 C.3   1 <1>   0.0000 
 18 C       10.0530    -0.5260    -0.1180 C.3   1 <1>  -0.2400 
 19 C        9.2970     1.5410    -1.2410 C.3   1 <1>  -0.2400 
 20 C        9.0510     1.3140     1.2250 C.3   1 <1>  -0.2400 
 21 H       -0.9530     0.3780     0.9760 H     1 <1>   0.0800 
 22 H       -0.5470     0.6900    -0.7200 H     1 <1>   0.0800 
 23 H        0.2920     1.5500     0.5650 H     1 <1>   0.0800 
 24 H       -1.5220    -1.3920    -0.5900 H     1 <1>   0.1500 
 25 H        1.9050    -4.7670     0.4540 H     1 <1>   0.1500 
 26 H        3.4080    -3.1040     1.1790 H     1 <1>   0.0800 
 27 H        2.6670    -1.6650     1.8620 H     1 <1>   0.0800 
 28 H       -1.9840    -3.7530    -0.9200 H     1 <1>   0.1500 
 29 H       -0.2800    -5.4410    -0.4050 H     1 <1>   0.1500 
 30 H        2.7280    -0.6910    -0.2950 H     1 <1>   0.4500 
 31 H        3.5410    -1.9660    -0.9370 H     1 <1>   0.4500 
 32 H        4.5930    -0.2860     1.2560 H     1 <1>   0.0800 
 33 H        4.2850     1.0380    -0.7700 H     1 <1>   0.0800 
 34 H        5.0970    -0.1780    -1.7270 H     1 <1>   0.0800 
 35 H        5.8910    -2.3610    -0.5380 H     1 <1>   0.0800 
 36 H        5.5980    -2.5300     1.1770 H     1 <1>   0.0800 
 37 H        6.3170     1.4960     0.4660 H     1 <1>   0.0800 
 38 H        6.5970     1.6450    -1.2410 H     1 <1>   0.0800 
 39 H        7.9100    -1.9490     0.7100 H     1 <1>   0.0800 
 40 H        7.1350    -0.7340     1.6780 H     1 <1>   0.0800 
 41 H        7.6020    -0.5880    -1.3020 H     1 <1>   0.0800 
 42 H       11.0290    -0.0740    -0.0880 H     1 <1>   0.0800 
 43 H        9.9910    -1.1250    -1.0090 H     1 <1>   0.0800 
 44 H        9.9790    -1.1710     0.7380 H     1 <1>   0.0800 
 45 H        9.1880     1.0710    -2.2020 H     1 <1>   0.0800 
 46 H       10.3140     1.8820    -1.1520 H     1 <1>   0.0800 
 47 H        8.6690     2.4120    -1.2090 H     1 <1>   0.0800 
 48 H        8.8790     0.6620     2.0610 H     1 <1>   0.0800 
 49 H        8.3450     2.1230     1.2670 H     1 <1>   0.0800 
 50 H       10.0340     1.7360     1.3400 H     1 <1>   0.0800 
@<TRIPOS>BOND
  1   1   2  1   
  2   1   3  1   
  3   2   4  ar  
  4   2   5  ar  
  5   3  21  1   
  6   3  22  1   
  7   3  23  1   
  8   4   6  ar  
  9   4   7  1   
 10   5   8  ar  
 11   5  24  1   
 12   6   9  ar  
 13   6  25  1   
 14   7  10  1   
 15   7  26  1   
 16   7  27  1   
 17   8   9  ar  
 18   8  28  1   
 19   9  29  1   
 20  10  11  1   
 21  10  30  1   
 22  10  31  1   
 23  11  12  1   
 24  11  13  1   
 25  11  32  1   
 26  12  14  1   
 27  12  33  1   
 28  12  34  1   
 29  13  15  1   
 30  13  35  1   
 31  13  36  1   
 32  14  16  1   
 33  14  37  1   
 34  14  38  1   
 35  15  16  1   
 36  15  39  1   
 37  15  40  1   
 38  16  17  1   
 39  16  41  1   
 40  17  18  1   
 41  17  19  1   
 42  17  20  1   
 43  18  42  1   
 44  18  43  1   
 45  18  44  1   
 46  19  45  1   
 47  19  46  1   
 48  19  47  1   
 49  20  48  1   
 50  20  49  1   
 51  20  50  1   
@<TRIPOS>SUBSTRUCTURE
  1 ****  11 GROUP 4 **** **** 0

# MOE 2024.06 (io_trps.svl 2023.06)
