@<TRIPOS>MOLECULE
NONAME
53 55 1 0 0 
SMALL
USER_CHARGES


@<TRIPOS>ATOM
  1 S        0.1980     0.2620    -0.2280 S.o2  1 <1>   1.5760 
  2 O        0.1860     1.3360     0.7400 O.2   1 <1>  -0.6500 
  3 O       -0.3660     0.4550    -1.5450 O.2   1 <1>  -0.6500 
  4 N        1.7860    -0.2740    -0.3960 N.am  1 <1>  -0.8490 
  5 N       -0.5080    -1.1090     0.4570 N.am  1 <1>  -0.8490 
  6 C        2.4380    -0.4560     0.9190 C.3   1 <1>   0.1960 
  7 C        2.5710     0.6730    -1.2120 C.3   1 <1>   0.1960 
  8 C       -1.8310    -0.7940     0.9970 C.3   1 <1>   0.1960 
  9 C       -0.5830    -2.2110    -0.5070 C.3   1 <1>   0.1960 
 10 C        3.8840    -0.9710     0.7890 C.3   1 <1>   0.2090 
 11 C        4.0240     0.2040    -1.4220 C.3   1 <1>   0.2090 
 12 C       -2.4040    -2.0070     1.7360 C.3   1 <1>  -0.1600 
 13 C       -1.1000    -3.4780     0.1800 C.3   1 <1>  -0.1600 
 14 N        4.6710    -0.0900    -0.1160 N.pl3 1 <1>  -0.8380 
 15 C       -2.4700    -3.2400     0.8270 C.3   1 <1>  -0.1600 
 16 C        6.0410     0.1010     0.0780 C.ar  1 <1>   0.1000 
 17 C        6.4800     1.1900     0.8360 C.ar  1 <1>  -0.1430 
 18 C        6.9880    -0.7730    -0.4660 C.ar  1 <1>  -0.1430 
 19 C        7.8340     1.3940     1.0400 C.ar  1 <1>  -0.1500 
 20 C        5.4830     2.1670     1.4440 C.3   1 <1>  -0.0970 
 21 C        8.3370    -0.5490    -0.2520 C.ar  1 <1>  -0.1500 
 22 C        6.5760    -1.9790    -1.3000 C.3   1 <1>  -0.0970 
 23 C        8.7690     0.5310     0.4980 C.ar  1 <1>  -0.1430 
 24 C       10.2520     0.7620     0.7280 C.3   1 <1>  -0.0970 
 25 H        1.8760    -1.1600     1.5070 H     1 <1>   0.0800 
 26 H        2.4580     0.4790     1.4530 H     1 <1>   0.0800 
 27 H        2.5850     1.6400    -0.7370 H     1 <1>   0.0800 
 28 H        2.1060     0.7860    -2.1770 H     1 <1>   0.0800 
 29 H       -2.4920    -0.4990     0.1980 H     1 <1>   0.0800 
 30 H       -1.7540     0.0290     1.6900 H     1 <1>   0.0800 
 31 H        0.3960    -2.4070    -0.9130 H     1 <1>   0.0800 
 32 H       -1.2350    -1.9440    -1.3230 H     1 <1>   0.0800 
 33 H        3.8680    -1.9700     0.3930 H     1 <1>   0.0800 
 34 H        4.3520    -0.9970     1.7580 H     1 <1>   0.0800 
 35 H        4.5840     0.9660    -1.9350 H     1 <1>   0.0800 
 36 H        4.0220    -0.6840    -2.0280 H     1 <1>   0.0800 
 37 H       -3.3890    -1.7720     2.0980 H     1 <1>   0.0800 
 38 H       -1.7820    -2.2160     2.5890 H     1 <1>   0.0800 
 39 H       -0.3890    -3.7800     0.9290 H     1 <1>   0.0800 
 40 H       -1.1740    -4.2710    -0.5430 H     1 <1>   0.0800 
 41 H       -3.2050    -3.0780     0.0570 H     1 <1>   0.0800 
 42 H       -2.7640    -4.1050     1.3970 H     1 <1>   0.0800 
 43 H        8.1680     2.2320     1.6250 H     1 <1>   0.1500 
 44 H        4.8680     1.6570     2.1620 H     1 <1>   0.0800 
 45 H        4.8520     2.5680     0.6720 H     1 <1>   0.0800 
 46 H        5.9830     2.9810     1.9350 H     1 <1>   0.0800 
 47 H        9.0650    -1.2200    -0.6710 H     1 <1>   0.1500 
 48 H        5.8070    -2.5330    -0.7970 H     1 <1>   0.0800 
 49 H        7.4090    -2.6370    -1.4650 H     1 <1>   0.0800 
 50 H        6.2060    -1.6510    -2.2530 H     1 <1>   0.0800 
 51 H       10.4550     1.8120     0.8390 H     1 <1>   0.0800 
 52 H       10.8230     0.3930    -0.1050 H     1 <1>   0.0800 
 53 H       10.5650     0.2500     1.6200 H     1 <1>   0.0800 
@<TRIPOS>BOND
  1   1   2  2   
  2   1   3  2   
  3   1   4  am  
  4   1   5  am  
  5   4   6  1   
  6   4   7  1   
  7   5   8  1   
  8   5   9  1   
  9   6  10  1   
 10   6  25  1   
 11   6  26  1   
 12   7  11  1   
 13   7  27  1   
 14   7  28  1   
 15   8  12  1   
 16   8  29  1   
 17   8  30  1   
 18   9  13  1   
 19   9  31  1   
 20   9  32  1   
 21  10  14  1   
 22  10  33  1   
 23  10  34  1   
 24  11  14  1   
 25  11  35  1   
 26  11  36  1   
 27  12  15  1   
 28  12  37  1   
 29  12  38  1   
 30  13  15  1   
 31  13  39  1   
 32  13  40  1   
 33  14  16  1   
 34  15  41  1   
 35  15  42  1   
 36  16  17  ar  
 37  16  18  ar  
 38  17  19  ar  
 39  17  20  1   
 40  18  21  ar  
 41  18  22  1   
 42  19  23  ar  
 43  19  43  1   
 44  20  44  1   
 45  20  45  1   
 46  20  46  1   
 47  21  23  ar  
 48  21  47  1   
 49  22  48  1   
 50  22  49  1   
 51  22  50  1   
 52  23  24  1   
 53  24  51  1   
 54  24  52  1   
 55  24  53  1   
@<TRIPOS>SUBSTRUCTURE
  1 ****   6 GROUP 4 **** **** 0

# MOE 2024.06 (io_trps.svl 2023.06)
