@<TRIPOS>MOLECULE
NONAME
44 46 1 0 0 
SMALL
USER_CHARGES


@<TRIPOS>ATOM
  1 O        1.7500     4.9330    -1.2030 O.2   1 <1>  -0.5700 
  2 C        1.5910     4.1970    -0.2530 C.2   1 <1>   0.5690 
  3 N        2.6560     3.4990     0.2770 N.am  1 <1>  -0.6600 
  4 C        0.1710     4.0600     0.3320 C.3   1 <1>   0.1250 
  5 C        4.0060     3.5570    -0.3510 C.3   1 <1>   0.1400 
  6 C        2.5780     2.5080     1.3890 C.3   1 <1>   0.1400 
  7 C       -0.3950     2.6570     0.0830 C.ar  1 <1>  -0.1440 
  8 C       -0.8090     5.1380    -0.1890 C.3   1 <1>  -0.1600 
  9 C        4.3410     2.1850    -0.9400 C.3   1 <1>  -0.1600 
 10 C        2.8770     1.1140     0.8370 C.3   1 <1>  -0.1600 
 11 C       -0.3170     2.0820    -1.1780 C.ar  1 <1>  -0.1500 
 12 C       -0.9830     1.9400     1.1150 C.ar  1 <1>  -0.1500 
 13 C       -2.1840     5.1030     0.4960 C.3   1 <1>  -0.2400 
 14 C        4.2300     1.0990     0.1340 C.3   1 <1>   0.5600 
 15 C       -0.8100     0.8090    -1.4010 C.ar  1 <1>  -0.1500 
 16 C       -1.4760     0.6660     0.8940 C.ar  1 <1>  -0.1500 
 17 O        5.2330     1.2590     1.0840 O.3   1 <1>  -0.5600 
 18 O        4.4430    -0.1550    -0.4160 O.3   1 <1>  -0.5600 
 19 C       -1.3880     0.0980    -0.3650 C.ar  1 <1>  -0.1500 
 20 C        6.3180     0.4750     0.7380 C.3   1 <1>   0.1200 
 21 C        5.7860    -0.4630    -0.3280 C.3   1 <1>   0.1200 
 22 H        0.2640     4.2160     1.3910 H     1 <1>   0.0800 
 23 H        4.7330     3.8240     0.3970 H     1 <1>   0.0800 
 24 H        4.0400     4.3020    -1.1270 H     1 <1>   0.0800 
 25 H        1.6140     2.5100     1.8600 H     1 <1>   0.0800 
 26 H        3.3090     2.7640     2.1380 H     1 <1>   0.0800 
 27 H       -0.9410     5.0120    -1.2500 H     1 <1>   0.0800 
 28 H       -0.3710     6.1090    -0.0320 H     1 <1>   0.0800 
 29 H        5.3280     2.2020    -1.3580 H     1 <1>   0.0800 
 30 H        3.6410     1.9730    -1.7280 H     1 <1>   0.0800 
 31 H        2.1070     0.8450     0.1370 H     1 <1>   0.0800 
 32 H        2.8790     0.3940     1.6330 H     1 <1>   0.0800 
 33 H        0.1310     2.6250    -1.9940 H     1 <1>   0.1500 
 34 H       -1.0620     2.3690     2.0990 H     1 <1>   0.1500 
 35 H       -2.6870     4.1740     0.2890 H     1 <1>   0.0800 
 36 H       -2.7970     5.9060     0.1270 H     1 <1>   0.0800 
 37 H       -2.0800     5.2130     1.5610 H     1 <1>   0.0800 
 38 H       -0.7410     0.3710    -2.3820 H     1 <1>   0.1500 
 39 H       -1.9290     0.1160     1.7000 H     1 <1>   0.1500 
 40 H       -1.7700    -0.8920    -0.5380 H     1 <1>   0.1500 
 41 H        6.6550    -0.0580     1.6100 H     1 <1>   0.0800 
 42 H        7.1030     1.1050     0.3580 H     1 <1>   0.0800 
 43 H        6.2500    -0.2820    -1.2820 H     1 <1>   0.0800 
 44 H        5.8930    -1.4970    -0.0510 H     1 <1>   0.0800 
@<TRIPOS>BOND
  1   1   2  2   
  2   2   3  am  
  3   2   4  1   
  4   3   5  1   
  5   3   6  1   
  6   4   7  1   
  7   4   8  1   
  8   4  22  1   
  9   5   9  1   
 10   5  23  1   
 11   5  24  1   
 12   6  10  1   
 13   6  25  1   
 14   6  26  1   
 15   7  11  ar  
 16   7  12  ar  
 17   8  13  1   
 18   8  27  1   
 19   8  28  1   
 20   9  14  1   
 21   9  29  1   
 22   9  30  1   
 23  10  14  1   
 24  10  31  1   
 25  10  32  1   
 26  11  15  ar  
 27  11  33  1   
 28  12  16  ar  
 29  12  34  1   
 30  13  35  1   
 31  13  36  1   
 32  13  37  1   
 33  14  17  1   
 34  14  18  1   
 35  15  19  ar  
 36  15  38  1   
 37  16  19  ar  
 38  16  39  1   
 39  17  20  1   
 40  18  21  1   
 41  19  40  1   
 42  20  21  1   
 43  20  41  1   
 44  20  42  1   
 45  21  43  1   
 46  21  44  1   
@<TRIPOS>SUBSTRUCTURE
  1 ****   3 GROUP 4 **** **** 0

# MOE 2024.06 (io_trps.svl 2023.06)
