@<TRIPOS>MOLECULE
NONAME
40 41 1 0 0 
SMALL
USER_CHARGES


@<TRIPOS>ATOM
  1 O       -0.3660    -0.3920    -1.3060 O.2   1 <1>  -0.5700 
  2 C        0.1670    -1.2160    -0.5840 C.2   1 <1>   0.5440 
  3 N        1.2700    -0.8390     0.1290 N.am  1 <1>  -0.7300 
  4 C       -0.3550    -2.5630    -0.4550 C.ar  1 <1>   0.0860 
  5 C        1.9090     0.4810     0.0920 C.3   1 <1>   0.2200 
  6 C       -1.7370    -2.8210    -0.4010 C.ar  1 <1>   0.1170 
  7 C        0.5220    -3.6470    -0.3610 C.ar  1 <1>  -0.1500 
  8 C        3.4070     0.2780    -0.1030 C.3   1 <1>  -0.2400 
  9 C        1.6110     1.1920     1.4070 C.3   1 <1>  -0.2400 
 10 N       -2.6480    -1.7650    -0.5250 N.am  1 <1>  -0.5470 
 11 C       -2.1830    -4.1300    -0.2350 C.ar  1 <1>  -0.1500 
 12 C        0.0650    -4.9390    -0.1980 C.ar  1 <1>  -0.1500 
 13 C       -3.9100    -1.5570    -0.0380 C.2   1 <1>   0.5690 
 14 C       -1.2950    -5.1810    -0.1320 C.ar  1 <1>  -0.1500 
 15 O       -4.5240    -2.3820     0.5970 O.2   1 <1>  -0.5700 
 16 C       -4.5410    -0.1780    -0.2830 C.3   1 <1>   0.2610 
 17 O       -3.9160     0.5010    -1.3510 O.3   1 <1>  -0.5600 
 18 C       -4.4310     0.7540     0.9300 C.3   1 <1>  -0.1600 
 19 C       -3.2720     1.6570    -0.9210 C.3   1 <1>   0.1200 
 20 C       -4.0160     2.0840     0.3320 C.3   1 <1>  -0.1600 
 21 H        1.6490    -1.4780     0.8270 H     1 <1>   0.3700 
 22 H        1.5160     1.0590    -0.7300 H     1 <1>   0.0800 
 23 H        1.5820    -3.4730    -0.4210 H     1 <1>   0.1500 
 24 H        3.8270    -0.2910     0.7070 H     1 <1>   0.0800 
 25 H        3.9020     1.2310    -0.1440 H     1 <1>   0.0800 
 26 H        3.5890    -0.2340    -1.0310 H     1 <1>   0.0800 
 27 H        1.9970     0.6350     2.2410 H     1 <1>   0.0800 
 28 H        0.5480     1.3150     1.5210 H     1 <1>   0.0800 
 29 H        2.0630     2.1670     1.4050 H     1 <1>   0.0800 
 30 H       -2.2760    -0.9450    -1.0300 H     1 <1>   0.3700 
 31 H       -3.2380    -4.3300    -0.1920 H     1 <1>   0.1500 
 32 H        0.7600    -5.7590    -0.1250 H     1 <1>   0.1500 
 33 H       -1.6610    -6.1850    -0.0030 H     1 <1>   0.1500 
 34 H       -5.5720    -0.3100    -0.5570 H     1 <1>   0.0800 
 35 H       -3.6670     0.3930     1.5970 H     1 <1>   0.0800 
 36 H       -5.3610     0.8120     1.4670 H     1 <1>   0.0800 
 37 H       -3.3110     2.3970    -1.7020 H     1 <1>   0.0800 
 38 H       -2.2480     1.4060    -0.7010 H     1 <1>   0.0800 
 39 H       -3.3960     2.6640     0.9920 H     1 <1>   0.0800 
 40 H       -4.8810     2.6600     0.0520 H     1 <1>   0.0800 
@<TRIPOS>BOND
  1   1   2  2   
  2   2   3  am  
  3   2   4  1   
  4   3   5  1   
  5   3  21  1   
  6   4   6  ar  
  7   4   7  ar  
  8   5   8  1   
  9   5   9  1   
 10   5  22  1   
 11   6  10  1   
 12   6  11  ar  
 13   7  12  ar  
 14   7  23  1   
 15   8  24  1   
 16   8  25  1   
 17   8  26  1   
 18   9  27  1   
 19   9  28  1   
 20   9  29  1   
 21  10  13  am  
 22  10  30  1   
 23  11  14  ar  
 24  11  31  1   
 25  12  14  ar  
 26  12  32  1   
 27  13  15  2   
 28  13  16  1   
 29  14  33  1   
 30  16  17  1   
 31  16  18  1   
 32  16  34  1   
 33  17  19  1   
 34  18  20  1   
 35  18  35  1   
 36  18  36  1   
 37  19  20  1   
 38  19  37  1   
 39  19  38  1   
 40  20  39  1   
 41  20  40  1   
@<TRIPOS>SUBSTRUCTURE
  1 ****  10 GROUP 4 **** **** 0

# MOE 2024.06 (io_trps.svl 2023.06)
