@<TRIPOS>MOLECULE
NONAME
41 42 1 0 0 
SMALL
USER_CHARGES


@<TRIPOS>ATOM
  1 O        0.3900     0.4910    -1.6860 O.2   1 <1>  -0.5700 
  2 C       -0.1700     1.1320    -0.8300 C.2   1 <1>   0.5690 
  3 N        0.4200     1.5080     0.3400 N.am  1 <1>  -0.5470 
  4 C       -1.6110     1.5540    -1.0840 C.3   1 <1>   0.1810 
  5 C        1.7360     1.4440     0.7480 C.ar  1 <1>   0.4270 
  6 O       -2.1100     2.3640    -0.0280 O.3   1 <1>  -0.3630 
  7 N        2.1750     2.6130     1.1920 N.ar  1 <1>  -0.6200 
  8 C        2.5130     0.2750     0.7390 C.ar  1 <1>  -0.1430 
  9 C       -3.3790     2.8420    -0.0520 C.ar  1 <1>   0.0820 
 10 C        3.4330     2.6510     1.5920 C.ar  1 <1>   0.1600 
 11 C        3.8230     0.3450     1.1620 C.ar  1 <1>  -0.1500 
 12 C        1.9800    -1.0860     0.3040 C.3   1 <1>  -0.0970 
 13 C       -3.7740     3.6200     1.0230 C.ar  1 <1>  -0.1500 
 14 C       -4.2830     2.5950    -1.0820 C.ar  1 <1>  -0.1500 
 15 C        4.2890     1.5670     1.5940 C.ar  1 <1>  -0.1500 
 16 C       -5.0520     4.1450     1.0770 C.ar  1 <1>  -0.1500 
 17 C       -5.5610     3.1240    -1.0220 C.ar  1 <1>  -0.1500 
 18 C       -5.9590     3.9020     0.0550 C.ar  1 <1>  -0.1430 
 19 C       -7.3750     4.4750     0.1000 C.3   1 <1>   0.0630 
 20 C       -7.3440     6.0070     0.1090 C.3   1 <1>  -0.2400 
 21 C       -8.1430     3.9380     1.3110 C.3   1 <1>  -0.2400 
 22 H       -0.1040     2.2100     0.8590 H     1 <1>   0.3700 
 23 H       -2.2270     0.6780    -1.1610 H     1 <1>   0.0800 
 24 H       -1.6580     2.1190    -1.9970 H     1 <1>   0.0800 
 25 H        3.8020     3.6000     1.9400 H     1 <1>   0.1500 
 26 H        4.4650    -0.5190     1.1610 H     1 <1>   0.1500 
 27 H        0.9340    -1.1780     0.5340 H     1 <1>   0.0800 
 28 H        2.5020    -1.8780     0.8090 H     1 <1>   0.0800 
 29 H        2.1160    -1.2080    -0.7560 H     1 <1>   0.0800 
 30 H       -3.0770     3.8120     1.8180 H     1 <1>   0.1500 
 31 H       -4.0180     1.9990    -1.9330 H     1 <1>   0.1500 
 32 H        5.3030     1.6780     1.9320 H     1 <1>   0.1500 
 33 H       -5.3370     4.7460     1.9220 H     1 <1>   0.1500 
 34 H       -6.2490     2.9240    -1.8250 H     1 <1>   0.1500 
 35 H       -7.9020     4.1640    -0.7870 H     1 <1>   0.0800 
 36 H       -6.8720     6.3760     1.0020 H     1 <1>   0.0800 
 37 H       -8.3440     6.3990     0.0620 H     1 <1>   0.0800 
 38 H       -6.7950     6.3660    -0.7420 H     1 <1>   0.0800 
 39 H       -7.6890     4.2620     2.2290 H     1 <1>   0.0800 
 40 H       -8.1480     2.8630     1.2920 H     1 <1>   0.0800 
 41 H       -9.1610     4.2850     1.2900 H     1 <1>   0.0800 
@<TRIPOS>BOND
  1   1   2  2   
  2   2   3  am  
  3   2   4  1   
  4   3   5  1   
  5   3  22  1   
  6   4   6  1   
  7   4  23  1   
  8   4  24  1   
  9   5   7  ar  
 10   5   8  ar  
 11   6   9  1   
 12   7  10  ar  
 13   8  11  ar  
 14   8  12  1   
 15   9  13  ar  
 16   9  14  ar  
 17  10  15  ar  
 18  10  25  1   
 19  11  15  ar  
 20  11  26  1   
 21  12  27  1   
 22  12  28  1   
 23  12  29  1   
 24  13  16  ar  
 25  13  30  1   
 26  14  17  ar  
 27  14  31  1   
 28  15  32  1   
 29  16  18  ar  
 30  16  33  1   
 31  17  18  ar  
 32  17  34  1   
 33  18  19  1   
 34  19  20  1   
 35  19  21  1   
 36  19  35  1   
 37  20  36  1   
 38  20  37  1   
 39  20  38  1   
 40  21  39  1   
 41  21  40  1   
 42  21  41  1   
@<TRIPOS>SUBSTRUCTURE
  1 ****   6 GROUP 4 **** **** 0

# MOE 2024.06 (io_trps.svl 2023.06)
