@<TRIPOS>MOLECULE
NONAME
46 49 1 0 0 
SMALL
USER_CHARGES


@<TRIPOS>ATOM
  1 S        0.4450     0.1410    -0.4200 S.o2  1 <1>   1.3330 
  2 O        0.5430     0.6970    -1.7530 O.2   1 <1>  -0.6500 
  3 O        0.1290    -1.2610    -0.2500 O.2   1 <1>  -0.6500 
  4 N        1.9460     0.4200     0.3280 N.am  1 <1>  -0.8490 
  5 C       -0.6830     1.1140     0.5900 C.3   1 <1>   0.0890 
  6 C        2.5950     1.6420    -0.1620 C.3   1 <1>   0.1960 
  7 C        2.8400    -0.7400     0.2170 C.3   1 <1>   0.1960 
  8 C       -2.1330     1.0760     0.1250 C.ar  1 <1>  -0.1440 
  9 C        3.8390     1.9490     0.6700 C.3   1 <1>  -0.1600 
 10 C        4.1130    -0.5170     1.0370 C.3   1 <1>  -0.1600 
 11 C       -2.9020    -0.0570     0.3420 C.ar  1 <1>  -0.1500 
 12 C       -2.6950     2.1680    -0.5190 C.ar  1 <1>  -0.1500 
 13 C        4.8150     0.7760     0.6140 C.3   1 <1>   0.2000 
 14 C       -4.2220    -0.0960    -0.0730 C.ar  1 <1>  -0.1500 
 15 C       -4.0150     2.1290    -0.9350 C.ar  1 <1>  -0.1500 
 16 O        5.8670     1.0550     1.5130 O.3   1 <1>  -0.4190 
 17 C       -4.7800     0.9980    -0.7110 C.ar  1 <1>  -0.1500 
 18 N        7.0570     0.5030     1.0730 N.pl3 1 <1>   0.7090 
 19 N        7.4010    -0.7670     1.3100 N.2   1 <1>  -0.4180 
 20 C        7.9540     1.1270     0.2910 C.ar  1 <1>  -0.1520 
 21 N        8.5110    -0.9930     0.7000 N.2   1 <1>  -0.2270 
 22 C        8.8840     0.1460     0.0630 C.ar  1 <1>   0.2270 
 23 C        8.0880     2.4100    -0.2540 C.ar  1 <1>  -0.1500 
 24 C       10.0000     0.4190    -0.7340 C.ar  1 <1>  -0.1500 
 25 C        9.1870     2.6720    -1.0380 C.ar  1 <1>  -0.1500 
 26 C       10.1450     1.6760    -1.2790 C.ar  1 <1>  -0.1500 
 27 H       -0.3510     2.1330     0.6040 H     1 <1>   0.0800 
 28 H       -0.6410     0.7520     1.5980 H     1 <1>   0.0800 
 29 H        1.9120     2.4720    -0.0900 H     1 <1>   0.0800 
 30 H        2.8670     1.5240    -1.1990 H     1 <1>   0.0800 
 31 H        3.0840    -0.9160    -0.8180 H     1 <1>   0.0800 
 32 H        2.3500    -1.6210     0.5980 H     1 <1>   0.0800 
 33 H        3.5420     2.1320     1.6880 H     1 <1>   0.0800 
 34 H        4.3140     2.8320     0.2850 H     1 <1>   0.0800 
 35 H        4.7650    -1.3580     0.8930 H     1 <1>   0.0800 
 36 H        3.8470    -0.4650     2.0780 H     1 <1>   0.0800 
 37 H       -2.4780    -0.9190     0.8310 H     1 <1>   0.1500 
 38 H       -2.1130     3.0530    -0.7060 H     1 <1>   0.1500 
 39 H        5.2030     0.6830    -0.3890 H     1 <1>   0.0800 
 40 H       -4.8120    -0.9790     0.0970 H     1 <1>   0.1500 
 41 H       -4.4470     2.9790    -1.4350 H     1 <1>   0.1500 
 42 H       -5.8050     0.9670    -1.0350 H     1 <1>   0.1500 
 43 H        7.3440     3.1630    -0.0540 H     1 <1>   0.1500 
 44 H       10.7200    -0.3600    -0.9030 H     1 <1>   0.1500 
 45 H        9.3260     3.6470    -1.4750 H     1 <1>   0.1500 
 46 H       10.9980     1.9070    -1.8950 H     1 <1>   0.1500 
@<TRIPOS>BOND
  1   1   2  2   
  2   1   3  2   
  3   1   4  am  
  4   1   5  1   
  5   4   6  1   
  6   4   7  1   
  7   5   8  1   
  8   5  27  1   
  9   5  28  1   
 10   6   9  1   
 11   6  29  1   
 12   6  30  1   
 13   7  10  1   
 14   7  31  1   
 15   7  32  1   
 16   8  11  ar  
 17   8  12  ar  
 18   9  13  1   
 19   9  33  1   
 20   9  34  1   
 21  10  13  1   
 22  10  35  1   
 23  10  36  1   
 24  11  14  ar  
 25  11  37  1   
 26  12  15  ar  
 27  12  38  1   
 28  13  16  1   
 29  13  39  1   
 30  14  17  ar  
 31  14  40  1   
 32  15  17  ar  
 33  15  41  1   
 34  16  18  1   
 35  17  42  1   
 36  18  19  1   
 37  18  20  1   
 38  19  21  2   
 39  20  22  ar  
 40  20  23  ar  
 41  21  22  1   
 42  22  24  ar  
 43  23  25  ar  
 44  23  43  1   
 45  24  26  ar  
 46  24  44  1   
 47  25  26  ar  
 48  25  45  1   
 49  26  46  1   
@<TRIPOS>SUBSTRUCTURE
  1 ****   6 GROUP 4 **** **** 0

# MOE 2024.06 (io_trps.svl 2023.06)
