@<TRIPOS>MOLECULE
NONAME
38 39 1 0 0 
SMALL
USER_CHARGES


@<TRIPOS>ATOM
  1 S       -0.0030    -0.0670     0.0370 S.3   1 <1>  -0.4600 
  2 C        1.5970     0.7740    -0.0750 C.3   1 <1>   0.0700 
  3 C        0.4110    -1.7700    -0.4210 C.3   1 <1>   0.0700 
  4 C        2.6260     0.0050     0.7630 C.3   1 <1>   0.3430 
  5 C        1.5710    -2.2550     0.4590 C.3   1 <1>   0.3430 
  6 N        2.8090    -1.4180     0.2980 N.4   1 <1>  -0.9590 
  7 C        3.9700    -2.0530     0.9810 C.3   1 <1>   0.4860 
  8 C        5.2270    -1.3110     0.5750 C.ar  1 <1>  -0.1430 
  9 C        5.7510    -1.4620    -0.7010 C.ar  1 <1>  -0.1500 
 10 C        5.8600    -0.4650     1.4730 C.ar  1 <1>  -0.1500 
 11 C        6.8830    -0.7620    -1.0760 C.ar  1 <1>  -0.1500 
 12 C        6.9910     0.2330     1.0920 C.ar  1 <1>  -0.1500 
 13 C        7.5120     0.0940    -0.1860 C.ar  1 <1>  -0.1430 
 14 C        8.7620     0.8590    -0.6190 C.3   1 <1>   0.0630 
 15 C        9.9690     0.4660     0.2390 C.3   1 <1>  -0.2400 
 16 C        8.5260     2.3720    -0.5630 C.3   1 <1>  -0.2400 
 17 H        1.4560     1.7710     0.3040 H     1 <1>   0.0800 
 18 H        1.8780     0.8210    -1.1130 H     1 <1>   0.0800 
 19 H        0.6640    -1.7800    -1.4660 H     1 <1>   0.0800 
 20 H       -0.4740    -2.3610    -0.2590 H     1 <1>   0.0800 
 21 H        2.3110     0.0140     1.7940 H     1 <1>   0.0800 
 22 H        3.5660     0.5300     0.7010 H     1 <1>   0.0800 
 23 H        1.7900    -3.2780     0.1970 H     1 <1>   0.0800 
 24 H        1.2530    -2.2390     1.4890 H     1 <1>   0.0800 
 25 H        3.0580    -1.3740    -0.6980 H     1 <1>   0.4500 
 26 H        4.0600    -3.0860     0.6850 H     1 <1>   0.0800 
 27 H        3.8460    -2.0120     2.0510 H     1 <1>   0.0800 
 28 H        5.2960    -2.1250    -1.4170 H     1 <1>   0.1500 
 29 H        5.4880    -0.3380     2.4750 H     1 <1>   0.1500 
 30 H        7.2790    -0.8890    -2.0690 H     1 <1>   0.1500 
 31 H        7.4720     0.8860     1.7990 H     1 <1>   0.1500 
 32 H        8.9910     0.6020    -1.6390 H     1 <1>   0.0800 
 33 H        9.8220     0.7490     1.2660 H     1 <1>   0.0800 
 34 H       10.8570     0.9500    -0.1250 H     1 <1>   0.0800 
 35 H       10.1180    -0.5980     0.1950 H     1 <1>   0.0800 
 36 H        8.3440     2.6960     0.4460 H     1 <1>   0.0800 
 37 H        7.6750     2.6330    -1.1670 H     1 <1>   0.0800 
 38 H        9.3860     2.8960    -0.9410 H     1 <1>   0.0800 
@<TRIPOS>BOND
  1   1   2  1   
  2   1   3  1   
  3   2   4  1   
  4   2  17  1   
  5   2  18  1   
  6   3   5  1   
  7   3  19  1   
  8   3  20  1   
  9   4   6  1   
 10   4  21  1   
 11   4  22  1   
 12   5   6  1   
 13   5  23  1   
 14   5  24  1   
 15   6   7  1   
 16   6  25  1   
 17   7   8  1   
 18   7  26  1   
 19   7  27  1   
 20   8   9  ar  
 21   8  10  ar  
 22   9  11  ar  
 23   9  28  1   
 24  10  12  ar  
 25  10  29  1   
 26  11  13  ar  
 27  11  30  1   
 28  12  13  ar  
 29  12  31  1   
 30  13  14  1   
 31  14  15  1   
 32  14  16  1   
 33  14  32  1   
 34  15  33  1   
 35  15  34  1   
 36  15  35  1   
 37  16  36  1   
 38  16  37  1   
 39  16  38  1   
@<TRIPOS>SUBSTRUCTURE
  1 ****   8 GROUP 4 **** **** 0

# MOE 2024.06 (io_trps.svl 2023.06)
