@<TRIPOS>MOLECULE
NONAME
47 48 1 0 0 
SMALL
USER_CHARGES


@<TRIPOS>ATOM
  1 O        0.3430    -0.8780    -0.6270 O.3   1 <1>  -0.3630 
  2 C       -0.9250    -1.3160    -0.4200 C.ar  1 <1>   0.0830 
  3 C        1.4220    -1.3850     0.1220 C.3   1 <1>   0.1200 
  4 C       -1.9160    -0.7570    -1.2050 C.ar  1 <1>  -0.1500 
  5 C       -1.2730    -2.2780     0.5200 C.ar  1 <1>  -0.1500 
  6 C        2.6970    -0.6880    -0.3530 C.3   1 <1>  -0.1600 
  7 C       -3.2340    -1.1490    -1.0560 C.ar  1 <1>  -0.1500 
  8 C       -2.5940    -2.6670     0.6640 C.ar  1 <1>  -0.1500 
  9 C        3.9290    -1.1890     0.4140 C.3   1 <1>  -0.1600 
 10 C       -3.6030    -2.1110    -0.1200 C.ar  1 <1>  -0.1430 
 11 C        5.2010    -0.4820    -0.0730 C.3   1 <1>  -0.1600 
 12 C       -5.0890    -2.5150     0.0070 C.3   1 <1>   0.1440 
 13 C        6.4390    -0.9780     0.6830 C.3   1 <1>   0.0960 
 14 C       -5.3360    -3.5870     1.0820 C.3   1 <1>  -0.2400 
 15 C       -5.5840    -3.0810    -1.3330 C.3   1 <1>  -0.2400 
 16 C       -5.9260    -1.2830     0.3810 C.3   1 <1>  -0.2400 
 17 N        7.6490    -0.2880     0.1970 N.pl3 1 <1>   0.0480 
 18 C        8.4830    -0.6780    -0.7930 C.2   1 <1>   0.0360 
 19 C        8.1650     0.8730     0.6390 C.2   1 <1>  -0.3020 
 20 N        9.4680     0.1350    -1.0030 N.2   1 <1>  -0.5650 
 21 C        9.2690     1.1130    -0.1010 C.2   1 <1>   0.0770 
 22 H        1.4810    -2.4460    -0.0460 H     1 <1>   0.0800 
 23 H        1.2390    -1.1790     1.1620 H     1 <1>   0.0800 
 24 H       -1.6490    -0.0130    -1.9320 H     1 <1>   0.1500 
 25 H       -0.5340    -2.7370     1.1480 H     1 <1>   0.1500 
 26 H        2.5880     0.3730    -0.2070 H     1 <1>   0.0800 
 27 H        2.8260    -0.8790    -1.4050 H     1 <1>   0.0800 
 28 H       -3.9750    -0.6900    -1.6850 H     1 <1>   0.1500 
 29 H       -2.8100    -3.4130     1.4040 H     1 <1>   0.1500 
 30 H        4.0300    -2.2520     0.2700 H     1 <1>   0.0800 
 31 H        3.7940    -1.0020     1.4660 H     1 <1>   0.0800 
 32 H        5.0970     0.5800     0.0750 H     1 <1>   0.0800 
 33 H        5.3310    -0.6670    -1.1260 H     1 <1>   0.0800 
 34 H        6.5650    -2.0360     0.5400 H     1 <1>   0.0800 
 35 H        6.3350    -0.7840     1.7360 H     1 <1>   0.0800 
 36 H       -4.7920    -4.4850     0.8510 H     1 <1>   0.0800 
 37 H       -6.3810    -3.8360     1.1350 H     1 <1>   0.0800 
 38 H       -5.0300    -3.2290     2.0490 H     1 <1>   0.0800 
 39 H       -5.5250    -2.3430    -2.1110 H     1 <1>   0.0800 
 40 H       -6.6070    -3.4020    -1.2550 H     1 <1>   0.0800 
 41 H       -4.9810    -3.9230    -1.6200 H     1 <1>   0.0800 
 42 H       -5.5630    -0.8590     1.3010 H     1 <1>   0.0800 
 43 H       -6.9600    -1.5500     0.5110 H     1 <1>   0.0800 
 44 H       -5.8690    -0.5290    -0.3820 H     1 <1>   0.0800 
 45 H        8.3260    -1.5860    -1.3470 H     1 <1>   0.1500 
 46 H        7.7320     1.4520     1.4340 H     1 <1>   0.1500 
 47 H        9.9410     1.9520    -0.0310 H     1 <1>   0.1500 
@<TRIPOS>BOND
  1   1   2  1   
  2   1   3  1   
  3   2   4  ar  
  4   2   5  ar  
  5   3   6  1   
  6   3  22  1   
  7   3  23  1   
  8   4   7  ar  
  9   4  24  1   
 10   5   8  ar  
 11   5  25  1   
 12   6   9  1   
 13   6  26  1   
 14   6  27  1   
 15   7  10  ar  
 16   7  28  1   
 17   8  10  ar  
 18   8  29  1   
 19   9  11  1   
 20   9  30  1   
 21   9  31  1   
 22  10  12  1   
 23  11  13  1   
 24  11  32  1   
 25  11  33  1   
 26  12  14  1   
 27  12  15  1   
 28  12  16  1   
 29  13  17  1   
 30  13  34  1   
 31  13  35  1   
 32  14  36  1   
 33  14  37  1   
 34  14  38  1   
 35  15  39  1   
 36  15  40  1   
 37  15  41  1   
 38  16  42  1   
 39  16  43  1   
 40  16  44  1   
 41  17  18  1   
 42  17  19  1   
 43  18  20  2   
 44  18  45  1   
 45  19  21  2   
 46  19  46  1   
 47  20  21  1   
 48  21  47  1   
@<TRIPOS>SUBSTRUCTURE
  1 ****   3 GROUP 4 **** **** 0

# MOE 2024.06 (io_trps.svl 2023.06)
