@<TRIPOS>MOLECULE
NONAME
26 26 1 0 0 
SMALL
USER_CHARGES


@<TRIPOS>ATOM
  1 O        0.9170     0.7180     1.8500 O.2   1 <1>  -0.5700 
  2 C        1.6130     1.1440     0.9550 C.2   1 <1>   0.7200 
  3 N        2.8420     0.6050     0.7800 N.2   1 <1>  -0.6610 
  4 C        1.0060     2.2420     0.0540 C.3   1 <1>   0.1220 
  5 C        3.6150     1.0940    -0.1070 C.2   1 <1>   0.5600 
  6 C        2.1220     2.7940    -0.8340 C.2   1 <1>   0.5690 
  7 C       -0.1010     1.5660    -0.8120 C.3   1 <1>  -0.1600 
  8 C        0.3960     3.3860     0.9200 C.3   1 <1>  -0.1600 
  9 N        4.8110     0.5400    -0.2730 N.pl3 1 <1>  -0.8500 
 10 N        3.3010     2.1450    -0.8810 N.am  1 <1>  -0.4900 
 11 O        1.9820     3.7930    -1.4930 O.2   1 <1>  -0.5700 
 12 C       -0.8670     2.4700    -1.7950 C.3   1 <1>  -0.2400 
 13 C        1.3900     4.0430     1.8930 C.3   1 <1>  -0.2400 
 14 H       -0.8220     1.1130    -0.1520 H     1 <1>   0.0800 
 15 H        0.3480     0.7660    -1.3760 H     1 <1>   0.0800 
 16 H       -0.4310     2.9950     1.4890 H     1 <1>   0.0800 
 17 H        0.0080     4.1560     0.2770 H     1 <1>   0.0800 
 18 H        5.0590    -0.2540     0.3210 H     1 <1>   0.4000 
 19 H        5.5140     0.8250    -0.9520 H     1 <1>   0.4000 
 20 H        3.9970     2.5380    -1.5050 H     1 <1>   0.3700 
 21 H       -1.3990     3.2470    -1.2770 H     1 <1>   0.0800 
 22 H       -1.5880     1.8830    -2.3370 H     1 <1>   0.0800 
 23 H       -0.2030     2.9210    -2.5110 H     1 <1>   0.0800 
 24 H        1.7690     3.3280     2.6030 H     1 <1>   0.0800 
 25 H        0.8940     4.8230     2.4430 H     1 <1>   0.0800 
 26 H        2.2170     4.4830     1.3640 H     1 <1>   0.0800 
@<TRIPOS>BOND
  1   1   2  2   
  2   2   3  1   
  3   2   4  1   
  4   3   5  2   
  5   4   6  1   
  6   4   7  1   
  7   4   8  1   
  8   5   9  1   
  9   5  10  1   
 10   6  10  am  
 11   6  11  2   
 12   7  12  1   
 13   7  14  1   
 14   7  15  1   
 15   8  13  1   
 16   8  16  1   
 17   8  17  1   
 18   9  18  1   
 19   9  19  1   
 20  10  20  1   
 21  12  21  1   
 22  12  22  1   
 23  12  23  1   
 24  13  24  1   
 25  13  25  1   
 26  13  26  1   
@<TRIPOS>SUBSTRUCTURE
  1 ****   4 GROUP 4 **** **** 0

# MOE 2024.06 (io_trps.svl 2023.06)
