@<TRIPOS>MOLECULE
NONAME
41 42 1 0 0 
SMALL
USER_CHARGES


@<TRIPOS>ATOM
  1 O       -1.3660    -5.3850     1.9440 O.3   1 <1>  -0.3630 
  2 C       -2.2170    -5.1850     0.9110 C.ar  1 <1>   0.0830 
  3 C       -0.3270    -6.3210     1.7490 C.3   1 <1>   0.1200 
  4 C       -3.2000    -6.1160     0.5700 C.ar  1 <1>  -0.1440 
  5 C       -2.0660    -4.0150     0.1850 C.ar  1 <1>  -0.1500 
  6 C        0.5730    -5.8490     0.6000 C.3   1 <1>   0.3430 
  7 C       -3.9770    -5.8860    -0.5630 C.ar  1 <1>  -0.1440 
  8 C       -3.4540    -7.3500     1.4360 C.3   1 <1>  -0.0970 
  9 C       -2.8500    -3.7880    -0.9280 C.ar  1 <1>  -0.1500 
 10 N        1.6940    -6.8030     0.3460 N.4   1 <1>  -0.9060 
 11 C       -3.7920    -4.7270    -1.3030 C.ar  1 <1>  -0.1500 
 12 C       -5.0500    -6.8660    -1.0210 C.3   1 <1>  -0.0970 
 13 C        2.5730    -6.3870    -0.7630 C.3   1 <1>   0.4230 
 14 C        3.5340    -7.5320    -1.0530 C.3   1 <1>  -0.1600 
 15 C        3.5070    -5.2790    -0.2840 C.3   1 <1>  -0.1600 
 16 C        4.6390    -7.4330     0.0060 C.3   1 <1>  -0.1600 
 17 C        4.6230    -5.9810     0.5000 C.3   1 <1>  -0.1600 
 18 H       -0.7680    -7.2760     1.5290 H     1 <1>   0.0800 
 19 H        0.2230    -6.3770     2.6710 H     1 <1>   0.0800 
 20 H       -1.3410    -3.2830     0.4910 H     1 <1>   0.1500 
 21 H        0.9680    -4.8780     0.8500 H     1 <1>   0.0800 
 22 H       -0.0260    -5.7560    -0.2920 H     1 <1>   0.0800 
 23 H       -3.0320    -7.2330     2.4180 H     1 <1>   0.0800 
 24 H       -3.0330    -8.2230     0.9730 H     1 <1>   0.0800 
 25 H       -4.5090    -7.5030     1.5680 H     1 <1>   0.0800 
 26 H       -2.7360    -2.8820    -1.4990 H     1 <1>   0.1500 
 27 H        1.3200    -7.7330     0.1260 H     1 <1>   0.4500 
 28 H        2.2910    -6.9000     1.1760 H     1 <1>   0.4500 
 29 H       -4.3950    -4.5400    -2.1760 H     1 <1>   0.1500 
 30 H       -4.6590    -7.8670    -1.0490 H     1 <1>   0.0800 
 31 H       -5.4030    -6.6210    -2.0060 H     1 <1>   0.0800 
 32 H       -5.8860    -6.8340    -0.3460 H     1 <1>   0.0800 
 33 H        2.0010    -6.1050    -1.6340 H     1 <1>   0.0800 
 34 H        3.9750    -7.3620    -2.0210 H     1 <1>   0.0800 
 35 H        3.0580    -8.4970    -1.0710 H     1 <1>   0.0800 
 36 H        3.0190    -4.5110     0.2890 H     1 <1>   0.0800 
 37 H        3.9440    -4.8140    -1.1510 H     1 <1>   0.0800 
 38 H        5.5970    -7.6900    -0.4170 H     1 <1>   0.0800 
 39 H        4.4410    -8.1050     0.8260 H     1 <1>   0.0800 
 40 H        4.4220    -5.9520     1.5580 H     1 <1>   0.0800 
 41 H        5.5720    -5.5010     0.3240 H     1 <1>   0.0800 
@<TRIPOS>BOND
  1   1   2  1   
  2   1   3  1   
  3   2   4  ar  
  4   2   5  ar  
  5   3   6  1   
  6   3  18  1   
  7   3  19  1   
  8   4   7  ar  
  9   4   8  1   
 10   5   9  ar  
 11   5  20  1   
 12   6  10  1   
 13   6  21  1   
 14   6  22  1   
 15   7  11  ar  
 16   7  12  1   
 17   8  23  1   
 18   8  24  1   
 19   8  25  1   
 20   9  11  ar  
 21   9  26  1   
 22  10  13  1   
 23  10  27  1   
 24  10  28  1   
 25  11  29  1   
 26  12  30  1   
 27  12  31  1   
 28  12  32  1   
 29  13  14  1   
 30  13  15  1   
 31  13  33  1   
 32  14  16  1   
 33  14  34  1   
 34  14  35  1   
 35  15  17  1   
 36  15  36  1   
 37  15  37  1   
 38  16  17  1   
 39  16  38  1   
 40  16  39  1   
 41  17  40  1   
 42  17  41  1   
@<TRIPOS>SUBSTRUCTURE
  1 ****   6 GROUP 4 **** **** 0

# MOE 2024.06 (io_trps.svl 2023.06)
