@<TRIPOS>MOLECULE
NONAME
33 35 1 0 0 
SMALL
USER_CHARGES


@<TRIPOS>ATOM
  1 F        0.2730    -0.5500    -1.5480 F     1 <1>  -0.1900 
  2 C        1.1120    -1.0990    -0.7030 C.ar  1 <1>   0.1900 
  3 C        2.2750    -0.4150    -0.3310 C.ar  1 <1>   0.1170 
  4 C        0.8020    -2.3660    -0.2360 C.ar  1 <1>  -0.1500 
  5 N        2.6090     0.8700    -0.7730 N.am  1 <1>  -0.5470 
  6 C        3.1560    -1.0610     0.5270 C.ar  1 <1>  -0.1500 
  7 C        1.6850    -2.9940     0.6280 C.ar  1 <1>  -0.1500 
  8 C        1.9380     2.0320    -0.5230 C.2   1 <1>   0.5690 
  9 C        2.8450    -2.3270     0.9880 C.ar  1 <1>   0.1900 
 10 O        0.8290     2.0220    -0.0390 O.2   1 <1>  -0.5700 
 11 C        2.5630     3.3820    -0.9280 C.3   1 <1>  -0.0190 
 12 F        3.6760    -2.9270     1.7980 F     1 <1>  -0.1900 
 13 C        4.2630     3.5950    -0.7570 C.3   1 <1>  -0.1860 
 14 C        1.8650     4.7010    -0.1910 C.3   1 <1>   0.0580 
 15 C        4.9970     2.4030    -0.1700 C.2   1 <1>   0.9060 
 16 C        4.4870     5.0220     0.0570 C.3   1 <1>   0.0580 
 17 C        2.2700     6.1370     0.4320 C.2   1 <1>  -0.2880 
 18 C        3.1940     4.7440    -0.1070 C.3   1 <1>  -0.1600 
 19 O        5.2720     1.4830    -0.9480 O.co2 1 <1>  -0.9000 
 20 O        5.2030     2.3100     1.0390 O.co2 1 <1>  -0.9000 
 21 C        3.6420     6.3030     0.5630 C.2   1 <1>  -0.2880 
 22 H       -0.1080    -2.8450    -0.5490 H     1 <1>   0.1500 
 23 H        3.6180     0.9880    -0.9930 H     1 <1>   0.3700 
 24 H        4.0680    -0.5710     0.8290 H     1 <1>   0.1500 
 25 H        1.4860    -3.9770     1.0160 H     1 <1>   0.1500 
 26 H        2.3430     3.4490    -1.9830 H     1 <1>   0.0800 
 27 H        4.6860     3.7070    -1.7440 H     1 <1>   0.0800 
 28 H        1.2840     4.2820     0.6190 H     1 <1>   0.0800 
 29 H        5.0080     4.7320     0.9600 H     1 <1>   0.0800 
 30 H        1.4800     6.8200     0.6920 H     1 <1>   0.1500 
 31 H        3.1560     4.2470     0.9480 H     1 <1>   0.0800 
 32 H        3.2260     5.3150    -1.1820 H     1 <1>   0.0800 
 33 H        4.1850     7.1480     0.9500 H     1 <1>   0.1500 
@<TRIPOS>BOND
  1   1   2  1   
  2   2   3  ar  
  3   2   4  ar  
  4   3   5  1   
  5   3   6  ar  
  6   4   7  ar  
  7   4  22  1   
  8   5   8  am  
  9   5  23  1   
 10   6   9  ar  
 11   6  24  1   
 12   7   9  ar  
 13   7  25  1   
 14   8  10  2   
 15   8  11  1   
 16   9  12  1   
 17  11  13  1   
 18  11  14  1   
 19  11  26  1   
 20  13  15  1   
 21  13  16  1   
 22  13  27  1   
 23  14  17  1   
 24  14  18  1   
 25  14  28  1   
 26  15  19  ar  
 27  15  20  ar  
 28  16  18  1   
 29  16  21  1   
 30  16  29  1   
 31  17  21  2   
 32  17  30  1   
 33  18  31  1   
 34  18  32  1   
 35  21  33  1   
@<TRIPOS>SUBSTRUCTURE
  1 ****   5 GROUP 4 **** **** 0

# MOE 2024.06 (io_trps.svl 2023.06)
