@<TRIPOS>MOLECULE
NONAME
25 25 1 0 0 
SMALL
USER_CHARGES


@<TRIPOS>ATOM
  1 CL      -0.4500     0.3860    -0.3470 Cl    1 <1>  -0.1770 
  2 C        1.1770     0.9700    -0.1200 C.ar  1 <1>   0.1770 
  3 C        1.4020     2.0470     0.7130 C.ar  1 <1>  -0.1500 
  4 C        2.2200     0.3490    -0.7760 C.ar  1 <1>  -0.1500 
  5 C        2.6960     2.5080     0.8900 C.ar  1 <1>  -0.1500 
  6 C        3.5120     0.8150    -0.5960 C.ar  1 <1>  -0.1500 
  7 C        3.7710     1.8990     0.2420 C.ar  1 <1>  -0.1430 
  8 C        5.1920     2.4440     0.4440 C.3   1 <1>   0.4240 
  9 O        5.3290     2.8210     1.7710 O.3   1 <1>  -0.6800 
 10 C        5.3940     3.7180    -0.4180 C.3   1 <1>   0.3430 
 11 C        6.3040     1.4150     0.2090 C.3   1 <1>  -0.2400 
 12 N        6.4360     4.6240     0.1680 N.4   1 <1>  -0.8530 
 13 H        0.5720     2.5120     1.2140 H     1 <1>   0.1500 
 14 H        2.0170    -0.4890    -1.4200 H     1 <1>   0.1500 
 15 H        2.8450     3.3500     1.5450 H     1 <1>   0.1500 
 16 H        4.2970     0.3060    -1.1260 H     1 <1>   0.1500 
 17 H        5.0070     2.0840     2.3340 H     1 <1>   0.4000 
 18 H        4.4510     4.2370    -0.4510 H     1 <1>   0.0800 
 19 H        5.6470     3.4400    -1.4280 H     1 <1>   0.0800 
 20 H        7.2600     1.7980     0.5180 H     1 <1>   0.0800 
 21 H        6.3710     1.1580    -0.8330 H     1 <1>   0.0800 
 22 H        6.0990     0.5140     0.7620 H     1 <1>   0.0800 
 23 H        6.3020     4.5720     1.1920 H     1 <1>   0.4500 
 24 H        6.3360     5.5970    -0.1370 H     1 <1>   0.4500 
 25 H        7.3850     4.2910    -0.0240 H     1 <1>   0.4500 
@<TRIPOS>BOND
  1   1   2  1   
  2   2   3  ar  
  3   2   4  ar  
  4   3   5  ar  
  5   3  13  1   
  6   4   6  ar  
  7   4  14  1   
  8   5   7  ar  
  9   5  15  1   
 10   6   7  ar  
 11   6  16  1   
 12   7   8  1   
 13   8   9  1   
 14   8  10  1   
 15   8  11  1   
 16   9  17  1   
 17  10  12  1   
 18  10  18  1   
 19  10  19  1   
 20  11  20  1   
 21  11  21  1   
 22  11  22  1   
 23  12  23  1   
 24  12  24  1   
 25  12  25  1   
@<TRIPOS>SUBSTRUCTURE
  1 ****   7 GROUP 4 **** **** 0

# MOE 2024.06 (io_trps.svl 2023.06)
