@<TRIPOS>MOLECULE
NONAME
41 41 1 0 0 
SMALL
USER_CHARGES


@<TRIPOS>ATOM
  1 CL       0.3190     0.2390     0.7000 Cl    1 <1>  -0.1770 
  2 C        1.9620     0.7920     0.4900 C.ar  1 <1>   0.1770 
  3 C        2.1980     2.1240     0.2060 C.ar  1 <1>  -0.1500 
  4 C        3.0010    -0.1110     0.6110 C.ar  1 <1>  -0.1500 
  5 C        3.5000     2.5700     0.0370 C.ar  1 <1>  -0.1440 
  6 C        4.3020     0.3290     0.4440 C.ar  1 <1>  -0.1500 
  7 C        4.5590     1.6700     0.1570 C.ar  1 <1>   0.0830 
  8 C        3.7570     4.0370    -0.2760 C.3   1 <1>  -0.0960 
  9 O        5.8160     2.1580    -0.0170 O.3   1 <1>  -0.3630 
 10 C        6.9530     1.3360     0.0820 C.3   1 <1>   0.1200 
 11 C        8.1790     2.2170    -0.1700 C.3   1 <1>  -0.1600 
 12 C        9.4860     1.4170    -0.0840 C.3   1 <1>  -0.1600 
 13 C       10.6880     2.3330    -0.3280 C.3   1 <1>   0.3430 
 14 N       11.9670     1.5880    -0.1380 N.4   1 <1>  -0.9590 
 15 C       13.0920     2.5710     0.0160 C.3   1 <1>   0.3430 
 16 C       12.2220     0.6310    -1.2640 C.3   1 <1>   0.2630 
 17 C       14.3960     1.9210     0.5020 C.3   1 <1>   0.1200 
 18 O       15.3250     2.9310     0.6740 O.3   1 <1>  -0.6800 
 19 H        1.3640     2.7950     0.1190 H     1 <1>   0.1500 
 20 H        2.7870    -1.1410     0.8330 H     1 <1>   0.1500 
 21 H        5.0960    -0.3870     0.5420 H     1 <1>   0.1500 
 22 H        2.8370     4.5910    -0.3310 H     1 <1>   0.0800 
 23 H        4.2670     4.1240    -1.2190 H     1 <1>   0.0800 
 24 H        4.3730     4.4710     0.4910 H     1 <1>   0.0800 
 25 H        6.8750     0.5600    -0.6610 H     1 <1>   0.0800 
 26 H        6.9780     0.9110     1.0700 H     1 <1>   0.0800 
 27 H        8.1860     3.0060     0.5640 H     1 <1>   0.0800 
 28 H        8.0860     2.6600    -1.1470 H     1 <1>   0.0800 
 29 H        9.4590     0.6340    -0.8220 H     1 <1>   0.0800 
 30 H        9.5600     0.9750     0.8950 H     1 <1>   0.0800 
 31 H       10.6410     3.1520     0.3740 H     1 <1>   0.0800 
 32 H       10.6420     2.7450    -1.3230 H     1 <1>   0.0800 
 33 H       11.8840     1.0610     0.7440 H     1 <1>   0.4500 
 34 H       12.8130     3.3230     0.7360 H     1 <1>   0.0800 
 35 H       13.2790     3.0610    -0.9260 H     1 <1>   0.0800 
 36 H       12.3040     1.1640    -2.1970 H     1 <1>   0.0800 
 37 H       11.4170    -0.0810    -1.3450 H     1 <1>   0.0800 
 38 H       13.1380     0.0870    -1.0970 H     1 <1>   0.0800 
 39 H       14.7890     1.2310    -0.2240 H     1 <1>   0.0800 
 40 H       14.2570     1.4330     1.4520 H     1 <1>   0.0800 
 41 H       16.1850     2.5860     0.9970 H     1 <1>   0.4000 
@<TRIPOS>BOND
  1   1   2  1   
  2   2   3  ar  
  3   2   4  ar  
  4   3   5  ar  
  5   3  19  1   
  6   4   6  ar  
  7   4  20  1   
  8   5   7  ar  
  9   5   8  1   
 10   6   7  ar  
 11   6  21  1   
 12   7   9  1   
 13   8  22  1   
 14   8  23  1   
 15   8  24  1   
 16   9  10  1   
 17  10  11  1   
 18  10  25  1   
 19  10  26  1   
 20  11  12  1   
 21  11  27  1   
 22  11  28  1   
 23  12  13  1   
 24  12  29  1   
 25  12  30  1   
 26  13  14  1   
 27  13  31  1   
 28  13  32  1   
 29  14  15  1   
 30  14  16  1   
 31  14  33  1   
 32  15  17  1   
 33  15  34  1   
 34  15  35  1   
 35  16  36  1   
 36  16  37  1   
 37  16  38  1   
 38  17  18  1   
 39  17  39  1   
 40  17  40  1   
 41  18  41  1   
@<TRIPOS>SUBSTRUCTURE
  1 ****  10 GROUP 4 **** **** 0

# MOE 2024.06 (io_trps.svl 2023.06)
