@<TRIPOS>MOLECULE
NONAME
30 31 1 0 0 
SMALL
USER_CHARGES


@<TRIPOS>ATOM
  1 S        0.5030     0.1790     0.1100 S.3   1 <1>  -0.3320 
  2 C       -1.1180     0.9610     0.0510 C.ar  1 <1>   0.1020 
  3 C        1.3670     0.6330    -1.4720 C.3   1 <1>   0.1310 
  4 C       -1.5690     1.6480    -1.0670 C.ar  1 <1>  -0.1500 
  5 C       -1.9090     0.8480     1.1800 C.ar  1 <1>  -0.1500 
  6 C        2.7960     0.1050    -1.4980 C.2   1 <1>   0.5690 
  7 C       -2.8250     2.2300    -1.0420 C.ar  1 <1>  -0.1500 
  8 C       -3.1640     1.4320     1.1980 C.ar  1 <1>  -0.1500 
  9 O        3.0630    -0.7480    -2.3130 O.2   1 <1>  -0.5700 
 10 N        3.7510     0.6130    -0.6570 N.am  1 <1>  -0.6600 
 11 C       -3.6200     2.1230     0.0880 C.ar  1 <1>  -0.1500 
 12 C        3.5460     1.6290     0.3980 C.3   1 <1>   0.1400 
 13 C        5.1450     0.1210    -0.6590 C.3   1 <1>   0.1400 
 14 C        4.9520     1.9800     0.8710 C.3   1 <1>  -0.1600 
 15 C        5.7750     0.7260     0.5910 C.3   1 <1>  -0.1600 
 16 H        1.3630     1.7030    -1.5500 H     1 <1>   0.0800 
 17 H        0.8020     0.1980    -2.2750 H     1 <1>   0.0800 
 18 H       -0.9700     1.7360    -1.9510 H     1 <1>   0.1500 
 19 H       -1.5440     0.3070     2.0350 H     1 <1>   0.1500 
 20 H       -3.1870     2.7670    -1.9020 H     1 <1>   0.1500 
 21 H       -3.7840     1.3480     2.0740 H     1 <1>   0.1500 
 22 H       -4.5960     2.5770     0.1030 H     1 <1>   0.1500 
 23 H        2.9840     1.1910     1.2050 H     1 <1>   0.0800 
 24 H        3.0300     2.4940     0.0180 H     1 <1>   0.0800 
 25 H        5.6410     0.4780    -1.5460 H     1 <1>   0.0800 
 26 H        5.1720    -0.9560    -0.6400 H     1 <1>   0.0800 
 27 H        4.9660     2.2580     1.9100 H     1 <1>   0.0800 
 28 H        5.3240     2.8010     0.2830 H     1 <1>   0.0800 
 29 H        6.8190     0.9410     0.4490 H     1 <1>   0.0800 
 30 H        5.6680     0.0290     1.4050 H     1 <1>   0.0800 
@<TRIPOS>BOND
  1   1   2  1   
  2   1   3  1   
  3   2   4  ar  
  4   2   5  ar  
  5   3   6  1   
  6   3  16  1   
  7   3  17  1   
  8   4   7  ar  
  9   4  18  1   
 10   5   8  ar  
 11   5  19  1   
 12   6   9  2   
 13   6  10  am  
 14   7  11  ar  
 15   7  20  1   
 16   8  11  ar  
 17   8  21  1   
 18  10  12  1   
 19  10  13  1   
 20  11  22  1   
 21  12  14  1   
 22  12  23  1   
 23  12  24  1   
 24  13  15  1   
 25  13  25  1   
 26  13  26  1   
 27  14  15  1   
 28  14  27  1   
 29  14  28  1   
 30  15  29  1   
 31  15  30  1   
@<TRIPOS>SUBSTRUCTURE
  1 ****   1 GROUP 4 **** **** 0

# MOE 2024.06 (io_trps.svl 2023.06)
