@<TRIPOS>MOLECULE
NONAME
39 40 1 0 0 
SMALL
USER_CHARGES


@<TRIPOS>ATOM
  1 BR       0.4000    -0.0100    -0.1010 Br    1 <1>  -0.1110 
  2 C        2.1180     0.8010    -0.4080 C.ar  1 <1>   0.1110 
  3 C        3.1810     0.4310     0.3940 C.ar  1 <1>  -0.1500 
  4 C        2.2440     1.7300    -1.4230 C.ar  1 <1>  -0.1500 
  5 C        4.4200     1.0150     0.1760 C.ar  1 <1>  -0.1440 
  6 C        3.4830     2.3070    -1.6380 C.ar  1 <1>  -0.1500 
  7 C        4.5630     1.9490    -0.8430 C.ar  1 <1>  -0.1500 
  8 C        5.6070     0.6370     1.0450 C.3   1 <1>   0.2140 
  9 S        6.1450    -1.0350     0.5750 S.3   1 <1>  -0.4600 
 10 C        7.5400    -1.3500     1.7110 C.3   1 <1>   0.1310 
 11 C        8.5610    -0.2190     1.6580 C.2   1 <1>   0.5690 
 12 O        8.5480     0.5640     2.5800 O.2   1 <1>  -0.5700 
 13 N        9.4400    -0.0880     0.6090 N.am  1 <1>  -0.6600 
 14 C       10.4880     0.9710     0.6050 C.3   1 <1>   0.1400 
 15 C        9.4260    -0.9230    -0.6260 C.3   1 <1>   0.1400 
 16 C       11.8680     0.3300     0.4220 C.3   1 <1>  -0.1600 
 17 C       10.7950    -1.5850    -0.8150 C.3   1 <1>  -0.1600 
 18 C       11.9250    -0.5440    -0.8420 C.3   1 <1>  -0.0800 
 19 C       13.2900    -1.2310    -0.9620 C.3   1 <1>  -0.2400 
 20 H        3.0410    -0.3010     1.1690 H     1 <1>   0.1500 
 21 H        1.3940     1.9920    -2.0270 H     1 <1>   0.1500 
 22 H        3.6100     3.0320    -2.4240 H     1 <1>   0.1500 
 23 H        5.5220     2.4030    -1.0240 H     1 <1>   0.1500 
 24 H        5.3430     0.6130     2.0870 H     1 <1>   0.0800 
 25 H        6.4380     1.3030     0.8920 H     1 <1>   0.0800 
 26 H        7.9840    -2.2870     1.4340 H     1 <1>   0.0800 
 27 H        7.1280    -1.4290     2.7000 H     1 <1>   0.0800 
 28 H       10.4730     1.5280     1.5270 H     1 <1>   0.0800 
 29 H       10.2910     1.6560    -0.2010 H     1 <1>   0.0800 
 30 H        9.2090    -0.2900    -1.4700 H     1 <1>   0.0800 
 31 H        8.6650    -1.6810    -0.5830 H     1 <1>   0.0800 
 32 H       12.0870    -0.2640     1.2920 H     1 <1>   0.0800 
 33 H       12.6090     1.1070     0.3610 H     1 <1>   0.0800 
 34 H       10.7910    -2.1380    -1.7370 H     1 <1>   0.0800 
 35 H       10.9560    -2.2830    -0.0130 H     1 <1>   0.0800 
 36 H       11.7870     0.0900    -1.7020 H     1 <1>   0.0800 
 37 H       13.4670    -1.8740    -0.1180 H     1 <1>   0.0800 
 38 H       14.0750    -0.4960    -1.0040 H     1 <1>   0.0800 
 39 H       13.3330    -1.8220    -1.8600 H     1 <1>   0.0800 
@<TRIPOS>BOND
  1   1   2  1   
  2   2   3  ar  
  3   2   4  ar  
  4   3   5  ar  
  5   3  20  1   
  6   4   6  ar  
  7   4  21  1   
  8   5   7  ar  
  9   5   8  1   
 10   6   7  ar  
 11   6  22  1   
 12   7  23  1   
 13   8   9  1   
 14   8  24  1   
 15   8  25  1   
 16   9  10  1   
 17  10  11  1   
 18  10  26  1   
 19  10  27  1   
 20  11  12  2   
 21  11  13  am  
 22  13  14  1   
 23  13  15  1   
 24  14  16  1   
 25  14  28  1   
 26  14  29  1   
 27  15  17  1   
 28  15  30  1   
 29  15  31  1   
 30  16  18  1   
 31  16  32  1   
 32  16  33  1   
 33  17  18  1   
 34  17  34  1   
 35  17  35  1   
 36  18  19  1   
 37  18  36  1   
 38  19  37  1   
 39  19  38  1   
 40  19  39  1   
@<TRIPOS>SUBSTRUCTURE
  1 ****   9 GROUP 4 **** **** 0

# MOE 2024.06 (io_trps.svl 2023.06)
