@<TRIPOS>MOLECULE
NONAME
46 48 1 0 0 
SMALL
USER_CHARGES


@<TRIPOS>ATOM
  1 O       -0.0720     2.1830     3.2820 O.2   1 <1>  -0.5700 
  2 C       -0.0060     2.5980     2.1530 C.2   1 <1>   0.5690 
  3 N       -1.1410     2.6880     1.4150 N.am  1 <1>  -0.7300 
  4 C        1.3550     3.0270     1.6150 C.3   1 <1>   0.0440 
  5 C       -1.3250     3.1130     0.0020 C.3   1 <1>   0.1400 
  6 C        1.7370     2.3870     0.2820 C.ar  1 <1>  -0.1430 
  7 C       -2.5660     4.0220    -0.1700 C.3   1 <1>   0.1430 
  8 C        1.5880     1.0220     0.0900 C.ar  1 <1>  -0.1500 
  9 C        2.2330     3.1680    -0.7530 C.ar  1 <1>  -0.1500 
 10 C       -3.8030     3.2450     0.3430 C.ar  1 <1>  -0.1430 
 11 C       -2.7540     4.3700    -1.6640 C.3   1 <1>  -0.1600 
 12 C       -2.3480     5.3640     0.5710 C.3   1 <1>  -0.1600 
 13 C        1.9190     0.4450    -1.1240 C.ar  1 <1>  -0.1500 
 14 C        2.5640     2.5920    -1.9670 C.ar  1 <1>  -0.1500 
 15 C       -4.5200     3.6260     1.4750 C.ar  1 <1>  -0.1500 
 16 C       -4.2180     2.0970    -0.3260 C.ar  1 <1>  -0.1500 
 17 C       -1.6550     5.2960    -2.2020 C.3   1 <1>   0.1200 
 18 C       -1.2610     6.2290    -0.0760 C.3   1 <1>   0.1200 
 19 C        2.4060     1.2300    -2.1540 C.ar  1 <1>  -0.1500 
 20 C       -5.6120     2.8970     1.9120 C.ar  1 <1>  -0.1500 
 21 C       -5.3100     1.3650     0.1070 C.ar  1 <1>  -0.1500 
 22 O       -1.5800     6.4410    -1.4140 O.3   1 <1>  -0.5600 
 23 C       -6.0100     1.7650     1.2280 C.ar  1 <1>  -0.1500 
 24 H       -1.9980     2.3590     1.8710 H     1 <1>   0.3700 
 25 H        2.1030     2.7670     2.3420 H     1 <1>   0.0800 
 26 H        1.3500     4.0960     1.5270 H     1 <1>   0.0800 
 27 H       -1.4380     2.2290    -0.6010 H     1 <1>   0.0800 
 28 H       -0.4470     3.6220    -0.3430 H     1 <1>   0.0800 
 29 H        1.2110     0.4000     0.8850 H     1 <1>   0.1500 
 30 H        2.3660     4.2270    -0.6220 H     1 <1>   0.1500 
 31 H       -3.7020     4.8620    -1.7960 H     1 <1>   0.0800 
 32 H       -2.7690     3.4810    -2.2650 H     1 <1>   0.0800 
 33 H       -2.0870     5.1910     1.5990 H     1 <1>   0.0800 
 34 H       -3.2600     5.9350     0.5560 H     1 <1>   0.0800 
 35 H        1.7990    -0.6150    -1.2650 H     1 <1>   0.1500 
 36 H        2.9490     3.2020    -2.7660 H     1 <1>   0.1500 
 37 H       -4.2500     4.4930     2.0480 H     1 <1>   0.1500 
 38 H       -3.6940     1.7480    -1.1970 H     1 <1>   0.1500 
 39 H       -1.8880     5.6090    -3.2050 H     1 <1>   0.0800 
 40 H       -0.6900     4.8180    -2.2060 H     1 <1>   0.0800 
 41 H       -0.2890     5.7700    -0.0200 H     1 <1>   0.0800 
 42 H       -1.2160     7.1910     0.4030 H     1 <1>   0.0800 
 43 H        2.6650     0.7810    -3.0970 H     1 <1>   0.1500 
 44 H       -6.1520     3.2110     2.7880 H     1 <1>   0.1500 
 45 H       -5.6130     0.4820    -0.4290 H     1 <1>   0.1500 
 46 H       -6.8600     1.1980     1.5670 H     1 <1>   0.1500 
@<TRIPOS>BOND
  1   1   2  2   
  2   2   3  am  
  3   2   4  1   
  4   3   5  1   
  5   3  24  1   
  6   4   6  1   
  7   4  25  1   
  8   4  26  1   
  9   5   7  1   
 10   5  27  1   
 11   5  28  1   
 12   6   8  ar  
 13   6   9  ar  
 14   7  10  1   
 15   7  11  1   
 16   7  12  1   
 17   8  13  ar  
 18   8  29  1   
 19   9  14  ar  
 20   9  30  1   
 21  10  15  ar  
 22  10  16  ar  
 23  11  17  1   
 24  11  31  1   
 25  11  32  1   
 26  12  18  1   
 27  12  33  1   
 28  12  34  1   
 29  13  19  ar  
 30  13  35  1   
 31  14  19  ar  
 32  14  36  1   
 33  15  20  ar  
 34  15  37  1   
 35  16  21  ar  
 36  16  38  1   
 37  17  22  1   
 38  17  39  1   
 39  17  40  1   
 40  18  22  1   
 41  18  41  1   
 42  18  42  1   
 43  19  43  1   
 44  20  23  ar  
 45  20  44  1   
 46  21  23  ar  
 47  21  45  1   
 48  23  46  1   
@<TRIPOS>SUBSTRUCTURE
  1 ****   5 GROUP 4 **** **** 0

# MOE 2024.06 (io_trps.svl 2023.06)
