@<TRIPOS>MOLECULE
NONAME
35 36 1 0 0 
SMALL
USER_CHARGES


@<TRIPOS>ATOM
  1 S       -0.4320    -0.4150    -0.0520 S.3   1 <1>  -0.2860 
  2 C        1.2480    -0.6170    -0.6560 C.2   1 <1>   0.2420 
  3 C       -1.4500    -0.7240    -1.5800 C.3   1 <1>   0.1310 
  4 N        1.5310    -0.8680    -1.8840 N.2   1 <1>  -0.3380 
  5 N        2.3190    -0.5160     0.1310 N.pl3 1 <1>   0.0480 
  6 C       -2.9310    -0.4910    -1.3230 C.2   1 <1>   0.5690 
  7 N        2.8650    -0.9400    -1.9390 N.2   1 <1>  -0.3380 
  8 C        3.3130    -0.7300    -0.7450 C.2   1 <1>   0.0060 
  9 C        2.3800    -0.2440     1.5840 C.3   1 <1>   0.0960 
 10 O       -3.7210    -1.0390    -2.0520 O.2   1 <1>  -0.5700 
 11 N       -3.2940     0.3290    -0.2870 N.am  1 <1>  -0.5470 
 12 C        4.7860    -0.7280    -0.3880 C.3   1 <1>  -0.0600 
 13 C        2.4260     1.2640     1.8500 C.3   1 <1>  -0.2400 
 14 C       -4.5480     0.7610     0.1730 C.ar  1 <1>   0.1170 
 15 C       -4.6370     1.2850     1.4570 C.ar  1 <1>  -0.1500 
 16 C       -5.7050     0.7050    -0.5990 C.ar  1 <1>  -0.1500 
 17 C       -5.8440     1.7370     1.9610 C.ar  1 <1>  -0.1500 
 18 C       -6.9140     1.1550    -0.0990 C.ar  1 <1>  -0.1500 
 19 C       -6.9860     1.6720     1.1830 C.ar  1 <1>  -0.1500 
 20 H       -1.2750    -1.7420    -1.8770 H     1 <1>   0.0800 
 21 H       -1.0940    -0.0580    -2.3430 H     1 <1>   0.0800 
 22 H        3.2550    -0.7170     1.9910 H     1 <1>   0.0800 
 23 H        1.5150    -0.6750     2.0550 H     1 <1>   0.0800 
 24 H       -2.5070     0.6340     0.2840 H     1 <1>   0.3700 
 25 H        5.0650     0.2190     0.0370 H     1 <1>   0.0800 
 26 H        5.3750    -0.8930    -1.2730 H     1 <1>   0.0800 
 27 H        4.9990    -1.5130     0.3150 H     1 <1>   0.0800 
 28 H        3.2940     1.7030     1.3900 H     1 <1>   0.0800 
 29 H        2.4730     1.4450     2.9090 H     1 <1>   0.0800 
 30 H        1.5410     1.7400     1.4640 H     1 <1>   0.0800 
 31 H       -3.7580     1.3390     2.0730 H     1 <1>   0.1500 
 32 H       -5.6700     0.3120    -1.5970 H     1 <1>   0.1500 
 33 H       -5.8970     2.1390     2.9580 H     1 <1>   0.1500 
 34 H       -7.7990     1.1010    -0.7080 H     1 <1>   0.1500 
 35 H       -7.9260     2.0210     1.5720 H     1 <1>   0.1500 
@<TRIPOS>BOND
  1   1   2  1   
  2   1   3  1   
  3   2   4  2   
  4   2   5  1   
  5   3   6  1   
  6   3  20  1   
  7   3  21  1   
  8   4   7  1   
  9   5   8  1   
 10   5   9  1   
 11   6  10  2   
 12   6  11  am  
 13   7   8  2   
 14   8  12  1   
 15   9  13  1   
 16   9  22  1   
 17   9  23  1   
 18  11  14  1   
 19  11  24  1   
 20  12  25  1   
 21  12  26  1   
 22  12  27  1   
 23  13  28  1   
 24  13  29  1   
 25  13  30  1   
 26  14  15  ar  
 27  14  16  ar  
 28  15  17  ar  
 29  15  31  1   
 30  16  18  ar  
 31  16  32  1   
 32  17  19  ar  
 33  17  33  1   
 34  18  19  ar  
 35  18  34  1   
 36  19  35  1   
@<TRIPOS>SUBSTRUCTURE
  1 ****   1 GROUP 4 **** **** 0

# MOE 2024.06 (io_trps.svl 2023.06)
