@<TRIPOS>MOLECULE
NONAME
50 51 1 0 0 
SMALL
USER_CHARGES


@<TRIPOS>ATOM
  1 O       -6.4580     0.8760    -1.0290 O.2   1 <1>  -0.5700 
  2 C       -5.9160     1.8810    -0.5940 C.2   1 <1>   0.6340 
  3 O       -6.6810     2.9180    -0.1870 O.3   1 <1>  -0.0870 
  4 C       -4.4800     2.0100    -0.4500 C.ar  1 <1>   0.0860 
  5 N       -7.9860     3.0200    -0.4420 N.2   1 <1>  -0.5130 
  6 C       -3.8830     3.1630     0.0700 C.ar  1 <1>  -0.1500 
  7 C       -3.6260     0.9680    -0.8250 C.ar  1 <1>  -0.1500 
  8 C       -8.8630     2.3900     0.2170 C.2   1 <1>   0.3280 
  9 C       -2.5120     3.2630     0.2140 C.ar  1 <1>  -0.1500 
 10 C       -2.2540     1.0620    -0.6850 C.ar  1 <1>  -0.1500 
 11 C      -10.3080     2.4300    -0.2710 C.3   1 <1>  -0.0190 
 12 C       -8.7100     1.4420     1.4120 C.3   1 <1>  -0.0190 
 13 C       -1.6850     2.2170    -0.1590 C.ar  1 <1>   0.0830 
 14 C      -10.9370     1.0230    -0.2050 C.3   1 <1>   0.3430 
 15 C      -11.1520     3.4580     0.5040 C.3   1 <1>  -0.2400 
 16 C       -8.8830     0.0150     0.8680 C.3   1 <1>   0.3430 
 17 C       -7.4570     1.5690     2.3000 C.3   1 <1>  -0.2400 
 18 O       -0.3580     2.3930     0.0150 O.3   1 <1>  -0.3620 
 19 N       -9.9120    -0.0820    -0.2370 N.4   1 <1>  -0.9590 
 20 C        0.5780     1.3990    -0.3350 C.3   1 <1>   0.1200 
 21 C       -9.2220    -0.1420    -1.5730 C.3   1 <1>   0.2630 
 22 C        1.9770     1.9250    -0.0120 C.3   1 <1>  -0.1600 
 23 C        3.0560     0.8950    -0.3660 C.3   1 <1>  -0.2400 
 24 H       -4.4900     4.0000     0.3700 H     1 <1>   0.1500 
 25 H       -4.0460     0.0660    -1.2360 H     1 <1>   0.1500 
 26 H       -2.0680     4.1560     0.6160 H     1 <1>   0.1500 
 27 H       -1.6440     0.2310    -0.9880 H     1 <1>   0.1500 
 28 H      -10.2990     2.7370    -1.3030 H     1 <1>   0.0800 
 29 H       -9.5330     1.6380     2.0760 H     1 <1>   0.0800 
 30 H      -11.6370     0.9060    -1.0180 H     1 <1>   0.0800 
 31 H      -11.4940     0.9440     0.7150 H     1 <1>   0.0800 
 32 H      -11.2270     3.2060     1.5470 H     1 <1>   0.0800 
 33 H      -12.1450     3.5180     0.0930 H     1 <1>   0.0800 
 34 H      -10.7000     4.4330     0.4240 H     1 <1>   0.0800 
 35 H       -9.1630    -0.6310     1.6840 H     1 <1>   0.0800 
 36 H       -7.9320    -0.3290     0.4930 H     1 <1>   0.0800 
 37 H       -6.5850     1.1570     1.8300 H     1 <1>   0.0800 
 38 H       -7.6060     1.0410     3.2270 H     1 <1>   0.0800 
 39 H       -7.2720     2.6040     2.5350 H     1 <1>   0.0800 
 40 H      -10.4050    -0.9800    -0.1200 H     1 <1>   0.4500 
 41 H        0.3630     0.5140     0.2380 H     1 <1>   0.0800 
 42 H        0.4810     1.1970    -1.3880 H     1 <1>   0.0800 
 43 H       -8.7000     0.7800    -1.7720 H     1 <1>   0.0800 
 44 H       -9.9380    -0.3080    -2.3620 H     1 <1>   0.0800 
 45 H       -8.5000    -0.9430    -1.5870 H     1 <1>   0.0800 
 46 H        2.1520     2.8280    -0.5700 H     1 <1>   0.0800 
 47 H        2.0350     2.1520     1.0380 H     1 <1>   0.0800 
 48 H        3.0270     0.6650    -1.4170 H     1 <1>   0.0800 
 49 H        2.9100    -0.0120     0.1940 H     1 <1>   0.0800 
 50 H        4.0290     1.2890    -0.1300 H     1 <1>   0.0800 
@<TRIPOS>BOND
  1   1   2  2   
  2   2   3  1   
  3   2   4  1   
  4   3   5  1   
  5   4   6  ar  
  6   4   7  ar  
  7   5   8  2   
  8   6   9  ar  
  9   6  24  1   
 10   7  10  ar  
 11   7  25  1   
 12   8  11  1   
 13   8  12  1   
 14   9  13  ar  
 15   9  26  1   
 16  10  13  ar  
 17  10  27  1   
 18  11  14  1   
 19  11  15  1   
 20  11  28  1   
 21  12  16  1   
 22  12  17  1   
 23  12  29  1   
 24  13  18  1   
 25  14  19  1   
 26  14  30  1   
 27  14  31  1   
 28  15  32  1   
 29  15  33  1   
 30  15  34  1   
 31  16  19  1   
 32  16  35  1   
 33  16  36  1   
 34  17  37  1   
 35  17  38  1   
 36  17  39  1   
 37  18  20  1   
 38  19  21  1   
 39  19  40  1   
 40  20  22  1   
 41  20  41  1   
 42  20  42  1   
 43  21  43  1   
 44  21  44  1   
 45  21  45  1   
 46  22  23  1   
 47  22  46  1   
 48  22  47  1   
 49  23  48  1   
 50  23  49  1   
 51  23  50  1   
@<TRIPOS>SUBSTRUCTURE
  1 ****   2 GROUP 4 **** **** 0

# MOE 2024.06 (io_trps.svl 2023.06)
