@<TRIPOS>MOLECULE
NONAME
46 47 1 0 0 
SMALL
USER_CHARGES


@<TRIPOS>ATOM
  1 O       -6.0810    -2.5840    -1.1360 O.3   1 <1>  -0.5600 
  2 C       -5.7210    -1.8420    -0.0020 C.3   1 <1>   0.2000 
  3 C       -6.2740    -3.9680    -0.9890 C.3   1 <1>   0.2000 
  4 C       -4.3830    -2.3600     0.5910 C.3   1 <1>   0.3430 
  5 C       -6.8820    -1.8430     1.0020 C.3   1 <1>  -0.2400 
  6 C       -5.2770    -4.5980     0.0210 C.3   1 <1>   0.3430 
  7 C       -6.1060    -4.5630    -2.3860 C.3   1 <1>  -0.2400 
  8 N       -4.0470    -3.7600     0.1530 N.4   1 <1>  -0.9590 
  9 C       -2.9210    -4.3950     0.9020 C.3   1 <1>   0.3430 
 10 C       -1.5670    -3.8290     0.4220 C.3   1 <1>   0.2000 
 11 O       -1.6360    -3.5980    -0.9530 O.3   1 <1>  -0.6800 
 12 C       -0.3940    -4.7740     0.7080 C.3   1 <1>   0.1200 
 13 O        0.7570    -4.2530     0.0790 O.3   1 <1>  -0.3630 
 14 C        1.9610    -4.8800     0.1560 C.ar  1 <1>   0.0820 
 15 C        3.0440    -4.2730    -0.4750 C.ar  1 <1>  -0.1430 
 16 C        2.1430    -6.0850     0.8320 C.ar  1 <1>  -0.1500 
 17 C        4.2910    -4.8760    -0.4230 C.ar  1 <1>  -0.1500 
 18 C        2.8780    -2.9570    -1.2210 C.3   1 <1>  -0.0970 
 19 C        3.3930    -6.6760     0.8760 C.ar  1 <1>  -0.1500 
 20 C        4.4670    -6.0720     0.2490 C.ar  1 <1>  -0.1500 
 21 H       -5.5730    -0.8280    -0.3340 H     1 <1>   0.0800 
 22 H       -7.2840    -4.1330    -0.6560 H     1 <1>   0.0800 
 23 H       -4.4450    -2.3130     1.6650 H     1 <1>   0.0800 
 24 H       -3.5920    -1.6950     0.2840 H     1 <1>   0.0800 
 25 H       -7.0460    -2.8120     1.4330 H     1 <1>   0.0800 
 26 H       -7.7830    -1.5140     0.5130 H     1 <1>   0.0800 
 27 H       -6.6710    -1.1540     1.8010 H     1 <1>   0.0800 
 28 H       -5.0240    -5.5920    -0.3080 H     1 <1>   0.0800 
 29 H       -5.7610    -4.6830     0.9790 H     1 <1>   0.0800 
 30 H       -5.1130    -4.3860    -2.7600 H     1 <1>   0.0800 
 31 H       -6.8160    -4.1140    -3.0590 H     1 <1>   0.0800 
 32 H       -6.2870    -5.6220    -2.3690 H     1 <1>   0.0800 
 33 H       -3.6710    -3.6440    -0.8110 H     1 <1>   0.4500 
 34 H       -2.9240    -5.4550     0.7100 H     1 <1>   0.0800 
 35 H       -3.0350    -4.2500     1.9640 H     1 <1>   0.0800 
 36 H       -1.3780    -2.8850     0.9030 H     1 <1>   0.0800 
 37 H       -0.7160    -3.4890    -1.2930 H     1 <1>   0.4000 
 38 H       -0.5860    -5.7540     0.3060 H     1 <1>   0.0800 
 39 H       -0.2030    -4.8380     1.7650 H     1 <1>   0.0800 
 40 H        1.3350    -6.5840     1.3290 H     1 <1>   0.1500 
 41 H        5.1360    -4.4170    -0.9070 H     1 <1>   0.1500 
 42 H        2.4880    -2.2070    -0.5570 H     1 <1>   0.0800 
 43 H        2.1950    -3.0870    -2.0410 H     1 <1>   0.0800 
 44 H        3.8180    -2.6110    -1.6110 H     1 <1>   0.0800 
 45 H        3.5330    -7.6070     1.3980 H     1 <1>   0.1500 
 46 H        5.4400    -6.5310     0.2830 H     1 <1>   0.1500 
@<TRIPOS>BOND
  1   1   2  1   
  2   1   3  1   
  3   2   4  1   
  4   2   5  1   
  5   2  21  1   
  6   3   6  1   
  7   3   7  1   
  8   3  22  1   
  9   4   8  1   
 10   4  23  1   
 11   4  24  1   
 12   5  25  1   
 13   5  26  1   
 14   5  27  1   
 15   6   8  1   
 16   6  28  1   
 17   6  29  1   
 18   7  30  1   
 19   7  31  1   
 20   7  32  1   
 21   8   9  1   
 22   8  33  1   
 23   9  10  1   
 24   9  34  1   
 25   9  35  1   
 26  10  11  1   
 27  10  12  1   
 28  10  36  1   
 29  11  37  1   
 30  12  13  1   
 31  12  38  1   
 32  12  39  1   
 33  13  14  1   
 34  14  15  ar  
 35  14  16  ar  
 36  15  17  ar  
 37  15  18  1   
 38  16  19  ar  
 39  16  40  1   
 40  17  20  ar  
 41  17  41  1   
 42  18  42  1   
 43  18  43  1   
 44  18  44  1   
 45  19  20  ar  
 46  19  45  1   
 47  20  46  1   
@<TRIPOS>SUBSTRUCTURE
  1 ****  10 GROUP 4 **** **** 0

# MOE 2024.06 (io_trps.svl 2023.06)
