@<TRIPOS>MOLECULE
NONAME
38 39 1 0 0 
SMALL
USER_CHARGES


@<TRIPOS>ATOM
  1 O        0.1750     0.7610     1.5420 O.2   1 <1>  -0.5700 
  2 C        0.7740     1.3390     0.6570 C.2   1 <1>   0.7160 
  3 N        1.8860     0.7640     0.1320 N.am  1 <1>  -0.7300 
  4 C        0.3160     2.6080     0.1470 C.2   1 <1>  -0.0860 
  5 C        2.6300    -0.3420     0.7300 C.3   1 <1>   0.3640 
  6 C        0.9920     3.6530    -0.4150 C.2   1 <1>  -0.0400 
  7 C       -1.0310     3.0260     0.1370 C.2   1 <1>  -0.1500 
  8 C        4.1120    -0.0430     0.5430 C.ar  1 <1>  -0.1440 
  9 C        2.2050    -1.6470     0.0620 C.3   1 <1>  -0.2400 
 10 O        0.1680     4.6120    -0.7630 O.3   1 <1>  -0.2800 
 11 C        2.4690     3.8880    -0.6670 C.3   1 <1>  -0.0600 
 12 C       -1.0510     4.2470    -0.4310 C.2   1 <1>  -0.0100 
 13 C        4.6940    -0.0060    -0.7180 C.ar  1 <1>  -0.1500 
 14 C        4.9040     0.2190     1.6520 C.ar  1 <1>  -0.1500 
 15 C        6.0400     0.2830    -0.8640 C.ar  1 <1>  -0.1500 
 16 C        6.2490     0.5090     1.5040 C.ar  1 <1>  -0.1500 
 17 C        6.8260     0.5410     0.2460 C.ar  1 <1>  -0.1430 
 18 C        8.3050     0.8570     0.0860 C.3   1 <1>  -0.0170 
 19 C        8.5180     2.3620    -0.0850 C.3   1 <1>  -0.2400 
 20 H        2.3930     1.2590    -0.5970 H     1 <1>   0.3700 
 21 H        2.4010    -0.4000     1.7820 H     1 <1>   0.0800 
 22 H       -1.8510     2.4450     0.5230 H     1 <1>   0.1500 
 23 H        2.3390    -1.6030    -1.0020 H     1 <1>   0.0800 
 24 H        1.1700    -1.8430     0.2800 H     1 <1>   0.0800 
 25 H        2.7930    -2.4570     0.4520 H     1 <1>   0.0800 
 26 H        3.0760     3.1390    -0.1950 H     1 <1>   0.0800 
 27 H        2.7490     4.8460    -0.2680 H     1 <1>   0.0800 
 28 H        2.6620     3.8880    -1.7250 H     1 <1>   0.0800 
 29 H       -1.8690     4.9160    -0.6340 H     1 <1>   0.1500 
 30 H        4.1060    -0.2030    -1.5970 H     1 <1>   0.1500 
 31 H        4.4760     0.2030     2.6390 H     1 <1>   0.1500 
 32 H        6.4740     0.3060    -1.8480 H     1 <1>   0.1500 
 33 H        6.8460     0.7100     2.3760 H     1 <1>   0.1500 
 34 H        8.6960     0.3360    -0.7710 H     1 <1>   0.0800 
 35 H        8.8450     0.5110     0.9500 H     1 <1>   0.0800 
 36 H        7.9960     2.7140    -0.9580 H     1 <1>   0.0800 
 37 H        9.5660     2.5780    -0.1970 H     1 <1>   0.0800 
 38 H        8.1450     2.8890     0.7750 H     1 <1>   0.0800 
@<TRIPOS>BOND
  1   1   2  2   
  2   2   3  am  
  3   2   4  1   
  4   3   5  1   
  5   3  20  1   
  6   4   6  2   
  7   4   7  1   
  8   5   8  1   
  9   5   9  1   
 10   5  21  1   
 11   6  10  1   
 12   6  11  1   
 13   7  12  2   
 14   7  22  1   
 15   8  13  ar  
 16   8  14  ar  
 17   9  23  1   
 18   9  24  1   
 19   9  25  1   
 20  10  12  1   
 21  11  26  1   
 22  11  27  1   
 23  11  28  1   
 24  12  29  1   
 25  13  15  ar  
 26  13  30  1   
 27  14  16  ar  
 28  14  31  1   
 29  15  17  ar  
 30  15  32  1   
 31  16  17  ar  
 32  16  33  1   
 33  17  18  1   
 34  18  19  1   
 35  18  34  1   
 36  18  35  1   
 37  19  36  1   
 38  19  37  1   
 39  19  38  1   
@<TRIPOS>SUBSTRUCTURE
  1 ****   3 GROUP 4 **** **** 0

# MOE 2024.06 (io_trps.svl 2023.06)
