@<TRIPOS>MOLECULE
NONAME
34 35 1 0 0 
SMALL
USER_CHARGES


@<TRIPOS>ATOM
  1 F       -0.5180    -0.5340     0.4250 F     1 <1>  -0.3400 
  2 C       -1.5280    -0.7220    -0.4160 C.3   1 <1>   1.1640 
  3 F       -1.5380    -2.0200    -0.6970 F     1 <1>  -0.3400 
  4 F       -1.1990    -0.1000    -1.5400 F     1 <1>  -0.3400 
  5 C       -2.8740    -0.2270     0.1400 C.ar  1 <1>  -0.1440 
  6 C       -4.0720    -0.7910    -0.2870 C.ar  1 <1>  -0.1500 
  7 C       -2.9230     0.8030     1.0730 C.ar  1 <1>  -0.1500 
  8 C       -5.3150    -0.3670     0.1900 C.ar  1 <1>   0.0540 
  9 C       -4.1370     1.2440     1.5640 C.ar  1 <1>  -0.1500 
 10 C       -6.5540    -0.9760    -0.2710 C.2   1 <1>   0.4620 
 11 C       -5.3130     0.6660     1.1280 C.ar  1 <1>  -0.1500 
 12 N       -6.6350    -1.9320    -1.1350 N.2   1 <1>  -0.4100 
 13 N       -7.7620    -0.5830     0.1770 N.2   1 <1>  -0.5650 
 14 O       -7.8870    -2.1530    -1.2430 O.3   1 <1>  -0.0190 
 15 C       -8.5700    -1.3580    -0.4680 C.2   1 <1>   0.3930 
 16 C      -10.0240    -1.4580    -0.4480 C.2   1 <1>   0.7150 
 17 O      -10.7070    -0.7330     0.2550 O.2   1 <1>  -0.5700 
 18 N      -10.6810    -2.3880    -1.2200 N.am  1 <1>  -0.7300 
 19 C      -12.1590    -2.5240    -1.3280 C.3   1 <1>   0.1400 
 20 C      -12.7260    -3.2580    -0.1120 C.3   1 <1>   0.1200 
 21 O      -14.0650    -3.5460    -0.3610 O.3   1 <1>  -0.5600 
 22 C      -14.7220    -4.1410     0.7110 C.3   1 <1>   0.0400 
 23 H       -4.0490    -1.5860    -1.0150 H     1 <1>   0.1500 
 24 H       -2.0170     1.2700     1.4260 H     1 <1>   0.1500 
 25 H       -4.1680     2.0410     2.2880 H     1 <1>   0.1500 
 26 H       -6.2490     1.0250     1.5230 H     1 <1>   0.1500 
 27 H      -10.1340    -3.0200    -1.8080 H     1 <1>   0.3700 
 28 H      -12.3990    -3.0730    -2.2220 H     1 <1>   0.0800 
 29 H      -12.6070    -1.5460    -1.3880 H     1 <1>   0.0800 
 30 H      -12.6590    -2.6330     0.7620 H     1 <1>   0.0800 
 31 H      -12.2050    -4.1860     0.0470 H     1 <1>   0.0800 
 32 H      -15.7400    -4.3270     0.4190 H     1 <1>   0.0800 
 33 H      -14.7030    -3.4720     1.5540 H     1 <1>   0.0800 
 34 H      -14.2380    -5.0710     0.9530 H     1 <1>   0.0800 
@<TRIPOS>BOND
  1   1   2  1   
  2   2   3  1   
  3   2   4  1   
  4   2   5  1   
  5   5   6  ar  
  6   5   7  ar  
  7   6   8  ar  
  8   6  23  1   
  9   7   9  ar  
 10   7  24  1   
 11   8  10  1   
 12   8  11  ar  
 13   9  11  ar  
 14   9  25  1   
 15  10  12  2   
 16  10  13  1   
 17  11  26  1   
 18  12  14  1   
 19  13  15  2   
 20  14  15  1   
 21  15  16  1   
 22  16  17  2   
 23  16  18  am  
 24  18  19  1   
 25  18  27  1   
 26  19  20  1   
 27  19  28  1   
 28  19  29  1   
 29  20  21  1   
 30  20  30  1   
 31  20  31  1   
 32  21  22  1   
 33  22  32  1   
 34  22  33  1   
 35  22  34  1   
@<TRIPOS>SUBSTRUCTURE
  1 ****  10 GROUP 4 **** **** 0

# MOE 2024.06 (io_trps.svl 2023.06)
