@<TRIPOS>MOLECULE
NONAME
50 51 1 0 0 
SMALL
USER_CHARGES


@<TRIPOS>ATOM
  1 O       -4.7670    -2.2180    -0.4040 O.3   1 <1>  -0.3630 
  2 C       -6.0690    -1.9490    -0.1220 C.ar  1 <1>   0.0830 
  3 C       -3.7980    -2.3580     0.6190 C.3   1 <1>   0.1200 
  4 C       -6.9420    -1.7920    -1.1950 C.ar  1 <1>  -0.1440 
  5 C       -6.5520    -1.8280     1.1790 C.ar  1 <1>  -0.1500 
  6 C       -2.4340    -2.6570    -0.0170 C.3   1 <1>   0.2000 
  7 C       -8.2800    -1.5180    -0.9550 C.ar  1 <1>  -0.1500 
  8 C       -6.4440    -1.9180    -2.6270 C.3   1 <1>  -0.0960 
  9 C       -7.8890    -1.5530     1.4030 C.ar  1 <1>  -0.1500 
 10 O       -2.6040    -3.7110    -0.9090 O.3   1 <1>  -0.6800 
 11 C       -1.3710    -3.0180     1.0440 C.3   1 <1>   0.1100 
 12 C       -8.7590    -1.3960     0.3380 C.ar  1 <1>  -0.1430 
 13 N        0.0410    -2.8850     0.5930 N.3   1 <1>  -0.8100 
 14 C      -10.2270    -1.0970     0.5830 C.3   1 <1>  -0.0970 
 15 C        0.3650    -3.7930    -0.5330 C.3   1 <1>   0.1100 
 16 C        0.9590    -3.0950     1.7310 C.3   1 <1>   0.1100 
 17 C        1.8410    -3.6860    -0.9620 C.3   1 <1>   0.3430 
 18 C        2.4370    -2.9650     1.3100 C.3   1 <1>   0.3430 
 19 N        2.7800    -3.9090     0.1900 N.4   1 <1>  -0.9590 
 20 C        4.1920    -3.7870    -0.2510 C.3   1 <1>   0.3430 
 21 C        5.1150    -4.3670     0.8140 C.3   1 <1>  -0.2400 
 22 H       -4.0960    -3.1680     1.2610 H     1 <1>   0.0800 
 23 H       -3.7580    -1.4390     1.1780 H     1 <1>   0.0800 
 24 H       -5.9110    -1.9430     2.0300 H     1 <1>   0.1500 
 25 H       -2.1130    -1.7910    -0.5710 H     1 <1>   0.0800 
 26 H       -8.9570    -1.3980    -1.7820 H     1 <1>   0.1500 
 27 H       -5.6530    -1.2110    -2.8010 H     1 <1>   0.0800 
 28 H       -7.2330    -1.7290    -3.3310 H     1 <1>   0.0800 
 29 H       -6.0660    -2.9110    -2.7940 H     1 <1>   0.0800 
 30 H       -8.2510    -1.4640     2.4120 H     1 <1>   0.1500 
 31 H       -3.4590    -3.5710    -1.3720 H     1 <1>   0.4000 
 32 H       -1.5580    -4.0170     1.4010 H     1 <1>   0.0800 
 33 H       -1.5090    -2.3460     1.8740 H     1 <1>   0.0800 
 34 H      -10.7890    -2.0140     0.5850 H     1 <1>   0.0800 
 35 H      -10.6120    -0.4550    -0.1890 H     1 <1>   0.0800 
 36 H      -10.3610    -0.6050     1.5300 H     1 <1>   0.0800 
 37 H       -0.2310    -3.5290    -1.3880 H     1 <1>   0.0800 
 38 H        0.1290    -4.8100    -0.2690 H     1 <1>   0.0800 
 39 H        0.7940    -4.0680     2.1630 H     1 <1>   0.0800 
 40 H        0.7540    -2.3580     2.4890 H     1 <1>   0.0800 
 41 H        2.0000    -2.7030    -1.3740 H     1 <1>   0.0800 
 42 H        2.0330    -4.4070    -1.7390 H     1 <1>   0.0800 
 43 H        3.0620    -3.1630     2.1650 H     1 <1>   0.0800 
 44 H        2.6140    -1.9490     0.9970 H     1 <1>   0.0800 
 45 H        2.6230    -4.8660     0.5290 H     1 <1>   0.4500 
 46 H        4.4380    -2.7520    -0.4340 H     1 <1>   0.0800 
 47 H        4.3340    -4.3340    -1.1700 H     1 <1>   0.0800 
 48 H        5.0790    -3.7940     1.7220 H     1 <1>   0.0800 
 49 H        6.1280    -4.3380     0.4520 H     1 <1>   0.0800 
 50 H        4.8670    -5.3930     1.0190 H     1 <1>   0.0800 
@<TRIPOS>BOND
  1   1   2  1   
  2   1   3  1   
  3   2   4  ar  
  4   2   5  ar  
  5   3   6  1   
  6   3  22  1   
  7   3  23  1   
  8   4   7  ar  
  9   4   8  1   
 10   5   9  ar  
 11   5  24  1   
 12   6  10  1   
 13   6  11  1   
 14   6  25  1   
 15   7  12  ar  
 16   7  26  1   
 17   8  27  1   
 18   8  28  1   
 19   8  29  1   
 20   9  12  ar  
 21   9  30  1   
 22  10  31  1   
 23  11  13  1   
 24  11  32  1   
 25  11  33  1   
 26  12  14  1   
 27  13  15  1   
 28  13  16  1   
 29  14  34  1   
 30  14  35  1   
 31  14  36  1   
 32  15  17  1   
 33  15  37  1   
 34  15  38  1   
 35  16  18  1   
 36  16  39  1   
 37  16  40  1   
 38  17  19  1   
 39  17  41  1   
 40  17  42  1   
 41  18  19  1   
 42  18  43  1   
 43  18  44  1   
 44  19  20  1   
 45  19  45  1   
 46  20  21  1   
 47  20  46  1   
 48  20  47  1   
 49  21  48  1   
 50  21  49  1   
 51  21  50  1   
@<TRIPOS>SUBSTRUCTURE
  1 ****   6 GROUP 4 **** **** 0

# MOE 2024.06 (io_trps.svl 2023.06)
