@<TRIPOS>MOLECULE
NONAME
35 39 1 0 0 
SMALL
USER_CHARGES


@<TRIPOS>ATOM
  1 I        0.2580     0.0420     0.8710 I     1 <1>  -0.0810 
  2 C        0.0850    -1.9750     0.1760 C.ar  1 <1>   0.0810 
  3 C       -1.1440    -2.4740    -0.2560 C.ar  1 <1>   0.1170 
  4 C        1.2410    -2.7330     0.1780 C.ar  1 <1>  -0.1500 
  5 N       -2.3260    -1.7090    -0.2580 N.am  1 <1>  -0.2370 
  6 C       -1.1750    -3.7910    -0.7000 C.ar  1 <1>  -0.1500 
  7 C        1.1800    -4.0430    -0.2670 C.ar  1 <1>  -0.1500 
  8 C       -3.2030    -1.5850     0.8060 C.2   1 <1>   0.5690 
  9 C       -2.7490    -0.8970    -1.2940 C.2   1 <1>   0.5690 
 10 C       -0.0260    -4.5670    -0.7050 C.ar  1 <1>  -0.1500 
 11 O       -3.0570    -1.9700     1.9360 O.2   1 <1>  -0.5700 
 12 C       -4.4350    -0.9020     0.2840 C.3   1 <1>  -0.0190 
 13 O       -2.3720    -0.8960    -2.4370 O.2   1 <1>  -0.5700 
 14 C       -3.7600     0.0490    -0.7150 C.3   1 <1>  -0.0190 
 15 C       -5.6290    -0.0600     0.7950 C.3   1 <1>   0.1530 
 16 C       -4.8940     1.0120    -1.1060 C.3   1 <1>   0.1530 
 17 C       -6.6550    -0.2820    -0.3110 C.2   1 <1>  -0.2880 
 18 C       -5.2600     1.3550     0.3470 C.3   1 <1>  -0.1900 
 19 C       -6.1980     0.2930    -1.4280 C.2   1 <1>  -0.2880 
 20 C       -4.5950     2.3770     1.2100 C.3   1 <1>  -0.2000 
 21 C       -6.0240     2.5710     0.7520 C.3   1 <1>  -0.2000 
 22 H        2.1720    -2.3160     0.5190 H     1 <1>   0.1500 
 23 H       -2.1020    -4.2130    -1.0450 H     1 <1>   0.1500 
 24 H        2.0670    -4.6530    -0.2750 H     1 <1>   0.1500 
 25 H       -0.0710    -5.5860    -1.0530 H     1 <1>   0.1500 
 26 H       -4.8860    -1.7210    -0.2560 H     1 <1>   0.0800 
 27 H       -3.0840     0.7010    -0.1810 H     1 <1>   0.0800 
 28 H       -5.9690    -0.1950     1.8080 H     1 <1>   0.0800 
 29 H       -4.6380     1.8660    -1.7100 H     1 <1>   0.0800 
 30 H       -7.5460    -0.8580    -0.1240 H     1 <1>   0.1500 
 31 H       -6.6020     0.3210    -2.4260 H     1 <1>   0.1500 
 32 H       -3.8400     3.0200     0.7920 H     1 <1>   0.1000 
 33 H       -4.4180     2.1530     2.2480 H     1 <1>   0.1000 
 34 H       -6.8200     2.4670     1.4690 H     1 <1>   0.1000 
 35 H       -6.2350     3.3210     0.0090 H     1 <1>   0.1000 
@<TRIPOS>BOND
  1   1   2  1   
  2   2   3  ar  
  3   2   4  ar  
  4   3   5  1   
  5   3   6  ar  
  6   4   7  ar  
  7   4  22  1   
  8   5   8  am  
  9   5   9  am  
 10   6  10  ar  
 11   6  23  1   
 12   7  10  ar  
 13   7  24  1   
 14   8  11  2   
 15   8  12  1   
 16   9  13  2   
 17   9  14  1   
 18  10  25  1   
 19  12  14  1   
 20  12  15  1   
 21  12  26  1   
 22  14  16  1   
 23  14  27  1   
 24  15  17  1   
 25  15  18  1   
 26  15  28  1   
 27  16  18  1   
 28  16  19  1   
 29  16  29  1   
 30  17  19  2   
 31  17  30  1   
 32  18  20  1   
 33  18  21  1   
 34  19  31  1   
 35  20  21  1   
 36  20  32  1   
 37  20  33  1   
 38  21  34  1   
 39  21  35  1   
@<TRIPOS>SUBSTRUCTURE
  1 ****   5 GROUP 4 **** **** 0

# MOE 2024.06 (io_trps.svl 2023.06)
