@<TRIPOS>MOLECULE
NONAME
56 58 1 0 0 
SMALL
USER_CHARGES


@<TRIPOS>ATOM
  1 O        0.6450    -1.1110    -1.6740 O.2   1 <1>  -0.5700 
  2 C        0.2030    -1.7560    -0.7440 C.2   1 <1>   0.5440 
  3 N        1.0200    -2.0500     0.3250 N.am  1 <1>  -0.5470 
  4 C       -1.1600    -2.2480    -0.7640 C.ar  1 <1>   0.0860 
  5 C        2.3050    -1.5790     0.6190 C.ar  1 <1>   0.1170 
  6 C       -1.7830    -2.5840    -1.9670 C.ar  1 <1>  -0.1500 
  7 C       -1.9070    -2.4070     0.4070 C.ar  1 <1>  -0.1500 
  8 C        2.7090    -0.2890     0.2950 C.ar  1 <1>  -0.1500 
  9 C        3.2100    -2.4100     1.2670 C.ar  1 <1>  -0.1500 
 10 C       -3.0760    -3.0710    -1.9990 C.ar  1 <1>  -0.1500 
 11 C       -3.2020    -2.8940     0.3820 C.ar  1 <1>  -0.1500 
 12 C        3.9840     0.1550     0.5920 C.ar  1 <1>  -0.1500 
 13 C        4.4890    -1.9740     1.5650 C.ar  1 <1>  -0.1500 
 14 C       -3.7980    -3.2350    -0.8290 C.ar  1 <1>   0.0830 
 15 C        4.8880    -0.6900     1.2190 C.ar  1 <1>  -0.1430 
 16 O       -5.0540    -3.7210    -0.9540 O.3   1 <1>  -0.3630 
 17 C        6.3000    -0.2180     1.5070 C.3   1 <1>   0.4870 
 18 C       -5.9410    -3.9070     0.1290 C.3   1 <1>   0.2000 
 19 N        7.0370    -0.1370     0.2170 N.4   1 <1>  -0.9590 
 20 C       -6.9770    -4.9470    -0.3210 C.3   1 <1>  -0.1600 
 21 C       -6.5720    -2.5530     0.4730 C.3   1 <1>  -0.2400 
 22 C        7.1590    -1.4860    -0.4420 C.3   1 <1>   0.3430 
 23 C        8.3850     0.5080     0.3760 C.3   1 <1>   0.3430 
 24 C       -7.9340    -5.3790     0.8010 C.3   1 <1>  -0.2400 
 25 C        8.0200    -1.4160    -1.7180 C.3   1 <1>   0.1200 
 26 C        9.1800     0.4830    -0.9430 C.3   1 <1>   0.1200 
 27 O        9.2550    -0.8220    -1.4380 O.3   1 <1>  -0.5600 
 28 H        0.6710    -2.7870     0.9350 H     1 <1>   0.3700 
 29 H       -1.2390    -2.4590    -2.8880 H     1 <1>   0.1500 
 30 H       -1.4750    -2.1360     1.3540 H     1 <1>   0.1500 
 31 H        2.0140     0.3730    -0.1940 H     1 <1>   0.1500 
 32 H        2.9120    -3.4080     1.5350 H     1 <1>   0.1500 
 33 H       -3.5380    -3.3270    -2.9360 H     1 <1>   0.1500 
 34 H       -3.7320    -2.9970     1.3090 H     1 <1>   0.1500 
 35 H        4.2500     1.1630     0.3260 H     1 <1>   0.1500 
 36 H        5.1630    -2.6480     2.0660 H     1 <1>   0.1500 
 37 H        6.7910    -0.9040     2.1780 H     1 <1>   0.0800 
 38 H        6.2600     0.7520     1.9760 H     1 <1>   0.0800 
 39 H       -5.3880    -4.3060     0.9610 H     1 <1>   0.0800 
 40 H        6.4670     0.4420    -0.4110 H     1 <1>   0.4500 
 41 H       -6.4510    -5.8190    -0.6700 H     1 <1>   0.0800 
 42 H       -7.5480    -4.5510    -1.1420 H     1 <1>   0.0800 
 43 H       -7.1580    -2.1970    -0.3550 H     1 <1>   0.0800 
 44 H       -5.8140    -1.8270     0.7020 H     1 <1>   0.0800 
 45 H       -7.2120    -2.6460     1.3310 H     1 <1>   0.0800 
 46 H        6.1810    -1.8640    -0.6940 H     1 <1>   0.0800 
 47 H        7.6190    -2.1850     0.2370 H     1 <1>   0.0800 
 48 H        8.9570    -0.0200     1.1220 H     1 <1>   0.0800 
 49 H        8.2720     1.5280     0.7040 H     1 <1>   0.0800 
 50 H       -7.3820    -5.7510     1.6460 H     1 <1>   0.0800 
 51 H       -8.5790    -6.1630     0.4450 H     1 <1>   0.0800 
 52 H       -8.5500    -4.5580     1.1190 H     1 <1>   0.0800 
 53 H        7.5270    -0.8500    -2.4900 H     1 <1>   0.0800 
 54 H        8.2110    -2.4080    -2.0910 H     1 <1>   0.0800 
 55 H       10.1870     0.8270    -0.7770 H     1 <1>   0.0800 
 56 H        8.7230     1.1120    -1.6880 H     1 <1>   0.0800 
@<TRIPOS>BOND
  1   1   2  2   
  2   2   3  am  
  3   2   4  1   
  4   3   5  1   
  5   3  28  1   
  6   4   6  ar  
  7   4   7  ar  
  8   5   8  ar  
  9   5   9  ar  
 10   6  10  ar  
 11   6  29  1   
 12   7  11  ar  
 13   7  30  1   
 14   8  12  ar  
 15   8  31  1   
 16   9  13  ar  
 17   9  32  1   
 18  10  14  ar  
 19  10  33  1   
 20  11  14  ar  
 21  11  34  1   
 22  12  15  ar  
 23  12  35  1   
 24  13  15  ar  
 25  13  36  1   
 26  14  16  1   
 27  15  17  1   
 28  16  18  1   
 29  17  19  1   
 30  17  37  1   
 31  17  38  1   
 32  18  20  1   
 33  18  21  1   
 34  18  39  1   
 35  19  22  1   
 36  19  23  1   
 37  19  40  1   
 38  20  24  1   
 39  20  41  1   
 40  20  42  1   
 41  21  43  1   
 42  21  44  1   
 43  21  45  1   
 44  22  25  1   
 45  22  46  1   
 46  22  47  1   
 47  23  26  1   
 48  23  48  1   
 49  23  49  1   
 50  24  50  1   
 51  24  51  1   
 52  24  52  1   
 53  25  27  1   
 54  25  53  1   
 55  25  54  1   
 56  26  27  1   
 57  26  55  1   
 58  26  56  1   
@<TRIPOS>SUBSTRUCTURE
  1 ****   3 GROUP 4 **** **** 0

# MOE 2024.06 (io_trps.svl 2023.06)
