@<TRIPOS>MOLECULE
NONAME
27 26 1 0 0 
SMALL
USER_CHARGES


@<TRIPOS>ATOM
  1 S       -1.1200     1.2850     1.1590 S.o2  1 <1>   1.5680 
  2 S       -1.9900    -0.2460     0.0350 S.3   1 <1>  -0.3480 
  3 O       -2.2900     1.8670     1.8640 O.co2 1 <1>  -0.8170 
  4 O       -0.5550     2.1680     0.1110 O.co2 1 <1>  -0.8170 
  5 O       -0.1360     0.5890     2.0240 O.co2 1 <1>  -0.8170 
  6 C       -3.1670     0.6620    -0.9890 C.3   1 <1>   0.0700 
  7 C       -4.4450     0.8850    -0.1770 C.3   1 <1>  -0.0550 
  8 S       -5.3260     2.3720    -0.6390 S.o2  1 <1>   1.0900 
  9 O       -5.2320     2.5180    -2.0750 O.2   1 <1>  -0.6500 
 10 O       -6.6440     2.2540    -0.0560 O.2   1 <1>  -0.6500 
 11 C       -4.5030     3.7270     0.2210 C.3   1 <1>  -0.0550 
 12 C       -3.2990     4.3990    -0.4740 C.3   1 <1>  -0.0800 
 13 C       -2.4880     5.1940     0.5560 C.3   1 <1>  -0.2400 
 14 C       -3.7380     5.3470    -1.5990 C.3   1 <1>  -0.2400 
 15 H       -3.3590     0.0770    -1.8700 H     1 <1>   0.0800 
 16 H       -2.6820     1.5780    -1.2670 H     1 <1>   0.0800 
 17 H       -4.2310     0.9170     0.8720 H     1 <1>   0.0800 
 18 H       -5.0820     0.0380    -0.3380 H     1 <1>   0.0800 
 19 H       -4.1840     3.3660     1.1800 H     1 <1>   0.0800 
 20 H       -5.2280     4.4920     0.4170 H     1 <1>   0.0800 
 21 H       -2.6460     3.6490    -0.8830 H     1 <1>   0.0800 
 22 H       -3.0850     5.9660     1.0090 H     1 <1>   0.0800 
 23 H       -1.6300     5.6440     0.0880 H     1 <1>   0.0800 
 24 H       -2.1280     4.5360     1.3290 H     1 <1>   0.0800 
 25 H       -4.3860     6.1170    -1.2180 H     1 <1>   0.0800 
 26 H       -4.2590     4.8140    -2.3730 H     1 <1>   0.0800 
 27 H       -2.8770     5.8130    -2.0440 H     1 <1>   0.0800 
@<TRIPOS>BOND
  1   1   2  1   
  2   1   3  ar  
  3   1   4  ar  
  4   1   5  ar  
  5   2   6  1   
  6   6   7  1   
  7   6  15  1   
  8   6  16  1   
  9   7   8  1   
 10   7  17  1   
 11   7  18  1   
 12   8   9  2   
 13   8  10  2   
 14   8  11  1   
 15  11  12  1   
 16  11  19  1   
 17  11  20  1   
 18  12  13  1   
 19  12  14  1   
 20  12  21  1   
 21  13  22  1   
 22  13  23  1   
 23  13  24  1   
 24  14  25  1   
 25  14  26  1   
 26  14  27  1   
@<TRIPOS>SUBSTRUCTURE
  1 ****  11 GROUP 4 **** **** 0

# MOE 2024.06 (io_trps.svl 2023.06)
