@<TRIPOS>MOLECULE
NONAME
43 44 1 0 0 
SMALL
USER_CHARGES


@<TRIPOS>ATOM
  1 S       -0.0660     0.1650    -0.5820 S.o2  1 <1>   1.4470 
  2 O       -0.2030     0.0520    -2.0180 O.2   1 <1>  -0.6500 
  3 O        0.1980    -1.0200     0.2040 O.2   1 <1>  -0.6500 
  4 N       -1.5150     0.8300    -0.0060 N.am  1 <1>  -0.8490 
  5 C        1.1590     1.4380    -0.1700 C.ar  1 <1>  -0.0090 
  6 C       -2.0180     1.9140    -0.8490 C.3   1 <1>   0.1960 
  7 C       -2.5340    -0.2080     0.2030 C.3   1 <1>   0.1960 
  8 C        1.1980     2.0030     1.1000 C.ar  1 <1>  -0.1500 
  9 C        2.0900     1.8780    -1.1070 C.ar  1 <1>  -0.1500 
 10 C       -3.1040     2.6970    -0.0960 C.3   1 <1>  -0.1600 
 11 C       -3.9300     0.3810     0.4720 C.3   1 <1>  -0.1600 
 12 C        2.1350     2.9730     1.3940 C.ar  1 <1>   0.1900 
 13 C        3.0300     2.8530    -0.8060 C.ar  1 <1>  -0.1500 
 14 C       -3.8610     1.8430     0.9460 C.3   1 <1>  -0.0190 
 15 F        2.1290     3.4780     2.6020 F     1 <1>  -0.1900 
 16 C        3.0650     3.4220     0.4640 C.ar  1 <1>   0.0830 
 17 C       -5.2350     2.4170     1.2720 C.2   1 <1>   0.6590 
 18 O        3.9550     4.3830     0.8310 O.3   1 <1>  -0.3630 
 19 O       -5.4970     2.8450     2.3650 O.2   1 <1>  -0.5700 
 20 O       -6.1220     2.4150     0.2830 O.3   1 <1>  -0.4300 
 21 C        4.9420     4.8580    -0.0580 C.3   1 <1>   0.0400 
 22 C       -7.4250     2.9150     0.4660 C.3   1 <1>   0.1200 
 23 C       -8.1780     2.7640    -0.8520 C.3   1 <1>  -0.2400 
 24 H       -2.4230     1.5000    -1.7590 H     1 <1>   0.0800 
 25 H       -1.2200     2.5870    -1.1160 H     1 <1>   0.0800 
 26 H       -2.2370    -0.8080     1.0480 H     1 <1>   0.0800 
 27 H       -2.5830    -0.8570    -0.6580 H     1 <1>   0.0800 
 28 H        0.5000     1.6880     1.8560 H     1 <1>   0.1500 
 29 H        2.0780     1.4480    -2.0960 H     1 <1>   0.1500 
 30 H       -3.7890     3.0930    -0.8250 H     1 <1>   0.0800 
 31 H       -2.6530     3.5360     0.4040 H     1 <1>   0.0800 
 32 H       -4.4330    -0.2240     1.2060 H     1 <1>   0.0800 
 33 H       -4.5080     0.3270    -0.4340 H     1 <1>   0.0800 
 34 H        3.7230     3.1530    -1.5700 H     1 <1>   0.1500 
 35 H       -3.2890     1.8570     1.8590 H     1 <1>   0.0800 
 36 H        5.5260     5.5980     0.4590 H     1 <1>   0.0800 
 37 H        4.4600     5.3040    -0.9100 H     1 <1>   0.0800 
 38 H        5.5710     4.0380    -0.3530 H     1 <1>   0.0800 
 39 H       -7.3560     3.9500     0.7570 H     1 <1>   0.0800 
 40 H       -7.9010     2.3510     1.2510 H     1 <1>   0.0800 
 41 H       -7.6870     3.3260    -1.6270 H     1 <1>   0.0800 
 42 H       -9.1790     3.1370    -0.7410 H     1 <1>   0.0800 
 43 H       -8.2280     1.7270    -1.1340 H     1 <1>   0.0800 
@<TRIPOS>BOND
  1   1   2  2   
  2   1   3  2   
  3   1   4  am  
  4   1   5  1   
  5   4   6  1   
  6   4   7  1   
  7   5   8  ar  
  8   5   9  ar  
  9   6  10  1   
 10   6  24  1   
 11   6  25  1   
 12   7  11  1   
 13   7  26  1   
 14   7  27  1   
 15   8  12  ar  
 16   8  28  1   
 17   9  13  ar  
 18   9  29  1   
 19  10  14  1   
 20  10  30  1   
 21  10  31  1   
 22  11  14  1   
 23  11  32  1   
 24  11  33  1   
 25  12  15  1   
 26  12  16  ar  
 27  13  16  ar  
 28  13  34  1   
 29  14  17  1   
 30  14  35  1   
 31  16  18  1   
 32  17  19  2   
 33  17  20  1   
 34  18  21  1   
 35  20  22  1   
 36  21  36  1   
 37  21  37  1   
 38  21  38  1   
 39  22  23  1   
 40  22  39  1   
 41  22  40  1   
 42  23  41  1   
 43  23  42  1   
 44  23  43  1   
@<TRIPOS>SUBSTRUCTURE
  1 ****   4 GROUP 4 **** **** 0

# MOE 2024.06 (io_trps.svl 2023.06)
