@<TRIPOS>MOLECULE
NONAME
45 47 1 0 0 
SMALL
USER_CHARGES


@<TRIPOS>ATOM
  1 O       -3.1510     1.2220    -0.7160 O.3   1 <1>  -0.5600 
  2 C       -3.0410    -0.1760    -0.6620 C.3   1 <1>   0.1200 
  3 C       -3.6670     1.8020     0.4520 C.3   1 <1>   0.1200 
  4 C       -4.4010    -0.8360    -0.3320 C.3   1 <1>   0.3430 
  5 C       -5.0840     1.2630     0.7620 C.3   1 <1>   0.3430 
  6 N       -5.4930     0.1880    -0.2090 N.4   1 <1>  -0.9590 
  7 C       -6.8190    -0.4260     0.0760 C.3   1 <1>   0.3430 
  8 C       -7.9440     0.5820    -0.1700 C.3   1 <1>  -0.1600 
  9 C       -9.3150    -0.0850     0.0190 C.3   1 <1>  -0.1600 
 10 C      -10.4650     0.8930    -0.2340 C.3   1 <1>   0.1200 
 11 O      -11.6690     0.1960    -0.0300 O.3   1 <1>  -0.3630 
 12 C      -12.8840     0.7860    -0.1780 C.ar  1 <1>   0.0820 
 13 C      -14.0250    -0.0260     0.0580 C.ar  1 <1>   0.0000 
 14 C      -13.0300     2.1070    -0.5390 C.ar  1 <1>  -0.1500 
 15 C      -15.3080     0.5490    -0.0850 C.ar  1 <1>   0.0000 
 16 C      -13.9480    -1.3870     0.4310 C.ar  1 <1>  -0.1500 
 17 C      -14.3030     2.6670    -0.6780 C.ar  1 <1>  -0.1500 
 18 C      -15.4140     1.9030    -0.4550 C.ar  1 <1>  -0.1500 
 19 C      -16.4470    -0.2490     0.1480 C.ar  1 <1>  -0.1500 
 20 C      -15.0690    -2.1390     0.6500 C.ar  1 <1>  -0.1500 
 21 C      -16.3350    -1.5630     0.5070 C.ar  1 <1>  -0.1500 
 22 H       -2.3010    -0.4360     0.0750 H     1 <1>   0.0800 
 23 H       -2.6890    -0.5120    -1.6230 H     1 <1>   0.0800 
 24 H       -3.6990     2.8670     0.3040 H     1 <1>   0.0800 
 25 H       -2.9930     1.5960     1.2660 H     1 <1>   0.0800 
 26 H       -4.3060    -1.3860     0.5900 H     1 <1>   0.0800 
 27 H       -4.6420    -1.5450    -1.1080 H     1 <1>   0.0800 
 28 H       -5.7820     2.0830     0.7200 H     1 <1>   0.0800 
 29 H       -5.0980     0.8780     1.7680 H     1 <1>   0.0800 
 30 H       -5.5200     0.6530    -1.1290 H     1 <1>   0.4500 
 31 H       -6.8550    -0.7760     1.0950 H     1 <1>   0.0800 
 32 H       -6.9680    -1.2740    -0.5750 H     1 <1>   0.0800 
 33 H       -7.8770     0.9600    -1.1760 H     1 <1>   0.0800 
 34 H       -7.8640     1.4040     0.5190 H     1 <1>   0.0800 
 35 H       -9.4020    -0.4600     1.0250 H     1 <1>   0.0800 
 36 H       -9.4160    -0.9110    -0.6650 H     1 <1>   0.0800 
 37 H      -10.4510     1.2530    -1.2480 H     1 <1>   0.0800 
 38 H      -10.4320     1.7170     0.4580 H     1 <1>   0.0800 
 39 H      -12.1900     2.7470    -0.7250 H     1 <1>   0.1500 
 40 H      -12.9770    -1.8330     0.5420 H     1 <1>   0.1500 
 41 H      -14.3940     3.7010    -0.9610 H     1 <1>   0.1500 
 42 H      -16.3950     2.3300    -0.5610 H     1 <1>   0.1500 
 43 H      -17.4180     0.2000     0.0360 H     1 <1>   0.1500 
 44 H      -14.9940    -3.1740     0.9340 H     1 <1>   0.1500 
 45 H      -17.2080    -2.1670     0.6830 H     1 <1>   0.1500 
@<TRIPOS>BOND
  1   1   2  1   
  2   1   3  1   
  3   2   4  1   
  4   2  22  1   
  5   2  23  1   
  6   3   5  1   
  7   3  24  1   
  8   3  25  1   
  9   4   6  1   
 10   4  26  1   
 11   4  27  1   
 12   5   6  1   
 13   5  28  1   
 14   5  29  1   
 15   6   7  1   
 16   6  30  1   
 17   7   8  1   
 18   7  31  1   
 19   7  32  1   
 20   8   9  1   
 21   8  33  1   
 22   8  34  1   
 23   9  10  1   
 24   9  35  1   
 25   9  36  1   
 26  10  11  1   
 27  10  37  1   
 28  10  38  1   
 29  11  12  1   
 30  12  13  ar  
 31  12  14  ar  
 32  13  15  ar  
 33  13  16  ar  
 34  14  17  ar  
 35  14  39  1   
 36  15  18  ar  
 37  15  19  ar  
 38  16  20  ar  
 39  16  40  1   
 40  17  18  ar  
 41  17  41  1   
 42  18  42  1   
 43  19  21  ar  
 44  19  43  1   
 45  20  21  ar  
 46  20  44  1   
 47  21  45  1   
@<TRIPOS>SUBSTRUCTURE
  1 ****  10 GROUP 4 **** **** 0

# MOE 2024.06 (io_trps.svl 2023.06)
