@<TRIPOS>MOLECULE
NONAME
26 26 1 0 0 
SMALL
USER_CHARGES


@<TRIPOS>ATOM
  1 S        0.1330     0.0320    -1.0020 S.o2  1 <1>   1.3330 
  2 O       -0.4620     1.3360    -1.1550 O.2   1 <1>  -0.6500 
  3 O        1.1370    -0.4480    -1.9170 O.2   1 <1>  -0.6500 
  4 N       -1.1160    -1.1380    -1.1260 N.am  1 <1>  -0.7570 
  5 C        0.7110    -0.2050     0.6850 C.3   1 <1>  -0.0550 
  6 C       -2.3980    -1.1470    -0.5930 C.ar  1 <1>   0.1990 
  7 C        1.8870     0.7020     1.0860 C.3   1 <1>  -0.2400 
  8 C       -2.9180    -0.1040     0.1680 C.ar  1 <1>  -0.1500 
  9 C       -3.2070    -2.2520    -0.8220 C.ar  1 <1>  -0.1500 
 10 C       -4.1980    -0.1700     0.6880 C.ar  1 <1>  -0.1500 
 11 C       -4.4880    -2.3230    -0.3040 C.ar  1 <1>  -0.1500 
 12 C       -5.0030    -1.2830     0.4640 C.ar  1 <1>  -0.1440 
 13 C       -6.4290    -1.3560     1.0370 C.3   1 <1>   1.1630 
 14 F       -6.8090    -2.5990     1.3090 F     1 <1>  -0.3400 
 15 F       -6.5660    -0.6720     2.1670 F     1 <1>  -0.3400 
 16 F       -7.3280    -0.8670     0.1940 F     1 <1>  -0.3400 
 17 H       -0.8690    -1.8280    -1.8290 H     1 <1>   0.4200 
 18 H        1.0110    -1.2270     0.8080 H     1 <1>   0.0800 
 19 H       -0.1040    -0.0240     1.3600 H     1 <1>   0.0800 
 20 H        2.7310     0.5200     0.4420 H     1 <1>   0.0800 
 21 H        2.1790     0.5070     2.1030 H     1 <1>   0.0800 
 22 H        1.6050     1.7370     0.9980 H     1 <1>   0.0800 
 23 H       -2.3320     0.7760     0.3560 H     1 <1>   0.1500 
 24 H       -2.8300    -3.0690    -1.4100 H     1 <1>   0.1500 
 25 H       -4.5660     0.6600     1.2690 H     1 <1>   0.1500 
 26 H       -5.0850    -3.1980    -0.5050 H     1 <1>   0.1500 
@<TRIPOS>BOND
  1   1   2  2   
  2   1   3  2   
  3   1   4  am  
  4   1   5  1   
  5   4   6  1   
  6   4  17  1   
  7   5   7  1   
  8   5  18  1   
  9   5  19  1   
 10   6   8  ar  
 11   6   9  ar  
 12   7  20  1   
 13   7  21  1   
 14   7  22  1   
 15   8  10  ar  
 16   8  23  1   
 17   9  11  ar  
 18   9  24  1   
 19  10  12  ar  
 20  10  25  1   
 21  11  12  ar  
 22  11  26  1   
 23  12  13  1   
 24  13  14  1   
 25  13  15  1   
 26  13  16  1   
@<TRIPOS>SUBSTRUCTURE
  1 ****   8 GROUP 4 **** **** 0

# MOE 2024.06 (io_trps.svl 2023.06)
