@<TRIPOS>MOLECULE
NONAME
39 39 1 0 0 
SMALL
USER_CHARGES


@<TRIPOS>ATOM
  1 S       -0.0200    -0.5600     0.2030 S.o2  1 <1>   1.4470 
  2 O        0.0470    -1.6360    -0.7590 O.2   1 <1>  -0.6500 
  3 O        0.1780    -0.8300     1.6080 O.2   1 <1>  -0.6500 
  4 N        1.1990     0.5350    -0.1520 N.am  1 <1>  -0.9140 
  5 C       -1.5330     0.4090    -0.0470 C.ar  1 <1>  -0.0090 
  6 C        2.4600    -0.0870    -0.4780 C.3   1 <1>   0.2760 
  7 C       -1.7550     1.0910    -1.2380 C.ar  1 <1>  -0.1500 
  8 C       -2.5110     0.4900     0.9390 C.ar  1 <1>  -0.1500 
  9 C        3.5640     0.7340     0.2020 C.3   1 <1>  -0.1600 
 10 C        2.5950    -0.0930    -2.0010 C.3   1 <1>  -0.2400 
 11 C       -2.9070     1.8310    -1.4360 C.ar  1 <1>  -0.1500 
 12 C       -3.6680     1.2270     0.7500 C.ar  1 <1>  -0.1500 
 13 C        4.9650     0.1210     0.0420 C.3   1 <1>  -0.1600 
 14 C       -3.8720     1.9060    -0.4460 C.ar  1 <1>   0.0830 
 15 C        6.0050     0.9140     0.8390 C.3   1 <1>  -0.2400 
 16 O       -4.9710     2.6500    -0.7180 O.3   1 <1>  -0.3620 
 17 C       -6.0190     2.7840     0.2140 C.3   1 <1>   0.1200 
 18 C       -7.0910     3.6750    -0.4060 C.3   1 <1>  -0.2400 
 19 H        1.3410     0.9950     0.7430 H     1 <1>   0.4200 
 20 H        2.4940    -1.0980    -0.0990 H     1 <1>   0.0800 
 21 H       -1.0130     1.0420    -2.0180 H     1 <1>   0.1500 
 22 H       -2.3640    -0.0330     1.8700 H     1 <1>   0.1500 
 23 H        3.3470     0.7920     1.2550 H     1 <1>   0.0800 
 24 H        3.5670     1.7330    -0.1990 H     1 <1>   0.0800 
 25 H        2.6200     0.9130    -2.3810 H     1 <1>   0.0800 
 26 H        1.7710    -0.6170    -2.4480 H     1 <1>   0.0800 
 27 H        3.4970    -0.5960    -2.2960 H     1 <1>   0.0800 
 28 H       -3.0670     2.3550    -2.3620 H     1 <1>   0.1500 
 29 H       -4.3940     1.2590     1.5410 H     1 <1>   0.1500 
 30 H        5.2540     0.1190    -0.9940 H     1 <1>   0.0800 
 31 H        4.9580    -0.8980     0.3900 H     1 <1>   0.0800 
 32 H        6.0440     1.9340     0.4980 H     1 <1>   0.0800 
 33 H        6.9790     0.4750     0.7120 H     1 <1>   0.0800 
 34 H        5.7640     0.9080     1.8880 H     1 <1>   0.0800 
 35 H       -5.6230     3.2320     1.1100 H     1 <1>   0.0800 
 36 H       -6.4130     1.8050     0.4270 H     1 <1>   0.0800 
 37 H       -6.6830     4.6440    -0.6290 H     1 <1>   0.0800 
 38 H       -7.9070     3.7960     0.2830 H     1 <1>   0.0800 
 39 H       -7.4680     3.2270    -1.3080 H     1 <1>   0.0800 
@<TRIPOS>BOND
  1   1   2  2   
  2   1   3  2   
  3   1   4  am  
  4   1   5  1   
  5   4   6  1   
  6   4  19  1   
  7   5   7  ar  
  8   5   8  ar  
  9   6   9  1   
 10   6  10  1   
 11   6  20  1   
 12   7  11  ar  
 13   7  21  1   
 14   8  12  ar  
 15   8  22  1   
 16   9  13  1   
 17   9  23  1   
 18   9  24  1   
 19  10  25  1   
 20  10  26  1   
 21  10  27  1   
 22  11  14  ar  
 23  11  28  1   
 24  12  14  ar  
 25  12  29  1   
 26  13  15  1   
 27  13  30  1   
 28  13  31  1   
 29  14  16  1   
 30  15  32  1   
 31  15  33  1   
 32  15  34  1   
 33  16  17  1   
 34  17  18  1   
 35  17  35  1   
 36  17  36  1   
 37  18  37  1   
 38  18  38  1   
 39  18  39  1   
@<TRIPOS>SUBSTRUCTURE
  1 ****   5 GROUP 4 **** **** 0

# MOE 2024.06 (io_trps.svl 2023.06)
