@<TRIPOS>MOLECULE
NONAME
45 46 1 0 0 
SMALL
USER_CHARGES


@<TRIPOS>ATOM
  1 O       -0.8150     0.7390     1.5120 O.2   1 <1>  -0.5700 
  2 C       -0.4960     1.6410     0.7790 C.2   1 <1>   0.5690 
  3 N       -1.2320     2.0530    -0.2860 N.am  1 <1>  -0.7300 
  4 C        0.7980     2.3780     1.0610 C.3   1 <1>  -0.0990 
  5 C       -2.5620     1.6090    -0.7580 C.3   1 <1>   0.3640 
  6 C        1.9200     1.9630     0.0930 C.3   1 <1>  -0.1600 
  7 C       -3.6380     2.4870    -0.1290 C.ar  1 <1>  -0.1440 
  8 C       -2.8270     0.1200    -0.5360 C.3   1 <1>  -0.2400 
  9 C        3.2200     2.7470     0.3320 C.3   1 <1>  -0.0800 
 10 C       -4.4610     3.2610    -0.9340 C.ar  1 <1>  -0.1500 
 11 C       -3.8130     2.5310     1.2470 C.ar  1 <1>  -0.1500 
 12 C        4.3220     2.3620    -0.6500 C.3   1 <1>  -0.1600 
 13 C        3.8590     2.4990     1.6980 C.3   1 <1>  -0.1600 
 14 C       -5.4430     4.0690    -0.3840 C.ar  1 <1>   0.0820 
 15 C       -4.7920     3.3340     1.8070 C.ar  1 <1>  -0.1500 
 16 C        5.6150     2.8330     0.0140 C.3   1 <1>  -0.1600 
 17 C        5.3410     2.8420     1.5220 C.3   1 <1>  -0.1600 
 18 O       -6.1950     4.7900    -1.2530 O.3   1 <1>  -0.3630 
 19 C       -5.6070     4.1040     0.9970 C.ar  1 <1>  -0.1500 
 20 C       -7.2300     5.6340    -0.7990 C.3   1 <1>   0.0400 
 21 H       -0.9220     2.9000    -0.7590 H     1 <1>   0.3700 
 22 H        1.0910     2.1620     2.0730 H     1 <1>   0.0800 
 23 H        0.6180     3.4340     0.9890 H     1 <1>   0.0800 
 24 H       -2.5800     1.7680    -1.8220 H     1 <1>   0.0800 
 25 H        1.5940     2.1310    -0.9180 H     1 <1>   0.0800 
 26 H        2.1060     0.9080     0.2040 H     1 <1>   0.0800 
 27 H       -2.9510    -0.1010     0.5080 H     1 <1>   0.0800 
 28 H       -2.0160    -0.4640    -0.9310 H     1 <1>   0.0800 
 29 H       -3.7330    -0.1600    -1.0410 H     1 <1>   0.0800 
 30 H        3.0310     3.8040     0.2280 H     1 <1>   0.0800 
 31 H       -4.3540     3.2500    -2.0040 H     1 <1>   0.1500 
 32 H       -3.1830     1.9360     1.8880 H     1 <1>   0.1500 
 33 H        4.1790     2.8120    -1.6170 H     1 <1>   0.0800 
 34 H        4.3540     1.2910    -0.7600 H     1 <1>   0.0800 
 35 H        3.7690     1.4570     1.9570 H     1 <1>   0.0800 
 36 H        3.4030     3.0930     2.4700 H     1 <1>   0.0800 
 37 H       -4.9150     3.3560     2.8760 H     1 <1>   0.1500 
 38 H        5.8440     3.8340    -0.3130 H     1 <1>   0.0800 
 39 H        6.4390     2.1880    -0.2370 H     1 <1>   0.0800 
 40 H        5.9570     2.1210     2.0330 H     1 <1>   0.0800 
 41 H        5.5460     3.8200     1.9230 H     1 <1>   0.0800 
 42 H       -6.3580     4.7170     1.4570 H     1 <1>   0.1500 
 43 H       -7.6860     6.0940    -1.6570 H     1 <1>   0.0800 
 44 H       -6.8080     6.3890    -0.1600 H     1 <1>   0.0800 
 45 H       -7.9560     5.0420    -0.2710 H     1 <1>   0.0800 
@<TRIPOS>BOND
  1   1   2  2   
  2   2   3  am  
  3   2   4  1   
  4   3   5  1   
  5   3  21  1   
  6   4   6  1   
  7   4  22  1   
  8   4  23  1   
  9   5   7  1   
 10   5   8  1   
 11   5  24  1   
 12   6   9  1   
 13   6  25  1   
 14   6  26  1   
 15   7  10  ar  
 16   7  11  ar  
 17   8  27  1   
 18   8  28  1   
 19   8  29  1   
 20   9  12  1   
 21   9  13  1   
 22   9  30  1   
 23  10  14  ar  
 24  10  31  1   
 25  11  15  ar  
 26  11  32  1   
 27  12  16  1   
 28  12  33  1   
 29  12  34  1   
 30  13  17  1   
 31  13  35  1   
 32  13  36  1   
 33  14  18  1   
 34  14  19  ar  
 35  15  19  ar  
 36  15  37  1   
 37  16  17  1   
 38  16  38  1   
 39  16  39  1   
 40  17  40  1   
 41  17  41  1   
 42  18  20  1   
 43  19  42  1   
 44  20  43  1   
 45  20  44  1   
 46  20  45  1   
@<TRIPOS>SUBSTRUCTURE
  1 ****   3 GROUP 4 **** **** 0

# MOE 2024.06 (io_trps.svl 2023.06)
