@<TRIPOS>MOLECULE
NONAME
41 44 1 0 0 
SMALL
USER_CHARGES


@<TRIPOS>ATOM
  1 O        0.1690     0.2580    -0.1890 O.2   1 <1>  -0.5700 
  2 C        0.3490     1.4210     0.0640 C.2   1 <1>   0.5690 
  3 N        1.5620     2.0910     0.0780 N.am  1 <1>  -0.2370 
  4 C       -0.7170     2.4070     0.4830 C.3   1 <1>  -0.0190 
  5 C        2.8480     1.5020     0.0580 C.ar  1 <1>   0.1170 
  6 C        1.3100     3.4480     0.1520 C.2   1 <1>   0.5690 
  7 C       -2.2600     2.6680     0.5250 C.3   1 <1>   0.4180 
  8 C       -0.1370     3.6520    -0.1710 C.3   1 <1>  -0.0190 
  9 C        3.8890     2.1060    -0.6360 C.ar  1 <1>  -0.1500 
 10 C        3.1080     0.3180     0.7390 C.ar  1 <1>  -0.1500 
 11 O        2.0890     4.3360     0.3850 O.2   1 <1>  -0.5700 
 12 O       -1.9560     3.9200     1.1270 O.3   1 <1>  -0.5600 
 13 C       -2.8340     3.4360    -0.6970 C.2   1 <1>  -0.2880 
 14 C       -2.6570     1.2820    -0.0250 C.3   1 <1>  -0.2400 
 15 C       -1.2030     4.6560     0.2190 C.3   1 <1>   0.3380 
 16 C        5.1830     1.5880    -0.6380 C.ar  1 <1>   0.0860 
 17 C        4.3750    -0.2350     0.7310 C.ar  1 <1>  -0.1500 
 18 C       -2.2180     4.6010    -0.8660 C.2   1 <1>  -0.2880 
 19 C        6.2700     2.2520    -1.3320 C.2   1 <1>   0.6340 
 20 C        5.3990     0.3950     0.0490 C.ar  1 <1>  -0.1500 
 21 O        7.0360     1.6530    -2.0500 O.2   1 <1>  -0.5700 
 22 O        6.4800     3.5630    -1.1800 O.3   1 <1>  -0.4300 
 23 C        6.0880     4.2890    -0.0360 C.3   1 <1>   0.1200 
 24 C        6.8690     5.5990    -0.0270 C.3   1 <1>  -0.2400 
 25 H       -0.4840     2.4060     1.5420 H     1 <1>   0.0800 
 26 H       -0.1660     3.5590    -1.2450 H     1 <1>   0.0800 
 27 H        3.7000     3.0060    -1.1920 H     1 <1>   0.1500 
 28 H        2.3200    -0.1810     1.2770 H     1 <1>   0.1500 
 29 H       -3.6480     3.0480    -1.2870 H     1 <1>   0.1500 
 30 H       -2.3250     0.4990     0.6350 H     1 <1>   0.0800 
 31 H       -2.2630     1.0840    -1.0090 H     1 <1>   0.0800 
 32 H       -3.7280     1.1890    -0.0700 H     1 <1>   0.0800 
 33 H       -0.9200     5.6190     0.6120 H     1 <1>   0.0800 
 34 H        4.5630    -1.1580     1.2540 H     1 <1>   0.1500 
 35 H       -2.3330     5.3980    -1.5810 H     1 <1>   0.1500 
 36 H        6.3850    -0.0400     0.0410 H     1 <1>   0.1500 
 37 H        6.3150     3.7070     0.8410 H     1 <1>   0.0800 
 38 H        5.0310     4.4850    -0.0870 H     1 <1>   0.0800 
 39 H        7.9250     5.4010     0.0150 H     1 <1>   0.0800 
 40 H        6.5930     6.1810     0.8340 H     1 <1>   0.0800 
 41 H        6.6450     6.1690    -0.9110 H     1 <1>   0.0800 
@<TRIPOS>BOND
  1   1   2  2   
  2   2   3  am  
  3   2   4  1   
  4   3   5  1   
  5   3   6  am  
  6   4   7  1   
  7   4   8  1   
  8   4  25  1   
  9   5   9  ar  
 10   5  10  ar  
 11   6   8  1   
 12   6  11  2   
 13   7  12  1   
 14   7  13  1   
 15   7  14  1   
 16   8  15  1   
 17   8  26  1   
 18   9  16  ar  
 19   9  27  1   
 20  10  17  ar  
 21  10  28  1   
 22  12  15  1   
 23  13  18  2   
 24  13  29  1   
 25  14  30  1   
 26  14  31  1   
 27  14  32  1   
 28  15  18  1   
 29  15  33  1   
 30  16  19  1   
 31  16  20  ar  
 32  17  20  ar  
 33  17  34  1   
 34  18  35  1   
 35  19  21  2   
 36  19  22  1   
 37  20  36  1   
 38  22  23  1   
 39  23  24  1   
 40  23  37  1   
 41  23  38  1   
 42  24  39  1   
 43  24  40  1   
 44  24  41  1   
@<TRIPOS>SUBSTRUCTURE
  1 ****   3 GROUP 4 **** **** 0

# MOE 2024.06 (io_trps.svl 2023.06)
