@<TRIPOS>MOLECULE
NONAME
33 33 1 0 0 
SMALL
USER_CHARGES


@<TRIPOS>ATOM
  1 S       -0.0550    -0.2010    -0.0150 S.o2  1 <1>   1.4470 
  2 O        0.1510    -0.9920    -1.2090 O.2   1 <1>  -0.6500 
  3 O       -0.0100    -0.8480     1.2800 O.2   1 <1>  -0.6500 
  4 N        1.1410     1.0080     0.0000 N.am  1 <1>  -0.8490 
  5 C       -1.6030     0.7370    -0.1860 C.ar  1 <1>  -0.0090 
  6 C        2.4770     0.4570    -0.2420 C.3   1 <1>   0.1160 
  7 C        1.1400     1.7990     1.2340 C.3   1 <1>   0.1160 
  8 C       -1.7570     1.6920    -1.1830 C.ar  1 <1>  -0.1500 
  9 C       -2.6760     0.5270     0.6710 C.ar  1 <1>  -0.1500 
 10 C       -2.9330     2.4080    -1.3160 C.ar  1 <1>  -0.1500 
 11 C       -3.8540     1.2430     0.5390 C.ar  1 <1>  -0.1500 
 12 C       -4.0160     2.2000    -0.4630 C.ar  1 <1>   0.0860 
 13 C       -5.2480     2.9550    -0.6200 C.2   1 <1>   0.5440 
 14 O       -5.2300     4.0790    -1.0820 O.2   1 <1>  -0.5700 
 15 N       -6.4510     2.4100    -0.2650 N.am  1 <1>  -0.7300 
 16 C       -7.7550     3.0950    -0.3520 C.3   1 <1>   0.1400 
 17 C       -8.5940     2.6980     0.8560 C.3   1 <1>  -0.2400 
 18 H        2.5030    -0.0410    -1.1970 H     1 <1>   0.0800 
 19 H        2.7340    -0.2550     0.5250 H     1 <1>   0.0800 
 20 H        3.2090     1.2450    -0.2540 H     1 <1>   0.0800 
 21 H        0.1710     2.2410     1.3910 H     1 <1>   0.0800 
 22 H        1.8640     2.5930     1.1630 H     1 <1>   0.0800 
 23 H        1.3810     1.1800     2.0820 H     1 <1>   0.0800 
 24 H       -0.9410     1.8760    -1.8620 H     1 <1>   0.1500 
 25 H       -2.5860    -0.2070     1.4560 H     1 <1>   0.1500 
 26 H       -3.0230     3.1460    -2.0960 H     1 <1>   0.1500 
 27 H       -4.6560     1.0600     1.2320 H     1 <1>   0.1500 
 28 H       -6.4930     1.4230    -0.0100 H     1 <1>   0.3700 
 29 H       -8.2510     2.8050    -1.2640 H     1 <1>   0.0800 
 30 H       -7.6110     4.1630    -0.3670 H     1 <1>   0.0800 
 31 H       -8.7700     1.6380     0.8640 H     1 <1>   0.0800 
 32 H       -9.5440     3.2000     0.8120 H     1 <1>   0.0800 
 33 H       -8.0980     2.9920     1.7640 H     1 <1>   0.0800 
@<TRIPOS>BOND
  1   1   2  2   
  2   1   3  2   
  3   1   4  am  
  4   1   5  1   
  5   4   6  1   
  6   4   7  1   
  7   5   8  ar  
  8   5   9  ar  
  9   6  18  1   
 10   6  19  1   
 11   6  20  1   
 12   7  21  1   
 13   7  22  1   
 14   7  23  1   
 15   8  10  ar  
 16   8  24  1   
 17   9  11  ar  
 18   9  25  1   
 19  10  12  ar  
 20  10  26  1   
 21  11  12  ar  
 22  11  27  1   
 23  12  13  1   
 24  13  14  2   
 25  13  15  am  
 26  15  16  1   
 27  15  28  1   
 28  16  17  1   
 29  16  29  1   
 30  16  30  1   
 31  17  31  1   
 32  17  32  1   
 33  17  33  1   
@<TRIPOS>SUBSTRUCTURE
  1 ****   9 GROUP 4 **** **** 0

# MOE 2024.06 (io_trps.svl 2023.06)
