@<TRIPOS>MOLECULE
NONAME
35 36 1 0 0 
SMALL
USER_CHARGES


@<TRIPOS>ATOM
  1 S       -0.0570    -0.1620     0.3810 S.o2  1 <1>   1.4970 
  2 O       -0.4790    -0.4530     1.7400 O.2   1 <1>  -0.6500 
  3 O        0.0850    -1.2550    -0.5570 O.2   1 <1>  -0.6500 
  4 N       -1.1370     0.9360    -0.2680 N.2   1 <1>  -0.6380 
  5 C        1.4920     0.7890     0.4240 C.ar  1 <1>  -0.0090 
  6 C       -2.3720     0.6260    -0.1980 C.2   1 <1>   0.4860 
  7 C        1.8420     1.5410     1.5460 C.ar  1 <1>  -0.1500 
  8 C        2.3500     0.8070    -0.6750 C.ar  1 <1>  -0.1500 
  9 N       -2.9630    -0.4460     0.4030 N.pl3 1 <1>  -0.4710 
 10 C       -3.4560     1.3870    -0.6930 C.2   1 <1>  -0.1360 
 11 C        3.0110     2.2830     1.5800 C.ar  1 <1>  -0.1500 
 12 C        3.5240     1.5430    -0.6610 C.ar  1 <1>  -0.1500 
 13 O       -4.3340    -0.3430     0.3240 O.3   1 <1>  -0.0560 
 14 C       -4.6010     0.7700    -0.3460 C.2   1 <1>  -0.0620 
 15 C        3.8340     2.2690     0.4720 C.ar  1 <1>   0.1900 
 16 C       -6.0650     1.1340    -0.5980 C.3   1 <1>   0.1380 
 17 F        4.9370     2.9650     0.4950 F     1 <1>  -0.1900 
 18 C       -6.7370     0.0170    -1.4070 C.3   1 <1>  -0.2400 
 19 C       -6.1680     2.4480    -1.3860 C.3   1 <1>  -0.2400 
 20 C       -6.7890     1.3020     0.7440 C.3   1 <1>  -0.2400 
 21 H        1.1900     1.5440     2.4050 H     1 <1>   0.1500 
 22 H        2.0950     0.2370    -1.5530 H     1 <1>   0.1500 
 23 H       -2.5690    -0.8770     1.2490 H     1 <1>   0.4000 
 24 H       -3.3100     2.2980    -1.2400 H     1 <1>   0.1500 
 25 H        3.2820     2.8610     2.4460 H     1 <1>   0.1500 
 26 H        4.1870     1.5550    -1.5080 H     1 <1>   0.1500 
 27 H       -6.2250    -0.1240    -2.3430 H     1 <1>   0.0800 
 28 H       -7.7650     0.2600    -1.6100 H     1 <1>   0.0800 
 29 H       -6.7080    -0.9110    -0.8650 H     1 <1>   0.0800 
 30 H       -7.1970     2.7020    -1.5630 H     1 <1>   0.0800 
 31 H       -5.7100     3.2520    -0.8380 H     1 <1>   0.0800 
 32 H       -5.6740     2.3550    -2.3370 H     1 <1>   0.0800 
 33 H       -6.7610     0.3850     1.3040 H     1 <1>   0.0800 
 34 H       -7.8180     1.5740     0.5890 H     1 <1>   0.0800 
 35 H       -6.3150     2.0700     1.3280 H     1 <1>   0.0800 
@<TRIPOS>BOND
  1   1   2  2   
  2   1   3  2   
  3   1   4  1   
  4   1   5  1   
  5   4   6  2   
  6   5   7  ar  
  7   5   8  ar  
  8   6   9  1   
  9   6  10  1   
 10   7  11  ar  
 11   7  21  1   
 12   8  12  ar  
 13   8  22  1   
 14   9  13  1   
 15   9  23  1   
 16  10  14  2   
 17  10  24  1   
 18  11  15  ar  
 19  11  25  1   
 20  12  15  ar  
 21  12  26  1   
 22  13  14  1   
 23  14  16  1   
 24  15  17  1   
 25  16  18  1   
 26  16  19  1   
 27  16  20  1   
 28  18  27  1   
 29  18  28  1   
 30  18  29  1   
 31  19  30  1   
 32  19  31  1   
 33  19  32  1   
 34  20  33  1   
 35  20  34  1   
 36  20  35  1   
@<TRIPOS>SUBSTRUCTURE
  1 ****   4 GROUP 4 **** **** 0

# MOE 2024.06 (io_trps.svl 2023.06)
