@<TRIPOS>MOLECULE
NONAME
38 38 1 0 0 
SMALL
USER_CHARGES


@<TRIPOS>ATOM
  1 CL      -0.2920     0.2440     0.0630 Cl    1 <1>  -0.1770 
  2 C        1.3220     0.9190     0.0300 C.ar  1 <1>   0.1770 
  3 C        1.5050     2.2940    -0.0300 C.ar  1 <1>  -0.1440 
  4 C        2.3960     0.0480     0.0660 C.ar  1 <1>  -0.1500 
  5 C        2.8010     2.7850    -0.0540 C.ar  1 <1>  -0.1500 
  6 C        0.3200     3.2470    -0.0690 C.3   1 <1>  -0.0960 
  7 C        3.6860     0.5490     0.0420 C.ar  1 <1>  -0.1500 
  8 C        3.8910     1.9270    -0.0180 C.ar  1 <1>   0.0820 
  9 O        5.1180     2.5050    -0.0450 O.3   1 <1>  -0.3630 
 10 C        6.2940     1.7370    -0.0140 C.3   1 <1>   0.1200 
 11 C        7.4750     2.7090    -0.0590 C.3   1 <1>  -0.1600 
 12 C        8.8240     1.9770    -0.0300 C.3   1 <1>  -0.1600 
 13 C        9.9750     2.9800    -0.0760 C.3   1 <1>   0.3430 
 14 N       11.2630     2.2460    -0.0460 N.4   1 <1>  -0.9060 
 15 C       12.4290     3.1790    -0.0890 C.3   1 <1>   0.3430 
 16 C       13.7650     2.4260    -0.0590 C.3   1 <1>   0.1200 
 17 O       14.7710     3.3720    -0.1020 O.3   1 <1>  -0.6800 
 18 H        2.2160    -1.0110     0.1130 H     1 <1>   0.1500 
 19 H        2.9830     3.8430    -0.1000 H     1 <1>   0.1500 
 20 H       -0.2860     3.0440    -0.9350 H     1 <1>   0.0800 
 21 H        0.6480     4.2690    -0.1140 H     1 <1>   0.0800 
 22 H       -0.2830     3.1200     0.8130 H     1 <1>   0.0800 
 23 H        4.5060    -0.1420     0.0710 H     1 <1>   0.1500 
 24 H        6.2950     1.0850    -0.8710 H     1 <1>   0.0800 
 25 H        6.2990     1.1620     0.8960 H     1 <1>   0.0800 
 26 H        7.4010     3.3710     0.7880 H     1 <1>   0.0800 
 27 H        7.3980     3.2950    -0.9590 H     1 <1>   0.0800 
 28 H        8.8800     1.3170    -0.8790 H     1 <1>   0.0800 
 29 H        8.8840     1.3930     0.8740 H     1 <1>   0.0800 
 30 H        9.9080     3.6460     0.7710 H     1 <1>   0.0800 
 31 H        9.9050     3.5700    -0.9770 H     1 <1>   0.0800 
 32 H       11.3020     1.6040    -0.8470 H     1 <1>   0.4500 
 33 H       11.3060     1.6760     0.8080 H     1 <1>   0.4500 
 34 H       12.3920     3.8460     0.7570 H     1 <1>   0.0800 
 35 H       12.3890     3.7700    -0.9900 H     1 <1>   0.0800 
 36 H       13.8740     1.7860    -0.9180 H     1 <1>   0.0800 
 37 H       13.8770     1.8630     0.8520 H     1 <1>   0.0800 
 38 H       15.6630     2.9610    -0.0860 H     1 <1>   0.4000 
@<TRIPOS>BOND
  1   1   2  1   
  2   2   3  ar  
  3   2   4  ar  
  4   3   5  ar  
  5   3   6  1   
  6   4   7  ar  
  7   4  18  1   
  8   5   8  ar  
  9   5  19  1   
 10   6  20  1   
 11   6  21  1   
 12   6  22  1   
 13   7   8  ar  
 14   7  23  1   
 15   8   9  1   
 16   9  10  1   
 17  10  11  1   
 18  10  24  1   
 19  10  25  1   
 20  11  12  1   
 21  11  26  1   
 22  11  27  1   
 23  12  13  1   
 24  12  28  1   
 25  12  29  1   
 26  13  14  1   
 27  13  30  1   
 28  13  31  1   
 29  14  15  1   
 30  14  32  1   
 31  14  33  1   
 32  15  16  1   
 33  15  34  1   
 34  15  35  1   
 35  16  17  1   
 36  16  36  1   
 37  16  37  1   
 38  17  38  1   
@<TRIPOS>SUBSTRUCTURE
  1 ****  10 GROUP 4 **** **** 0

# MOE 2024.06 (io_trps.svl 2023.06)
