@<TRIPOS>MOLECULE
NONAME
37 39 1 0 0 
SMALL
USER_CHARGES


@<TRIPOS>ATOM
  1 BR      -3.7850    -0.8730     0.4900 Br    1 <1>  -0.1110 
  2 C       -2.9010     0.7380    -0.0770 C.ar  1 <1>   0.1110 
  3 C       -3.3520     1.9490     0.4080 C.ar  1 <1>  -0.1500 
  4 C       -1.8390     0.6390    -0.9540 C.ar  1 <1>  -0.1500 
  5 C       -2.7330     3.1340     0.0080 C.ar  1 <1>   0.0860 
  6 C       -1.2090     1.8040    -1.3520 C.ar  1 <1>  -0.1500 
  7 C       -3.1540     4.4400     0.4850 C.2   1 <1>   0.5440 
  8 C       -1.6520     3.0270    -0.8730 C.ar  1 <1>  -0.1500 
  9 O       -2.3200     5.2090     0.9260 O.2   1 <1>  -0.5700 
 10 N       -4.4840     4.8460     0.4580 N.am  1 <1>  -0.2980 
 11 N       -5.5780     4.0290     0.2570 N.2   1 <1>  -0.5120 
 12 C       -4.9120     6.2580     0.7430 C.3   1 <1>   0.5800 
 13 C       -6.6360     4.6590     0.5030 C.2   1 <1>   0.3280 
 14 O       -4.3890     6.5780     2.0030 O.3   1 <1>  -0.6800 
 15 C       -4.4540     7.2740    -0.3930 C.3   1 <1>   1.0200 
 16 C       -6.4520     6.0980     0.9200 C.3   1 <1>  -0.0190 
 17 C       -8.0470     4.1060     0.4370 C.3   1 <1>  -0.0990 
 18 F       -3.1390     7.4550    -0.4700 F     1 <1>  -0.3400 
 19 F       -4.8260     6.8940    -1.6150 F     1 <1>  -0.3400 
 20 F       -4.9540     8.4990    -0.2320 F     1 <1>  -0.3400 
 21 C       -7.4380     7.0180     0.1570 C.3   1 <1>  -0.1600 
 22 C       -8.9900     5.0700    -0.2970 C.3   1 <1>  -0.1600 
 23 C       -8.8780     6.4960     0.2640 C.3   1 <1>  -0.1600 
 24 H       -4.1800     1.9720     1.0930 H     1 <1>   0.1500 
 25 H       -1.5150    -0.3230    -1.3110 H     1 <1>   0.1500 
 26 H       -0.3740     1.7610    -2.0310 H     1 <1>   0.1500 
 27 H       -1.1500     3.9280    -1.1840 H     1 <1>   0.1500 
 28 H       -3.4350     6.3180     1.9830 H     1 <1>   0.4000 
 29 H       -6.6960     6.1570     1.9660 H     1 <1>   0.0800 
 30 H       -8.4000     3.9560     1.4420 H     1 <1>   0.0800 
 31 H       -8.0370     3.1510    -0.0580 H     1 <1>   0.0800 
 32 H       -7.1900     7.0650    -0.8890 H     1 <1>   0.0800 
 33 H       -7.3930     8.0160     0.5590 H     1 <1>   0.0800 
 34 H      -10.0050     4.7210    -0.2050 H     1 <1>   0.0800 
 35 H       -8.7400     5.0790    -1.3450 H     1 <1>   0.0800 
 36 H       -9.5360     7.1470    -0.2880 H     1 <1>   0.0800 
 37 H       -9.1960     6.5080     1.2930 H     1 <1>   0.0800 
@<TRIPOS>BOND
  1   1   2  1   
  2   2   3  ar  
  3   2   4  ar  
  4   3   5  ar  
  5   3  24  1   
  6   4   6  ar  
  7   4  25  1   
  8   5   7  1   
  9   5   8  ar  
 10   6   8  ar  
 11   6  26  1   
 12   7   9  2   
 13   7  10  am  
 14   8  27  1   
 15  10  11  1   
 16  10  12  1   
 17  11  13  2   
 18  12  14  1   
 19  12  15  1   
 20  12  16  1   
 21  13  16  1   
 22  13  17  1   
 23  14  28  1   
 24  15  18  1   
 25  15  19  1   
 26  15  20  1   
 27  16  21  1   
 28  16  29  1   
 29  17  22  1   
 30  17  30  1   
 31  17  31  1   
 32  21  23  1   
 33  21  32  1   
 34  21  33  1   
 35  22  23  1   
 36  22  34  1   
 37  22  35  1   
 38  23  36  1   
 39  23  37  1   
@<TRIPOS>SUBSTRUCTURE
  1 ****  10 GROUP 4 **** **** 0

# MOE 2024.06 (io_trps.svl 2023.06)
