@<TRIPOS>MOLECULE
NONAME
44 47 1 0 0 
SMALL
USER_CHARGES


@<TRIPOS>ATOM
  1 O       -2.7230    -0.8630    -2.4790 O.2   1 <1>  -0.5700 
  2 C       -2.8090    -0.8900    -1.2620 C.2   1 <1>   0.7150 
  3 N       -2.3880    -2.0330    -0.6030 N.am  1 <1>  -0.6600 
  4 C       -3.3420     0.2810    -0.5900 C.2   1 <1>   0.0550 
  5 C       -2.7260    -2.3450     0.8270 C.3   1 <1>   0.1400 
  6 C       -1.5400    -3.0680    -1.2900 C.3   1 <1>   0.1400 
  7 O       -3.0450     0.5940     0.6710 O.3   1 <1>  -0.2800 
  8 C       -4.1650     1.2510    -1.0810 C.2   1 <1>  -0.1500 
  9 C       -3.1760    -3.8000     1.0230 C.3   1 <1>   0.1400 
 10 C       -2.0280    -4.5010    -1.0330 C.3   1 <1>   0.1400 
 11 C       -3.6530     1.7140     0.9900 C.2   1 <1>  -0.0100 
 12 C       -4.3680     2.1750    -0.0560 C.2   1 <1>  -0.1500 
 13 N       -2.1860    -4.7370     0.4310 N.am  1 <1>  -0.6600 
 14 C       -1.6240    -5.7490     1.1720 C.2   1 <1>   0.5690 
 15 O       -1.7200    -5.7340     2.3800 O.2   1 <1>  -0.5700 
 16 C       -0.7600    -6.8440     0.5130 C.3   1 <1>  -0.0190 
 17 C       -1.5240    -7.8220    -0.6750 C.3   1 <1>  -0.1860 
 18 C       -0.0140    -7.9030     1.5630 C.3   1 <1>   0.0580 
 19 C       -3.0010    -7.5490    -0.9120 C.2   1 <1>   0.9060 
 20 C       -1.2090    -9.3970    -0.2750 C.3   1 <1>   0.0580 
 21 C        0.3440    -9.4750     1.6950 C.2   1 <1>  -0.2880 
 22 C       -0.6660    -8.5510     0.6010 C.3   1 <1>  -0.1600 
 23 O       -3.3230    -7.0550    -1.9990 O.co2 1 <1>  -0.9000 
 24 O       -3.8300    -7.8310    -0.0430 O.co2 1 <1>  -0.9000 
 25 C       -0.2840   -10.2570     0.7340 C.2   1 <1>  -0.2880 
 26 H       -3.5220    -1.7120     1.1730 H     1 <1>   0.0800 
 27 H       -1.8610    -2.1610     1.4400 H     1 <1>   0.0800 
 28 H       -0.5300    -2.9780    -0.9320 H     1 <1>   0.0800 
 29 H       -1.5240    -2.9030    -2.3530 H     1 <1>   0.0800 
 30 H       -4.5790     1.3050    -2.0730 H     1 <1>   0.1500 
 31 H       -4.1270    -3.9530     0.5430 H     1 <1>   0.0800 
 32 H       -3.3090    -3.9960     2.0730 H     1 <1>   0.0800 
 33 H       -1.3380    -5.1970    -1.4690 H     1 <1>   0.0800 
 34 H       -2.9800    -4.6420    -1.5170 H     1 <1>   0.0800 
 35 H       -3.5240     2.1170     1.9790 H     1 <1>   0.1500 
 36 H       -4.9730     3.0630    -0.1200 H     1 <1>   0.1500 
 37 H        0.0260    -6.2920     0.0210 H     1 <1>   0.0800 
 38 H       -1.0540    -7.6220    -1.6260 H     1 <1>   0.0800 
 39 H       -0.4820    -7.7250     2.5190 H     1 <1>   0.0800 
 40 H       -2.1920    -9.8170    -0.1010 H     1 <1>   0.0800 
 41 H        1.0040    -9.7830     2.4880 H     1 <1>   0.1500 
 42 H       -1.6010    -8.6540     1.2930 H     1 <1>   0.0800 
 43 H        0.3300    -8.4860    -0.0960 H     1 <1>   0.0800 
 44 H       -0.2340   -11.3230     0.5920 H     1 <1>   0.1500 
@<TRIPOS>BOND
  1   1   2  2   
  2   2   3  am  
  3   2   4  1   
  4   3   5  1   
  5   3   6  1   
  6   4   7  1   
  7   4   8  2   
  8   5   9  1   
  9   5  26  1   
 10   5  27  1   
 11   6  10  1   
 12   6  28  1   
 13   6  29  1   
 14   7  11  1   
 15   8  12  1   
 16   8  30  1   
 17   9  13  1   
 18   9  31  1   
 19   9  32  1   
 20  10  13  1   
 21  10  33  1   
 22  10  34  1   
 23  11  12  2   
 24  11  35  1   
 25  12  36  1   
 26  13  14  am  
 27  14  15  2   
 28  14  16  1   
 29  16  17  1   
 30  16  18  1   
 31  16  37  1   
 32  17  19  1   
 33  17  20  1   
 34  17  38  1   
 35  18  21  1   
 36  18  22  1   
 37  18  39  1   
 38  19  23  ar  
 39  19  24  ar  
 40  20  22  1   
 41  20  25  1   
 42  20  40  1   
 43  21  25  2   
 44  21  41  1   
 45  22  42  1   
 46  22  43  1   
 47  25  44  1   
@<TRIPOS>SUBSTRUCTURE
  1 ****  13 GROUP 4 **** **** 0

# MOE 2024.06 (io_trps.svl 2023.06)
