@<TRIPOS>MOLECULE
NONAME
41 44 1 0 0 
SMALL
USER_CHARGES


@<TRIPOS>ATOM
  1 S        2.6150     1.4340     2.8150 S.3   1 <1>  -0.2420 
  2 C        2.7950     1.3680     1.0620 C.2   1 <1>   0.6510 
  3 C        0.9460     2.0190     2.6780 C.2   1 <1>  -0.0490 
  4 N        3.8870     0.9870     0.4770 N.2   1 <1>  -0.6210 
  5 N        1.6320     1.7820     0.4710 N.am  1 <1>  -0.2290 
  6 C        0.6150     2.1370     1.3850 C.2   1 <1>  -0.0410 
  7 C        3.8610     0.9890    -0.8940 C.2   1 <1>   0.0330 
  8 C        1.5930     1.8130    -0.9010 C.2   1 <1>   0.6160 
  9 C        2.7610     1.3910    -1.5850 C.2   1 <1>  -0.1360 
 10 C        5.1410     0.5130    -1.5820 C.3   1 <1>   0.4810 
 11 O        0.5970     2.1940    -1.4930 O.2   1 <1>  -0.5700 
 12 N        6.3070     1.0670    -0.8450 N.4   1 <1>  -0.9590 
 13 C        6.5200     2.5350    -1.1140 C.3   1 <1>   0.3430 
 14 C        7.5680     0.2710    -1.0530 C.3   1 <1>   0.3430 
 15 C        7.7220     3.1080    -0.3350 C.3   1 <1>   0.2090 
 16 C        8.7670     0.8500    -0.2740 C.3   1 <1>   0.2090 
 17 N        8.9570     2.3010    -0.5670 N.pl3 1 <1>  -0.8380 
 18 C       10.0920     2.8400    -0.0020 C.ar  1 <1>   0.4100 
 19 N       10.1100     2.9010     1.3230 N.ar  1 <1>  -0.6200 
 20 C       11.1330     3.2800    -0.8130 C.ar  1 <1>  -0.1500 
 21 C       11.2060     3.4200     1.8540 C.ar  1 <1>   0.1600 
 22 C       12.2650     3.8160    -0.2460 C.ar  1 <1>  -0.1500 
 23 C       12.2920     3.8840     1.1330 C.ar  1 <1>  -0.1500 
 24 H        0.4100     2.2050     3.5940 H     1 <1>   0.1500 
 25 H       -0.3330     2.4690     0.9900 H     1 <1>   0.1500 
 26 H        2.7060     1.4080    -2.6580 H     1 <1>   0.1500 
 27 H        5.1590     0.8170    -2.6150 H     1 <1>   0.0800 
 28 H        5.1660    -0.5630    -1.5370 H     1 <1>   0.0800 
 29 H        6.0260     0.9890     0.1490 H     1 <1>   0.4500 
 30 H        5.6350     3.0870    -0.8440 H     1 <1>   0.0800 
 31 H        6.7010     2.6880    -2.1640 H     1 <1>   0.0800 
 32 H        7.8240     0.2660    -2.1000 H     1 <1>   0.0800 
 33 H        7.4140    -0.7500    -0.7440 H     1 <1>   0.0800 
 34 H        7.4950     3.1260     0.7180 H     1 <1>   0.0800 
 35 H        7.8990     4.1230    -0.6480 H     1 <1>   0.0800 
 36 H        9.6620     0.3150    -0.5450 H     1 <1>   0.0800 
 37 H        8.6130     0.7130     0.7830 H     1 <1>   0.0800 
 38 H       11.0360     3.1940    -1.8780 H     1 <1>   0.1500 
 39 H       11.2420     3.4790     2.9290 H     1 <1>   0.1500 
 40 H       13.0890     4.1670    -0.8430 H     1 <1>   0.1500 
 41 H       13.1470     4.2920     1.6420 H     1 <1>   0.1500 
@<TRIPOS>BOND
  1   1   2  1   
  2   1   3  1   
  3   2   4  2   
  4   2   5  1   
  5   3   6  2   
  6   3  24  1   
  7   4   7  1   
  8   5   6  1   
  9   5   8  am  
 10   6  25  1   
 11   7   9  2   
 12   7  10  1   
 13   8   9  1   
 14   8  11  2   
 15   9  26  1   
 16  10  12  1   
 17  10  27  1   
 18  10  28  1   
 19  12  13  1   
 20  12  14  1   
 21  12  29  1   
 22  13  15  1   
 23  13  30  1   
 24  13  31  1   
 25  14  16  1   
 26  14  32  1   
 27  14  33  1   
 28  15  17  1   
 29  15  34  1   
 30  15  35  1   
 31  16  17  1   
 32  16  36  1   
 33  16  37  1   
 34  17  18  1   
 35  18  19  ar  
 36  18  20  ar  
 37  19  21  ar  
 38  20  22  ar  
 39  20  38  1   
 40  21  23  ar  
 41  21  39  1   
 42  22  23  ar  
 43  22  40  1   
 44  23  41  1   
@<TRIPOS>SUBSTRUCTURE
  1 ****  12 GROUP 4 **** **** 0

# MOE 2024.06 (io_trps.svl 2023.06)
