@<TRIPOS>MOLECULE
NONAME
43 45 1 0 0 
SMALL
USER_CHARGES


@<TRIPOS>ATOM
  1 O        1.0240    -0.8100    -1.0220 O.2   1 <1>  -0.5700 
  2 C        0.4650    -1.8070    -1.4340 C.2   1 <1>   0.6900 
  3 N       -0.8620    -2.0290    -1.2400 N.am  1 <1>  -0.5470 
  4 N        1.1940    -2.7480    -2.0830 N.am  1 <1>  -0.7300 
  5 C       -1.7900    -1.3130    -0.4670 C.ar  1 <1>   0.1170 
  6 C        2.5850    -2.5640    -2.6010 C.3   1 <1>   0.1400 
  7 C       -1.4150    -0.5970     0.6710 C.ar  1 <1>  -0.1500 
  8 C       -3.1380    -1.3390    -0.8410 C.ar  1 <1>  -0.1500 
  9 C        3.6570    -2.7600    -1.5050 C.3   1 <1>   0.3430 
 10 C       -2.3910     0.0650     1.3860 C.ar  1 <1>   0.0830 
 11 C       -4.1070    -0.6660    -0.1090 C.ar  1 <1>  -0.1500 
 12 N        3.5470    -1.7280    -0.4340 N.4   1 <1>  -0.9590 
 13 O       -2.2490     0.8010     2.4940 O.3   1 <1>  -0.3620 
 14 C       -3.7010     0.0330     1.0090 C.ar  1 <1>   0.0830 
 15 C        4.2920    -0.4780    -0.7510 C.3   1 <1>   0.3430 
 16 C        3.8620    -2.2620     0.9180 C.3   1 <1>   0.3430 
 17 C       -3.5490     1.2760     2.8380 C.3   1 <1>   0.4000 
 18 O       -4.4460     0.7490     1.8610 O.3   1 <1>  -0.3620 
 19 C        3.9580     0.5970     0.2850 C.3   1 <1>  -0.1600 
 20 C        3.5100    -1.2140     1.9750 C.3   1 <1>  -0.1600 
 21 C        4.2270     0.1170     1.7170 C.3   1 <1>  -0.1600 
 22 H       -1.2670    -2.7620    -1.8140 H     1 <1>   0.3700 
 23 H        0.7040    -3.5770    -2.4240 H     1 <1>   0.3700 
 24 H        2.6810    -1.5800    -3.0290 H     1 <1>   0.0800 
 25 H        2.7560    -3.2780    -3.3880 H     1 <1>   0.0800 
 26 H       -0.3970    -0.5500     1.0030 H     1 <1>   0.1500 
 27 H       -3.4360    -1.8870    -1.7160 H     1 <1>   0.1500 
 28 H        4.6390    -2.7210    -1.9470 H     1 <1>   0.0800 
 29 H        3.5240    -3.7410    -1.0810 H     1 <1>   0.0800 
 30 H       -5.1450    -0.6790    -0.3910 H     1 <1>   0.1500 
 31 H        2.5450    -1.4380    -0.4180 H     1 <1>   0.4500 
 32 H        4.0140    -0.1220    -1.7300 H     1 <1>   0.0800 
 33 H        5.3520    -0.6710    -0.7430 H     1 <1>   0.0800 
 34 H        4.9110    -2.5020     0.9810 H     1 <1>   0.0800 
 35 H        3.2920    -3.1590     1.1020 H     1 <1>   0.0800 
 36 H       -3.5620     2.3500     2.7960 H     1 <1>   0.0800 
 37 H       -3.8210     0.9100     3.8120 H     1 <1>   0.0800 
 38 H        2.9230     0.8750     0.1810 H     1 <1>   0.0800 
 39 H        4.5470     1.4750     0.0850 H     1 <1>   0.0800 
 40 H        3.7840    -1.5860     2.9470 H     1 <1>   0.0800 
 41 H        2.4440    -1.0600     1.9780 H     1 <1>   0.0800 
 42 H        3.8840     0.8580     2.4200 H     1 <1>   0.0800 
 43 H        5.2870    -0.0090     1.8630 H     1 <1>   0.0800 
@<TRIPOS>BOND
  1   1   2  2   
  2   2   3  am  
  3   2   4  am  
  4   3   5  1   
  5   3  22  1   
  6   4   6  1   
  7   4  23  1   
  8   5   7  ar  
  9   5   8  ar  
 10   6   9  1   
 11   6  24  1   
 12   6  25  1   
 13   7  10  ar  
 14   7  26  1   
 15   8  11  ar  
 16   8  27  1   
 17   9  12  1   
 18   9  28  1   
 19   9  29  1   
 20  10  13  1   
 21  10  14  ar  
 22  11  14  ar  
 23  11  30  1   
 24  12  15  1   
 25  12  16  1   
 26  12  31  1   
 27  13  17  1   
 28  14  18  1   
 29  15  19  1   
 30  15  32  1   
 31  15  33  1   
 32  16  20  1   
 33  16  34  1   
 34  16  35  1   
 35  17  18  1   
 36  17  36  1   
 37  17  37  1   
 38  19  21  1   
 39  19  38  1   
 40  19  39  1   
 41  20  21  1   
 42  20  40  1   
 43  20  41  1   
 44  21  42  1   
 45  21  43  1   
@<TRIPOS>SUBSTRUCTURE
  1 ****   1 GROUP 4 **** **** 0

# MOE 2024.06 (io_trps.svl 2023.06)
