@<TRIPOS>MOLECULE
NONAME
48 51 1 0 0 
SMALL
USER_CHARGES


@<TRIPOS>ATOM
  1 F        0.7000     0.0550    -0.7770 F     1 <1>  -0.1900 
  2 C        1.8910     0.3970    -0.3700 C.ar  1 <1>   0.1900 
  3 C        2.9240     0.4340    -1.2860 C.ar  1 <1>  -0.1500 
  4 C        2.0760     0.7110     0.9620 C.ar  1 <1>  -0.1500 
  5 C        4.1840     0.8080    -0.8510 C.ar  1 <1>  -0.1500 
  6 C        3.3400     1.0830     1.3890 C.ar  1 <1>  -0.1500 
  7 C        4.3960     1.1430     0.4830 C.ar  1 <1>  -0.1430 
  8 C        5.7790     1.5780     0.9440 C.3   1 <1>   0.4980 
  9 N        6.1450     2.9050     0.3580 N.pl3 1 <1>  -0.7640 
 10 C        7.4760     3.2770     0.1360 C.2   1 <1>   0.2770 
 11 C        5.3880     3.9280    -0.0480 C.cat 1 <1>   0.6560 
 12 C        8.7570     2.6700     0.3670 C.2   1 <1>   0.7030 
 13 C        7.4530     4.5160    -0.4160 C.2   1 <1>   0.4260 
 14 N        6.1610     4.8990    -0.5210 N.pl3 1 <1>  -0.7000 
 15 C        3.8570     4.1020    -0.0250 C.3   1 <1>   0.2540 
 16 O        8.8930     1.5720     0.8660 O.2   1 <1>  -0.5700 
 17 N        9.8640     3.3820     0.0090 N.am  1 <1>  -0.4900 
 18 N        8.5900     5.2240    -0.7790 N.am  1 <1>  -0.4360 
 19 N        3.4530     5.5270    -0.1860 N.3   1 <1>  -0.8100 
 20 C        9.8200     4.6290    -0.5450 C.2   1 <1>   0.6900 
 21 C        8.4900     6.5800    -1.3950 C.3   1 <1>   0.0600 
 22 C        2.0630     5.6240    -0.6880 C.3   1 <1>   0.1100 
 23 C        3.5520     6.2710     1.0940 C.3   1 <1>   0.1100 
 24 O       10.8630     5.1790    -0.8110 O.2   1 <1>  -0.5700 
 25 C        1.6020     7.0900    -0.7860 C.3   1 <1>   0.1200 
 26 C        3.0580     7.7200     0.9360 C.3   1 <1>   0.1200 
 27 O        1.7510     7.7270     0.4500 O.3   1 <1>  -0.5600 
 28 H        2.7380     0.1700    -2.3130 H     1 <1>   0.1500 
 29 H        1.2460     0.6590     1.6450 H     1 <1>   0.1500 
 30 H        4.9950     0.8330    -1.5610 H     1 <1>   0.1500 
 31 H        3.4870     1.3210     2.4300 H     1 <1>   0.1500 
 32 H        6.4900     0.8310     0.6300 H     1 <1>   0.0800 
 33 H        5.8190     1.6370     2.0190 H     1 <1>   0.0800 
 34 H        5.7550     5.7730    -0.8730 H     1 <1>   0.4500 
 35 H        3.4530     3.7130     0.8920 H     1 <1>   0.0800 
 36 H        3.4540     3.5260    -0.8390 H     1 <1>   0.0800 
 37 H       10.7840     2.9740     0.1670 H     1 <1>   0.3700 
 38 H        7.8010     6.5600    -2.2210 H     1 <1>   0.0800 
 39 H        9.4490     6.9040    -1.7650 H     1 <1>   0.0800 
 40 H        8.1500     7.2890    -0.6610 H     1 <1>   0.0800 
 41 H        1.3900     5.0970    -0.0310 H     1 <1>   0.0800 
 42 H        1.9970     5.1760    -1.6650 H     1 <1>   0.0800 
 43 H        4.5720     6.2890     1.4360 H     1 <1>   0.0800 
 44 H        2.9530     5.7930     1.8510 H     1 <1>   0.0800 
 45 H        0.5620     7.1390    -1.0560 H     1 <1>   0.0800 
 46 H        2.1770     7.6250    -1.5220 H     1 <1>   0.0800 
 47 H        3.6830     8.2700     0.2530 H     1 <1>   0.0800 
 48 H        3.0550     8.2230     1.8870 H     1 <1>   0.0800 
@<TRIPOS>BOND
  1   1   2  1   
  2   2   3  ar  
  3   2   4  ar  
  4   3   5  ar  
  5   3  28  1   
  6   4   6  ar  
  7   4  29  1   
  8   5   7  ar  
  9   5  30  1   
 10   6   7  ar  
 11   6  31  1   
 12   7   8  1   
 13   8   9  1   
 14   8  32  1   
 15   8  33  1   
 16   9  10  1   
 17   9  11  ar  
 18  10  12  1   
 19  10  13  2   
 20  11  14  ar  
 21  11  15  1   
 22  12  16  2   
 23  12  17  am  
 24  13  14  1   
 25  13  18  1   
 26  14  34  1   
 27  15  19  1   
 28  15  35  1   
 29  15  36  1   
 30  17  20  am  
 31  17  37  1   
 32  18  20  am  
 33  18  21  1   
 34  19  22  1   
 35  19  23  1   
 36  20  24  2   
 37  21  38  1   
 38  21  39  1   
 39  21  40  1   
 40  22  25  1   
 41  22  41  1   
 42  22  42  1   
 43  23  26  1   
 44  23  43  1   
 45  23  44  1   
 46  25  27  1   
 47  25  45  1   
 48  25  46  1   
 49  26  27  1   
 50  26  47  1   
 51  26  48  1   
@<TRIPOS>SUBSTRUCTURE
  1 ****  11 GROUP 4 **** **** 0

# MOE 2024.06 (io_trps.svl 2023.06)
