@<TRIPOS>MOLECULE
NONAME
38 40 1 0 0 
SMALL
USER_CHARGES


@<TRIPOS>ATOM
  1 BR       0.7690    -0.9110     3.1700 Br    1 <1>  -0.0580 
  2 C        1.3780    -1.8720     1.6220 C.2   1 <1>   0.1980 
  3 O        1.4210    -3.1780     1.6850 O.3   1 <1>  -0.2800 
  4 C        1.7850    -1.3870     0.4340 C.2   1 <1>  -0.1500 
  5 C        1.8720    -3.6150     0.5070 C.2   1 <1>   0.0550 
  6 C        2.1070    -2.5320    -0.2990 C.2   1 <1>  -0.1500 
  7 C        2.0350    -5.0310     0.2530 C.2   1 <1>   0.7150 
  8 O        1.2170    -5.8280     0.6790 O.2   1 <1>  -0.5700 
  9 N        3.0940    -5.5140    -0.4900 N.am  1 <1>  -0.6600 
 10 C        4.3970    -4.7960    -0.5850 C.3   1 <1>   0.2840 
 11 C        3.1260    -6.9170    -0.9790 C.3   1 <1>   0.1400 
 12 C        5.5950    -5.6960    -0.2800 C.ar  1 <1>  -0.1440 
 13 C        4.0910    -7.7250    -0.1150 C.3   1 <1>  -0.0160 
 14 C        5.4610    -7.0630    -0.0630 C.ar  1 <1>  -0.1430 
 15 C        6.8550    -5.1200    -0.2230 C.ar  1 <1>  -0.1500 
 16 C        6.5800    -7.8340     0.2080 C.ar  1 <1>  -0.1500 
 17 C        7.9840    -5.8870     0.0470 C.ar  1 <1>   0.0830 
 18 C        7.8450    -7.2590     0.2650 C.ar  1 <1>   0.0830 
 19 O        9.2380    -5.3510     0.1090 O.3   1 <1>  -0.3630 
 20 O        8.9710    -7.9850     0.5280 O.3   1 <1>  -0.3630 
 21 C        9.4720    -3.9710    -0.0510 C.3   1 <1>   0.0400 
 22 C        8.9190    -9.3670     0.7970 C.3   1 <1>   0.0400 
 23 H        1.8480    -0.3640     0.1090 H     1 <1>   0.1500 
 24 H        2.4620    -2.5370    -1.3140 H     1 <1>   0.1500 
 25 H        4.4140    -3.9720     0.1060 H     1 <1>   0.0800 
 26 H        4.5010    -4.4040    -1.5820 H     1 <1>   0.0800 
 27 H        3.4590    -6.9270    -2.0030 H     1 <1>   0.0800 
 28 H        2.1440    -7.3580    -0.9430 H     1 <1>   0.0800 
 29 H        4.1740    -8.7170    -0.5200 H     1 <1>   0.0800 
 30 H        3.6920    -7.8020     0.8810 H     1 <1>   0.0800 
 31 H        6.9440    -4.0650    -0.3920 H     1 <1>   0.1500 
 32 H        6.4480    -8.8850     0.3760 H     1 <1>   0.1500 
 33 H       10.5270    -3.7990     0.0590 H     1 <1>   0.0800 
 34 H        8.9330    -3.4360     0.7110 H     1 <1>   0.0800 
 35 H        9.1540    -3.6750    -1.0340 H     1 <1>   0.0800 
 36 H        9.9220    -9.7060     0.9860 H     1 <1>   0.0800 
 37 H        8.5180    -9.8750    -0.0620 H     1 <1>   0.0800 
 38 H        8.3090    -9.5310     1.6670 H     1 <1>   0.0800 
@<TRIPOS>BOND
  1   1   2  1   
  2   2   3  1   
  3   2   4  2   
  4   3   5  1   
  5   4   6  1   
  6   4  23  1   
  7   5   6  2   
  8   5   7  1   
  9   6  24  1   
 10   7   8  2   
 11   7   9  am  
 12   9  10  1   
 13   9  11  1   
 14  10  12  1   
 15  10  25  1   
 16  10  26  1   
 17  11  13  1   
 18  11  27  1   
 19  11  28  1   
 20  12  14  ar  
 21  12  15  ar  
 22  13  14  1   
 23  13  29  1   
 24  13  30  1   
 25  14  16  ar  
 26  15  17  ar  
 27  15  31  1   
 28  16  18  ar  
 29  16  32  1   
 30  17  18  ar  
 31  17  19  1   
 32  18  20  1   
 33  19  21  1   
 34  20  22  1   
 35  21  33  1   
 36  21  34  1   
 37  21  35  1   
 38  22  36  1   
 39  22  37  1   
 40  22  38  1   
@<TRIPOS>SUBSTRUCTURE
  1 ****  10 GROUP 4 **** **** 0

# MOE 2024.06 (io_trps.svl 2023.06)
