@<TRIPOS>MOLECULE
NONAME
46 48 1 0 0 
SMALL
USER_CHARGES


@<TRIPOS>ATOM
  1 S       -0.3210    -0.1370     0.4500 S.3   1 <1>  -0.3610 
  2 C        1.4130    -0.0720     0.2470 C.cat 1 <1>   0.8400 
  3 C       -0.8650     1.6160     0.7240 C.3   1 <1>   0.2110 
  4 N        2.0030    -1.2320     0.1730 N.pl3 1 <1>  -0.7940 
  5 N        2.0570     1.0860     0.1980 N.pl3 1 <1>  -0.7250 
  6 C       -2.3620     1.7780     0.4330 C.2   1 <1>   0.5690 
  7 C        0.0140     2.4890    -0.1640 C.3   1 <1>  -0.0990 
  8 C        3.4550    -1.4400     0.0140 C.3   1 <1>   0.3290 
  9 C        1.4580     2.3300     0.2260 C.2   1 <1>   0.8900 
 10 C        3.5510     1.0840     0.1750 C.3   1 <1>   0.3300 
 11 O       -2.7540     2.8810     0.1410 O.2   1 <1>  -0.5700 
 12 N       -3.1860     0.6860     0.5170 N.am  1 <1>  -0.5470 
 13 C        4.0800    -0.1610    -0.5420 C.3   1 <1>  -0.1600 
 14 O        2.0780     3.3010     0.5490 O.2   1 <1>  -0.5700 
 15 C       -4.5770     0.5670     0.3430 C.ar  1 <1>   0.1170 
 16 C       -5.1030    -0.6790     0.0250 C.ar  1 <1>  -0.1500 
 17 C       -5.4570     1.6360     0.4930 C.ar  1 <1>  -0.1500 
 18 C       -6.4650    -0.8530    -0.1440 C.ar  1 <1>  -0.1500 
 19 C       -6.8200     1.4680     0.3230 C.ar  1 <1>  -0.1500 
 20 C       -7.3340     0.2160     0.0010 C.ar  1 <1>   0.0830 
 21 O       -8.6550    -0.0400    -0.1840 O.3   1 <1>  -0.3630 
 22 C       -9.6120     0.9900    -0.0890 C.3   1 <1>   0.1200 
 23 C      -10.9910     0.3890    -0.3670 C.3   1 <1>  -0.1600 
 24 C      -12.0910     1.4530    -0.2830 C.3   1 <1>  -0.2400 
 25 H       -0.6910     1.8390     1.7630 H     1 <1>   0.0800 
 26 H        1.4380    -2.0850     0.2420 H     1 <1>   0.4500 
 27 H       -0.2630     3.5220    -0.0430 H     1 <1>   0.0800 
 28 H       -0.1180     2.2310    -1.1990 H     1 <1>   0.0800 
 29 H        3.6400    -2.2600    -0.6610 H     1 <1>   0.0800 
 30 H        3.8870    -1.6820     0.9730 H     1 <1>   0.0800 
 31 H        3.9180     1.1130     1.1890 H     1 <1>   0.0800 
 32 H        3.9230     1.9590    -0.3360 H     1 <1>   0.0800 
 33 H       -2.7150    -0.2030     0.6830 H     1 <1>   0.3700 
 34 H        3.8620    -0.0850    -1.5930 H     1 <1>   0.0800 
 35 H        5.1500    -0.2100    -0.4420 H     1 <1>   0.0800 
 36 H       -4.4510    -1.5240    -0.0970 H     1 <1>   0.1500 
 37 H       -5.0840     2.6100     0.7480 H     1 <1>   0.1500 
 38 H       -6.8680    -1.8180    -0.3930 H     1 <1>   0.1500 
 39 H       -7.4600     2.3210     0.4460 H     1 <1>   0.1500 
 40 H       -9.3720     1.7440    -0.8190 H     1 <1>   0.0800 
 41 H       -9.5710     1.4030     0.9040 H     1 <1>   0.0800 
 42 H      -11.1900    -0.3850     0.3540 H     1 <1>   0.0800 
 43 H      -10.9940    -0.0470    -1.3510 H     1 <1>   0.0800 
 44 H      -12.1170     1.8910     0.7000 H     1 <1>   0.0800 
 45 H      -13.0500     1.0060    -0.4820 H     1 <1>   0.0800 
 46 H      -11.9200     2.2300    -1.0070 H     1 <1>   0.0800 
@<TRIPOS>BOND
  1   1   2  1   
  2   1   3  1   
  3   2   4  ar  
  4   2   5  ar  
  5   3   6  1   
  6   3   7  1   
  7   3  25  1   
  8   4   8  1   
  9   4  26  1   
 10   5   9  1   
 11   5  10  1   
 12   6  11  2   
 13   6  12  am  
 14   7   9  1   
 15   7  27  1   
 16   7  28  1   
 17   8  13  1   
 18   8  29  1   
 19   8  30  1   
 20   9  14  2   
 21  10  13  1   
 22  10  31  1   
 23  10  32  1   
 24  12  15  1   
 25  12  33  1   
 26  13  34  1   
 27  13  35  1   
 28  15  16  ar  
 29  15  17  ar  
 30  16  18  ar  
 31  16  36  1   
 32  17  19  ar  
 33  17  37  1   
 34  18  20  ar  
 35  18  38  1   
 36  19  20  ar  
 37  19  39  1   
 38  20  21  1   
 39  21  22  1   
 40  22  23  1   
 41  22  40  1   
 42  22  41  1   
 43  23  24  1   
 44  23  42  1   
 45  23  43  1   
 46  24  44  1   
 47  24  45  1   
 48  24  46  1   
@<TRIPOS>SUBSTRUCTURE
  1 ****  12 GROUP 4 **** **** 0

# MOE 2024.06 (io_trps.svl 2023.06)
