@<TRIPOS>MOLECULE
NONAME
37 38 1 0 0 
SMALL
USER_CHARGES


@<TRIPOS>ATOM
  1 S       -0.0820    -0.0720     0.5380 S.o2  1 <1>   1.4470 
  2 O       -0.3600     0.1850     1.9330 O.2   1 <1>  -0.6500 
  3 O       -0.6520    -1.2210    -0.1270 O.2   1 <1>  -0.6500 
  4 N       -0.6470     1.2320    -0.3500 N.am  1 <1>  -0.9140 
  5 C        1.7070    -0.0040     0.2520 C.ar  1 <1>  -0.0090 
  6 C       -1.8490     1.8560     0.1600 C.3   1 <1>   0.2760 
  7 C        2.3500    -0.9500    -0.5400 C.ar  1 <1>  -0.1500 
  8 C        2.4810     1.0120     0.8080 C.ar  1 <1>  -0.1500 
  9 C       -3.0700     0.9440    -0.0470 C.3   1 <1>  -0.1600 
 10 C       -2.0290     3.1800    -0.5900 C.3   1 <1>  -0.1600 
 11 C        3.7120    -0.8620    -0.7490 C.ar  1 <1>   0.1900 
 12 C        3.8490     1.0950     0.5960 C.ar  1 <1>  -0.1500 
 13 C       -4.3720     1.6500     0.3580 C.3   1 <1>  -0.1600 
 14 C       -3.3270     3.8910    -0.1790 C.3   1 <1>  -0.1600 
 15 F        4.2720    -1.7750    -1.5020 F     1 <1>  -0.1900 
 16 C        4.4910     0.1480    -0.1960 C.ar  1 <1>   0.0830 
 17 C       -4.5430     2.9800    -0.3870 C.3   1 <1>  -0.1600 
 18 O        5.8280     0.1650    -0.4500 O.3   1 <1>  -0.3620 
 19 C        6.6730     1.1570     0.0900 C.3   1 <1>   0.0400 
 20 H       -0.8900     0.8280    -1.2500 H     1 <1>   0.4200 
 21 H       -1.7350     2.0780     1.2100 H     1 <1>   0.0800 
 22 H        1.7960    -1.7540    -0.9930 H     1 <1>   0.1500 
 23 H        1.9960     1.7530     1.4230 H     1 <1>   0.1500 
 24 H       -2.9710     0.0540     0.5480 H     1 <1>   0.0800 
 25 H       -3.1380     0.6570    -1.0820 H     1 <1>   0.0800 
 26 H       -2.0550     2.9940    -1.6500 H     1 <1>   0.0800 
 27 H       -1.1930     3.8230    -0.3790 H     1 <1>   0.0800 
 28 H        4.3920     1.9010     1.0530 H     1 <1>   0.1500 
 29 H       -4.3610     1.8350     1.4190 H     1 <1>   0.0800 
 30 H       -5.2100     1.0080     0.1470 H     1 <1>   0.0800 
 31 H       -3.4460     4.7900    -0.7600 H     1 <1>   0.0800 
 32 H       -3.2660     4.1750     0.8580 H     1 <1>   0.0800 
 33 H       -5.4310     3.4780    -0.0350 H     1 <1>   0.0800 
 34 H       -4.6700     2.7860    -1.4380 H     1 <1>   0.0800 
 35 H        7.6750     0.9590    -0.2460 H     1 <1>   0.0800 
 36 H        6.6320     1.1050     1.1640 H     1 <1>   0.0800 
 37 H        6.3530     2.1200    -0.2650 H     1 <1>   0.0800 
@<TRIPOS>BOND
  1   1   2  2   
  2   1   3  2   
  3   1   4  am  
  4   1   5  1   
  5   4   6  1   
  6   4  20  1   
  7   5   7  ar  
  8   5   8  ar  
  9   6   9  1   
 10   6  10  1   
 11   6  21  1   
 12   7  11  ar  
 13   7  22  1   
 14   8  12  ar  
 15   8  23  1   
 16   9  13  1   
 17   9  24  1   
 18   9  25  1   
 19  10  14  1   
 20  10  26  1   
 21  10  27  1   
 22  11  15  1   
 23  11  16  ar  
 24  12  16  ar  
 25  12  28  1   
 26  13  17  1   
 27  13  29  1   
 28  13  30  1   
 29  14  17  1   
 30  14  31  1   
 31  14  32  1   
 32  16  18  1   
 33  17  33  1   
 34  17  34  1   
 35  18  19  1   
 36  19  35  1   
 37  19  36  1   
 38  19  37  1   
@<TRIPOS>SUBSTRUCTURE
  1 ****   5 GROUP 4 **** **** 0

# MOE 2024.06 (io_trps.svl 2023.06)
