@<TRIPOS>MOLECULE
NONAME
43 45 1 0 0 
SMALL
USER_CHARGES


@<TRIPOS>ATOM
  1 BR      -1.6670    -3.6220    -4.2710 Br    1 <1>  -0.1110 
  2 C       -2.4300    -3.2250    -2.5450 C.ar  1 <1>   0.1110 
  3 C       -3.7020    -2.6900    -2.4860 C.ar  1 <1>  -0.1500 
  4 C       -1.6840    -3.4840    -1.4110 C.ar  1 <1>  -0.1500 
  5 C       -4.2430    -2.4090    -1.2440 C.ar  1 <1>  -0.1500 
  6 C       -2.2400    -3.1980    -0.1770 C.ar  1 <1>  -0.1500 
  7 C       -3.5230    -2.6650    -0.0760 C.ar  1 <1>   0.1000 
  8 N       -4.0460    -2.3950     1.1840 N.pl3 1 <1>  -0.8690 
  9 C       -5.4670    -2.7550     1.4810 C.3   1 <1>   0.2090 
 10 C       -6.3510    -1.4970     1.5310 C.3   1 <1>   0.2000 
 11 O       -5.7010    -0.5340     2.2850 O.3   1 <1>  -0.6800 
 12 C       -7.7330    -1.7660     2.1340 C.3   1 <1>   0.0960 
 13 N       -8.6440    -0.6280     1.8880 N.pl3 1 <1>   0.0480 
 14 C       -9.2900    -0.3390     0.7300 C.2   1 <1>  -0.2370 
 15 C       -9.0490     0.3260     2.7530 C.2   1 <1>   0.0360 
 16 C       -9.2820    -0.9360    -0.5540 C.2   1 <1>   0.7150 
 17 C      -10.0370     0.7540     0.9910 C.2   1 <1>   0.2900 
 18 N       -9.8950     1.1770     2.2540 N.2   1 <1>  -0.5650 
 19 O       -8.5770    -1.9030    -0.7950 O.2   1 <1>  -0.5700 
 20 N      -10.0930    -0.3800    -1.5270 N.am  1 <1>  -0.4200 
 21 N      -10.8350     1.3230     0.0060 N.am  1 <1>  -0.4230 
 22 C      -10.8520     0.7540    -1.2550 C.2   1 <1>   0.6900 
 23 C      -10.1330    -0.9690    -2.8980 C.3   1 <1>   0.0600 
 24 C      -11.6220     2.5360     0.3510 C.3   1 <1>   0.0600 
 25 O      -11.5310     1.2460    -2.1410 O.2   1 <1>  -0.5700 
 26 H       -4.2520    -2.4970    -3.3890 H     1 <1>   0.1500 
 27 H       -0.6960    -3.8970    -1.4960 H     1 <1>   0.1500 
 28 H       -5.2270    -1.9840    -1.1860 H     1 <1>   0.1500 
 29 H       -1.6750    -3.3880     0.7160 H     1 <1>   0.1500 
 30 H       -3.4210    -2.6820     1.9470 H     1 <1>   0.4000 
 31 H       -5.5100    -3.2610     2.4300 H     1 <1>   0.0800 
 32 H       -5.8440    -3.4310     0.7320 H     1 <1>   0.0800 
 33 H       -6.4560    -1.1140     0.5320 H     1 <1>   0.0800 
 34 H       -4.7640    -0.5340     1.9830 H     1 <1>   0.4000 
 35 H       -7.6470    -1.9390     3.1910 H     1 <1>   0.0800 
 36 H       -8.1620    -2.6400     1.6790 H     1 <1>   0.0800 
 37 H       -8.6880     0.3630     3.7670 H     1 <1>   0.1500 
 38 H       -9.7870    -1.9880    -2.8910 H     1 <1>   0.0800 
 39 H       -9.5090    -0.3880    -3.5540 H     1 <1>   0.0800 
 40 H      -11.1410    -0.9560    -3.2740 H     1 <1>   0.0800 
 41 H      -12.2760     2.3130     1.1760 H     1 <1>   0.0800 
 42 H      -12.2140     2.8670    -0.4840 H     1 <1>   0.0800 
 43 H      -10.9510     3.3250     0.6410 H     1 <1>   0.0800 
@<TRIPOS>BOND
  1   1   2  1   
  2   2   3  ar  
  3   2   4  ar  
  4   3   5  ar  
  5   3  26  1   
  6   4   6  ar  
  7   4  27  1   
  8   5   7  ar  
  9   5  28  1   
 10   6   7  ar  
 11   6  29  1   
 12   7   8  1   
 13   8   9  1   
 14   8  30  1   
 15   9  10  1   
 16   9  31  1   
 17   9  32  1   
 18  10  11  1   
 19  10  12  1   
 20  10  33  1   
 21  11  34  1   
 22  12  13  1   
 23  12  35  1   
 24  12  36  1   
 25  13  14  1   
 26  13  15  1   
 27  14  16  1   
 28  14  17  2   
 29  15  18  2   
 30  15  37  1   
 31  16  19  2   
 32  16  20  am  
 33  17  18  1   
 34  17  21  1   
 35  20  22  am  
 36  20  23  1   
 37  21  22  am  
 38  21  24  1   
 39  22  25  2   
 40  23  38  1   
 41  23  39  1   
 42  23  40  1   
 43  24  41  1   
 44  24  42  1   
 45  24  43  1   
@<TRIPOS>SUBSTRUCTURE
  1 ****  19 GROUP 4 **** **** 0

# MOE 2024.06 (io_trps.svl 2023.06)
