@<TRIPOS>MOLECULE
NONAME
50 51 1 0 0 
SMALL
USER_CHARGES


@<TRIPOS>ATOM
  1 O       -2.9480    -7.6480     0.0010 O.3   1 <1>  -0.3630 
  2 C       -3.7790    -6.5900     0.1820 C.ar  1 <1>   0.0830 
  3 C       -1.5660    -7.5350     0.2210 C.3   1 <1>   0.1200 
  4 C       -5.1170    -6.7970    -0.1100 C.ar  1 <1>  -0.1500 
  5 C       -3.3590    -5.3420     0.6330 C.ar  1 <1>  -0.1500 
  6 C       -0.9490    -8.8990    -0.0990 C.3   1 <1>   0.3430 
  7 C       -6.0440    -5.7780     0.0380 C.ar  1 <1>  -0.1440 
  8 C       -4.2760    -4.3160     0.7880 C.ar  1 <1>  -0.1440 
  9 N        0.5350    -8.9350     0.1180 N.4   1 <1>  -0.9590 
 10 C       -5.6100    -4.5390     0.4880 C.ar  1 <1>  -0.1500 
 11 C       -7.5140    -6.0320    -0.2920 C.3   1 <1>   0.0630 
 12 C       -3.8360    -2.9480     1.2780 C.3   1 <1>  -0.0970 
 13 C        1.2720    -8.0740    -0.8580 C.3   1 <1>   0.3430 
 14 C        1.0230   -10.3440     0.0650 C.3   1 <1>   0.3430 
 15 C       -7.9820    -5.1250    -1.4350 C.3   1 <1>  -0.2400 
 16 C       -8.3930    -5.8450     0.9480 C.3   1 <1>  -0.2400 
 17 C        2.7630    -8.0720    -0.5200 C.3   1 <1>  -0.1600 
 18 C        2.5090   -10.3900     0.4240 C.3   1 <1>  -0.1600 
 19 C        3.3420    -9.4930    -0.5010 C.3   1 <1>  -0.0800 
 20 C        4.8090    -9.4740    -0.0580 C.3   1 <1>  -0.2400 
 21 H       -1.4130    -7.2740     1.2530 H     1 <1>   0.0800 
 22 H       -1.1910    -6.7690    -0.4340 H     1 <1>   0.0800 
 23 H       -5.4260    -7.7660    -0.4560 H     1 <1>   0.1500 
 24 H       -2.3320    -5.1480     0.8700 H     1 <1>   0.1500 
 25 H       -1.1710    -9.1500    -1.1230 H     1 <1>   0.0800 
 26 H       -1.4190    -9.6310     0.5380 H     1 <1>   0.0800 
 27 H        0.7440    -8.5850     1.0630 H     1 <1>   0.4500 
 28 H       -6.3170    -3.7380     0.6070 H     1 <1>   0.1500 
 29 H       -7.6230    -7.0520    -0.6190 H     1 <1>   0.0800 
 30 H       -2.8910    -3.0070     1.7870 H     1 <1>   0.0800 
 31 H       -4.5630    -2.5490     1.9620 H     1 <1>   0.0800 
 32 H       -3.7400    -2.2760     0.4440 H     1 <1>   0.0800 
 33 H        0.9000    -7.0630    -0.8230 H     1 <1>   0.0800 
 34 H        1.1320    -8.4530    -1.8580 H     1 <1>   0.0800 
 35 H        0.8800   -10.7450    -0.9260 H     1 <1>   0.0800 
 36 H        0.4690   -10.9550     0.7610 H     1 <1>   0.0800 
 37 H       -7.9430    -4.0910    -1.1440 H     1 <1>   0.0800 
 38 H       -8.9930    -5.3660    -1.7120 H     1 <1>   0.0800 
 39 H       -7.3490    -5.2640    -2.2930 H     1 <1>   0.0800 
 40 H       -8.3630    -4.8260     1.2890 H     1 <1>   0.0800 
 41 H       -8.0450    -6.4820     1.7410 H     1 <1>   0.0800 
 42 H       -9.4130    -6.1020     0.7240 H     1 <1>   0.0800 
 43 H        2.9110    -7.5950     0.4340 H     1 <1>   0.0800 
 44 H        3.2850    -7.4850    -1.2560 H     1 <1>   0.0800 
 45 H        2.8540   -11.4070     0.3410 H     1 <1>   0.0800 
 46 H        2.6370   -10.0920     1.4500 H     1 <1>   0.0800 
 47 H        3.3000    -9.8960    -1.5010 H     1 <1>   0.0800 
 48 H        4.9080    -9.0790     0.9380 H     1 <1>   0.0800 
 49 H        5.3950    -8.8650    -0.7250 H     1 <1>   0.0800 
 50 H        5.2180   -10.4690    -0.0710 H     1 <1>   0.0800 
@<TRIPOS>BOND
  1   1   2  1   
  2   1   3  1   
  3   2   4  ar  
  4   2   5  ar  
  5   3   6  1   
  6   3  21  1   
  7   3  22  1   
  8   4   7  ar  
  9   4  23  1   
 10   5   8  ar  
 11   5  24  1   
 12   6   9  1   
 13   6  25  1   
 14   6  26  1   
 15   7  10  ar  
 16   7  11  1   
 17   8  10  ar  
 18   8  12  1   
 19   9  13  1   
 20   9  14  1   
 21   9  27  1   
 22  10  28  1   
 23  11  15  1   
 24  11  16  1   
 25  11  29  1   
 26  12  30  1   
 27  12  31  1   
 28  12  32  1   
 29  13  17  1   
 30  13  33  1   
 31  13  34  1   
 32  14  18  1   
 33  14  35  1   
 34  14  36  1   
 35  15  37  1   
 36  15  38  1   
 37  15  39  1   
 38  16  40  1   
 39  16  41  1   
 40  16  42  1   
 41  17  19  1   
 42  17  43  1   
 43  17  44  1   
 44  18  19  1   
 45  18  45  1   
 46  18  46  1   
 47  19  20  1   
 48  19  47  1   
 49  20  48  1   
 50  20  49  1   
 51  20  50  1   
@<TRIPOS>SUBSTRUCTURE
  1 ****   3 GROUP 4 **** **** 0

# MOE 2024.06 (io_trps.svl 2023.06)
