@<TRIPOS>MOLECULE
NONAME
55 57 1 0 0 
SMALL
USER_CHARGES


@<TRIPOS>ATOM
  1 BR       1.5920    -0.2800     0.9820 Br    1 <1>  -0.1110 
  2 C        0.5240    -1.8450     0.6130 C.ar  1 <1>   0.1110 
  3 C        0.8970    -2.7130    -0.4050 C.ar  1 <1>   0.0820 
  4 C       -0.5970    -2.0490     1.3920 C.ar  1 <1>  -0.1500 
  5 O        2.0200    -2.4260    -1.1150 O.3   1 <1>  -0.3630 
  6 C        0.0980    -3.8280    -0.6400 C.ar  1 <1>  -0.1500 
  7 C       -1.3890    -3.1610     1.1480 C.ar  1 <1>  -0.1430 
  8 C        2.5320    -3.3040    -2.0930 C.3   1 <1>   0.0400 
  9 C       -1.0410    -4.0500     0.1330 C.ar  1 <1>   0.0830 
 10 C       -2.6260    -3.4170     1.9880 C.3   1 <1>   0.4870 
 11 O       -1.8660    -5.1150    -0.0550 O.3   1 <1>  -0.3630 
 12 N       -3.7400    -2.5780     1.4770 N.4   1 <1>  -0.9590 
 13 C       -1.4930    -6.1960    -0.8870 C.3   1 <1>   0.0400 
 14 C       -4.9120    -2.5640     2.4230 C.3   1 <1>   0.3430 
 15 C       -4.1770    -3.0340     0.1050 C.3   1 <1>   0.3430 
 16 C       -6.0830    -1.7130     1.8940 C.3   1 <1>   0.2090 
 17 C       -5.3470    -2.1980    -0.4500 C.3   1 <1>   0.2090 
 18 N       -6.4820    -2.1400     0.5210 N.pl3 1 <1>  -0.8380 
 19 C       -7.6300    -1.5020     0.0280 C.ar  1 <1>   0.1000 
 20 C       -7.6970    -0.1280    -0.2710 C.ar  1 <1>   0.0830 
 21 C       -8.7580    -2.2850    -0.1690 C.ar  1 <1>  -0.1500 
 22 O       -6.5750     0.6350    -0.0730 O.3   1 <1>  -0.3630 
 23 C       -8.8860     0.4120    -0.7540 C.ar  1 <1>  -0.1500 
 24 C       -9.9340    -1.7400    -0.6490 C.ar  1 <1>  -0.1500 
 25 C       -6.5650     2.0120    -0.3740 C.3   1 <1>   0.1200 
 26 C       -9.9980    -0.3910    -0.9420 C.ar  1 <1>  -0.1500 
 27 C       -5.1760     2.5540    -0.0540 C.3   1 <1>  -0.2400 
 28 H       -0.8250    -1.3430     2.1710 H     1 <1>   0.1500 
 29 H        0.3620    -4.5100    -1.4230 H     1 <1>   0.1500 
 30 H        3.4400    -2.8780    -2.4790 H     1 <1>   0.0800 
 31 H        1.8120    -3.4050    -2.8860 H     1 <1>   0.0800 
 32 H        2.7420    -4.2550    -1.6350 H     1 <1>   0.0800 
 33 H       -2.4120    -3.1650     3.0130 H     1 <1>   0.0800 
 34 H       -2.8940    -4.4610     1.9440 H     1 <1>   0.0800 
 35 H       -3.3920    -1.6180     1.3740 H     1 <1>   0.4500 
 36 H       -1.4340    -5.8540    -1.9060 H     1 <1>   0.0800 
 37 H       -2.2460    -6.9600    -0.8060 H     1 <1>   0.0800 
 38 H       -0.5460    -6.5850    -0.5570 H     1 <1>   0.0800 
 39 H       -4.6070    -2.1790     3.3820 H     1 <1>   0.0800 
 40 H       -5.2720    -3.5690     2.5670 H     1 <1>   0.0800 
 41 H       -4.4900    -4.0640     0.1500 H     1 <1>   0.0800 
 42 H       -3.3500    -2.9750    -0.5830 H     1 <1>   0.0800 
 43 H       -5.8000    -0.6750     1.8890 H     1 <1>   0.0800 
 44 H       -6.9290    -1.8190     2.5520 H     1 <1>   0.0800 
 45 H       -5.6950    -2.6390    -1.3690 H     1 <1>   0.0800 
 46 H       -5.0030    -1.2040    -0.6740 H     1 <1>   0.0800 
 47 H       -8.7080    -3.3330     0.0590 H     1 <1>   0.1500 
 48 H       -8.9770     1.4540    -0.9930 H     1 <1>   0.1500 
 49 H      -10.7980    -2.3650    -0.7950 H     1 <1>   0.1500 
 50 H       -7.3110     2.4990     0.2300 H     1 <1>   0.0800 
 51 H       -6.7900     2.1360    -1.4190 H     1 <1>   0.0800 
 52 H      -10.9130     0.0350    -1.3160 H     1 <1>   0.1500 
 53 H       -4.9530     2.4150     0.9880 H     1 <1>   0.0800 
 54 H       -5.1400     3.6060    -0.2730 H     1 <1>   0.0800 
 55 H       -4.4360     2.0570    -0.6550 H     1 <1>   0.0800 
@<TRIPOS>BOND
  1   1   2  1   
  2   2   3  ar  
  3   2   4  ar  
  4   3   5  1   
  5   3   6  ar  
  6   4   7  ar  
  7   4  28  1   
  8   5   8  1   
  9   6   9  ar  
 10   6  29  1   
 11   7   9  ar  
 12   7  10  1   
 13   8  30  1   
 14   8  31  1   
 15   8  32  1   
 16   9  11  1   
 17  10  12  1   
 18  10  33  1   
 19  10  34  1   
 20  11  13  1   
 21  12  14  1   
 22  12  15  1   
 23  12  35  1   
 24  13  36  1   
 25  13  37  1   
 26  13  38  1   
 27  14  16  1   
 28  14  39  1   
 29  14  40  1   
 30  15  17  1   
 31  15  41  1   
 32  15  42  1   
 33  16  18  1   
 34  16  43  1   
 35  16  44  1   
 36  17  18  1   
 37  17  45  1   
 38  17  46  1   
 39  18  19  1   
 40  19  20  ar  
 41  19  21  ar  
 42  20  22  1   
 43  20  23  ar  
 44  21  24  ar  
 45  21  47  1   
 46  22  25  1   
 47  23  26  ar  
 48  23  48  1   
 49  24  26  ar  
 50  24  49  1   
 51  25  27  1   
 52  25  50  1   
 53  25  51  1   
 54  26  52  1   
 55  27  53  1   
 56  27  54  1   
 57  27  55  1   
@<TRIPOS>SUBSTRUCTURE
  1 ****  15 GROUP 4 **** **** 0

# MOE 2024.06 (io_trps.svl 2023.06)
