@<TRIPOS>MOLECULE
NONAME
40 45 1 0 0 
SMALL
USER_CHARGES


@<TRIPOS>ATOM
  1 O        0.3960    -0.3600    -1.1870 O.3   1 <1>  -0.5600 
  2 C        0.3910    -1.6940    -0.7890 C.3   1 <1>   0.2000 
  3 C        1.3680     0.4320    -0.5780 C.3   1 <1>   0.0400 
  4 C       -0.6230    -2.5340    -1.5780 C.3   1 <1>  -0.0800 
  5 C       -0.0680    -1.9510     0.6540 C.3   1 <1>   0.0000 
  6 C       -2.1510    -2.2500    -1.2630 C.3   1 <1>  -0.0800 
  7 C       -0.3950    -3.8930    -0.8890 C.3   1 <1>  -0.0800 
  8 C       -1.5920    -1.6710     0.9610 C.3   1 <1>   0.0000 
  9 C       -0.3710    -3.4750     0.5980 C.3   1 <1>   0.0000 
 10 C       -2.4440    -1.1490    -0.2160 C.3   1 <1>   0.4240 
 11 C       -2.5410    -3.5060    -0.4530 C.3   1 <1>  -0.0800 
 12 C       -1.7100    -4.6180    -1.0490 C.3   1 <1>  -0.1600 
 13 C       -1.8630    -3.2040     0.9010 C.3   1 <1>   0.0000 
 14 O       -2.0240     0.0920    -0.6410 O.3   1 <1>  -0.6800 
 15 C       -3.9590    -1.0190     0.0620 C.ar  1 <1>  -0.1440 
 16 C       -4.5480    -1.3450     1.2820 C.ar  1 <1>  -0.1500 
 17 C       -4.7870    -0.5590    -0.9560 C.ar  1 <1>  -0.1500 
 18 C       -5.9150    -1.2260     1.4680 C.ar  1 <1>  -0.1500 
 19 C       -6.1540    -0.4390    -0.7750 C.ar  1 <1>  -0.1500 
 20 C       -6.7210    -0.7750     0.4400 C.ar  1 <1>  -0.1500 
 21 H        1.3840    -2.0850    -0.9430 H     1 <1>   0.0800 
 22 H        1.3080     1.4190    -1.0010 H     1 <1>   0.0800 
 23 H        2.3420     0.0150    -0.7690 H     1 <1>   0.0800 
 24 H        1.1780     0.4850     0.4800 H     1 <1>   0.0800 
 25 H       -0.4100    -2.5750    -2.6320 H     1 <1>   0.0800 
 26 H        0.6230    -1.6950     1.4370 H     1 <1>   0.0000 
 27 H       -2.7430    -2.1540    -2.1550 H     1 <1>   0.0800 
 28 H        0.4820    -4.4250    -1.2170 H     1 <1>   0.0800 
 29 H       -1.7710    -1.2360     1.9290 H     1 <1>   0.0000 
 30 H        0.1320    -4.1120     1.3040 H     1 <1>   0.0000 
 31 H       -3.6000    -3.6950    -0.3900 H     1 <1>   0.0800 
 32 H       -1.7560    -5.5230    -0.4670 H     1 <1>   0.0800 
 33 H       -1.9560    -4.8110    -2.0800 H     1 <1>   0.0800 
 34 H       -2.2450    -3.6830     1.7850 H     1 <1>   0.0000 
 35 H       -1.0700     0.0100    -0.9160 H     1 <1>   0.4000 
 36 H       -3.9600    -1.6960     2.1080 H     1 <1>   0.1500 
 37 H       -4.3580    -0.2830    -1.9040 H     1 <1>   0.1500 
 38 H       -6.3510    -1.4840     2.4170 H     1 <1>   0.1500 
 39 H       -6.7720    -0.0810    -1.5790 H     1 <1>   0.1500 
 40 H       -7.7820    -0.6830     0.5850 H     1 <1>   0.1500 
@<TRIPOS>BOND
  1   1   2  1   
  2   1   3  1   
  3   2   4  1   
  4   2   5  1   
  5   2  21  1   
  6   3  22  1   
  7   3  23  1   
  8   3  24  1   
  9   4   6  1   
 10   4   7  1   
 11   4  25  1   
 12   5   8  1   
 13   5   9  1   
 14   5  26  1   
 15   6  10  1   
 16   6  11  1   
 17   6  27  1   
 18   7   9  1   
 19   7  12  1   
 20   7  28  1   
 21   8  10  1   
 22   8  13  1   
 23   8  29  1   
 24   9  13  1   
 25   9  30  1   
 26  10  14  1   
 27  10  15  1   
 28  11  12  1   
 29  11  13  1   
 30  11  31  1   
 31  12  32  1   
 32  12  33  1   
 33  13  34  1   
 34  14  35  1   
 35  15  16  ar  
 36  15  17  ar  
 37  16  18  ar  
 38  16  36  1   
 39  17  19  ar  
 40  17  37  1   
 41  18  20  ar  
 42  18  38  1   
 43  19  20  ar  
 44  19  39  1   
 45  20  40  1   
@<TRIPOS>SUBSTRUCTURE
  1 ****  10 GROUP 4 **** **** 0

# MOE 2024.06 (io_trps.svl 2023.06)
