@<TRIPOS>MOLECULE
NONAME
49 52 1 0 0 
SMALL
USER_CHARGES


@<TRIPOS>ATOM
  1 O        2.4810    -1.8540     1.8700 O.2   1 <1>  -0.5700 
  2 C        2.2520    -0.6980     2.1310 C.2   1 <1>   0.5690 
  3 N        1.8580     0.2010     1.1760 N.am  1 <1>  -0.6600 
  4 C        2.4200    -0.2870     3.5780 C.3   1 <1>  -0.1790 
  5 C        1.5140     1.6210     1.4970 C.3   1 <1>   0.4000 
  6 C        1.7870    -0.2410    -0.2600 C.3   1 <1>   0.2840 
  7 C        0.3280     2.1070     0.6810 C.2   1 <1>  -0.3320 
  8 C        2.7350     2.5520     1.3160 C.3   1 <1>  -0.1600 
  9 C        2.9760     0.2510    -1.0680 C.ar  1 <1>  -0.1440 
 10 N       -0.8730     1.4630     0.5720 N.pl3 1 <1>   0.0330 
 11 C        0.2890     3.2560    -0.0260 C.2   1 <1>  -0.1810 
 12 C        2.3510     4.0370     1.1340 C.3   1 <1>  -0.1600 
 13 C        4.2390    -0.2750    -0.8440 C.ar  1 <1>  -0.1500 
 14 C        2.8080     1.2310    -2.0350 C.ar  1 <1>  -0.1500 
 15 C       -1.6790     2.2100    -0.2510 C.ar  1 <1>  -0.1520 
 16 C       -0.9760     3.3440    -0.6470 C.ar  1 <1>   0.0000 
 17 C        1.4330     4.2460    -0.0850 C.3   1 <1>   0.0210 
 18 C        5.3230     0.1740    -1.5770 C.ar  1 <1>  -0.1500 
 19 C        3.8910     1.6810    -2.7700 C.ar  1 <1>  -0.1500 
 20 C       -2.9850     1.9900    -0.6940 C.ar  1 <1>  -0.1500 
 21 C       -1.5830     4.2730    -1.4970 C.ar  1 <1>  -0.1500 
 22 C        5.1500     1.1530    -2.5410 C.ar  1 <1>  -0.1500 
 23 C       -3.5680     2.9140    -1.5310 C.ar  1 <1>  -0.1500 
 24 C       -2.8710     4.0600    -1.9360 C.ar  1 <1>  -0.1440 
 25 C       -3.5570     5.0500    -2.8590 C.3   1 <1>  -0.0970 
 26 H        3.0910     0.5450     3.6530 H     1 <1>   0.0800 
 27 H        2.8330    -1.1060     4.1380 H     1 <1>   0.0800 
 28 H        1.4660    -0.0340     4.0010 H     1 <1>   0.0800 
 29 H        1.2050     1.6920     2.5240 H     1 <1>   0.0800 
 30 H        0.8790     0.0980    -0.7190 H     1 <1>   0.0800 
 31 H        1.7670    -1.3150    -0.3170 H     1 <1>   0.0800 
 32 H        3.3020     2.2610     0.4550 H     1 <1>   0.0800 
 33 H        3.3780     2.4560     2.1700 H     1 <1>   0.0800 
 34 H       -1.1250     0.5680     1.0020 H     1 <1>   0.2700 
 35 H        3.2400     4.6310     1.0160 H     1 <1>   0.0800 
 36 H        1.8380     4.3780     2.0160 H     1 <1>   0.0800 
 37 H        4.3750    -1.0360    -0.0930 H     1 <1>   0.1500 
 38 H        1.8310     1.6500    -2.2140 H     1 <1>   0.1500 
 39 H        1.0480     5.2500    -0.0820 H     1 <1>   0.0800 
 40 H        1.9840     4.0920    -0.9960 H     1 <1>   0.0800 
 41 H        6.3000    -0.2390    -1.3970 H     1 <1>   0.1500 
 42 H        3.7540     2.4410    -3.5180 H     1 <1>   0.1500 
 43 H       -3.5180     1.1110    -0.3820 H     1 <1>   0.1500 
 44 H       -1.0250     5.1420    -1.7910 H     1 <1>   0.1500 
 45 H        5.9930     1.5010    -3.1110 H     1 <1>   0.1500 
 46 H       -4.5740     2.7610    -1.8810 H     1 <1>   0.1500 
 47 H       -2.9080     5.8770    -3.0860 H     1 <1>   0.0800 
 48 H       -4.4470     5.4310    -2.3900 H     1 <1>   0.0800 
 49 H       -3.8280     4.5640    -3.7790 H     1 <1>   0.0800 
@<TRIPOS>BOND
  1   1   2  2   
  2   2   3  am  
  3   2   4  1   
  4   3   5  1   
  5   3   6  1   
  6   4  26  1   
  7   4  27  1   
  8   4  28  1   
  9   5   7  1   
 10   5   8  1   
 11   5  29  1   
 12   6   9  1   
 13   6  30  1   
 14   6  31  1   
 15   7  10  1   
 16   7  11  2   
 17   8  12  1   
 18   8  32  1   
 19   8  33  1   
 20   9  13  ar  
 21   9  14  ar  
 22  10  15  1   
 23  10  34  1   
 24  11  16  1   
 25  11  17  1   
 26  12  17  1   
 27  12  35  1   
 28  12  36  1   
 29  13  18  ar  
 30  13  37  1   
 31  14  19  ar  
 32  14  38  1   
 33  15  16  ar  
 34  15  20  ar  
 35  16  21  ar  
 36  17  39  1   
 37  17  40  1   
 38  18  22  ar  
 39  18  41  1   
 40  19  22  ar  
 41  19  42  1   
 42  20  23  ar  
 43  20  43  1   
 44  21  24  ar  
 45  21  44  1   
 46  22  45  1   
 47  23  24  ar  
 48  23  46  1   
 49  24  25  1   
 50  25  47  1   
 51  25  48  1   
 52  25  49  1   
@<TRIPOS>SUBSTRUCTURE
  1 ****   7 GROUP 4 **** **** 0

# MOE 2024.06 (io_trps.svl 2023.06)
