@<TRIPOS>MOLECULE
NONAME
45 46 1 0 0 
SMALL
USER_CHARGES


@<TRIPOS>ATOM
  1 BR      -2.7960    -1.9400     1.9200 Br    1 <1>  -0.1110 
  2 C       -3.0860    -0.3380     0.8870 C.ar  1 <1>   0.1110 
  3 C       -2.1050     0.6360     0.8780 C.ar  1 <1>  -0.1500 
  4 C       -4.2670    -0.2060     0.1810 C.ar  1 <1>  -0.1500 
  5 C       -2.3220     1.7850     0.1380 C.ar  1 <1>  -0.1500 
  6 C       -4.4680     0.9480    -0.5550 C.ar  1 <1>  -0.1500 
  7 C       -3.5060     1.9510    -0.5740 C.ar  1 <1>   0.1000 
  8 N       -3.7310     3.1100    -1.2960 N.pl3 1 <1>  -0.8690 
  9 C       -4.4630     4.2160    -0.5800 C.3   1 <1>   0.4330 
 10 P       -6.2530     4.4470    -0.8670 P.3   1 <1>   1.2420 
 11 C       -3.6260     5.4620    -0.8630 C.ar  1 <1>  -0.1440 
 12 O       -6.6680     4.8080    -2.2260 O.2   1 <1>  -0.7000 
 13 O       -6.7140     5.5590     0.2010 O.3   1 <1>  -0.5510 
 14 O       -7.0070     3.1290    -0.3220 O.3   1 <1>  -0.5510 
 15 C       -2.8620     6.0390     0.1440 C.ar  1 <1>  -0.1500 
 16 C       -3.6140     6.0260    -2.1330 C.ar  1 <1>  -0.1500 
 17 C       -7.9890     6.0840     0.1170 C.3   1 <1>   0.1200 
 18 C       -6.9590     2.7430     1.0070 C.3   1 <1>   0.1200 
 19 C       -2.1010     7.1650    -0.1150 C.ar  1 <1>  -0.1500 
 20 C       -2.8560     7.1530    -2.3950 C.ar  1 <1>  -0.1500 
 21 C       -8.1690     7.0560     1.2770 C.3   1 <1>  -0.2400 
 22 C       -7.8040     1.4840     1.1510 C.3   1 <1>  -0.2400 
 23 C       -2.1010     7.7190    -1.3820 C.ar  1 <1>   0.0830 
 24 O       -1.3620     8.8110    -1.6190 O.3   1 <1>  -0.5330 
 25 H       -1.1960     0.4940     1.4350 H     1 <1>   0.1500 
 26 H       -5.0060    -0.9870     0.2040 H     1 <1>   0.1500 
 27 H       -1.5740     2.5570     0.1120 H     1 <1>   0.1500 
 28 H       -5.3710     1.0790    -1.1260 H     1 <1>   0.1500 
 29 H       -2.8750     3.5160    -1.6900 H     1 <1>   0.4000 
 30 H       -4.3470     4.0160     0.4690 H     1 <1>   0.0800 
 31 H       -2.8510     5.6210     1.1360 H     1 <1>   0.1500 
 32 H       -4.2000     5.5890    -2.9280 H     1 <1>   0.1500 
 33 H       -8.7030     5.2780     0.1740 H     1 <1>   0.0800 
 34 H       -8.0910     6.5900    -0.8300 H     1 <1>   0.0800 
 35 H       -7.3570     3.5360     1.6180 H     1 <1>   0.0800 
 36 H       -5.9370     2.5450     1.2810 H     1 <1>   0.0800 
 37 H       -1.5080     7.6200     0.6590 H     1 <1>   0.1500 
 38 H       -2.8590     7.5800    -3.3810 H     1 <1>   0.1500 
 39 H       -8.0590     6.5420     2.2140 H     1 <1>   0.0800 
 40 H       -9.1510     7.4900     1.2360 H     1 <1>   0.0800 
 41 H       -7.4420     7.8470     1.2110 H     1 <1>   0.0800 
 42 H       -8.8220     1.6870     0.8690 H     1 <1>   0.0800 
 43 H       -7.7900     1.1510     2.1730 H     1 <1>   0.0800 
 44 H       -7.4110     0.6990     0.5300 H     1 <1>   0.0800 
 45 H       -1.4410     9.1330    -2.5340 H     1 <1>   0.4500 
@<TRIPOS>BOND
  1   1   2  1   
  2   2   3  ar  
  3   2   4  ar  
  4   3   5  ar  
  5   3  25  1   
  6   4   6  ar  
  7   4  26  1   
  8   5   7  ar  
  9   5  27  1   
 10   6   7  ar  
 11   6  28  1   
 12   7   8  1   
 13   8   9  1   
 14   8  29  1   
 15   9  10  1   
 16   9  11  1   
 17   9  30  1   
 18  10  12  2   
 19  10  13  1   
 20  10  14  1   
 21  11  15  ar  
 22  11  16  ar  
 23  13  17  1   
 24  14  18  1   
 25  15  19  ar  
 26  15  31  1   
 27  16  20  ar  
 28  16  32  1   
 29  17  21  1   
 30  17  33  1   
 31  17  34  1   
 32  18  22  1   
 33  18  35  1   
 34  18  36  1   
 35  19  23  ar  
 36  19  37  1   
 37  20  23  ar  
 38  20  38  1   
 39  21  39  1   
 40  21  40  1   
 41  21  41  1   
 42  22  42  1   
 43  22  43  1   
 44  22  44  1   
 45  23  24  1   
 46  24  45  1   
@<TRIPOS>SUBSTRUCTURE
  1 ****   9 GROUP 4 **** **** 0

# MOE 2024.06 (io_trps.svl 2023.06)
