@<TRIPOS>MOLECULE
NONAME
42 44 1 0 0 
SMALL
USER_CHARGES


@<TRIPOS>ATOM
  1 BR       1.0910     0.0050     0.9590 Br    1 <1>  -0.1110 
  2 C        1.1550     1.9060     0.6740 C.ar  1 <1>   0.1110 
  3 C        0.3470     2.4640    -0.2960 C.ar  1 <1>  -0.1500 
  4 C        2.0070     2.6690     1.4450 C.ar  1 <1>  -0.1500 
  5 C        0.3950     3.8330    -0.4980 C.ar  1 <1>  -0.1500 
  6 C        2.0450     4.0360     1.2330 C.ar  1 <1>  -0.1500 
  7 C        1.2420     4.6390     0.2640 C.ar  1 <1>  -0.1430 
  8 C        1.3280     6.1600     0.0720 C.3   1 <1>   0.4240 
  9 O        1.1390     6.7190     1.3210 O.3   1 <1>  -0.6800 
 10 C        2.7240     6.5770    -0.4190 C.3   1 <1>  -0.1600 
 11 C        0.2590     6.7790    -0.8410 C.3   1 <1>  -0.1600 
 12 C        2.7890     7.9930    -1.0010 C.3   1 <1>   0.3430 
 13 C        0.3410     8.3110    -0.9120 C.3   1 <1>   0.3430 
 14 N        1.6720     8.8080    -0.4560 N.4   1 <1>  -0.9590 
 15 C        1.8440    10.2710    -0.6570 C.3   1 <1>   0.4860 
 16 C        3.0530    10.7440     0.1270 C.ar  1 <1>  -0.1430 
 17 C        4.2500    11.0050    -0.5290 C.ar  1 <1>   0.1900 
 18 C        2.9950    10.9300     1.5040 C.ar  1 <1>  -0.1500 
 19 F        4.3110    10.8180    -1.8200 F     1 <1>  -0.1900 
 20 C        5.3840    11.4400     0.1270 C.ar  1 <1>  -0.1500 
 21 C        4.1190    11.3650     2.1920 C.ar  1 <1>  -0.1500 
 22 C        5.2890    11.6110     1.4930 C.ar  1 <1>   0.1900 
 23 F        6.3400    12.0170     2.1500 F     1 <1>  -0.1900 
 24 H       -0.3040     1.8350    -0.8780 H     1 <1>   0.1500 
 25 H        2.6240     2.2000     2.1910 H     1 <1>   0.1500 
 26 H       -0.2430     4.2400    -1.2610 H     1 <1>   0.1500 
 27 H        2.7150     4.6260     1.8360 H     1 <1>   0.1500 
 28 H        0.7360     6.0300     1.8910 H     1 <1>   0.4000 
 29 H        3.0420     5.8960    -1.1880 H     1 <1>   0.0800 
 30 H        3.4350     6.4850     0.3830 H     1 <1>   0.0800 
 31 H       -0.7240     6.4910    -0.5130 H     1 <1>   0.0800 
 32 H        0.3860     6.3930    -1.8370 H     1 <1>   0.0800 
 33 H        2.7110     7.9500    -2.0760 H     1 <1>   0.0800 
 34 H        3.7410     8.4340    -0.7510 H     1 <1>   0.0800 
 35 H       -0.4240     8.7290    -0.2760 H     1 <1>   0.0800 
 36 H        0.1480     8.6320    -1.9230 H     1 <1>   0.0800 
 37 H        1.6900     8.6210     0.5640 H     1 <1>   0.4500 
 38 H        0.9710    10.7960    -0.3040 H     1 <1>   0.0800 
 39 H        1.9700    10.4900    -1.7050 H     1 <1>   0.0800 
 40 H        2.0860    10.7460     2.0540 H     1 <1>   0.1500 
 41 H        6.3020    11.6380    -0.3970 H     1 <1>   0.1500 
 42 H        4.0960    11.5160     3.2580 H     1 <1>   0.1500 
@<TRIPOS>BOND
  1   1   2  1   
  2   2   3  ar  
  3   2   4  ar  
  4   3   5  ar  
  5   3  24  1   
  6   4   6  ar  
  7   4  25  1   
  8   5   7  ar  
  9   5  26  1   
 10   6   7  ar  
 11   6  27  1   
 12   7   8  1   
 13   8   9  1   
 14   8  10  1   
 15   8  11  1   
 16   9  28  1   
 17  10  12  1   
 18  10  29  1   
 19  10  30  1   
 20  11  13  1   
 21  11  31  1   
 22  11  32  1   
 23  12  14  1   
 24  12  33  1   
 25  12  34  1   
 26  13  14  1   
 27  13  35  1   
 28  13  36  1   
 29  14  15  1   
 30  14  37  1   
 31  15  16  1   
 32  15  38  1   
 33  15  39  1   
 34  16  17  ar  
 35  16  18  ar  
 36  17  19  1   
 37  17  20  ar  
 38  18  21  ar  
 39  18  40  1   
 40  20  22  ar  
 41  20  41  1   
 42  21  22  ar  
 43  21  42  1   
 44  22  23  1   
@<TRIPOS>SUBSTRUCTURE
  1 ****  10 GROUP 4 **** **** 0

# MOE 2024.06 (io_trps.svl 2023.06)
