@<TRIPOS>MOLECULE
NONAME
33 35 1 0 0 
SMALL
USER_CHARGES


@<TRIPOS>ATOM
  1 S       -9.1220     0.2540     3.0960 S.3   1 <1>  -0.4100 
  2 C       -8.3910     0.3960     1.4540 C.3   1 <1>   0.2300 
  3 C       -6.9170    -0.0230     1.5430 C.3   1 <1>  -0.1600 
  4 C       -9.1510    -0.5200     0.4830 C.3   1 <1>  -0.1600 
  5 C       -8.5020     1.8580     0.9950 C.3   1 <1>  -0.1600 
  6 C       -6.2830     0.1150     0.1470 C.3   1 <1>   0.5030 
  7 C       -8.5230    -0.3940    -0.9180 C.3   1 <1>  -0.0800 
  8 C       -7.8750     1.9990    -0.4060 C.3   1 <1>  -0.0800 
  9 N       -4.8730    -0.3230     0.1640 N.4   1 <1>  -0.9060 
 10 C       -7.0370    -0.7980    -0.8410 C.3   1 <1>  -0.1600 
 11 C       -6.3930     1.5760    -0.3360 C.3   1 <1>  -0.1600 
 12 C       -8.6210     1.0710    -1.3860 C.3   1 <1>  -0.1600 
 13 C       -3.9520     0.4240     1.0780 C.3   1 <1>   0.2630 
 14 H       -9.2950    -1.0930     3.2340 H     1 <1>   0.1800 
 15 H       -6.4270     0.6180     2.2540 H     1 <1>   0.0800 
 16 H       -6.8560    -1.0390     1.8880 H     1 <1>   0.0800 
 17 H      -10.1880    -0.2300     0.4460 H     1 <1>   0.0800 
 18 H       -9.1080    -1.5410     0.8200 H     1 <1>   0.0800 
 19 H       -8.0040     2.5070     1.6940 H     1 <1>   0.0800 
 20 H       -9.5380     2.1500     0.9610 H     1 <1>   0.0800 
 21 H       -9.0460    -1.0330    -1.6110 H     1 <1>   0.0800 
 22 H       -7.9540     3.0210    -0.7390 H     1 <1>   0.0800 
 23 H       -4.5230    -0.2600    -0.7990 H     1 <1>   0.4500 
 24 H       -4.8630    -1.3200     0.4090 H     1 <1>   0.4500 
 25 H       -6.9730    -1.8250    -0.5280 H     1 <1>   0.0800 
 26 H       -6.6080    -0.7180    -1.8250 H     1 <1>   0.0800 
 27 H       -5.9540     1.6830    -1.3120 H     1 <1>   0.0800 
 28 H       -5.8860     2.2420     0.3390 H     1 <1>   0.0800 
 29 H       -8.2080     1.1710    -2.3750 H     1 <1>   0.0800 
 30 H       -9.6560     1.3640    -1.4440 H     1 <1>   0.0800 
 31 H       -3.9200     1.4680     0.8130 H     1 <1>   0.0800 
 32 H       -2.9520     0.0240     1.0080 H     1 <1>   0.0800 
 33 H       -4.2820     0.3370     2.1010 H     1 <1>   0.0800 
@<TRIPOS>BOND
  1   1   2  1   
  2   1  14  1   
  3   2   3  1   
  4   2   4  1   
  5   2   5  1   
  6   3   6  1   
  7   3  15  1   
  8   3  16  1   
  9   4   7  1   
 10   4  17  1   
 11   4  18  1   
 12   5   8  1   
 13   5  19  1   
 14   5  20  1   
 15   6   9  1   
 16   6  10  1   
 17   6  11  1   
 18   7  10  1   
 19   7  12  1   
 20   7  21  1   
 21   8  11  1   
 22   8  12  1   
 23   8  22  1   
 24   9  13  1   
 25   9  23  1   
 26   9  24  1   
 27  10  25  1   
 28  10  26  1   
 29  11  27  1   
 30  11  28  1   
 31  12  29  1   
 32  12  30  1   
 33  13  31  1   
 34  13  32  1   
 35  13  33  1   
@<TRIPOS>SUBSTRUCTURE
  1 ****   6 GROUP 4 **** **** 0

# MOE 2024.06 (io_trps.svl 2023.06)
