@<TRIPOS>MOLECULE
NONAME
46 47 1 0 0 
SMALL
USER_CHARGES


@<TRIPOS>ATOM
  1 CL      -0.3810     0.3480    -2.5820 Cl    1 <1>  -0.1770 
  2 C       -0.4750     1.7700    -1.5750 C.ar  1 <1>   0.1770 
  3 C       -1.6730     2.4420    -1.4570 C.ar  1 <1>  -0.1500 
  4 C        0.6560     2.1970    -0.9080 C.ar  1 <1>  -0.1500 
  5 C       -1.7630     3.5750    -0.6550 C.ar  1 <1>   0.1170 
  6 C        0.5770     3.3230    -0.1080 C.ar  1 <1>  -0.1500 
  7 N       -2.9740     4.2700    -0.4900 N.am  1 <1>  -0.5470 
  8 C       -0.6190     4.0130     0.0230 C.ar  1 <1>  -0.1430 
  9 C       -4.0820     4.3460    -1.2960 C.2   1 <1>   0.5690 
 10 C       -0.6480     5.2520     0.9110 C.3   1 <1>  -0.0960 
 11 O       -4.1440     3.8370    -2.3880 O.2   1 <1>  -0.5700 
 12 C       -5.3060     5.1090    -0.7710 C.3   1 <1>   0.1710 
 13 N       -6.4450     4.2390    -0.3510 N.3   1 <1>  -0.8100 
 14 C       -6.0940     3.2300     0.6780 C.3   1 <1>   0.1100 
 15 C       -7.6530     5.0040     0.0290 C.3   1 <1>   0.1100 
 16 C       -7.2930     2.3130     1.0290 C.3   1 <1>   0.3430 
 17 C       -8.8610     4.0730     0.3090 C.3   1 <1>   0.3430 
 18 N       -8.4810     2.6260     0.1680 N.4   1 <1>  -0.9590 
 19 C       -9.5970     1.6620     0.3460 C.3   1 <1>   0.3430 
 20 C      -10.6030     1.7910    -0.8000 C.3   1 <1>  -0.1600 
 21 C      -11.6930     0.7190    -0.6950 C.3   1 <1>  -0.2400 
 22 H       -2.5260     2.0700    -1.9930 H     1 <1>   0.1500 
 23 H        1.5780     1.6560    -1.0170 H     1 <1>   0.1500 
 24 H        1.4610     3.6550     0.4100 H     1 <1>   0.1500 
 25 H       -2.9890     4.8610     0.3370 H     1 <1>   0.3700 
 26 H       -1.0110     6.0980     0.3550 H     1 <1>   0.0800 
 27 H        0.3370     5.4910     1.2700 H     1 <1>   0.0800 
 28 H       -1.2820     5.0840     1.7630 H     1 <1>   0.0800 
 29 H       -5.6400     5.7510    -1.5680 H     1 <1>   0.0800 
 30 H       -5.0090     5.7350     0.0500 H     1 <1>   0.0800 
 31 H       -5.7460     3.7180     1.5730 H     1 <1>   0.0800 
 32 H       -5.2930     2.6080     0.3140 H     1 <1>   0.0800 
 33 H       -7.9160     5.6770    -0.7700 H     1 <1>   0.0800 
 34 H       -7.4520     5.6000     0.9030 H     1 <1>   0.0800 
 35 H       -7.5480     2.4420     2.0680 H     1 <1>   0.0800 
 36 H       -6.9970     1.2860     0.8890 H     1 <1>   0.0800 
 37 H       -9.6480     4.3150    -0.3870 H     1 <1>   0.0800 
 38 H       -9.2330     4.2630     1.3020 H     1 <1>   0.0800 
 39 H       -8.1060     2.5590    -0.7930 H     1 <1>   0.4500 
 40 H      -10.0910     1.8350     1.2890 H     1 <1>   0.0800 
 41 H       -9.2070     0.6570     0.3490 H     1 <1>   0.0800 
 42 H      -10.0960     1.6740    -1.7430 H     1 <1>   0.0800 
 43 H      -11.0750     2.7570    -0.7780 H     1 <1>   0.0800 
 44 H      -11.2660    -0.2680    -0.7440 H     1 <1>   0.0800 
 45 H      -12.3890     0.8220    -1.5100 H     1 <1>   0.0800 
 46 H      -12.2400     0.8160     0.2270 H     1 <1>   0.0800 
@<TRIPOS>BOND
  1   1   2  1   
  2   2   3  ar  
  3   2   4  ar  
  4   3   5  ar  
  5   3  22  1   
  6   4   6  ar  
  7   4  23  1   
  8   5   7  1   
  9   5   8  ar  
 10   6   8  ar  
 11   6  24  1   
 12   7   9  am  
 13   7  25  1   
 14   8  10  1   
 15   9  11  2   
 16   9  12  1   
 17  10  26  1   
 18  10  27  1   
 19  10  28  1   
 20  12  13  1   
 21  12  29  1   
 22  12  30  1   
 23  13  14  1   
 24  13  15  1   
 25  14  16  1   
 26  14  31  1   
 27  14  32  1   
 28  15  17  1   
 29  15  33  1   
 30  15  34  1   
 31  16  18  1   
 32  16  35  1   
 33  16  36  1   
 34  17  18  1   
 35  17  37  1   
 36  17  38  1   
 37  18  19  1   
 38  18  39  1   
 39  19  20  1   
 40  19  40  1   
 41  19  41  1   
 42  20  21  1   
 43  20  42  1   
 44  20  43  1   
 45  21  44  1   
 46  21  45  1   
 47  21  46  1   
@<TRIPOS>SUBSTRUCTURE
  1 ****   9 GROUP 4 **** **** 0

# MOE 2024.06 (io_trps.svl 2023.06)
