@<TRIPOS>MOLECULE
NONAME
36 36 1 0 0 
SMALL
USER_CHARGES


@<TRIPOS>ATOM
  1 F       -1.8440     0.3120     2.9480 F     1 <1>  -0.1900 
  2 C       -2.2330     0.8640     1.8290 C.ar  1 <1>   0.1900 
  3 C       -1.5180     1.9120     1.2750 C.ar  1 <1>   0.1900 
  4 C       -3.3740     0.3800     1.2150 C.ar  1 <1>  -0.1500 
  5 F       -0.4430     2.3670     1.8630 F     1 <1>  -0.1900 
  6 C       -1.9300     2.4950     0.0910 C.ar  1 <1>  -0.1500 
  7 C       -3.8060     0.9660     0.0280 C.ar  1 <1>  -0.1440 
  8 C       -3.0760     2.0150    -0.5290 C.ar  1 <1>  -0.1500 
  9 C       -5.0630     0.4610    -0.6590 C.3   1 <1>   0.4870 
 10 N       -6.2610     0.9420     0.1060 N.4   1 <1>  -0.9590 
 11 C       -7.5100     0.2190    -0.3430 C.3   1 <1>   0.3430 
 12 C       -6.3620     2.4410     0.0040 C.3   1 <1>   0.2630 
 13 C       -8.7730     0.5040     0.5260 C.3   1 <1>   0.3430 
 14 N      -10.0290    -0.2030     0.0680 N.4   1 <1>  -0.9590 
 15 C      -11.2140     0.2870     0.8540 C.3   1 <1>   0.2630 
 16 C       -9.9600    -1.7000     0.1910 C.3   1 <1>   0.2630 
 17 H       -3.8900    -0.4450     1.6750 H     1 <1>   0.1500 
 18 H       -1.3590     3.3040    -0.3310 H     1 <1>   0.1500 
 19 H       -3.3820     2.4730    -1.4560 H     1 <1>   0.1500 
 20 H       -5.0380    -0.6170    -0.6790 H     1 <1>   0.0800 
 21 H       -5.0950     0.8180    -1.6760 H     1 <1>   0.0800 
 22 H       -6.0410     0.7170     1.0900 H     1 <1>   0.4500 
 23 H       -7.3210    -0.8410    -0.3210 H     1 <1>   0.0800 
 24 H       -7.7240     0.4980    -1.3620 H     1 <1>   0.0800 
 25 H       -6.5230     2.7430    -1.0200 H     1 <1>   0.0800 
 26 H       -5.4510     2.9030     0.3530 H     1 <1>   0.0800 
 27 H       -7.1740     2.8140     0.6070 H     1 <1>   0.0800 
 28 H       -8.9580     1.5660     0.5140 H     1 <1>   0.0800 
 29 H       -8.5660     0.2160     1.5440 H     1 <1>   0.0800 
 30 H      -10.2310     0.0270    -0.9210 H     1 <1>   0.4500 
 31 H      -11.0940     0.0620     1.9020 H     1 <1>   0.0800 
 32 H      -12.1180    -0.1900     0.5060 H     1 <1>   0.0800 
 33 H      -11.3310     1.3530     0.7410 H     1 <1>   0.0800 
 34 H       -9.7860    -1.9890     1.2160 H     1 <1>   0.0800 
 35 H       -9.1710    -2.1010    -0.4230 H     1 <1>   0.0800 
 36 H      -10.8910    -2.1430    -0.1290 H     1 <1>   0.0800 
@<TRIPOS>BOND
  1   1   2  1   
  2   2   3  ar  
  3   2   4  ar  
  4   3   5  1   
  5   3   6  ar  
  6   4   7  ar  
  7   4  17  1   
  8   6   8  ar  
  9   6  18  1   
 10   7   8  ar  
 11   7   9  1   
 12   8  19  1   
 13   9  10  1   
 14   9  20  1   
 15   9  21  1   
 16  10  11  1   
 17  10  12  1   
 18  10  22  1   
 19  11  13  1   
 20  11  23  1   
 21  11  24  1   
 22  12  25  1   
 23  12  26  1   
 24  12  27  1   
 25  13  14  1   
 26  13  28  1   
 27  13  29  1   
 28  14  15  1   
 29  14  16  1   
 30  14  30  1   
 31  15  31  1   
 32  15  32  1   
 33  15  33  1   
 34  16  34  1   
 35  16  35  1   
 36  16  36  1   
@<TRIPOS>SUBSTRUCTURE
  1 ****  10 GROUP 4 **** **** 0

# MOE 2024.06 (io_trps.svl 2023.06)
