@<TRIPOS>MOLECULE
NONAME
48 50 1 0 0 
SMALL
USER_CHARGES


@<TRIPOS>ATOM
  1 O        3.4190     2.5950    -0.4190 O.3   1 <1>  -0.5600 
  2 C        2.2870     1.7820    -0.5390 C.3   1 <1>   0.1200 
  3 C        3.2630     3.6180     0.5220 C.3   1 <1>   0.1200 
  4 C        1.0610     2.6190    -0.9460 C.3   1 <1>   0.1100 
  5 C        2.0740     4.5190     0.1440 C.3   1 <1>   0.1100 
  6 N        0.8340     3.7330     0.0010 N.3   1 <1>  -0.8100 
  7 C       -0.2870     4.5910    -0.4080 C.3   1 <1>   0.3100 
  8 C       -1.5770     3.8470    -0.3330 C.1   1 <1>  -0.2000 
  9 C       -2.6020     3.2440    -0.2720 C.1   1 <1>  -0.0730 
 10 C       -3.8270     2.5080    -0.1880 C.ar  1 <1>   0.0730 
 11 C       -4.7690     2.5740    -1.2060 C.ar  1 <1>  -0.1500 
 12 C       -4.1010     1.7110     0.9140 C.ar  1 <1>  -0.1500 
 13 C       -5.9520     1.8610    -1.1220 C.ar  1 <1>  -0.1500 
 14 C       -5.2840     0.9980     0.9970 C.ar  1 <1>  -0.1500 
 15 C       -6.2260     1.0640    -0.0200 C.ar  1 <1>   0.0730 
 16 C       -7.4510     0.3280     0.0630 C.1   1 <1>  -0.0730 
 17 C       -8.4760    -0.2750     0.1240 C.1   1 <1>  -0.2000 
 18 C       -9.7660    -1.0190     0.1990 C.3   1 <1>   0.3100 
 19 N      -10.8880    -0.1610    -0.2080 N.3   1 <1>  -0.8100 
 20 C      -12.1280    -0.9480    -0.3500 C.3   1 <1>   0.1100 
 21 C      -11.1140     0.9520     0.7410 C.3   1 <1>   0.1100 
 22 C      -13.3170    -0.0460    -0.7270 C.3   1 <1>   0.1200 
 23 C      -12.3400     1.7890     0.3350 C.3   1 <1>   0.1200 
 24 O      -13.4730     0.9760     0.2150 O.3   1 <1>  -0.5600 
 25 H        2.1100     1.2940     0.4040 H     1 <1>   0.0800 
 26 H        2.4940     1.0360    -1.2850 H     1 <1>   0.0800 
 27 H        4.1740     4.1890     0.5420 H     1 <1>   0.0800 
 28 H        3.1070     3.1760     1.4910 H     1 <1>   0.0800 
 29 H        0.1980     1.9760    -0.9650 H     1 <1>   0.0800 
 30 H        1.2150     3.0030    -1.9400 H     1 <1>   0.0800 
 31 H        2.3020     5.0240    -0.7800 H     1 <1>   0.0800 
 32 H        1.9410     5.2620     0.9120 H     1 <1>   0.0800 
 33 H       -0.1320     4.9510    -1.4100 H     1 <1>   0.0800 
 34 H       -0.3480     5.4380     0.2540 H     1 <1>   0.0800 
 35 H       -4.5720     3.1880    -2.0670 H     1 <1>   0.1500 
 36 H       -3.3790     1.6500     1.7100 H     1 <1>   0.1500 
 37 H       -6.6740     1.9220    -1.9180 H     1 <1>   0.1500 
 38 H       -5.4810     0.3840     1.8580 H     1 <1>   0.1500 
 39 H       -9.9200    -1.3810     1.2010 H     1 <1>   0.0800 
 40 H       -9.7060    -1.8660    -0.4640 H     1 <1>   0.0800 
 41 H      -12.3540    -1.4530     0.5730 H     1 <1>   0.0800 
 42 H      -11.9950    -1.6890    -1.1190 H     1 <1>   0.0800 
 43 H      -10.2510     1.5950     0.7590 H     1 <1>   0.0800 
 44 H      -11.2670     0.5670     1.7350 H     1 <1>   0.0800 
 45 H      -14.2280    -0.6170    -0.7460 H     1 <1>   0.0800 
 46 H      -13.1620     0.3970    -1.6950 H     1 <1>   0.0800 
 47 H      -12.1650     2.2780    -0.6070 H     1 <1>   0.0800 
 48 H      -12.5470     2.5340     1.0820 H     1 <1>   0.0800 
@<TRIPOS>BOND
  1   1   2  1   
  2   1   3  1   
  3   2   4  1   
  4   2  25  1   
  5   2  26  1   
  6   3   5  1   
  7   3  27  1   
  8   3  28  1   
  9   4   6  1   
 10   4  29  1   
 11   4  30  1   
 12   5   6  1   
 13   5  31  1   
 14   5  32  1   
 15   6   7  1   
 16   7   8  1   
 17   7  33  1   
 18   7  34  1   
 19   8   9  3   
 20   9  10  1   
 21  10  11  ar  
 22  10  12  ar  
 23  11  13  ar  
 24  11  35  1   
 25  12  14  ar  
 26  12  36  1   
 27  13  15  ar  
 28  13  37  1   
 29  14  15  ar  
 30  14  38  1   
 31  15  16  1   
 32  16  17  3   
 33  17  18  1   
 34  18  19  1   
 35  18  39  1   
 36  18  40  1   
 37  19  20  1   
 38  19  21  1   
 39  20  22  1   
 40  20  41  1   
 41  20  42  1   
 42  21  23  1   
 43  21  43  1   
 44  21  44  1   
 45  22  24  1   
 46  22  45  1   
 47  22  46  1   
 48  23  24  1   
 49  23  47  1   
 50  23  48  1   
@<TRIPOS>SUBSTRUCTURE
  1 ****  12 GROUP 4 **** **** 0

# MOE 2024.06 (io_trps.svl 2023.06)
