@<TRIPOS>MOLECULE
NONAME
46 47 1 0 0 
SMALL
USER_CHARGES


@<TRIPOS>ATOM
  1 O       -0.1170     1.0600    -1.7270 O.2   1 <1>  -0.5700 
  2 C       -1.3260     0.9710    -1.7300 C.2   1 <1>   0.6900 
  3 N       -2.1500     1.7990    -1.0040 N.am  1 <1>  -0.3680 
  4 N       -1.8790     0.0080    -2.4860 N.am  1 <1>  -0.8000 
  5 N       -1.7890     2.8040    -0.1120 N.2   1 <1>  -0.5120 
  6 C       -2.6460     3.5160     0.4910 C.2   1 <1>   0.3280 
  7 C       -4.1610     3.3750     0.3660 C.3   1 <1>  -0.0990 
  8 C       -2.1970     4.6210     1.4250 C.3   1 <1>  -0.1790 
  9 C       -4.7120     4.2540    -0.7700 C.3   1 <1>  -0.1600 
 10 C       -6.2190     4.0530    -1.0200 C.3   1 <1>  -0.1600 
 11 C       -7.1350     4.5840     0.1090 C.3   1 <1>  -0.0800 
 12 C       -7.3600     6.1300     0.2160 C.3   1 <1>   0.0000 
 13 C       -8.5750     4.0310    -0.0280 C.3   1 <1>  -0.0800 
 14 C       -8.9130     6.2230     0.2150 C.3   1 <1>  -0.0800 
 15 C       -6.8290     6.9870    -0.9590 C.3   1 <1>  -0.2400 
 16 C       -6.7020     6.6920     1.4920 C.3   1 <1>  -0.2400 
 17 C       -9.2900     5.1350    -0.7830 C.3   1 <1>  -0.1600 
 18 C       -9.2670     4.1250     1.3440 C.3   1 <1>  -0.1600 
 19 C       -9.5360     5.6310     1.4940 C.3   1 <1>  -0.1600 
 20 H       -3.1410     1.6790    -1.1960 H     1 <1>   0.3700 
 21 H       -1.2360    -0.6220    -2.9650 H     1 <1>   0.3700 
 22 H       -2.8420    -0.3030    -2.3990 H     1 <1>   0.3700 
 23 H       -4.4190     2.3470     0.1900 H     1 <1>   0.0800 
 24 H       -4.6080     3.6520     1.3020 H     1 <1>   0.0800 
 25 H       -2.5430     4.4240     2.4230 H     1 <1>   0.0800 
 26 H       -2.5840     5.5660     1.0920 H     1 <1>   0.0800 
 27 H       -1.1230     4.6750     1.4390 H     1 <1>   0.0800 
 28 H       -4.5000     5.2820    -0.5490 H     1 <1>   0.0800 
 29 H       -4.1840     4.0100    -1.6770 H     1 <1>   0.0800 
 30 H       -6.3930     2.9980    -1.1360 H     1 <1>   0.0800 
 31 H       -6.4900     4.5050    -1.9570 H     1 <1>   0.0800 
 32 H       -6.7440     4.2100     1.0360 H     1 <1>   0.0800 
 33 H       -8.6460     3.0530    -0.4730 H     1 <1>   0.0800 
 34 H       -9.2970     7.2000    -0.0250 H     1 <1>   0.0800 
 35 H       -7.1980     6.6540    -1.9100 H     1 <1>   0.0800 
 36 H       -5.7580     6.9860    -0.9970 H     1 <1>   0.0800 
 37 H       -7.1420     8.0080    -0.8330 H     1 <1>   0.0800 
 38 H       -7.0240     7.7040     1.6630 H     1 <1>   0.0800 
 39 H       -5.6320     6.6880     1.3900 H     1 <1>   0.0800 
 40 H       -6.9430     6.1070     2.3600 H     1 <1>   0.0800 
 41 H      -10.3530     4.9750    -0.8440 H     1 <1>   0.0800 
 42 H       -8.8970     5.2850    -1.7720 H     1 <1>   0.0800 
 43 H      -10.1970     3.5830     1.3310 H     1 <1>   0.0800 
 44 H       -8.6530     3.7420     2.1410 H     1 <1>   0.0800 
 45 H       -9.1310     6.0390     2.4010 H     1 <1>   0.0800 
 46 H      -10.5970     5.8100     1.4940 H     1 <1>   0.0800 
@<TRIPOS>BOND
  1   1   2  2   
  2   2   3  am  
  3   2   4  am  
  4   3   5  1   
  5   3  20  1   
  6   4  21  1   
  7   4  22  1   
  8   5   6  2   
  9   6   7  1   
 10   6   8  1   
 11   7   9  1   
 12   7  23  1   
 13   7  24  1   
 14   8  25  1   
 15   8  26  1   
 16   8  27  1   
 17   9  10  1   
 18   9  28  1   
 19   9  29  1   
 20  10  11  1   
 21  10  30  1   
 22  10  31  1   
 23  11  12  1   
 24  11  13  1   
 25  11  32  1   
 26  12  14  1   
 27  12  15  1   
 28  12  16  1   
 29  13  17  1   
 30  13  18  1   
 31  13  33  1   
 32  14  17  1   
 33  14  19  1   
 34  14  34  1   
 35  15  35  1   
 36  15  36  1   
 37  15  37  1   
 38  16  38  1   
 39  16  39  1   
 40  16  40  1   
 41  17  41  1   
 42  17  42  1   
 43  18  19  1   
 44  18  43  1   
 45  18  44  1   
 46  19  45  1   
 47  19  46  1   
@<TRIPOS>SUBSTRUCTURE
  1 ****   9 GROUP 4 **** **** 0

# MOE 2024.06 (io_trps.svl 2023.06)
