@<TRIPOS>MOLECULE
NONAME
42 43 1 0 0 
SMALL
USER_CHARGES


@<TRIPOS>ATOM
  1 CL       0.2600    -0.7420    -1.3360 Cl    1 <1>  -0.1770 
  2 C        1.1760    -1.9940    -0.5340 C.ar  1 <1>   0.1770 
  3 C        2.5550    -1.9300    -0.5370 C.ar  1 <1>  -0.1500 
  4 C        0.5010    -3.0270     0.0900 C.ar  1 <1>  -0.1500 
  5 C        3.2900    -2.9220     0.1000 C.ar  1 <1>   0.1000 
  6 C        1.2290    -4.0190     0.7260 C.ar  1 <1>  -0.1500 
  7 N        4.6780    -2.8970     0.1240 N.pl3 1 <1>  -0.8380 
  8 C        2.6130    -3.9610     0.7280 C.ar  1 <1>  -0.1500 
  9 C        5.3650    -3.0210    -1.2000 C.3   1 <1>   0.2090 
 10 C        5.2990    -1.8300     0.9650 C.3   1 <1>   0.2090 
 11 C        6.8690    -3.2860    -1.0180 C.3   1 <1>   0.1400 
 12 C        6.8080    -2.0750     1.1580 C.3   1 <1>   0.1400 
 13 N        7.5040    -2.2480    -0.1520 N.am  1 <1>  -0.6600 
 14 C        8.1200    -1.1730    -0.7330 C.2   1 <1>   0.6900 
 15 O        7.7070    -0.7650    -1.8060 O.2   1 <1>  -0.5700 
 16 N        9.1740    -0.5460    -0.1110 N.am  1 <1>  -0.6600 
 17 C        9.5540     0.8400    -0.4920 C.3   1 <1>   0.1400 
 18 C       10.0550    -1.2320     0.8730 C.3   1 <1>   0.1400 
 19 C       10.7480     0.8280    -1.4440 C.3   1 <1>  -0.2400 
 20 C       10.8760    -2.3220     0.1830 C.3   1 <1>  -0.2400 
 21 H        3.0550    -1.1180    -1.0270 H     1 <1>   0.1500 
 22 H       -0.5740    -3.0510     0.0760 H     1 <1>   0.1500 
 23 H        0.7230    -4.8320     1.2170 H     1 <1>   0.1500 
 24 H        3.1890    -4.7250     1.2170 H     1 <1>   0.1500 
 25 H        5.2350    -2.1140    -1.7640 H     1 <1>   0.0800 
 26 H        4.9230    -3.8290    -1.7560 H     1 <1>   0.0800 
 27 H        4.8140    -1.8080     1.9250 H     1 <1>   0.0800 
 28 H        5.1560    -0.8730     0.4940 H     1 <1>   0.0800 
 29 H        7.3470    -3.2960    -1.9820 H     1 <1>   0.0800 
 30 H        7.0050    -4.2530    -0.5690 H     1 <1>   0.0800 
 31 H        6.9490    -2.9590     1.7520 H     1 <1>   0.0800 
 32 H        7.2280    -1.2400     1.6890 H     1 <1>   0.0800 
 33 H        9.7900     1.4060     0.3930 H     1 <1>   0.0800 
 34 H        8.7200     1.3210    -0.9760 H     1 <1>   0.0800 
 35 H        9.4590    -1.6710     1.6520 H     1 <1>   0.0800 
 36 H       10.7170    -0.5160     1.3270 H     1 <1>   0.0800 
 37 H       11.6250     0.4510    -0.9510 H     1 <1>   0.0800 
 38 H       10.9510     1.8280    -1.7800 H     1 <1>   0.0800 
 39 H       10.5240     0.2190    -2.3020 H     1 <1>   0.0800 
 40 H       10.2270    -3.0780    -0.2210 H     1 <1>   0.0800 
 41 H       11.5330    -2.7850     0.8960 H     1 <1>   0.0800 
 42 H       11.4690    -1.9060    -0.6100 H     1 <1>   0.0800 
@<TRIPOS>BOND
  1   1   2  1   
  2   2   3  ar  
  3   2   4  ar  
  4   3   5  ar  
  5   3  21  1   
  6   4   6  ar  
  7   4  22  1   
  8   5   7  1   
  9   5   8  ar  
 10   6   8  ar  
 11   6  23  1   
 12   7   9  1   
 13   7  10  1   
 14   8  24  1   
 15   9  11  1   
 16   9  25  1   
 17   9  26  1   
 18  10  12  1   
 19  10  27  1   
 20  10  28  1   
 21  11  13  1   
 22  11  29  1   
 23  11  30  1   
 24  12  13  1   
 25  12  31  1   
 26  12  32  1   
 27  13  14  am  
 28  14  15  2   
 29  14  16  am  
 30  16  17  1   
 31  16  18  1   
 32  17  19  1   
 33  17  33  1   
 34  17  34  1   
 35  18  20  1   
 36  18  35  1   
 37  18  36  1   
 38  19  37  1   
 39  19  38  1   
 40  19  39  1   
 41  20  40  1   
 42  20  41  1   
 43  20  42  1   
@<TRIPOS>SUBSTRUCTURE
  1 ****  10 GROUP 4 **** **** 0

# MOE 2024.06 (io_trps.svl 2023.06)
