@<TRIPOS>MOLECULE
NONAME
54 57 1 0 0 
SMALL
USER_CHARGES


@<TRIPOS>ATOM
  1 O       -1.5980     0.5700     0.0430 O.3   1 <1>  -0.3630 
  2 C       -1.1150     1.7960     0.3900 C.ar  1 <1>   0.0820 
  3 C       -1.9200     0.2670    -1.3030 C.3   1 <1>   0.0400 
  4 C       -1.6830     2.3750     1.5230 C.ar  1 <1>  -0.1440 
  5 C       -0.0990     2.4600    -0.3090 C.ar  1 <1>  -0.1440 
  6 C       -1.2710     3.6320     1.9340 C.ar  1 <1>  -0.1500 
  7 C       -2.7260     1.6120     2.3270 C.3   1 <1>   0.4870 
  8 C        0.2640     3.7480     0.0880 C.ar  1 <1>   0.0820 
  9 C        0.6690     1.8040    -1.4600 C.3   1 <1>  -0.0970 
 10 C       -0.3210     4.3230     1.2110 C.ar  1 <1>  -0.1500 
 11 N       -4.1280     1.9970     1.9530 N.4   1 <1>  -0.9590 
 12 O        1.1990     4.4070    -0.6470 O.3   1 <1>  -0.3630 
 13 C       -4.3890     1.6570     0.5240 C.3   1 <1>   0.3430 
 14 C       -4.4080     3.4360     2.2390 C.3   1 <1>   0.3430 
 15 C        1.7190     5.6630    -0.2680 C.3   1 <1>   0.0400 
 16 C       -5.8410     1.9510     0.1650 C.3   1 <1>  -0.1600 
 17 C       -5.8610     3.7640     1.9170 C.3   1 <1>  -0.1600 
 18 C       -6.1860     3.4100     0.4650 C.3   1 <1>   0.2820 
 19 C       -7.6400     3.7240     0.1230 C.ar  1 <1>  -0.1430 
 20 C       -5.4770     4.3520    -0.5030 C.2   1 <1>  -0.2880 
 21 C       -7.6920     4.6850    -0.8720 C.ar  1 <1>   0.0280 
 22 C       -8.8010     3.1940     0.6580 C.ar  1 <1>  -0.1500 
 23 C       -6.3570     5.0460    -1.2310 C.2   1 <1>  -0.1780 
 24 C       -8.9170     5.1300    -1.3470 C.ar  1 <1>  -0.1500 
 25 C      -10.0250     3.6400     0.1820 C.ar  1 <1>  -0.1500 
 26 C      -10.0820     4.6030    -0.8150 C.ar  1 <1>  -0.1500 
 27 H       -2.7740    -0.3860    -1.3080 H     1 <1>   0.0800 
 28 H       -1.0900    -0.2420    -1.7570 H     1 <1>   0.0800 
 29 H       -2.1460     1.1750    -1.8350 H     1 <1>   0.0800 
 30 H       -1.6760     4.0900     2.8200 H     1 <1>   0.1500 
 31 H       -2.5640     1.8030     3.3750 H     1 <1>   0.0800 
 32 H       -2.5850     0.5550     2.1650 H     1 <1>   0.0800 
 33 H        0.8020     0.7550    -1.2720 H     1 <1>   0.0800 
 34 H        1.6560     2.2180    -1.5640 H     1 <1>   0.0800 
 35 H        0.1480     1.9470    -2.3880 H     1 <1>   0.0800 
 36 H       -0.0380     5.3040     1.5430 H     1 <1>   0.1500 
 37 H       -4.7630     1.4300     2.5270 H     1 <1>   0.4500 
 38 H       -4.1790     0.6130     0.3500 H     1 <1>   0.0800 
 39 H       -3.7380     2.2370    -0.1110 H     1 <1>   0.0800 
 40 H       -3.7660     4.0580     1.6350 H     1 <1>   0.0800 
 41 H       -4.2110     3.6540     3.2770 H     1 <1>   0.0800 
 42 H        2.4680     5.9440    -0.9860 H     1 <1>   0.0800 
 43 H        2.1650     5.5770     0.7070 H     1 <1>   0.0800 
 44 H        0.9240     6.3870    -0.2690 H     1 <1>   0.0800 
 45 H       -6.4910     1.2950     0.7150 H     1 <1>   0.0800 
 46 H       -5.9960     1.7590    -0.8820 H     1 <1>   0.0800 
 47 H       -6.0330     4.8150     2.0710 H     1 <1>   0.0800 
 48 H       -6.5120     3.2280     2.5840 H     1 <1>   0.0800 
 49 H       -4.4030     4.4020    -0.5430 H     1 <1>   0.1500 
 50 H       -8.7690     2.4470     1.4310 H     1 <1>   0.1500 
 51 H       -6.1630     5.7830    -1.9920 H     1 <1>   0.1500 
 52 H       -8.9540     5.8760    -2.1200 H     1 <1>   0.1500 
 53 H      -10.9380     3.2380     0.5870 H     1 <1>   0.1500 
 54 H      -11.0370     4.9420    -1.1770 H     1 <1>   0.1500 
@<TRIPOS>BOND
  1   1   2  1   
  2   1   3  1   
  3   2   4  ar  
  4   2   5  ar  
  5   3  27  1   
  6   3  28  1   
  7   3  29  1   
  8   4   6  ar  
  9   4   7  1   
 10   5   8  ar  
 11   5   9  1   
 12   6  10  ar  
 13   6  30  1   
 14   7  11  1   
 15   7  31  1   
 16   7  32  1   
 17   8  10  ar  
 18   8  12  1   
 19   9  33  1   
 20   9  34  1   
 21   9  35  1   
 22  10  36  1   
 23  11  13  1   
 24  11  14  1   
 25  11  37  1   
 26  12  15  1   
 27  13  16  1   
 28  13  38  1   
 29  13  39  1   
 30  14  17  1   
 31  14  40  1   
 32  14  41  1   
 33  15  42  1   
 34  15  43  1   
 35  15  44  1   
 36  16  18  1   
 37  16  45  1   
 38  16  46  1   
 39  17  18  1   
 40  17  47  1   
 41  17  48  1   
 42  18  19  1   
 43  18  20  1   
 44  19  21  ar  
 45  19  22  ar  
 46  20  23  2   
 47  20  49  1   
 48  21  23  1   
 49  21  24  ar  
 50  22  25  ar  
 51  22  50  1   
 52  23  51  1   
 53  24  26  ar  
 54  24  52  1   
 55  25  26  ar  
 56  25  53  1   
 57  26  54  1   
@<TRIPOS>SUBSTRUCTURE
  1 ****  13 GROUP 4 **** **** 0

# MOE 2024.06 (io_trps.svl 2023.06)
