@<TRIPOS>MOLECULE
NONAME
44 45 1 0 0 
SMALL
USER_CHARGES


@<TRIPOS>ATOM
  1 O       -0.5730     0.4770    -2.8290 O.2   1 <1>  -0.5700 
  2 C       -0.6390     1.2790    -1.9290 C.2   1 <1>   0.5690 
  3 N       -1.6620     1.2030    -1.0060 N.am  1 <1>  -0.6600 
  4 C        0.4520     2.3480    -1.8780 C.3   1 <1>   0.0440 
  5 C       -1.8820     2.1940     0.0950 C.3   1 <1>   0.1400 
  6 C       -2.5170    -0.0260    -0.9440 C.3   1 <1>   0.1400 
  7 C        1.1080     2.5410    -0.5060 C.ar  1 <1>  -0.1440 
  8 C       -3.3780     2.4540     0.3600 C.3   1 <1>   0.3430 
  9 C       -3.9950     0.3090    -0.6880 C.3   1 <1>   0.3430 
 10 C        1.6930     1.4910     0.1990 C.ar  1 <1>  -0.1440 
 11 C        1.1140     3.8160     0.0470 C.ar  1 <1>  -0.1500 
 12 N       -4.1680     1.1870     0.5240 N.4   1 <1>  -0.9590 
 13 C        2.2360     1.7300     1.4520 C.ar  1 <1>  -0.1500 
 14 C        1.7760     0.0740    -0.3560 C.3   1 <1>  -0.0970 
 15 C        1.6620     4.0450     1.2950 C.ar  1 <1>  -0.1500 
 16 C       -5.5990     1.4910     0.8040 C.3   1 <1>   0.3430 
 17 C        2.2200     2.9980     2.0020 C.ar  1 <1>  -0.1500 
 18 C       -6.3180     0.2480     1.3320 C.3   1 <1>  -0.1600 
 19 C       -7.7610     0.5800     1.7300 C.3   1 <1>  -0.2400 
 20 H        0.0240     3.2690    -2.2230 H     1 <1>   0.0800 
 21 H        1.2210     2.0830    -2.5820 H     1 <1>   0.0800 
 22 H       -1.4320     3.1350    -0.1600 H     1 <1>   0.0800 
 23 H       -1.4060     1.8360     0.9930 H     1 <1>   0.0800 
 24 H       -2.1510    -0.6670    -0.1610 H     1 <1>   0.0800 
 25 H       -2.4520    -0.5790    -1.8660 H     1 <1>   0.0800 
 26 H       -3.7740     3.0180    -0.4690 H     1 <1>   0.0800 
 27 H       -3.4730     3.0630     1.2440 H     1 <1>   0.0800 
 28 H       -4.5410    -0.6110    -0.5600 H     1 <1>   0.0800 
 29 H       -4.3890     0.8080    -1.5580 H     1 <1>   0.0800 
 30 H        0.6950     4.6480    -0.4920 H     1 <1>   0.1500 
 31 H       -3.7830     0.6830     1.3350 H     1 <1>   0.4500 
 32 H        2.6860     0.9270     2.0100 H     1 <1>   0.1500 
 33 H        2.5360    -0.4910     0.1540 H     1 <1>   0.0800 
 34 H        0.8360    -0.4320    -0.2300 H     1 <1>   0.0800 
 35 H        2.0290     0.0870    -1.4010 H     1 <1>   0.0800 
 36 H        1.6630     5.0370     1.7140 H     1 <1>   0.1500 
 37 H       -6.0860     1.8470    -0.0900 H     1 <1>   0.0800 
 38 H       -5.6630     2.2670     1.5520 H     1 <1>   0.0800 
 39 H        2.6500     3.1700     2.9740 H     1 <1>   0.1500 
 40 H       -5.8050    -0.1320     2.1980 H     1 <1>   0.0800 
 41 H       -6.3460    -0.5200     0.5790 H     1 <1>   0.0800 
 42 H       -7.7850     1.3250     2.5070 H     1 <1>   0.0800 
 43 H       -8.2530    -0.3040     2.1010 H     1 <1>   0.0800 
 44 H       -8.3190     0.9430     0.8840 H     1 <1>   0.0800 
@<TRIPOS>BOND
  1   1   2  2   
  2   2   3  am  
  3   2   4  1   
  4   3   5  1   
  5   3   6  1   
  6   4   7  1   
  7   4  20  1   
  8   4  21  1   
  9   5   8  1   
 10   5  22  1   
 11   5  23  1   
 12   6   9  1   
 13   6  24  1   
 14   6  25  1   
 15   7  10  ar  
 16   7  11  ar  
 17   8  12  1   
 18   8  26  1   
 19   8  27  1   
 20   9  12  1   
 21   9  28  1   
 22   9  29  1   
 23  10  13  ar  
 24  10  14  1   
 25  11  15  ar  
 26  11  30  1   
 27  12  16  1   
 28  12  31  1   
 29  13  17  ar  
 30  13  32  1   
 31  14  33  1   
 32  14  34  1   
 33  14  35  1   
 34  15  17  ar  
 35  15  36  1   
 36  16  18  1   
 37  16  37  1   
 38  16  38  1   
 39  17  39  1   
 40  18  19  1   
 41  18  40  1   
 42  18  41  1   
 43  19  42  1   
 44  19  43  1   
 45  19  44  1   
@<TRIPOS>SUBSTRUCTURE
  1 ****   5 GROUP 4 **** **** 0

# MOE 2024.06 (io_trps.svl 2023.06)
