@<TRIPOS>MOLECULE
NONAME
46 47 1 0 0 
SMALL
USER_CHARGES


@<TRIPOS>ATOM
  1 O        0.8950    -4.0610     0.7070 O.3   1 <1>  -0.3630 
  2 C       -0.4380    -3.8480     0.5640 C.ar  1 <1>   0.0830 
  3 C        1.5420    -5.1610     0.1020 C.3   1 <1>   0.1200 
  4 C       -1.2690    -4.6250    -0.2390 C.ar  1 <1>  -0.1500 
  5 C       -0.9710    -2.7840     1.2760 C.ar  1 <1>  -0.1500 
  6 C        3.0240    -5.1230     0.4990 C.3   1 <1>   0.2000 
  7 C       -2.6270    -4.3300    -0.3210 C.ar  1 <1>   0.0830 
  8 C       -2.3200    -2.4910     1.1950 C.ar  1 <1>  -0.1500 
  9 O        3.5390    -3.8580     0.2080 O.3   1 <1>  -0.6800 
 10 C        3.8710    -6.1870    -0.2330 C.3   1 <1>   0.3430 
 11 O       -3.5110    -5.0300    -1.0770 O.3   1 <1>  -0.3620 
 12 C       -3.1430    -3.2640     0.3980 C.ar  1 <1>  -0.1500 
 13 N        5.3120    -5.7870    -0.2500 N.4   1 <1>  -0.9590 
 14 C       -3.1080    -6.1230    -1.8720 C.3   1 <1>   0.0400 
 15 C        6.0540    -6.3450    -1.4150 C.3   1 <1>   0.3430 
 16 C        6.0000    -6.0380     1.0480 C.3   1 <1>   0.3430 
 17 C        7.4520    -5.7300    -1.4770 C.3   1 <1>  -0.1600 
 18 C        7.3970    -5.4190     1.0180 C.3   1 <1>  -0.1600 
 19 C        8.2240    -5.9390    -0.1660 C.3   1 <1>  -0.0800 
 20 C        9.5850    -5.2370    -0.2230 C.3   1 <1>  -0.2400 
 21 H        1.4290    -5.0760    -0.9650 H     1 <1>   0.0800 
 22 H        1.0740    -6.0640     0.4530 H     1 <1>   0.0800 
 23 H       -0.8720    -5.4470    -0.7960 H     1 <1>   0.1500 
 24 H       -0.3270    -2.1860     1.8950 H     1 <1>   0.1500 
 25 H        3.1010    -5.2700     1.5620 H     1 <1>   0.0800 
 26 H       -2.7290    -1.6640     1.7510 H     1 <1>   0.1500 
 27 H        2.8740    -3.1820     0.4800 H     1 <1>   0.4000 
 28 H        3.5120    -6.2560    -1.2460 H     1 <1>   0.0800 
 29 H        3.7460    -7.1520     0.2290 H     1 <1>   0.0800 
 30 H       -4.1940    -3.0450     0.3280 H     1 <1>   0.1500 
 31 H        5.2680    -4.7540    -0.3570 H     1 <1>   0.4500 
 32 H       -3.9770    -6.5020    -2.3790 H     1 <1>   0.0800 
 33 H       -2.6960    -6.8850    -1.2350 H     1 <1>   0.0800 
 34 H       -2.3850    -5.7830    -2.5920 H     1 <1>   0.0800 
 35 H        5.5270    -6.1240    -2.3290 H     1 <1>   0.0800 
 36 H        6.1360    -7.4150    -1.3160 H     1 <1>   0.0800 
 37 H        6.0800    -7.0990     1.2200 H     1 <1>   0.0800 
 38 H        5.4350    -5.6010     1.8560 H     1 <1>   0.0800 
 39 H        7.3670    -4.6790    -1.6940 H     1 <1>   0.0800 
 40 H        7.9950    -6.1830    -2.2880 H     1 <1>   0.0800 
 41 H        7.9010    -5.6550     1.9390 H     1 <1>   0.0800 
 42 H        7.3060    -4.3480     0.9670 H     1 <1>   0.0800 
 43 H        8.3970    -6.9950    -0.0300 H     1 <1>   0.0800 
 44 H        9.4670    -4.1760    -0.3570 H     1 <1>   0.0800 
 45 H       10.1720    -5.6210    -1.0400 H     1 <1>   0.0800 
 46 H       10.1340    -5.4060     0.6880 H     1 <1>   0.0800 
@<TRIPOS>BOND
  1   1   2  1   
  2   1   3  1   
  3   2   4  ar  
  4   2   5  ar  
  5   3   6  1   
  6   3  21  1   
  7   3  22  1   
  8   4   7  ar  
  9   4  23  1   
 10   5   8  ar  
 11   5  24  1   
 12   6   9  1   
 13   6  10  1   
 14   6  25  1   
 15   7  11  1   
 16   7  12  ar  
 17   8  12  ar  
 18   8  26  1   
 19   9  27  1   
 20  10  13  1   
 21  10  28  1   
 22  10  29  1   
 23  11  14  1   
 24  12  30  1   
 25  13  15  1   
 26  13  16  1   
 27  13  31  1   
 28  14  32  1   
 29  14  33  1   
 30  14  34  1   
 31  15  17  1   
 32  15  35  1   
 33  15  36  1   
 34  16  18  1   
 35  16  37  1   
 36  16  38  1   
 37  17  19  1   
 38  17  39  1   
 39  17  40  1   
 40  18  19  1   
 41  18  41  1   
 42  18  42  1   
 43  19  20  1   
 44  19  43  1   
 45  20  44  1   
 46  20  45  1   
 47  20  46  1   
@<TRIPOS>SUBSTRUCTURE
  1 ****   3 GROUP 4 **** **** 0

# MOE 2024.06 (io_trps.svl 2023.06)
