@<TRIPOS>MOLECULE
NONAME
50 52 1 0 0 
SMALL
USER_CHARGES


@<TRIPOS>ATOM
  1 S       -0.3100     0.0340    -1.1680 S.o2  1 <1>   1.4470 
  2 O       -1.0390     1.0390    -1.9080 O.2   1 <1>  -0.6500 
  3 O        0.2010    -1.1280    -1.8660 O.2   1 <1>  -0.6500 
  4 N        1.0330     0.7980    -0.4670 N.am  1 <1>  -0.8490 
  5 C       -1.2950    -0.4790     0.2680 C.ar  1 <1>  -0.0090 
  6 C        1.7400     1.6300    -1.4430 C.3   1 <1>   0.1960 
  7 C        1.9340    -0.1610     0.1800 C.3   1 <1>   0.1960 
  8 C       -1.5730     0.4200     1.2970 C.ar  1 <1>  -0.1500 
  9 C       -1.7990    -1.7750     0.3690 C.ar  1 <1>  -0.1500 
 10 C        2.8540     2.4260    -0.7560 C.3   1 <1>  -0.1600 
 11 C        3.0410     0.5810     0.9310 C.3   1 <1>  -0.1600 
 12 C       -2.3230     0.0440     2.3990 C.ar  1 <1>  -0.1500 
 13 C       -2.5520    -2.1710     1.4630 C.ar  1 <1>  -0.1500 
 14 C        3.8330     1.5020    -0.0140 C.3   1 <1>  -0.0190 
 15 C       -2.8000    -1.2500     2.4610 C.ar  1 <1>   0.1900 
 16 C        4.9030     2.3130     0.7150 C.2   1 <1>   0.5690 
 17 F       -3.5060    -1.6150     3.4950 F     1 <1>  -0.1900 
 18 O        4.6550     2.7780     1.8010 O.2   1 <1>  -0.5700 
 19 N        6.1040     2.4840     0.0890 N.am  1 <1>  -0.5470 
 20 C        7.2300     3.1890     0.5400 C.ar  1 <1>   0.1170 
 21 C        7.2050     4.5800     0.6890 C.ar  1 <1>  -0.1430 
 22 C        8.4090     2.4910     0.8150 C.ar  1 <1>  -0.1430 
 23 C        8.3440     5.2460     1.1110 C.ar  1 <1>  -0.1500 
 24 C        5.9530     5.3990     0.3980 C.3   1 <1>  -0.0970 
 25 C        9.5370     3.1770     1.2310 C.ar  1 <1>  -0.1500 
 26 C        8.4790     0.9750     0.6780 C.3   1 <1>  -0.0970 
 27 C        9.5070     4.5500     1.3800 C.ar  1 <1>  -0.1500 
 28 H        1.0530     2.3280    -1.8940 H     1 <1>   0.0800 
 29 H        2.1490     1.0100    -2.2250 H     1 <1>   0.0800 
 30 H        2.3680    -0.8170    -0.5590 H     1 <1>   0.0800 
 31 H        1.3830    -0.7640     0.8810 H     1 <1>   0.0800 
 32 H       -1.1930     1.4270     1.2300 H     1 <1>   0.1500 
 33 H       -1.5990    -2.4830    -0.4200 H     1 <1>   0.1500 
 34 H        2.4070     3.1140    -0.0590 H     1 <1>   0.0800 
 35 H        3.3830     3.0040    -1.4920 H     1 <1>   0.0800 
 36 H        3.7070    -0.1310     1.3860 H     1 <1>   0.0800 
 37 H        2.5930     1.1600     1.7210 H     1 <1>   0.0800 
 38 H       -2.5360     0.7370     3.1930 H     1 <1>   0.1500 
 39 H       -2.9410    -3.1710     1.5420 H     1 <1>   0.1500 
 40 H        4.3230     0.8790    -0.7410 H     1 <1>   0.0800 
 41 H        6.2480     1.9720    -0.7770 H     1 <1>   0.3700 
 42 H        8.3330     6.3140     1.2350 H     1 <1>   0.1500 
 43 H        5.4920     5.0710    -0.5150 H     1 <1>   0.0800 
 44 H        6.1900     6.4420     0.2990 H     1 <1>   0.0800 
 45 H        5.2510     5.2850     1.2040 H     1 <1>   0.0800 
 46 H       10.4490     2.6480     1.4460 H     1 <1>   0.1500 
 47 H        7.7080     0.5180     1.2720 H     1 <1>   0.0800 
 48 H        9.4280     0.6010     1.0190 H     1 <1>   0.0800 
 49 H        8.3510     0.6890    -0.3490 H     1 <1>   0.0800 
 50 H       10.3860     5.0770     1.7070 H     1 <1>   0.1500 
@<TRIPOS>BOND
  1   1   2  2   
  2   1   3  2   
  3   1   4  am  
  4   1   5  1   
  5   4   6  1   
  6   4   7  1   
  7   5   8  ar  
  8   5   9  ar  
  9   6  10  1   
 10   6  28  1   
 11   6  29  1   
 12   7  11  1   
 13   7  30  1   
 14   7  31  1   
 15   8  12  ar  
 16   8  32  1   
 17   9  13  ar  
 18   9  33  1   
 19  10  14  1   
 20  10  34  1   
 21  10  35  1   
 22  11  14  1   
 23  11  36  1   
 24  11  37  1   
 25  12  15  ar  
 26  12  38  1   
 27  13  15  ar  
 28  13  39  1   
 29  14  16  1   
 30  14  40  1   
 31  15  17  1   
 32  16  18  2   
 33  16  19  am  
 34  19  20  1   
 35  19  41  1   
 36  20  21  ar  
 37  20  22  ar  
 38  21  23  ar  
 39  21  24  1   
 40  22  25  ar  
 41  22  26  1   
 42  23  27  ar  
 43  23  42  1   
 44  24  43  1   
 45  24  44  1   
 46  24  45  1   
 47  25  27  ar  
 48  25  46  1   
 49  26  47  1   
 50  26  48  1   
 51  26  49  1   
 52  27  50  1   
@<TRIPOS>SUBSTRUCTURE
  1 ****  11 GROUP 4 **** **** 0

# MOE 2024.06 (io_trps.svl 2023.06)
