@<TRIPOS>MOLECULE
NONAME
51 53 1 0 0 
SMALL
USER_CHARGES


@<TRIPOS>ATOM
  1 N        1.0920    -0.7620    -1.1560 N.ar  1 <1>  -0.6200 
  2 C        1.4040    -0.8780     0.1280 C.ar  1 <1>   0.4100 
  3 C       -0.0270    -1.3630    -1.5270 C.ar  1 <1>   0.1600 
  4 N        2.5670    -0.2550     0.5230 N.pl3 1 <1>  -0.8380 
  5 C        0.6350    -1.5750     1.0530 C.ar  1 <1>  -0.1500 
  6 C       -0.8580    -2.0790    -0.6820 C.ar  1 <1>  -0.1500 
  7 C        2.5030     1.2310     0.4290 C.3   1 <1>   0.2090 
  8 C        3.7930    -0.8570    -0.0750 C.3   1 <1>   0.2090 
  9 C       -0.5250    -2.1940     0.6530 C.ar  1 <1>  -0.1500 
 10 C        3.8100     1.8920     0.9080 C.3   1 <1>   0.3430 
 11 C        5.0730    -0.1530     0.4150 C.3   1 <1>   0.3430 
 12 N        5.0420     1.3510     0.2020 N.4   1 <1>  -0.9590 
 13 C        6.3140     2.0400     0.6020 C.3   1 <1>   0.4230 
 14 C        6.2180     3.5500     0.3310 C.3   1 <1>  -0.1600 
 15 C        7.5090     1.4570    -0.1700 C.3   1 <1>  -0.1600 
 16 C        7.5350     4.2700     0.6220 C.3   1 <1>   0.3430 
 17 C        8.8070     2.2090     0.1270 C.3   1 <1>   0.3430 
 18 N        8.6390     3.6600    -0.1670 N.4   1 <1>  -0.9590 
 19 C        9.9060     4.4170     0.0750 C.3   1 <1>   0.3430 
 20 C       10.9420     4.0910    -1.0030 C.3   1 <1>  -0.1600 
 21 C       12.1980     4.9510    -0.8260 C.3   1 <1>  -0.2400 
 22 H       -0.3010    -1.2830    -2.5650 H     1 <1>   0.1500 
 23 H        0.9600    -1.6190     2.0750 H     1 <1>   0.1500 
 24 H       -1.7520    -2.5390    -1.0630 H     1 <1>   0.1500 
 25 H        1.6840     1.5830     1.0330 H     1 <1>   0.0800 
 26 H        2.3010     1.5210    -0.5890 H     1 <1>   0.0800 
 27 H        3.7360    -0.8020    -1.1490 H     1 <1>   0.0800 
 28 H        3.8340    -1.9000     0.1940 H     1 <1>   0.0800 
 29 H       -1.1450    -2.7420     1.3420 H     1 <1>   0.1500 
 30 H        3.8970     1.7270     1.9690 H     1 <1>   0.0800 
 31 H        3.7200     2.9520     0.7430 H     1 <1>   0.0800 
 32 H        5.9060    -0.5880    -0.1100 H     1 <1>   0.0800 
 33 H        5.1930    -0.3700     1.4630 H     1 <1>   0.0800 
 34 H        4.8780     1.4920    -0.8040 H     1 <1>   0.4500 
 35 H        6.4780     1.8880     1.6580 H     1 <1>   0.0800 
 36 H        5.4750     3.9970     0.9660 H     1 <1>   0.0800 
 37 H        5.9410     3.7330    -0.6930 H     1 <1>   0.0800 
 38 H        7.3260     1.4870    -1.2300 H     1 <1>   0.0800 
 39 H        7.6740     0.4340     0.1150 H     1 <1>   0.0800 
 40 H        7.7620     4.2050     1.6750 H     1 <1>   0.0800 
 41 H        7.4370     5.3150     0.3680 H     1 <1>   0.0800 
 42 H        9.6010     1.7990    -0.4770 H     1 <1>   0.0800 
 43 H        9.0780     2.0780     1.1640 H     1 <1>   0.0800 
 44 H        8.4320     3.7770    -1.1710 H     1 <1>   0.4500 
 45 H       10.3060     4.1830     1.0500 H     1 <1>   0.0800 
 46 H        9.7080     5.4770     0.0440 H     1 <1>   0.0800 
 47 H       10.5330     4.2870    -1.9790 H     1 <1>   0.0800 
 48 H       11.2360     3.0580    -0.9490 H     1 <1>   0.0800 
 49 H       11.9620     5.9990    -0.9040 H     1 <1>   0.0800 
 50 H       12.9170     4.7140    -1.5920 H     1 <1>   0.0800 
 51 H       12.6580     4.7700     0.1310 H     1 <1>   0.0800 
@<TRIPOS>BOND
  1   1   2  ar  
  2   1   3  ar  
  3   2   4  1   
  4   2   5  ar  
  5   3   6  ar  
  6   3  22  1   
  7   4   7  1   
  8   4   8  1   
  9   5   9  ar  
 10   5  23  1   
 11   6   9  ar  
 12   6  24  1   
 13   7  10  1   
 14   7  25  1   
 15   7  26  1   
 16   8  11  1   
 17   8  27  1   
 18   8  28  1   
 19   9  29  1   
 20  10  12  1   
 21  10  30  1   
 22  10  31  1   
 23  11  12  1   
 24  11  32  1   
 25  11  33  1   
 26  12  13  1   
 27  12  34  1   
 28  13  14  1   
 29  13  15  1   
 30  13  35  1   
 31  14  16  1   
 32  14  36  1   
 33  14  37  1   
 34  15  17  1   
 35  15  38  1   
 36  15  39  1   
 37  16  18  1   
 38  16  40  1   
 39  16  41  1   
 40  17  18  1   
 41  17  42  1   
 42  17  43  1   
 43  18  19  1   
 44  18  44  1   
 45  19  20  1   
 46  19  45  1   
 47  19  46  1   
 48  20  21  1   
 49  20  47  1   
 50  20  48  1   
 51  21  49  1   
 52  21  50  1   
 53  21  51  1   
@<TRIPOS>SUBSTRUCTURE
  1 ****  12 GROUP 4 **** **** 0

# MOE 2024.06 (io_trps.svl 2023.06)
