@<TRIPOS>MOLECULE
NONAME
46 48 1 0 0 
SMALL
USER_CHARGES


@<TRIPOS>ATOM
  1 O        1.2560     1.4480     0.6640 O.3   1 <1>  -0.5600 
  2 C        0.1900     1.6850    -0.1990 C.3   1 <1>   0.5600 
  3 C        2.2970     0.8440    -0.0240 C.3   1 <1>   0.2000 
  4 O        0.6980     1.5490    -1.4830 O.3   1 <1>  -0.5600 
  5 C       -0.9160     0.6340     0.0240 C.3   1 <1>  -0.1600 
  6 C       -0.2840     3.1330     0.0050 C.3   1 <1>  -0.1600 
  7 C        1.7680     0.6810    -1.4360 C.3   1 <1>   0.1200 
  8 C        2.6630    -0.4830     0.6560 C.3   1 <1>   0.1100 
  9 C       -1.9680     1.1190     1.0330 C.3   1 <1>  -0.1600 
 10 C       -1.7730     3.2990    -0.3380 C.3   1 <1>  -0.1600 
 11 N        3.6470    -1.2510    -0.1390 N.3   1 <1>  -0.8100 
 12 C       -2.6620     2.4090     0.5520 C.3   1 <1>  -0.1600 
 13 C        3.7450    -2.6170     0.3790 C.3   1 <1>   0.4700 
 14 C        5.0000    -0.7280     0.0230 C.3   1 <1>   0.1100 
 15 O        4.6600    -2.5390     1.4210 O.3   1 <1>  -0.5600 
 16 C        4.2130    -3.6320    -0.6950 C.3   1 <1>  -0.0800 
 17 C        5.6030    -1.5590     1.1460 C.3   1 <1>   0.1200 
 18 C        3.2190    -3.7120    -1.8660 C.3   1 <1>  -0.2400 
 19 C        4.4010    -5.0390    -0.1010 C.3   1 <1>  -0.2400 
 20 H        3.1290     1.5240    -0.0120 H     1 <1>   0.0800 
 21 H       -0.4830    -0.2900     0.3590 H     1 <1>   0.0800 
 22 H       -1.4130     0.4540    -0.9120 H     1 <1>   0.0800 
 23 H        0.3140     3.7930    -0.5960 H     1 <1>   0.0800 
 24 H       -0.1480     3.4000     1.0370 H     1 <1>   0.0800 
 25 H        1.4140    -0.3190    -1.6140 H     1 <1>   0.0800 
 26 H        2.4950     0.9540    -2.1790 H     1 <1>   0.0800 
 27 H        1.7610    -1.0630     0.7490 H     1 <1>   0.0800 
 28 H        3.0470    -0.2930     1.6450 H     1 <1>   0.0800 
 29 H       -1.4760     1.3100     1.9720 H     1 <1>   0.0800 
 30 H       -2.7040     0.3510     1.2010 H     1 <1>   0.0800 
 31 H       -1.9160     3.0260    -1.3710 H     1 <1>   0.0800 
 32 H       -2.0650     4.3300    -0.2300 H     1 <1>   0.0800 
 33 H       -2.9770     2.9680     1.4170 H     1 <1>   0.0800 
 34 H       -3.5490     2.1530    -0.0020 H     1 <1>   0.0800 
 35 H        2.8030    -2.9470     0.7860 H     1 <1>   0.0800 
 36 H        5.0180     0.3220     0.2550 H     1 <1>   0.0800 
 37 H        5.5590    -0.8890    -0.8830 H     1 <1>   0.0800 
 38 H        5.1600    -3.3060    -1.0850 H     1 <1>   0.0800 
 39 H        5.7600    -0.9750     2.0360 H     1 <1>   0.0800 
 40 H        6.5210    -2.0300     0.8420 H     1 <1>   0.0800 
 41 H        2.2500    -4.0260    -1.5200 H     1 <1>   0.0800 
 42 H        3.5660    -4.4110    -2.6070 H     1 <1>   0.0800 
 43 H        3.1180    -2.7490    -2.3350 H     1 <1>   0.0800 
 44 H        3.4760    -5.4040     0.3070 H     1 <1>   0.0800 
 45 H        5.1350    -5.0170     0.6850 H     1 <1>   0.0800 
 46 H        4.7410    -5.7240    -0.8580 H     1 <1>   0.0800 
@<TRIPOS>BOND
  1   1   2  1   
  2   1   3  1   
  3   2   4  1   
  4   2   5  1   
  5   2   6  1   
  6   3   7  1   
  7   3   8  1   
  8   3  20  1   
  9   4   7  1   
 10   5   9  1   
 11   5  21  1   
 12   5  22  1   
 13   6  10  1   
 14   6  23  1   
 15   6  24  1   
 16   7  25  1   
 17   7  26  1   
 18   8  11  1   
 19   8  27  1   
 20   8  28  1   
 21   9  12  1   
 22   9  29  1   
 23   9  30  1   
 24  10  12  1   
 25  10  31  1   
 26  10  32  1   
 27  11  13  1   
 28  11  14  1   
 29  12  33  1   
 30  12  34  1   
 31  13  15  1   
 32  13  16  1   
 33  13  35  1   
 34  14  17  1   
 35  14  36  1   
 36  14  37  1   
 37  15  17  1   
 38  16  18  1   
 39  16  19  1   
 40  16  38  1   
 41  17  39  1   
 42  17  40  1   
 43  18  41  1   
 44  18  42  1   
 45  18  43  1   
 46  19  44  1   
 47  19  45  1   
 48  19  46  1   
@<TRIPOS>SUBSTRUCTURE
  1 ****   8 GROUP 4 **** **** 0

# MOE 2024.06 (io_trps.svl 2023.06)
