@<TRIPOS>MOLECULE
NONAME
47 48 1 0 0 
SMALL
USER_CHARGES


@<TRIPOS>ATOM
  1 O       -2.3870     1.4440    -2.2890 O.2   1 <1>  -0.5700 
  2 C       -2.1720     1.7780    -1.1490 C.2   1 <1>   0.6590 
  3 O       -2.1470     0.8940    -0.1520 O.3   1 <1>  -0.4300 
  4 C       -1.8900     3.2540    -0.7930 C.3   1 <1>   0.2510 
  5 C       -2.2940    -0.4930    -0.3500 C.3   1 <1>   0.1200 
  6 N       -0.4830     3.5460    -0.3670 N.3   1 <1>  -0.8100 
  7 C       -2.8680     3.7370     0.2950 C.3   1 <1>  -0.1600 
  8 C       -0.9290    -1.0850    -0.6970 C.3   1 <1>  -0.2400 
  9 C       -0.2760     4.9870    -0.1320 C.3   1 <1>   0.1100 
 10 C        0.4960     3.0180    -1.3410 C.3   1 <1>   0.2530 
 11 C       -2.6810     5.2240     0.6150 C.3   1 <1>  -0.1600 
 12 C       -1.2150     5.4920     0.9660 C.3   1 <1>  -0.1600 
 13 C        1.9310     3.1920    -0.8570 C.ar  1 <1>  -0.1430 
 14 C        2.3130     2.7050     0.3820 C.ar  1 <1>  -0.1500 
 15 C        2.8720     3.8300    -1.6470 C.ar  1 <1>  -0.1500 
 16 C        3.6130     2.8410     0.8410 C.ar  1 <1>   0.0820 
 17 C        4.1730     3.9860    -1.2020 C.ar  1 <1>  -0.1500 
 18 O        3.8540     2.3040     2.0710 O.3   1 <1>  -0.3620 
 19 C        4.5630     3.5040     0.0470 C.ar  1 <1>   0.0820 
 20 C        5.0820     1.6660     2.3450 C.3   1 <1>   0.0400 
 21 O        5.8350     3.6820     0.5110 O.3   1 <1>  -0.3630 
 22 C        6.7470     4.5500    -0.1260 C.3   1 <1>   0.0400 
 23 H       -2.0880     3.8210    -1.6860 H     1 <1>   0.0800 
 24 H       -3.0120    -0.6680    -1.1340 H     1 <1>   0.0800 
 25 H       -2.6640    -0.9150     0.5680 H     1 <1>   0.0800 
 26 H       -2.7080     3.1570     1.1880 H     1 <1>   0.0800 
 27 H       -3.8790     3.5670    -0.0310 H     1 <1>   0.0800 
 28 H       -0.5720    -0.6800    -1.6270 H     1 <1>   0.0800 
 29 H       -1.0130    -2.1510    -0.8010 H     1 <1>   0.0800 
 30 H       -0.2220    -0.8700     0.0850 H     1 <1>   0.0800 
 31 H       -0.4460     5.5360    -1.0430 H     1 <1>   0.0800 
 32 H        0.7380     5.1670     0.1870 H     1 <1>   0.0800 
 33 H        0.3630     3.5080    -2.2900 H     1 <1>   0.0800 
 34 H        0.3370     1.9640    -1.4860 H     1 <1>   0.0800 
 35 H       -3.3120     5.5050     1.4400 H     1 <1>   0.0800 
 36 H       -2.9600     5.8160    -0.2400 H     1 <1>   0.0800 
 37 H       -1.0620     6.5460     1.1080 H     1 <1>   0.0800 
 38 H       -0.9620     4.9960     1.8870 H     1 <1>   0.0800 
 39 H        1.5880     2.2140     1.0070 H     1 <1>   0.1500 
 40 H        2.5960     4.2110    -2.6150 H     1 <1>   0.1500 
 41 H        4.8680     4.4870    -1.8470 H     1 <1>   0.1500 
 42 H        4.9310     0.9900     3.1660 H     1 <1>   0.0800 
 43 H        5.8060     2.4120     2.6180 H     1 <1>   0.0800 
 44 H        5.4010     1.1250     1.4720 H     1 <1>   0.0800 
 45 H        7.6340     4.6040     0.4800 H     1 <1>   0.0800 
 46 H        6.3020     5.5260    -0.2080 H     1 <1>   0.0800 
 47 H        6.9920     4.1510    -1.0940 H     1 <1>   0.0800 
@<TRIPOS>BOND
  1   1   2  2   
  2   2   3  1   
  3   2   4  1   
  4   3   5  1   
  5   4   6  1   
  6   4   7  1   
  7   4  23  1   
  8   5   8  1   
  9   5  24  1   
 10   5  25  1   
 11   6   9  1   
 12   6  10  1   
 13   7  11  1   
 14   7  26  1   
 15   7  27  1   
 16   8  28  1   
 17   8  29  1   
 18   8  30  1   
 19   9  12  1   
 20   9  31  1   
 21   9  32  1   
 22  10  13  1   
 23  10  33  1   
 24  10  34  1   
 25  11  12  1   
 26  11  35  1   
 27  11  36  1   
 28  12  37  1   
 29  12  38  1   
 30  13  14  ar  
 31  13  15  ar  
 32  14  16  ar  
 33  14  39  1   
 34  15  17  ar  
 35  15  40  1   
 36  16  18  1   
 37  16  19  ar  
 38  17  19  ar  
 39  17  41  1   
 40  18  20  1   
 41  19  21  1   
 42  20  42  1   
 43  20  43  1   
 44  20  44  1   
 45  21  22  1   
 46  22  45  1   
 47  22  46  1   
 48  22  47  1   
@<TRIPOS>SUBSTRUCTURE
  1 ****  13 GROUP 4 **** **** 0

# MOE 2024.06 (io_trps.svl 2023.06)
