@<TRIPOS>MOLECULE
NONAME
49 51 1 0 0 
SMALL
USER_CHARGES


@<TRIPOS>ATOM
  1 CL       0.9520     0.5650    -2.9880 Cl    1 <1>  -0.1770 
  2 C        2.2520     0.3710    -1.8400 C.ar  1 <1>   0.1770 
  3 C        3.4710    -0.1150    -2.2710 C.ar  1 <1>  -0.1500 
  4 C        2.0430     0.7070    -0.5160 C.ar  1 <1>  -0.1500 
  5 C        4.5000    -0.2660    -1.3570 C.ar  1 <1>  -0.1500 
  6 C        3.0760     0.5540     0.3940 C.ar  1 <1>  -0.1500 
  7 C        4.3090     0.0680    -0.0230 C.ar  1 <1>  -0.1430 
  8 C        5.4480    -0.1020     0.9730 C.3   1 <1>   0.2540 
  9 N        6.5850     0.7730     0.6210 N.3   1 <1>  -0.8100 
 10 C        6.2130     2.2120     0.6430 C.3   1 <1>   0.1100 
 11 C        7.7540     0.5240     1.4960 C.3   1 <1>   0.1100 
 12 C        7.4080     3.1390     0.3120 C.3   1 <1>   0.3430 
 13 C        8.9700     1.4050     1.1140 C.3   1 <1>   0.3430 
 14 N        8.6330     2.3380    -0.0150 N.4   1 <1>  -0.9590 
 15 C        9.7540     3.1490    -0.5580 C.3   1 <1>   0.4230 
 16 C       10.6740     2.2260    -1.3660 C.3   1 <1>  -0.1600 
 17 C       10.4610     3.9340     0.5610 C.3   1 <1>  -0.1600 
 18 C       11.8490     2.9380    -2.0560 C.3   1 <1>  -0.1600 
 19 C       11.2850     5.1020    -0.0030 C.3   1 <1>  -0.1600 
 20 C       12.9400     3.3680    -1.0650 C.3   1 <1>  -0.1600 
 21 C       12.7220     4.7410    -0.4110 C.3   1 <1>  -0.1600 
 22 H        3.6070    -0.3720    -3.3070 H     1 <1>   0.1500 
 23 H        1.0830     1.0810    -0.2070 H     1 <1>   0.1500 
 24 H        5.4540    -0.6440    -1.6840 H     1 <1>   0.1500 
 25 H        2.9090     0.8120     1.4250 H     1 <1>   0.1500 
 26 H        5.7670    -1.1300     0.9530 H     1 <1>   0.0800 
 27 H        5.1060     0.1210     1.9700 H     1 <1>   0.0800 
 28 H        5.8180     2.4760     1.6100 H     1 <1>   0.0800 
 29 H        5.4360     2.3950    -0.0800 H     1 <1>   0.0800 
 30 H        8.0420    -0.5110     1.4230 H     1 <1>   0.0800 
 31 H        7.4900     0.7150     2.5230 H     1 <1>   0.0800 
 32 H        7.6010     3.7820     1.1540 H     1 <1>   0.0800 
 33 H        7.1410     3.7640    -0.5240 H     1 <1>   0.0800 
 34 H        9.7860     0.7630     0.8290 H     1 <1>   0.0800 
 35 H        9.2850     1.9670     1.9780 H     1 <1>   0.0800 
 36 H        8.2980     1.7020    -0.7550 H     1 <1>   0.4500 
 37 H        9.3400     3.8670    -1.2480 H     1 <1>   0.0800 
 38 H       10.0860     1.7590    -2.1370 H     1 <1>   0.0800 
 39 H       11.0700     1.4470    -0.7400 H     1 <1>   0.0800 
 40 H       11.0910     3.2930     1.1520 H     1 <1>   0.0800 
 41 H        9.7200     4.3630     1.2100 H     1 <1>   0.0800 
 42 H       11.5100     3.7800    -2.6370 H     1 <1>   0.0800 
 43 H       12.2940     2.2400    -2.7450 H     1 <1>   0.0800 
 44 H       11.3480     5.8760     0.7440 H     1 <1>   0.0800 
 45 H       10.7740     5.5330    -0.8470 H     1 <1>   0.0800 
 46 H       13.8800     3.4080    -1.5910 H     1 <1>   0.0800 
 47 H       13.0550     2.6180    -0.3020 H     1 <1>   0.0800 
 48 H       13.3520     4.7910     0.4620 H     1 <1>   0.0800 
 49 H       13.0740     5.5030    -1.0850 H     1 <1>   0.0800 
@<TRIPOS>BOND
  1   1   2  1   
  2   2   3  ar  
  3   2   4  ar  
  4   3   5  ar  
  5   3  22  1   
  6   4   6  ar  
  7   4  23  1   
  8   5   7  ar  
  9   5  24  1   
 10   6   7  ar  
 11   6  25  1   
 12   7   8  1   
 13   8   9  1   
 14   8  26  1   
 15   8  27  1   
 16   9  10  1   
 17   9  11  1   
 18  10  12  1   
 19  10  28  1   
 20  10  29  1   
 21  11  13  1   
 22  11  30  1   
 23  11  31  1   
 24  12  14  1   
 25  12  32  1   
 26  12  33  1   
 27  13  14  1   
 28  13  34  1   
 29  13  35  1   
 30  14  15  1   
 31  14  36  1   
 32  15  16  1   
 33  15  17  1   
 34  15  37  1   
 35  16  18  1   
 36  16  38  1   
 37  16  39  1   
 38  17  19  1   
 39  17  40  1   
 40  17  41  1   
 41  18  20  1   
 42  18  42  1   
 43  18  43  1   
 44  19  21  1   
 45  19  44  1   
 46  19  45  1   
 47  20  21  1   
 48  20  46  1   
 49  20  47  1   
 50  21  48  1   
 51  21  49  1   
@<TRIPOS>SUBSTRUCTURE
  1 ****  10 GROUP 4 **** **** 0

# MOE 2024.06 (io_trps.svl 2023.06)
