@<TRIPOS>MOLECULE
NONAME
34 35 1 0 0 
SMALL
USER_CHARGES


@<TRIPOS>ATOM
  1 S       -1.8440     2.4270    -0.6460 S.3   1 <1>  -0.0800 
  2 C       -0.2090     1.8960    -0.5340 C.2   1 <1>   0.4340 
  3 C       -2.2870     0.7750    -0.3470 C.2   1 <1>   0.4420 
  4 S        1.0580     3.1350    -0.7500 S.3   1 <1>  -0.2860 
  5 N       -0.0660     0.6550    -0.3050 N.2   1 <1>  -0.3380 
  6 N       -1.2670     0.0050    -0.1970 N.2   1 <1>  -0.3380 
  7 N       -3.6380     0.5040    -0.3080 N.am  1 <1>  -0.4940 
  8 C        2.6200     2.1710    -0.5600 C.3   1 <1>   0.0700 
  9 C       -4.2960    -0.6710    -0.0770 C.2   1 <1>   0.5690 
 10 C        3.7930     3.1350    -0.7240 C.3   1 <1>  -0.2400 
 11 O       -3.7410    -1.7170     0.1420 O.2   1 <1>  -0.5700 
 12 C       -5.8160    -0.6540    -0.0930 C.3   1 <1>   0.0440 
 13 C       -6.3790     0.7600    -0.2590 C.ar  1 <1>  -0.1430 
 14 C       -6.4940     1.6390     0.8150 C.ar  1 <1>  -0.1430 
 15 C       -6.7530     1.1760    -1.5290 C.ar  1 <1>  -0.1500 
 16 C       -6.9780     2.9200     0.5950 C.ar  1 <1>  -0.1500 
 17 C       -6.1050     1.2410     2.2340 C.3   1 <1>  -0.0970 
 18 C       -7.2340     2.4550    -1.7370 C.ar  1 <1>  -0.1500 
 19 C       -7.3450     3.3290    -0.6740 C.ar  1 <1>  -0.1500 
 20 H       -4.2550     1.3050    -0.4500 H     1 <1>   0.3700 
 21 H        2.6200     1.4070    -1.3180 H     1 <1>   0.0800 
 22 H        2.6040     1.7220     0.4180 H     1 <1>   0.0800 
 23 H        3.7650     3.5910    -1.6980 H     1 <1>   0.0800 
 24 H        4.7210     2.6020    -0.6190 H     1 <1>   0.0800 
 25 H        3.7490     3.9040     0.0260 H     1 <1>   0.0800 
 26 H       -6.1760    -1.0980     0.8150 H     1 <1>   0.0800 
 27 H       -6.1460    -1.2800    -0.9010 H     1 <1>   0.0800 
 28 H       -6.6720     0.5080    -2.3700 H     1 <1>   0.1500 
 29 H       -7.0760     3.6130     1.4130 H     1 <1>   0.1500 
 30 H       -6.7590     0.4650     2.5890 H     1 <1>   0.0800 
 31 H       -6.1860     2.0770     2.9050 H     1 <1>   0.0800 
 32 H       -5.0910     0.8870     2.2660 H     1 <1>   0.0800 
 33 H       -7.5230     2.7700    -2.7250 H     1 <1>   0.1500 
 34 H       -7.7210     4.3260    -0.8310 H     1 <1>   0.1500 
@<TRIPOS>BOND
  1   1   2  1   
  2   1   3  1   
  3   2   4  1   
  4   2   5  2   
  5   3   6  2   
  6   3   7  1   
  7   4   8  1   
  8   5   6  1   
  9   7   9  am  
 10   7  20  1   
 11   8  10  1   
 12   8  21  1   
 13   8  22  1   
 14   9  11  2   
 15   9  12  1   
 16  10  23  1   
 17  10  24  1   
 18  10  25  1   
 19  12  13  1   
 20  12  26  1   
 21  12  27  1   
 22  13  14  ar  
 23  13  15  ar  
 24  14  16  ar  
 25  14  17  1   
 26  15  18  ar  
 27  15  28  1   
 28  16  19  ar  
 29  16  29  1   
 30  17  30  1   
 31  17  31  1   
 32  17  32  1   
 33  18  19  ar  
 34  18  33  1   
 35  19  34  1   
@<TRIPOS>SUBSTRUCTURE
  1 ****   7 GROUP 4 **** **** 0

# MOE 2024.06 (io_trps.svl 2023.06)
