@<TRIPOS>MOLECULE
NONAME
35 37 1 0 0 
SMALL
USER_CHARGES


@<TRIPOS>ATOM
  1 S       -0.3880     0.2860     0.1720 S.3   1 <1>  -0.0800 
  2 C       -1.3180     1.6520    -0.3540 C.2   1 <1>   0.4420 
  3 C        1.0290     1.2200    -0.1590 C.2   1 <1>   0.2280 
  4 N       -0.5740     2.6350    -0.7110 N.2   1 <1>  -0.3380 
  5 N       -2.6900     1.5130    -0.3200 N.am  1 <1>  -0.4940 
  6 N        0.7660     2.3820    -0.5980 N.2   1 <1>  -0.3380 
  7 C       -3.6580     2.4090    -0.6800 C.2   1 <1>   0.5690 
  8 O       -3.4140     3.4970    -1.1330 O.2   1 <1>  -0.5700 
  9 C       -5.1140     1.9870    -0.5270 C.3   1 <1>  -0.0190 
 10 C       -6.1020     3.1650    -0.5760 C.3   1 <1>   0.1400 
 11 C       -5.4390     1.2470     0.7860 C.3   1 <1>  -0.0990 
 12 N       -7.1910     2.7490     0.3330 N.am  1 <1>  -0.6600 
 13 C       -6.8400     1.6900     1.0930 C.2   1 <1>   0.5690 
 14 C       -8.4590     3.5070     0.5010 C.3   1 <1>   0.2200 
 15 O       -7.5210     1.1470     1.9260 O.2   1 <1>  -0.5700 
 16 C       -9.1450     3.7560    -0.8440 C.3   1 <1>  -0.1600 
 17 C       -8.1880     4.8940     1.0980 C.3   1 <1>  -0.1600 
 18 C       -8.7390     5.1660    -1.2700 C.3   1 <1>  -0.1600 
 19 C       -8.5830     5.9330     0.0400 C.3   1 <1>  -0.1600 
 20 H        1.9880     0.7700     0.0220 H     1 <1>   0.1500 
 21 H       -3.0150     0.6150     0.0250 H     1 <1>   0.3700 
 22 H       -5.3540     1.3420    -1.3520 H     1 <1>   0.0800 
 23 H       -6.4600     3.3180    -1.5790 H     1 <1>   0.0800 
 24 H       -5.6580     4.0740    -0.2060 H     1 <1>   0.0800 
 25 H       -4.8060     1.5680     1.5930 H     1 <1>   0.0800 
 26 H       -5.3970     0.1790     0.6750 H     1 <1>   0.0800 
 27 H       -9.1170     2.9480     1.1460 H     1 <1>   0.0800 
 28 H      -10.2090     3.7430    -0.6840 H     1 <1>   0.0800 
 29 H       -8.9020     3.0090    -1.5780 H     1 <1>   0.0800 
 30 H       -7.1550     5.0050     1.3740 H     1 <1>   0.0800 
 31 H       -8.7890     5.0320     1.9800 H     1 <1>   0.0800 
 32 H       -9.4730     5.6180    -1.9150 H     1 <1>   0.0800 
 33 H       -7.7950     5.1400    -1.7840 H     1 <1>   0.0800 
 34 H       -7.8510     6.7170    -0.0440 H     1 <1>   0.0800 
 35 H       -9.5300     6.3700     0.3090 H     1 <1>   0.0800 
@<TRIPOS>BOND
  1   1   2  1   
  2   1   3  1   
  3   2   4  2   
  4   2   5  1   
  5   3   6  2   
  6   3  20  1   
  7   4   6  1   
  8   5   7  am  
  9   5  21  1   
 10   7   8  2   
 11   7   9  1   
 12   9  10  1   
 13   9  11  1   
 14   9  22  1   
 15  10  12  1   
 16  10  23  1   
 17  10  24  1   
 18  11  13  1   
 19  11  25  1   
 20  11  26  1   
 21  12  13  am  
 22  12  14  1   
 23  13  15  2   
 24  14  16  1   
 25  14  17  1   
 26  14  27  1   
 27  16  18  1   
 28  16  28  1   
 29  16  29  1   
 30  17  19  1   
 31  17  30  1   
 32  17  31  1   
 33  18  19  1   
 34  18  32  1   
 35  18  33  1   
 36  19  34  1   
 37  19  35  1   
@<TRIPOS>SUBSTRUCTURE
  1 ****   9 GROUP 4 **** **** 0

# MOE 2024.06 (io_trps.svl 2023.06)
