@<TRIPOS>MOLECULE
NONAME
50 53 1 0 0 
SMALL
USER_CHARGES


@<TRIPOS>ATOM
  1 O       -1.7070     0.6590     1.7700 O.2   1 <1>  -0.5700 
  2 C       -1.7810    -0.5340     1.5640 C.2   1 <1>   0.7060 
  3 O       -2.7010    -0.9810     0.7080 O.3   1 <1>  -0.2320 
  4 C       -0.9240    -1.4850     2.1910 C.2   1 <1>  -0.1360 
  5 C       -2.8400    -2.2930     0.4060 C.ar  1 <1>   0.0820 
  6 C       -1.0110    -2.8080     1.9300 C.2   1 <1>  -0.1670 
  7 C       -2.0080    -3.2580     0.9950 C.ar  1 <1>   0.0280 
  8 C       -3.8250    -2.6530    -0.5020 C.ar  1 <1>  -0.1500 
  9 C       -0.0690    -3.8000     2.6030 C.3   1 <1>   0.2480 
 10 C       -2.2080    -4.5900     0.6240 C.ar  1 <1>  -0.1500 
 11 C       -4.0040    -3.9770    -0.8460 C.ar  1 <1>  -0.1500 
 12 N        0.8250    -4.4300     1.6220 N.3   1 <1>  -0.8100 
 13 C       -3.1880    -4.9550    -0.2780 C.ar  1 <1>   0.0830 
 14 C        1.6580    -3.4430     0.8960 C.3   1 <1>   0.1100 
 15 C        1.6720    -5.4540     2.2730 C.3   1 <1>   0.1100 
 16 O       -3.2940    -6.2790    -0.5610 O.3   1 <1>  -0.3630 
 17 C        2.5720    -4.1200    -0.1390 C.3   1 <1>   0.1400 
 18 C        2.5830    -6.1630     1.2590 C.3   1 <1>   0.1400 
 19 C       -4.2690    -6.7610    -1.4550 C.3   1 <1>   0.1200 
 20 N        3.4090    -5.1640     0.5190 N.am  1 <1>  -0.6600 
 21 C       -4.1290    -8.2770    -1.5340 C.3   1 <1>  -0.2400 
 22 C        4.7310    -4.9430     0.8440 C.2   1 <1>   0.7150 
 23 O        5.1540    -5.4090     1.8890 O.2   1 <1>  -0.5700 
 24 C        5.5970    -4.1770    -0.0280 C.2   1 <1>   0.0550 
 25 O        6.5480    -3.3860     0.4630 O.3   1 <1>  -0.2800 
 26 C        5.6360    -4.0920    -1.3890 C.2   1 <1>  -0.1500 
 27 C        7.1820    -2.8100    -0.5320 C.2   1 <1>  -0.0100 
 28 C        6.6630    -3.2050    -1.7140 C.2   1 <1>  -0.1500 
 29 H       -0.2070    -1.0710     2.8730 H     1 <1>   0.1500 
 30 H       -4.4460    -1.8880    -0.9340 H     1 <1>   0.1500 
 31 H       -0.6550    -4.5590     3.0940 H     1 <1>   0.0800 
 32 H        0.5190    -3.3000     3.3540 H     1 <1>   0.0800 
 33 H       -1.5880    -5.3640     1.0360 H     1 <1>   0.1500 
 34 H       -4.7730    -4.2300    -1.5510 H     1 <1>   0.1500 
 35 H        2.2640    -2.8900     1.5940 H     1 <1>   0.0800 
 36 H        1.0260    -2.7470     0.3740 H     1 <1>   0.0800 
 37 H        1.0440    -6.1900     2.7450 H     1 <1>   0.0800 
 38 H        2.2870    -4.9990     3.0320 H     1 <1>   0.0800 
 39 H        3.1850    -3.3700    -0.6040 H     1 <1>   0.0800 
 40 H        1.9650    -4.5770    -0.9010 H     1 <1>   0.0800 
 41 H        1.9760    -6.7100     0.5590 H     1 <1>   0.0800 
 42 H        3.2140    -6.8690     1.7710 H     1 <1>   0.0800 
 43 H       -4.1000    -6.3120    -2.4190 H     1 <1>   0.0800 
 44 H       -5.2400    -6.4880    -1.0800 H     1 <1>   0.0800 
 45 H       -3.1510    -8.5390    -1.8980 H     1 <1>   0.0800 
 46 H       -4.8650    -8.6770    -2.2080 H     1 <1>   0.0800 
 47 H       -4.2790    -8.7130    -0.5630 H     1 <1>   0.0800 
 48 H        5.0090    -4.6080    -2.0950 H     1 <1>   0.1500 
 49 H        7.9910    -2.1340    -0.3140 H     1 <1>   0.1500 
 50 H        6.9590    -2.9170    -2.7070 H     1 <1>   0.1500 
@<TRIPOS>BOND
  1   1   2  2   
  2   2   3  1   
  3   2   4  1   
  4   3   5  1   
  5   4   6  2   
  6   4  29  1   
  7   5   7  ar  
  8   5   8  ar  
  9   6   7  1   
 10   6   9  1   
 11   7  10  ar  
 12   8  11  ar  
 13   8  30  1   
 14   9  12  1   
 15   9  31  1   
 16   9  32  1   
 17  10  13  ar  
 18  10  33  1   
 19  11  13  ar  
 20  11  34  1   
 21  12  14  1   
 22  12  15  1   
 23  13  16  1   
 24  14  17  1   
 25  14  35  1   
 26  14  36  1   
 27  15  18  1   
 28  15  37  1   
 29  15  38  1   
 30  16  19  1   
 31  17  20  1   
 32  17  39  1   
 33  17  40  1   
 34  18  20  1   
 35  18  41  1   
 36  18  42  1   
 37  19  21  1   
 38  19  43  1   
 39  19  44  1   
 40  20  22  am  
 41  21  45  1   
 42  21  46  1   
 43  21  47  1   
 44  22  23  2   
 45  22  24  1   
 46  24  25  1   
 47  24  26  2   
 48  25  27  1   
 49  26  28  1   
 50  26  48  1   
 51  27  28  2   
 52  27  49  1   
 53  28  50  1   
@<TRIPOS>SUBSTRUCTURE
  1 ****  14 GROUP 4 **** **** 0

# MOE 2024.06 (io_trps.svl 2023.06)
