@<TRIPOS>MOLECULE
NONAME
39 40 1 0 0 
SMALL
USER_CHARGES


@<TRIPOS>ATOM
  1 O        0.4540     1.5240     2.5700 O.2   1 <1>  -0.5700 
  2 C        0.0150     2.0810     1.5880 C.2   1 <1>   0.5690 
  3 N        0.7300     2.1390     0.4120 N.am  1 <1>  -0.6600 
  4 C       -1.3490     2.7520     1.7330 C.3   1 <1>   0.1810 
  5 C        0.2550     2.7920    -0.8420 C.3   1 <1>   0.1400 
  6 C        2.0570     1.4740     0.2810 C.3   1 <1>   0.1400 
  7 O       -2.3050     2.1920     0.8440 O.3   1 <1>  -0.3620 
  8 C        1.2870     3.8220    -1.3120 C.3   1 <1>  -0.1600 
  9 C        3.1050     2.4940    -0.1780 C.3   1 <1>  -0.1600 
 10 C       -3.5450     2.7280     0.7230 C.ar  1 <1>   0.0820 
 11 C        2.6800     3.1980    -1.4740 C.3   1 <1>  -0.1600 
 12 C       -4.3550     2.2070    -0.2720 C.ar  1 <1>  -0.1500 
 13 C       -4.0300     3.7530     1.5270 C.ar  1 <1>  -0.1500 
 14 C       -5.6350     2.6940    -0.4820 C.ar  1 <1>  -0.1440 
 15 C       -5.3060     4.2430     1.3210 C.ar  1 <1>  -0.1500 
 16 C       -6.1150     3.7240     0.3210 C.ar  1 <1>  -0.1440 
 17 C       -6.4830     2.0860    -1.5900 C.3   1 <1>  -0.0970 
 18 C       -7.5140     4.2940     0.1300 C.3   1 <1>  -0.0970 
 19 H       -1.2530     3.7990     1.5200 H     1 <1>   0.0800 
 20 H       -1.7090     2.6150     2.7370 H     1 <1>   0.0800 
 21 H       -0.6910     3.2810    -0.6990 H     1 <1>   0.0800 
 22 H        0.1240     2.0360    -1.5970 H     1 <1>   0.0800 
 23 H        1.9790     0.6780    -0.4390 H     1 <1>   0.0800 
 24 H        2.3640     1.0430     1.2190 H     1 <1>   0.0800 
 25 H        1.3300     4.6230    -0.5950 H     1 <1>   0.0800 
 26 H        0.9680     4.2400    -2.2510 H     1 <1>   0.0800 
 27 H        4.0440     1.9920    -0.3300 H     1 <1>   0.0800 
 28 H        3.2450     3.2200     0.6030 H     1 <1>   0.0800 
 29 H        3.3950     3.9610    -1.7260 H     1 <1>   0.0800 
 30 H        2.6580     2.4820    -2.2780 H     1 <1>   0.0800 
 31 H       -3.9660     1.4110    -0.8800 H     1 <1>   0.1500 
 32 H       -3.4380     4.1780     2.3150 H     1 <1>   0.1500 
 33 H       -5.6700     5.0370     1.9500 H     1 <1>   0.1500 
 34 H       -5.9470     1.3090    -2.1040 H     1 <1>   0.0800 
 35 H       -6.7510     2.8420    -2.3060 H     1 <1>   0.0800 
 36 H       -7.3790     1.6600    -1.1760 H     1 <1>   0.0800 
 37 H       -7.6140     4.7000    -0.8600 H     1 <1>   0.0800 
 38 H       -7.7120     5.0780     0.8380 H     1 <1>   0.0800 
 39 H       -8.2480     3.5210     0.2690 H     1 <1>   0.0800 
@<TRIPOS>BOND
  1   1   2  2   
  2   2   3  am  
  3   2   4  1   
  4   3   5  1   
  5   3   6  1   
  6   4   7  1   
  7   4  19  1   
  8   4  20  1   
  9   5   8  1   
 10   5  21  1   
 11   5  22  1   
 12   6   9  1   
 13   6  23  1   
 14   6  24  1   
 15   7  10  1   
 16   8  11  1   
 17   8  25  1   
 18   8  26  1   
 19   9  11  1   
 20   9  27  1   
 21   9  28  1   
 22  10  12  ar  
 23  10  13  ar  
 24  11  29  1   
 25  11  30  1   
 26  12  14  ar  
 27  12  31  1   
 28  13  15  ar  
 29  13  32  1   
 30  14  16  ar  
 31  14  17  1   
 32  15  16  ar  
 33  15  33  1   
 34  16  18  1   
 35  17  34  1   
 36  17  35  1   
 37  17  36  1   
 38  18  37  1   
 39  18  38  1   
 40  18  39  1   
@<TRIPOS>SUBSTRUCTURE
  1 ****   7 GROUP 4 **** **** 0

# MOE 2024.06 (io_trps.svl 2023.06)
