@<TRIPOS>MOLECULE
NONAME
45 45 1 0 0 
SMALL
USER_CHARGES


@<TRIPOS>ATOM
  1 N        0.0070     0.0120     0.0010 N.4   1 <1>  -0.9590 
  2 C        1.2430     0.7390     0.4730 C.3   1 <1>   0.4230 
  3 C       -1.2760     0.7190     0.3950 C.3   1 <1>   0.3430 
  4 C        0.0140    -1.4160     0.4870 C.3   1 <1>   0.2630 
  5 C        1.2230     2.2100     0.0160 C.3   1 <1>  -0.1600 
  6 C        2.5040     0.0440    -0.0770 C.3   1 <1>  -0.1600 
  7 C       -2.5800     0.0910    -0.1800 C.3   1 <1>   0.3430 
  8 C        2.5150     2.9510     0.3900 C.3   1 <1>  -0.1600 
  9 C        3.7940     0.7910     0.2920 C.3   1 <1>  -0.1600 
 10 N       -3.8480     0.8260     0.1900 N.4   1 <1>  -0.9590 
 11 C        3.7610     2.2550    -0.1740 C.3   1 <1>  -0.0800 
 12 C       -5.0520     0.0440    -0.2570 C.3   1 <1>   0.2630 
 13 C       -3.9330     2.2110    -0.3900 C.3   1 <1>   0.2630 
 14 C        5.0230     3.0280     0.2530 C.3   1 <1>  -0.1600 
 15 C        6.3090     2.5050    -0.3990 C.3   1 <1>  -0.2400 
 16 H        0.0980    -0.0010    -1.0270 H     1 <1>   0.4500 
 17 H        1.2880     0.7190     1.5510 H     1 <1>   0.0800 
 18 H       -1.2330     1.7360     0.0460 H     1 <1>   0.0800 
 19 H       -1.3440     0.7390     1.4700 H     1 <1>   0.0800 
 20 H        0.0580    -1.4470     1.5640 H     1 <1>   0.0800 
 21 H        0.8680    -1.9460     0.0980 H     1 <1>   0.0800 
 22 H       -0.8690    -1.9400     0.1610 H     1 <1>   0.0800 
 23 H        0.4210     2.7480     0.4850 H     1 <1>   0.0800 
 24 H        1.1020     2.2610    -1.0530 H     1 <1>   0.0800 
 25 H        2.4480    -0.0210    -1.1500 H     1 <1>   0.0800 
 26 H        2.6020    -0.9490     0.3220 H     1 <1>   0.0800 
 27 H       -2.6570    -0.9210     0.1800 H     1 <1>   0.0800 
 28 H       -2.5030     0.0560    -1.2550 H     1 <1>   0.0800 
 29 H        2.5970     3.0150     1.4630 H     1 <1>   0.0800 
 30 H        2.4680     3.9580     0.0100 H     1 <1>   0.0800 
 31 H        4.6250     0.2820    -0.1650 H     1 <1>   0.0800 
 32 H        3.9410     0.7580     1.3590 H     1 <1>   0.0800 
 33 H       -3.9260     0.9080     1.2190 H     1 <1>   0.4500 
 34 H        3.7060     2.2760    -1.2510 H     1 <1>   0.0800 
 35 H       -5.0560    -0.0650    -1.3300 H     1 <1>   0.0800 
 36 H       -5.9580     0.5500     0.0370 H     1 <1>   0.0800 
 37 H       -5.0540    -0.9370     0.1890 H     1 <1>   0.0800 
 38 H       -3.8870     2.1740    -1.4680 H     1 <1>   0.0800 
 39 H       -3.1270     2.8300    -0.0290 H     1 <1>   0.0800 
 40 H       -4.8650     2.6770    -0.1090 H     1 <1>   0.0800 
 41 H        5.1320     2.9950     1.3240 H     1 <1>   0.0800 
 42 H        4.9090     4.0620    -0.0260 H     1 <1>   0.0800 
 43 H        6.5490     1.5170    -0.0500 H     1 <1>   0.0800 
 44 H        7.1320     3.1520    -0.1480 H     1 <1>   0.0800 
 45 H        6.2100     2.4840    -1.4700 H     1 <1>   0.0800 
@<TRIPOS>BOND
  1   1   2  1   
  2   1   3  1   
  3   1   4  1   
  4   1  16  1   
  5   2   5  1   
  6   2   6  1   
  7   2  17  1   
  8   3   7  1   
  9   3  18  1   
 10   3  19  1   
 11   4  20  1   
 12   4  21  1   
 13   4  22  1   
 14   5   8  1   
 15   5  23  1   
 16   5  24  1   
 17   6   9  1   
 18   6  25  1   
 19   6  26  1   
 20   7  10  1   
 21   7  27  1   
 22   7  28  1   
 23   8  11  1   
 24   8  29  1   
 25   8  30  1   
 26   9  11  1   
 27   9  31  1   
 28   9  32  1   
 29  10  12  1   
 30  10  13  1   
 31  10  33  1   
 32  11  14  1   
 33  11  34  1   
 34  12  35  1   
 35  12  36  1   
 36  12  37  1   
 37  13  38  1   
 38  13  39  1   
 39  13  40  1   
 40  14  15  1   
 41  14  41  1   
 42  14  42  1   
 43  15  43  1   
 44  15  44  1   
 45  15  45  1   
@<TRIPOS>SUBSTRUCTURE
  1 ****   2 GROUP 4 **** **** 0

# MOE 2024.06 (io_trps.svl 2023.06)
