@<TRIPOS>MOLECULE
NONAME
36 38 1 0 0 
SMALL
USER_CHARGES


@<TRIPOS>ATOM
  1 S        0.0620     0.1040     0.7470 S.o2  1 <1>   1.5010 
  2 O        0.1080     0.5970     2.1040 O.2   1 <1>  -0.6500 
  3 O        0.0800     1.0370    -0.3560 O.2   1 <1>  -0.6500 
  4 N        1.4500    -0.7960     0.5140 N.am  1 <1>  -0.9140 
  5 C       -1.2510    -1.1090     0.5460 C.2   1 <1>  -0.0630 
  6 C        2.6190    -0.1040     1.0030 C.3   1 <1>   0.3390 
  7 C       -2.5720    -0.8250     0.2140 C.2   1 <1>   0.1080 
  8 C       -1.2410    -2.4580     0.6910 C.2   1 <1>  -0.3020 
  9 C        3.8400    -0.7820     0.4110 C.ar  1 <1>  -0.1430 
 10 N       -3.3100    -1.8890     0.1480 N.2   1 <1>  -0.7070 
 11 C       -3.1370     0.5540    -0.0510 C.3   1 <1>  -0.0590 
 12 N       -2.4850    -2.9020     0.4450 N.pl3 1 <1>   0.3140 
 13 C        4.1990    -2.0550     0.8450 C.ar  1 <1>  -0.1500 
 14 C        4.5990    -0.1410    -0.5690 C.ar  1 <1>  -0.1500 
 15 C       -2.9590    -4.2900     0.4830 C.3   1 <1>   0.0160 
 16 C        5.3110    -2.6490     0.2830 C.ar  1 <1>   0.0830 
 17 C        5.7170    -0.7540    -1.1220 C.ar  1 <1>  -0.1500 
 18 O        5.8290    -3.8530     0.5450 O.3   1 <1>  -0.3630 
 19 C        6.0500    -2.0160    -0.6730 C.ar  1 <1>   0.0830 
 20 C        6.9720    -3.9960    -0.2960 C.3   1 <1>   0.4000 
 21 O        7.0690    -2.7930    -1.0560 O.3   1 <1>  -0.3630 
 22 H        1.5550    -0.8340    -0.4960 H     1 <1>   0.4200 
 23 H        2.6500    -0.1510     2.0790 H     1 <1>   0.0800 
 24 H        2.5960     0.9330     0.7060 H     1 <1>   0.0800 
 25 H       -0.4220    -3.1030     0.9540 H     1 <1>   0.1500 
 26 H       -2.9240     1.2070     0.7750 H     1 <1>   0.0800 
 27 H       -4.2030     0.4940    -0.1770 H     1 <1>   0.0800 
 28 H       -2.7060     0.9610    -0.9480 H     1 <1>   0.0800 
 29 H        3.6300    -2.5770     1.5940 H     1 <1>   0.1500 
 30 H        4.3240     0.8430    -0.9100 H     1 <1>   0.1500 
 31 H       -2.1340    -4.9490     0.6740 H     1 <1>   0.0800 
 32 H       -3.4080    -4.5290    -0.4620 H     1 <1>   0.0800 
 33 H       -3.6910    -4.3840     1.2630 H     1 <1>   0.0800 
 34 H        6.3120    -0.2740    -1.8770 H     1 <1>   0.1500 
 35 H        6.8300    -4.8310    -0.9600 H     1 <1>   0.0800 
 36 H        7.8540    -4.1130     0.3090 H     1 <1>   0.0800 
@<TRIPOS>BOND
  1   1   2  2   
  2   1   3  2   
  3   1   4  am  
  4   1   5  1   
  5   4   6  1   
  6   4  22  1   
  7   5   7  1   
  8   5   8  2   
  9   6   9  1   
 10   6  23  1   
 11   6  24  1   
 12   7  10  2   
 13   7  11  1   
 14   8  12  1   
 15   8  25  1   
 16   9  13  ar  
 17   9  14  ar  
 18  10  12  1   
 19  11  26  1   
 20  11  27  1   
 21  11  28  1   
 22  12  15  1   
 23  13  16  ar  
 24  13  29  1   
 25  14  17  ar  
 26  14  30  1   
 27  15  31  1   
 28  15  32  1   
 29  15  33  1   
 30  16  18  1   
 31  16  19  ar  
 32  17  19  ar  
 33  17  34  1   
 34  18  20  1   
 35  19  21  1   
 36  20  21  1   
 37  20  35  1   
 38  20  36  1   
@<TRIPOS>SUBSTRUCTURE
  1 ****   4 GROUP 4 **** **** 0

# MOE 2024.06 (io_trps.svl 2023.06)
