@<TRIPOS>MOLECULE
NONAME
45 46 1 0 0 
SMALL
USER_CHARGES


@<TRIPOS>ATOM
  1 CL       0.3560     0.4180    -1.2460 Cl    1 <1>  -0.1770 
  2 C        2.0290     0.0760    -0.8770 C.ar  1 <1>   0.1770 
  3 C        2.6630     0.7360     0.1600 C.ar  1 <1>   0.1600 
  4 C        2.7170    -0.8530    -1.6250 C.ar  1 <1>  -0.1500 
  5 N        3.9280     0.5400     0.5100 N.ar  1 <1>  -0.6200 
  6 C        4.0310    -1.0650    -1.2700 C.ar  1 <1>  -0.1500 
  7 C        4.5950    -0.3600    -0.2020 C.ar  1 <1>   0.4270 
  8 N        5.8980    -0.5030     0.2190 N.am  1 <1>  -0.5470 
  9 C        6.8710    -1.4330    -0.0370 C.2   1 <1>   0.5440 
 10 O        6.6400    -2.3880    -0.7490 O.2   1 <1>  -0.5700 
 11 C        8.1790    -1.2530     0.5600 C.ar  1 <1>   0.0860 
 12 C        8.7290    -2.1650     1.4660 C.ar  1 <1>  -0.1430 
 13 C        8.9310    -0.1270     0.2280 C.ar  1 <1>  -0.1500 
 14 C        9.9830    -1.9370     2.0050 C.ar  1 <1>  -0.1500 
 15 C        7.9650    -3.4190     1.8750 C.3   1 <1>  -0.0970 
 16 C       10.1910     0.1150     0.7570 C.ar  1 <1>  -0.0090 
 17 C       10.7030    -0.8110     1.6530 C.ar  1 <1>  -0.1500 
 18 S       11.1520     1.5800     0.2840 S.o2  1 <1>   1.4470 
 19 O       10.4560     2.3110    -0.7540 O.2   1 <1>  -0.6500 
 20 O       11.5610     2.2740     1.4850 O.2   1 <1>  -0.6500 
 21 N       12.5360     0.9070    -0.4350 N.am  1 <1>  -0.8490 
 22 C       12.2550     0.3470    -1.7570 C.3   1 <1>   0.1960 
 23 C       13.6600     1.8460    -0.4550 C.3   1 <1>   0.1960 
 24 C       13.2850    -0.7290    -2.0940 C.3   1 <1>  -0.2400 
 25 C       14.6150     1.4840     0.6770 C.3   1 <1>  -0.2400 
 26 H        2.0990     1.4580     0.7250 H     1 <1>   0.1500 
 27 H        2.2470    -1.3770    -2.4380 H     1 <1>   0.1500 
 28 H        4.6170    -1.7730    -1.8230 H     1 <1>   0.1500 
 29 H        6.1230     0.1890     0.9300 H     1 <1>   0.3700 
 30 H        8.5190     0.5800    -0.4730 H     1 <1>   0.1500 
 31 H       10.4120    -2.6370     2.7020 H     1 <1>   0.1500 
 32 H        6.9840    -3.1600     2.2320 H     1 <1>   0.0800 
 33 H        8.4780    -3.9510     2.6560 H     1 <1>   0.0800 
 34 H        7.8610    -4.0770     1.0300 H     1 <1>   0.0800 
 35 H       11.6810    -0.6460     2.0770 H     1 <1>   0.1500 
 36 H       12.2490     1.1270    -2.5030 H     1 <1>   0.0800 
 37 H       11.2810    -0.1160    -1.7590 H     1 <1>   0.0800 
 38 H       13.3160     2.8620    -0.3430 H     1 <1>   0.0800 
 39 H       14.1960     1.7890    -1.3880 H     1 <1>   0.0800 
 40 H       14.2710    -0.3140    -2.1800 H     1 <1>   0.0800 
 41 H       13.0300    -1.1880    -3.0320 H     1 <1>   0.0800 
 42 H       13.2830    -1.4880    -1.3320 H     1 <1>   0.0800 
 43 H       14.1230     1.5770     1.6280 H     1 <1>   0.0800 
 44 H       15.4590     2.1490     0.6650 H     1 <1>   0.0800 
 45 H       14.9690     0.4760     0.5550 H     1 <1>   0.0800 
@<TRIPOS>BOND
  1   1   2  1   
  2   2   3  ar  
  3   2   4  ar  
  4   3   5  ar  
  5   3  26  1   
  6   4   6  ar  
  7   4  27  1   
  8   5   7  ar  
  9   6   7  ar  
 10   6  28  1   
 11   7   8  1   
 12   8   9  am  
 13   8  29  1   
 14   9  10  2   
 15   9  11  1   
 16  11  12  ar  
 17  11  13  ar  
 18  12  14  ar  
 19  12  15  1   
 20  13  16  ar  
 21  13  30  1   
 22  14  17  ar  
 23  14  31  1   
 24  15  32  1   
 25  15  33  1   
 26  15  34  1   
 27  16  17  ar  
 28  16  18  1   
 29  17  35  1   
 30  18  19  2   
 31  18  20  2   
 32  18  21  am  
 33  21  22  1   
 34  21  23  1   
 35  22  24  1   
 36  22  36  1   
 37  22  37  1   
 38  23  25  1   
 39  23  38  1   
 40  23  39  1   
 41  24  40  1   
 42  24  41  1   
 43  24  42  1   
 44  25  43  1   
 45  25  44  1   
 46  25  45  1   
@<TRIPOS>SUBSTRUCTURE
  1 ****  13 GROUP 4 **** **** 0

# MOE 2024.06 (io_trps.svl 2023.06)
