@<TRIPOS>MOLECULE
NONAME
27 27 1 0 0 
SMALL
USER_CHARGES


@<TRIPOS>ATOM
  1 CL      -0.5300     0.2030     0.0120 Cl    1 <1>  -0.1770 
  2 C        1.0940     0.8460     0.0120 C.ar  1 <1>   0.1770 
  3 C        1.2800     2.2160     0.0150 C.ar  1 <1>  -0.1500 
  4 C        2.1670    -0.0260     0.0100 C.ar  1 <1>  -0.1500 
  5 C        2.5700     2.7200     0.0150 C.ar  1 <1>  -0.1500 
  6 C        3.4560     0.4820     0.0110 C.ar  1 <1>  -0.1500 
  7 C        3.6610     1.8620     0.0130 C.ar  1 <1>   0.0820 
  8 O        4.8860     2.4420     0.0140 O.3   1 <1>  -0.3630 
  9 C        6.0650     1.6710     0.0120 C.3   1 <1>   0.1200 
 10 C        7.2560     2.6300     0.0130 C.3   1 <1>  -0.1600 
 11 C        8.5880     1.8680     0.0110 C.3   1 <1>  -0.1600 
 12 C        9.7740     2.8350     0.0120 C.3   1 <1>   0.0700 
 13 S       11.3260     1.8370     0.0090 S.3   1 <1>  -0.2660 
 14 C       12.6120     3.1020     0.0100 C.1   1 <1>   0.5930 
 15 N       13.4030     3.9200     0.0110 N.1   1 <1>  -0.5570 
 16 H        0.4290     2.8730     0.0160 H     1 <1>   0.1500 
 17 H        1.9910    -1.0860     0.0090 H     1 <1>   0.1500 
 18 H        2.7390     3.7820     0.0170 H     1 <1>   0.1500 
 19 H        4.2800    -0.2070     0.0090 H     1 <1>   0.1500 
 20 H        6.0680     1.0580    -0.8730 H     1 <1>   0.0800 
 21 H        6.0690     1.0550     0.8950 H     1 <1>   0.0800 
 22 H        7.1990     3.2530     0.8890 H     1 <1>   0.0800 
 23 H        7.1980     3.2560    -0.8610 H     1 <1>   0.0800 
 24 H        8.6440     1.2420    -0.8640 H     1 <1>   0.0800 
 25 H        8.6450     1.2390     0.8830 H     1 <1>   0.0800 
 26 H        9.7880     3.4490     0.8960 H     1 <1>   0.0800 
 27 H        9.7870     3.4520    -0.8700 H     1 <1>   0.0800 
@<TRIPOS>BOND
  1   1   2  1   
  2   2   3  ar  
  3   2   4  ar  
  4   3   5  ar  
  5   3  16  1   
  6   4   6  ar  
  7   4  17  1   
  8   5   7  ar  
  9   5  18  1   
 10   6   7  ar  
 11   6  19  1   
 12   7   8  1   
 13   8   9  1   
 14   9  10  1   
 15   9  20  1   
 16   9  21  1   
 17  10  11  1   
 18  10  22  1   
 19  10  23  1   
 20  11  12  1   
 21  11  24  1   
 22  11  25  1   
 23  12  13  1   
 24  12  26  1   
 25  12  27  1   
 26  13  14  1   
 27  14  15  3   
@<TRIPOS>SUBSTRUCTURE
  1 ****   9 GROUP 4 **** **** 0

# MOE 2024.06 (io_trps.svl 2023.06)
