@<TRIPOS>MOLECULE
NONAME
45 47 1 0 0 
SMALL
USER_CHARGES


@<TRIPOS>ATOM
  1 S        1.8760     1.3450     1.9870 S.3   1 <1>  -0.0800 
  2 C        0.8080     2.2220     0.8850 C.2   1 <1>   0.0400 
  3 C        1.1500    -0.1970     1.5830 C.2   1 <1>  -0.1100 
  4 C        0.9730     3.6460     0.7810 C.2   1 <1>   0.1860 
  5 C       -0.0240     1.3290     0.2890 C.2   1 <1>  -0.1500 
  6 C        0.1690    -0.0290     0.6780 C.2   1 <1>  -0.1500 
  7 N        1.3960     4.4270     1.7420 N.2   1 <1>  -0.3380 
  8 N        0.7460     4.3670    -0.3390 N.pl3 1 <1>   0.0480 
  9 N        1.4580     5.6680     1.2720 N.2   1 <1>  -0.3380 
 10 C        1.0930     5.5920     0.0410 C.2   1 <1>   0.2420 
 11 C        0.3660     3.9030    -1.6910 C.3   1 <1>   0.0160 
 12 S        1.1440     6.9890    -1.0830 S.3   1 <1>  -0.2860 
 13 C        2.5780     7.9870    -0.4440 C.3   1 <1>   0.1310 
 14 C        3.8730     7.2100    -0.6410 C.2   1 <1>   0.5690 
 15 O        4.6270     7.5430    -1.5230 O.2   1 <1>  -0.5700 
 16 N        4.1300     6.1520     0.1700 N.am  1 <1>  -0.7300 
 17 C        5.1840     5.1480    -0.0080 C.3   1 <1>   0.2200 
 18 C        4.5330     3.9200    -0.6610 C.3   1 <1>  -0.1600 
 19 C        5.8020     4.8910     1.3720 C.3   1 <1>  -0.1600 
 20 C        5.5640     2.8960    -1.1570 C.3   1 <1>  -0.1600 
 21 C        6.8330     3.7520     1.4320 C.3   1 <1>  -0.1600 
 22 C        5.9830     1.8540    -0.1100 C.3   1 <1>  -0.1600 
 23 C        6.1800     2.3660     1.3250 C.3   1 <1>  -0.1600 
 24 H        1.5390    -1.0730     2.0730 H     1 <1>   0.1500 
 25 H       -0.7910     1.5800    -0.4200 H     1 <1>   0.1500 
 26 H       -0.4350    -0.8190     0.2670 H     1 <1>   0.1500 
 27 H        0.8420     2.9610    -1.8940 H     1 <1>   0.0800 
 28 H        0.6840     4.6170    -2.4290 H     1 <1>   0.0800 
 29 H       -0.7010     3.7910    -1.7420 H     1 <1>   0.0800 
 30 H        2.4000     8.1870     0.5960 H     1 <1>   0.0800 
 31 H        2.6010     8.9040    -1.0010 H     1 <1>   0.0800 
 32 H        3.4180     5.8800     0.8620 H     1 <1>   0.3700 
 33 H        5.9390     5.5440    -0.6680 H     1 <1>   0.0800 
 34 H        3.9830     4.2640    -1.5190 H     1 <1>   0.0800 
 35 H        3.8380     3.4560     0.0160 H     1 <1>   0.0800 
 36 H        5.0180     4.6870     2.0810 H     1 <1>   0.0800 
 37 H        6.2900     5.7990     1.6820 H     1 <1>   0.0800 
 38 H        6.4350     3.4150    -1.5200 H     1 <1>   0.0800 
 39 H        5.1480     2.3670    -1.9980 H     1 <1>   0.0800 
 40 H        7.3230     3.8110     2.3890 H     1 <1>   0.0800 
 41 H        7.5910     3.8790     0.6780 H     1 <1>   0.0800 
 42 H        6.9010     1.4010    -0.4440 H     1 <1>   0.0800 
 43 H        5.2420     1.0740    -0.0820 H     1 <1>   0.0800 
 44 H        5.2310     2.3770     1.8340 H     1 <1>   0.0800 
 45 H        6.7970     1.6530     1.8460 H     1 <1>   0.0800 
@<TRIPOS>BOND
  1   1   2  1   
  2   1   3  1   
  3   2   4  1   
  4   2   5  2   
  5   3   6  2   
  6   3  24  1   
  7   4   7  2   
  8   4   8  1   
  9   5   6  1   
 10   5  25  1   
 11   6  26  1   
 12   7   9  1   
 13   8  10  1   
 14   8  11  1   
 15   9  10  2   
 16  10  12  1   
 17  11  27  1   
 18  11  28  1   
 19  11  29  1   
 20  12  13  1   
 21  13  14  1   
 22  13  30  1   
 23  13  31  1   
 24  14  15  2   
 25  14  16  am  
 26  16  17  1   
 27  16  32  1   
 28  17  18  1   
 29  17  19  1   
 30  17  33  1   
 31  18  20  1   
 32  18  34  1   
 33  18  35  1   
 34  19  21  1   
 35  19  36  1   
 36  19  37  1   
 37  20  22  1   
 38  20  38  1   
 39  20  39  1   
 40  21  23  1   
 41  21  40  1   
 42  21  41  1   
 43  22  23  1   
 44  22  42  1   
 45  22  43  1   
 46  23  44  1   
 47  23  45  1   
@<TRIPOS>SUBSTRUCTURE
  1 ****  18 GROUP 4 **** **** 0

# MOE 2024.06 (io_trps.svl 2023.06)
