@<TRIPOS>MOLECULE
NONAME
41 41 1 0 0 
SMALL
USER_CHARGES


@<TRIPOS>ATOM
  1 S        1.3590     0.2630     0.6170 S.3   1 <1>  -0.0800 
  2 C        2.1620    -0.8190    -0.4810 C.2   1 <1>   0.4420 
  3 C       -0.1250    -0.1770    -0.1560 C.2   1 <1>   0.1980 
  4 N        1.3410    -1.3910    -1.2830 N.2   1 <1>  -0.3380 
  5 N        3.5250    -1.0160    -0.4630 N.am  1 <1>  -0.4940 
  6 N        0.0380    -1.0220    -1.0920 N.2   1 <1>  -0.3380 
  7 C       -1.4100     0.4560     0.3430 C.3   1 <1>   0.0200 
  8 C        4.5230    -0.4890     0.3090 C.2   1 <1>   0.5690 
  9 C       -1.5070     1.9340    -0.0600 C.3   1 <1>  -0.1600 
 10 O        4.3090     0.3180     1.1800 O.2   1 <1>  -0.5700 
 11 C        5.9710    -0.9680     0.0280 C.3   1 <1>   0.0610 
 12 C       -2.8230     2.5630     0.4180 C.3   1 <1>  -0.1600 
 13 C        6.3760    -0.6320    -1.4210 C.3   1 <1>  -0.2400 
 14 C        6.9910    -0.2940     0.9700 C.3   1 <1>  -0.2400 
 15 C        6.0810    -2.4920     0.2300 C.3   1 <1>  -0.2400 
 16 C       -2.9070     4.0390     0.0110 C.3   1 <1>  -0.1600 
 17 C       -4.2220     4.6700     0.4850 C.3   1 <1>  -0.1600 
 18 C       -4.3040     6.1430     0.0780 C.3   1 <1>  -0.2400 
 19 H        3.8310    -1.6820    -1.1650 H     1 <1>   0.3700 
 20 H       -1.4530     0.3610     1.4140 H     1 <1>   0.0800 
 21 H       -2.2410    -0.0860    -0.0740 H     1 <1>   0.0800 
 22 H       -1.4400     2.0100    -1.1320 H     1 <1>   0.0800 
 23 H       -0.6780     2.4750     0.3630 H     1 <1>   0.0800 
 24 H       -2.8900     2.4850     1.4900 H     1 <1>   0.0800 
 25 H       -3.6530     2.0280    -0.0110 H     1 <1>   0.0800 
 26 H        5.7450    -1.1340    -2.1310 H     1 <1>   0.0800 
 27 H        7.3930    -0.9280    -1.6090 H     1 <1>   0.0800 
 28 H        6.2980     0.4290    -1.5890 H     1 <1>   0.0800 
 29 H        6.9610     0.7750     0.8480 H     1 <1>   0.0800 
 30 H        7.9910    -0.6330     0.7660 H     1 <1>   0.0800 
 31 H        6.7570    -0.5180     1.9960 H     1 <1>   0.0800 
 32 H        5.7940    -2.7530     1.2340 H     1 <1>   0.0800 
 33 H        7.0930    -2.8230     0.0730 H     1 <1>   0.0800 
 34 H        5.4450    -3.0260    -0.4530 H     1 <1>   0.0800 
 35 H       -2.8380     4.1210    -1.0600 H     1 <1>   0.0800 
 36 H       -2.0790     4.5780     0.4410 H     1 <1>   0.0800 
 37 H       -4.2950     4.5940     1.5560 H     1 <1>   0.0800 
 38 H       -5.0540     4.1380     0.0550 H     1 <1>   0.0800 
 39 H       -3.4930     6.7000     0.5150 H     1 <1>   0.0800 
 40 H       -5.2320     6.5680     0.4180 H     1 <1>   0.0800 
 41 H       -4.2540     6.2420    -0.9920 H     1 <1>   0.0800 
@<TRIPOS>BOND
  1   1   2  1   
  2   1   3  1   
  3   2   4  2   
  4   2   5  1   
  5   3   6  2   
  6   3   7  1   
  7   4   6  1   
  8   5   8  am  
  9   5  19  1   
 10   7   9  1   
 11   7  20  1   
 12   7  21  1   
 13   8  10  2   
 14   8  11  1   
 15   9  12  1   
 16   9  22  1   
 17   9  23  1   
 18  11  13  1   
 19  11  14  1   
 20  11  15  1   
 21  12  16  1   
 22  12  24  1   
 23  12  25  1   
 24  13  26  1   
 25  13  27  1   
 26  13  28  1   
 27  14  29  1   
 28  14  30  1   
 29  14  31  1   
 30  15  32  1   
 31  15  33  1   
 32  15  34  1   
 33  16  17  1   
 34  16  35  1   
 35  16  36  1   
 36  17  18  1   
 37  17  37  1   
 38  17  38  1   
 39  18  39  1   
 40  18  40  1   
 41  18  41  1   
@<TRIPOS>SUBSTRUCTURE
  1 ****   1 GROUP 4 **** **** 0

# MOE 2024.06 (io_trps.svl 2023.06)
