@<TRIPOS>MOLECULE
NONAME
43 45 1 0 0 
SMALL
USER_CHARGES


@<TRIPOS>ATOM
  1 O        1.7020     1.0900     0.0960 O.3   1 <1>  -0.6800 
  2 C        2.6670     0.2220     0.5790 C.3   1 <1>   0.1200 
  3 C        3.6390    -0.0980    -0.5610 C.3   1 <1>   0.1100 
  4 N        4.6990    -1.0410    -0.1390 N.3   1 <1>  -0.8100 
  5 C        4.2020    -2.4370    -0.0470 C.3   1 <1>   0.1100 
  6 C        5.8470    -0.9720    -1.0770 C.3   1 <1>   0.1100 
  7 C        5.3080    -3.4300     0.3910 C.3   1 <1>   0.3430 
  8 C        6.9680    -1.9810    -0.7320 C.3   1 <1>   0.3430 
  9 N        6.6370    -2.7510     0.5150 N.4   1 <1>  -0.9590 
 10 C        7.7290    -3.6340     1.0090 C.3   1 <1>   0.4860 
 11 C        8.9840    -2.8060     1.2060 C.ar  1 <1>  -0.1440 
 12 C        9.9780    -2.7470     0.1940 C.ar  1 <1>   0.0000 
 13 C        9.1290    -2.1040     2.3750 C.ar  1 <1>  -0.1500 
 14 C       11.0950    -1.9070     0.4040 C.ar  1 <1>   0.0000 
 15 C        9.9230    -3.4710    -1.0230 C.ar  1 <1>  -0.1500 
 16 C       10.2490    -1.2950     2.5840 C.ar  1 <1>  -0.1500 
 17 C       11.2050    -1.1980     1.6160 C.ar  1 <1>  -0.1500 
 18 C       12.0760    -1.7960    -0.6010 C.ar  1 <1>  -0.1500 
 19 C       10.8930    -3.3470    -1.9790 C.ar  1 <1>  -0.1500 
 20 C       11.9800    -2.4960    -1.7690 C.ar  1 <1>  -0.1500 
 21 H        1.0880     1.3650     0.8060 H     1 <1>   0.4000 
 22 H        2.1680    -0.6630     0.9310 H     1 <1>   0.0800 
 23 H        3.1840     0.7070     1.3890 H     1 <1>   0.0800 
 24 H        4.0900     0.8310    -0.8660 H     1 <1>   0.0800 
 25 H        3.0950    -0.5010    -1.3990 H     1 <1>   0.0800 
 26 H        3.8110    -2.7470    -1.0020 H     1 <1>   0.0800 
 27 H        3.3950    -2.4920     0.6620 H     1 <1>   0.0800 
 28 H        6.2640     0.0220    -1.0520 H     1 <1>   0.0800 
 29 H        5.5110    -1.1520    -2.0840 H     1 <1>   0.0800 
 30 H        5.3660    -4.2300    -0.3280 H     1 <1>   0.0800 
 31 H        5.0290    -3.8610     1.3390 H     1 <1>   0.0800 
 32 H        7.8900    -1.4380    -0.6000 H     1 <1>   0.0800 
 33 H        7.1050    -2.6570    -1.5600 H     1 <1>   0.0800 
 34 H        6.4840    -2.0010     1.2060 H     1 <1>   0.4500 
 35 H        7.9090    -4.4380     0.3170 H     1 <1>   0.0800 
 36 H        7.4440    -4.0660     1.9540 H     1 <1>   0.0800 
 37 H        8.3930    -2.1470     3.1600 H     1 <1>   0.1500 
 38 H        9.1130    -4.1450    -1.2190 H     1 <1>   0.1500 
 39 H       10.3460    -0.7540     3.5100 H     1 <1>   0.1500 
 40 H       12.0680    -0.5740     1.7690 H     1 <1>   0.1500 
 41 H       12.9150    -1.1440    -0.4300 H     1 <1>   0.1500 
 42 H       10.8430    -3.9020    -2.9020 H     1 <1>   0.1500 
 43 H       12.7350    -2.4080    -2.5320 H     1 <1>   0.1500 
@<TRIPOS>BOND
  1   1   2  1   
  2   1  21  1   
  3   2   3  1   
  4   2  22  1   
  5   2  23  1   
  6   3   4  1   
  7   3  24  1   
  8   3  25  1   
  9   4   5  1   
 10   4   6  1   
 11   5   7  1   
 12   5  26  1   
 13   5  27  1   
 14   6   8  1   
 15   6  28  1   
 16   6  29  1   
 17   7   9  1   
 18   7  30  1   
 19   7  31  1   
 20   8   9  1   
 21   8  32  1   
 22   8  33  1   
 23   9  10  1   
 24   9  34  1   
 25  10  11  1   
 26  10  35  1   
 27  10  36  1   
 28  11  12  ar  
 29  11  13  ar  
 30  12  14  ar  
 31  12  15  ar  
 32  13  16  ar  
 33  13  37  1   
 34  14  17  ar  
 35  14  18  ar  
 36  15  19  ar  
 37  15  38  1   
 38  16  17  ar  
 39  16  39  1   
 40  17  40  1   
 41  18  20  ar  
 42  18  41  1   
 43  19  20  ar  
 44  19  42  1   
 45  20  43  1   
@<TRIPOS>SUBSTRUCTURE
  1 ****   8 GROUP 4 **** **** 0

# MOE 2024.06 (io_trps.svl 2023.06)
