@<TRIPOS>MOLECULE
NONAME
35 36 1 0 0 
SMALL
USER_CHARGES


@<TRIPOS>ATOM
  1 O       -0.9750    -0.1740    -1.4410 O.2   1 <1>  -0.5700 
  2 C       -1.8510     0.6240    -1.1810 C.2   1 <1>   0.7060 
  3 O       -3.1040     0.1790    -1.0660 O.3   1 <1>  -0.2320 
  4 C       -1.6120     2.0170    -0.9910 C.2   1 <1>  -0.1360 
  5 C       -4.1450     0.9930    -0.7800 C.ar  1 <1>   0.0830 
  6 C       -2.6100     2.8820    -0.7020 C.2   1 <1>  -0.1670 
  7 C       -3.9480     2.3690    -0.5870 C.ar  1 <1>   0.0280 
  8 C       -5.4030     0.4260    -0.6830 C.ar  1 <1>  -0.1500 
  9 C       -2.3360     4.3660    -0.5020 C.3   1 <1>  -0.1020 
 10 C       -5.0740     3.1430    -0.2960 C.ar  1 <1>  -0.1500 
 11 C       -6.5070     1.2150    -0.3900 C.ar  1 <1>   0.0830 
 12 C       -6.3370     2.5880    -0.1990 C.ar  1 <1>  -0.1430 
 13 O       -7.7570     0.7080    -0.2750 O.3   1 <1>  -0.3630 
 14 C       -7.5240     3.4920     0.1190 C.3   1 <1>  -0.0170 
 15 C       -8.0100    -0.6850    -0.3270 C.3   1 <1>   0.1810 
 16 C       -7.8290     3.4780     1.6190 C.3   1 <1>  -0.2400 
 17 C       -9.4840    -0.9710    -0.0900 C.2   1 <1>   0.4480 
 18 O      -10.0730    -1.7770    -0.7460 O.2   1 <1>  -0.5700 
 19 C      -10.1800    -0.2200     1.0270 C.3   1 <1>  -0.1790 
 20 H       -0.5880     2.3220    -1.0930 H     1 <1>   0.1500 
 21 H       -5.4860    -0.6310    -0.8450 H     1 <1>   0.1500 
 22 H       -2.8840     4.9450    -1.2240 H     1 <1>   0.0800 
 23 H       -1.2900     4.5830    -0.6210 H     1 <1>   0.0800 
 24 H       -2.6320     4.6670     0.4880 H     1 <1>   0.0800 
 25 H       -4.9590     4.2000    -0.1420 H     1 <1>   0.1500 
 26 H       -8.3910     3.1690    -0.4310 H     1 <1>   0.0800 
 27 H       -7.3090     4.5000    -0.1900 H     1 <1>   0.0800 
 28 H       -7.4230    -1.1660     0.4330 H     1 <1>   0.0800 
 29 H       -7.7260    -1.0470    -1.2990 H     1 <1>   0.0800 
 30 H       -8.0700     2.4800     1.9390 H     1 <1>   0.0800 
 31 H       -8.6640     4.1210     1.8340 H     1 <1>   0.0800 
 32 H       -6.9740     3.8210     2.1750 H     1 <1>   0.0800 
 33 H      -10.2350     0.8250     0.7830 H     1 <1>   0.0800 
 34 H       -9.6390    -0.3430     1.9460 H     1 <1>   0.0800 
 35 H      -11.1770    -0.6000     1.1530 H     1 <1>   0.0800 
@<TRIPOS>BOND
  1   1   2  2   
  2   2   3  1   
  3   2   4  1   
  4   3   5  1   
  5   4   6  2   
  6   4  20  1   
  7   5   7  ar  
  8   5   8  ar  
  9   6   7  1   
 10   6   9  1   
 11   7  10  ar  
 12   8  11  ar  
 13   8  21  1   
 14   9  22  1   
 15   9  23  1   
 16   9  24  1   
 17  10  12  ar  
 18  10  25  1   
 19  11  12  ar  
 20  11  13  1   
 21  12  14  1   
 22  13  15  1   
 23  14  16  1   
 24  14  26  1   
 25  14  27  1   
 26  15  17  1   
 27  15  28  1   
 28  15  29  1   
 29  16  30  1   
 30  16  31  1   
 31  16  32  1   
 32  17  18  2   
 33  17  19  1   
 34  19  33  1   
 35  19  34  1   
 36  19  35  1   
@<TRIPOS>SUBSTRUCTURE
  1 ****   8 GROUP 4 **** **** 0

# MOE 2024.06 (io_trps.svl 2023.06)
