@<TRIPOS>MOLECULE
NONAME
43 45 1 0 0 
SMALL
USER_CHARGES


@<TRIPOS>ATOM
  1 O       -0.4550     0.2960    -0.0570 O.2   1 <1>  -0.5700 
  2 C       -0.2600     1.4290    -0.4540 C.2   1 <1>   0.6900 
  3 N       -1.3150     2.2170    -0.8290 N.am  1 <1>  -0.6600 
  4 N        0.9990     1.9450    -0.5570 N.am  1 <1>  -0.5470 
  5 C       -2.6530     1.6060    -1.0950 C.3   1 <1>   0.1400 
  6 C       -1.3890     3.6690    -0.4800 C.3   1 <1>   0.1400 
  7 C        2.2380     1.4590    -0.1150 C.ar  1 <1>   0.1170 
  8 C       -3.5990     1.8200     0.0970 C.3   1 <1>   0.1400 
  9 C       -2.3280     3.8840     0.7170 C.3   1 <1>   0.1400 
 10 C        3.3960     1.8940    -0.7500 C.ar  1 <1>  -0.1500 
 11 C        2.3620     0.5730     0.9500 C.ar  1 <1>  -0.1500 
 12 N       -3.6680     3.2700     0.4600 N.am  1 <1>  -0.6600 
 13 C        4.6440     1.4610    -0.3390 C.ar  1 <1>  -0.1500 
 14 C        3.6070     0.1350     1.3660 C.ar  1 <1>  -0.1500 
 15 C       -4.7830     4.0500     0.2170 C.2   1 <1>   0.7150 
 16 C        4.7560     0.5740     0.7280 C.ar  1 <1>   0.0820 
 17 O       -4.6100     5.2290    -0.0450 O.2   1 <1>  -0.5700 
 18 C       -6.1200     3.4960     0.2760 C.2   1 <1>   0.0550 
 19 O        5.9380     0.0970     1.2000 O.3   1 <1>  -0.3630 
 20 O       -7.0770     3.9150    -0.5480 O.3   1 <1>  -0.2800 
 21 C       -6.6510     2.5360     1.0880 C.2   1 <1>  -0.1500 
 22 C        7.1590     0.4580     0.5940 C.3   1 <1>   0.0400 
 23 C       -8.1840     3.2590    -0.2890 C.2   1 <1>  -0.0100 
 24 C       -7.9870     2.3830     0.7180 C.2   1 <1>  -0.1500 
 25 H        1.0350     2.7510    -1.1710 H     1 <1>   0.3700 
 26 H       -2.5490     0.5510    -1.2870 H     1 <1>   0.0800 
 27 H       -3.0780     2.0570    -1.9740 H     1 <1>   0.0800 
 28 H       -1.7620     4.2220    -1.3260 H     1 <1>   0.0800 
 29 H       -0.4160     4.0550    -0.2320 H     1 <1>   0.0800 
 30 H       -3.2370     1.2580     0.9410 H     1 <1>   0.0800 
 31 H       -4.5710     1.4410    -0.1640 H     1 <1>   0.0800 
 32 H       -2.4250     4.9380     0.9140 H     1 <1>   0.0800 
 33 H       -1.8960     3.4290     1.5910 H     1 <1>   0.0800 
 34 H        3.3230     2.5770    -1.5760 H     1 <1>   0.1500 
 35 H        1.4850     0.2210     1.4610 H     1 <1>   0.1500 
 36 H        5.5130     1.8200    -0.8560 H     1 <1>   0.1500 
 37 H        3.6930    -0.5510     2.1890 H     1 <1>   0.1500 
 38 H       -6.1550     1.9940     1.8730 H     1 <1>   0.1500 
 39 H        7.9530    -0.0420     1.1190 H     1 <1>   0.0800 
 40 H        7.2850     1.5240     0.6720 H     1 <1>   0.0800 
 41 H        7.1450     0.1440    -0.4340 H     1 <1>   0.0800 
 42 H       -9.0660     3.4760    -0.8660 H     1 <1>   0.1500 
 43 H       -8.6930     1.7040     1.1640 H     1 <1>   0.1500 
@<TRIPOS>BOND
  1   1   2  2   
  2   2   3  am  
  3   2   4  am  
  4   3   5  1   
  5   3   6  1   
  6   4   7  1   
  7   4  25  1   
  8   5   8  1   
  9   5  26  1   
 10   5  27  1   
 11   6   9  1   
 12   6  28  1   
 13   6  29  1   
 14   7  10  ar  
 15   7  11  ar  
 16   8  12  1   
 17   8  30  1   
 18   8  31  1   
 19   9  12  1   
 20   9  32  1   
 21   9  33  1   
 22  10  13  ar  
 23  10  34  1   
 24  11  14  ar  
 25  11  35  1   
 26  12  15  am  
 27  13  16  ar  
 28  13  36  1   
 29  14  16  ar  
 30  14  37  1   
 31  15  17  2   
 32  15  18  1   
 33  16  19  1   
 34  18  20  1   
 35  18  21  2   
 36  19  22  1   
 37  20  23  1   
 38  21  24  1   
 39  21  38  1   
 40  22  39  1   
 41  22  40  1   
 42  22  41  1   
 43  23  24  2   
 44  23  42  1   
 45  24  43  1   
@<TRIPOS>SUBSTRUCTURE
  1 ****   3 GROUP 4 **** **** 0

# MOE 2024.06 (io_trps.svl 2023.06)
