@<TRIPOS>MOLECULE
NONAME
46 48 1 0 0 
SMALL
USER_CHARGES


@<TRIPOS>ATOM
  1 CL      -1.0480     0.8540     1.3130 Cl    1 <1>  -0.1770 
  2 C       -2.1780     0.2020     0.1510 C.ar  1 <1>   0.1770 
  3 C       -2.3920    -1.1710     0.0980 C.ar  1 <1>  -0.1440 
  4 C       -2.8290     1.0740    -0.7010 C.ar  1 <1>  -0.1500 
  5 C       -3.2870    -1.6810    -0.8380 C.ar  1 <1>  -0.1500 
  6 C       -1.6660    -2.0970     1.0560 C.3   1 <1>   0.4870 
  7 C       -3.7080     0.5360    -1.6180 C.ar  1 <1>   0.1900 
  8 C       -3.9490    -0.8240    -1.7040 C.ar  1 <1>  -0.1500 
  9 N       -0.2160    -2.1230     0.7210 N.4   1 <1>  -0.9590 
 10 F       -4.3330     1.3380    -2.4350 F     1 <1>  -0.1900 
 11 C        0.0900    -2.6060    -0.6700 C.3   1 <1>   0.3430 
 12 C        0.6220    -2.8400     1.7430 C.3   1 <1>   0.3430 
 13 C        1.5940    -2.4540    -1.0080 C.3   1 <1>   0.1960 
 14 C        2.1060    -2.9630     1.3100 C.3   1 <1>   0.1960 
 15 N        2.4360    -2.0900     0.1600 N.am  1 <1>  -0.8490 
 16 S        4.0870    -2.1450    -0.2580 S.o2  1 <1>   1.3330 
 17 O        4.5080    -3.4860     0.0770 O.2   1 <1>  -0.6500 
 18 O        4.1530    -1.6860    -1.6270 O.2   1 <1>  -0.6500 
 19 C        4.8550    -0.9260     0.8230 C.3   1 <1>   0.0890 
 20 C        6.3640    -0.8120     0.6530 C.ar  1 <1>  -0.1430 
 21 C        6.8900    -0.1880    -0.4680 C.ar  1 <1>  -0.1500 
 22 C        7.2230    -1.3330     1.6090 C.ar  1 <1>  -0.1500 
 23 C        8.2600    -0.0790    -0.6280 C.ar  1 <1>  -0.1500 
 24 C        8.5930    -1.2240     1.4490 C.ar  1 <1>  -0.1500 
 25 C        9.1130    -0.5960     0.3310 C.ar  1 <1>  -0.1500 
 26 H       -2.6620     2.1350    -0.6550 H     1 <1>   0.1500 
 27 H       -3.4860    -2.7390    -0.9030 H     1 <1>   0.1500 
 28 H       -2.0800    -3.0900     0.9920 H     1 <1>   0.0800 
 29 H       -1.8030    -1.7360     2.0630 H     1 <1>   0.0800 
 30 H       -4.6470    -1.1950    -2.4350 H     1 <1>   0.1500 
 31 H        0.1180    -1.1450     0.7350 H     1 <1>   0.4500 
 32 H       -0.4850    -2.0510    -1.3940 H     1 <1>   0.0800 
 33 H       -0.1850    -3.6430    -0.7640 H     1 <1>   0.0800 
 34 H        0.2320    -3.8290     1.9180 H     1 <1>   0.0800 
 35 H        0.5800    -2.3050     2.6790 H     1 <1>   0.0800 
 36 H        1.6920    -1.6920    -1.7640 H     1 <1>   0.0800 
 37 H        1.9480    -3.3750    -1.4440 H     1 <1>   0.0800 
 38 H        2.3020    -3.9920     1.0540 H     1 <1>   0.0800 
 39 H        2.7370    -2.7220     2.1500 H     1 <1>   0.0800 
 40 H        4.6420    -1.1740     1.8430 H     1 <1>   0.0800 
 41 H        4.4220     0.0350     0.6280 H     1 <1>   0.0800 
 42 H        6.2410     0.2140    -1.2280 H     1 <1>   0.1500 
 43 H        6.8390    -1.8280     2.4830 H     1 <1>   0.1500 
 44 H        8.6630     0.4050    -1.5010 H     1 <1>   0.1500 
 45 H        9.2570    -1.6290     2.1930 H     1 <1>   0.1500 
 46 H       10.1780    -0.5120     0.2060 H     1 <1>   0.1500 
@<TRIPOS>BOND
  1   1   2  1   
  2   2   3  ar  
  3   2   4  ar  
  4   3   5  ar  
  5   3   6  1   
  6   4   7  ar  
  7   4  26  1   
  8   5   8  ar  
  9   5  27  1   
 10   6   9  1   
 11   6  28  1   
 12   6  29  1   
 13   7   8  ar  
 14   7  10  1   
 15   8  30  1   
 16   9  11  1   
 17   9  12  1   
 18   9  31  1   
 19  11  13  1   
 20  11  32  1   
 21  11  33  1   
 22  12  14  1   
 23  12  34  1   
 24  12  35  1   
 25  13  15  1   
 26  13  36  1   
 27  13  37  1   
 28  14  15  1   
 29  14  38  1   
 30  14  39  1   
 31  15  16  am  
 32  16  17  2   
 33  16  18  2   
 34  16  19  1   
 35  19  20  1   
 36  19  40  1   
 37  19  41  1   
 38  20  21  ar  
 39  20  22  ar  
 40  21  23  ar  
 41  21  42  1   
 42  22  24  ar  
 43  22  43  1   
 44  23  25  ar  
 45  23  44  1   
 46  24  25  ar  
 47  24  45  1   
 48  25  46  1   
@<TRIPOS>SUBSTRUCTURE
  1 ****  15 GROUP 4 **** **** 0

# MOE 2024.06 (io_trps.svl 2023.06)
