@<TRIPOS>MOLECULE
NONAME
46 48 1 0 0 
SMALL
USER_CHARGES


@<TRIPOS>ATOM
  1 O        0.4750     0.8580     1.5430 O.2   1 <1>  -0.5700 
  2 C       -0.2990     1.2530     0.7090 C.2   1 <1>   0.5690 
  3 N       -0.3010     2.4970     0.1600 N.am  1 <1>  -0.4200 
  4 C       -1.4040     0.3990     0.1190 C.3   1 <1>  -0.0190 
  5 C       -1.2860     2.6340    -0.7680 C.2   1 <1>   0.5690 
  6 C        0.6540     3.5630     0.5270 C.3   1 <1>   0.1400 
  7 C       -2.0840     1.3520    -0.9030 C.3   1 <1>  -0.0190 
  8 C       -2.3140    -0.2040     1.2060 C.3   1 <1>  -0.0220 
  9 O       -1.5100     3.6260    -1.4110 O.2   1 <1>  -0.5700 
 10 C        1.9950     3.3210    -0.1720 C.3   1 <1>  -0.1600 
 11 C       -3.5960     1.5850    -0.7210 C.3   1 <1>  -0.0220 
 12 C       -3.6990    -0.4850     0.6570 C.2   1 <1>  -0.2880 
 13 C        3.0520     4.3450     0.2720 C.3   1 <1>  -0.0990 
 14 C       -4.2830     0.3300    -0.2210 C.2   1 <1>  -0.2880 
 15 C        4.4000     4.0780    -0.3660 C.2   1 <1>   0.5690 
 16 O        4.8210     4.8450    -1.1960 O.2   1 <1>  -0.5700 
 17 N        5.0810     2.9740     0.0230 N.am  1 <1>  -0.7300 
 18 C        6.3840     2.5440    -0.5090 C.3   1 <1>   0.2200 
 19 C        6.2230     1.1670    -1.1400 C.3   1 <1>  -0.1600 
 20 C        7.3260     2.2860     0.6590 C.3   1 <1>  -0.1600 
 21 C        6.2640     0.1680     0.0230 C.3   1 <1>  -0.1600 
 22 C        6.9760     0.8860     1.1770 C.3   1 <1>  -0.1600 
 23 H       -0.9470    -0.4090    -0.4240 H     1 <1>   0.0800 
 24 H        0.7880     3.5550     1.5950 H     1 <1>   0.0800 
 25 H        0.2540     4.5220     0.2400 H     1 <1>   0.0800 
 26 H       -1.9200     0.9610    -1.8910 H     1 <1>   0.0800 
 27 H       -2.4080     0.4720     2.0380 H     1 <1>   0.0800 
 28 H       -1.8690    -1.1140     1.5710 H     1 <1>   0.0800 
 29 H        1.8620     3.3920    -1.2380 H     1 <1>   0.0800 
 30 H        2.3440     2.3310     0.0640 H     1 <1>   0.0800 
 31 H       -4.0190     1.8880    -1.6640 H     1 <1>   0.0800 
 32 H       -3.7740     2.3760    -0.0130 H     1 <1>   0.0800 
 33 H       -4.1640    -1.3730     1.0550 H     1 <1>   0.1500 
 34 H        3.1710     4.3180     1.3390 H     1 <1>   0.0800 
 35 H        2.7340     5.3360    -0.0020 H     1 <1>   0.0800 
 36 H       -5.2750     0.1780    -0.6150 H     1 <1>   0.1500 
 37 H        4.6820     2.3370     0.7110 H     1 <1>   0.3700 
 38 H        6.7740     3.2720    -1.2020 H     1 <1>   0.0800 
 39 H        7.0660     0.9890    -1.7830 H     1 <1>   0.0800 
 40 H        5.3230     1.0910    -1.7250 H     1 <1>   0.0800 
 41 H        7.2510     3.0440     1.4190 H     1 <1>   0.0800 
 42 H        8.3350     2.2770     0.2840 H     1 <1>   0.0800 
 43 H        6.7840    -0.7310    -0.2620 H     1 <1>   0.0800 
 44 H        5.2620    -0.0910     0.3200 H     1 <1>   0.0800 
 45 H        6.3130     0.9620     2.0220 H     1 <1>   0.0800 
 46 H        7.8630     0.3570     1.4810 H     1 <1>   0.0800 
@<TRIPOS>BOND
  1   1   2  2   
  2   2   3  am  
  3   2   4  1   
  4   3   5  am  
  5   3   6  1   
  6   4   7  1   
  7   4   8  1   
  8   4  23  1   
  9   5   7  1   
 10   5   9  2   
 11   6  10  1   
 12   6  24  1   
 13   6  25  1   
 14   7  11  1   
 15   7  26  1   
 16   8  12  1   
 17   8  27  1   
 18   8  28  1   
 19  10  13  1   
 20  10  29  1   
 21  10  30  1   
 22  11  14  1   
 23  11  31  1   
 24  11  32  1   
 25  12  14  2   
 26  12  33  1   
 27  13  15  1   
 28  13  34  1   
 29  13  35  1   
 30  14  36  1   
 31  15  16  2   
 32  15  17  am  
 33  17  18  1   
 34  17  37  1   
 35  18  19  1   
 36  18  20  1   
 37  18  38  1   
 38  19  21  1   
 39  19  39  1   
 40  19  40  1   
 41  20  22  1   
 42  20  41  1   
 43  20  42  1   
 44  21  22  1   
 45  21  43  1   
 46  21  44  1   
 47  22  45  1   
 48  22  46  1   
@<TRIPOS>SUBSTRUCTURE
  1 ****  10 GROUP 4 **** **** 0

# MOE 2024.06 (io_trps.svl 2023.06)
