@<TRIPOS>MOLECULE
NONAME
26 26 1 0 0 
SMALL
USER_CHARGES


@<TRIPOS>ATOM
  1 O       -0.0210    -0.3510     0.2160 O.3   1 <1>  -0.3630 
  2 C       -0.0010    -1.6930     0.1300 C.ar  1 <1>   0.7020 
  3 C        1.1650     0.4160     0.2890 C.3   1 <1>   0.0400 
  4 N        1.1590    -2.2960     0.1000 N.ar  1 <1>  -0.6200 
  5 N       -1.1730    -2.2540     0.0850 N.ar  1 <1>  -0.6200 
  6 C        1.0730    -3.6020     0.0190 C.ar  1 <1>   0.7200 
  7 C       -1.1150    -3.5550     0.0050 C.ar  1 <1>   0.7200 
  8 N       -0.0410    -4.2860    -0.0320 N.ar  1 <1>  -0.6200 
  9 N        2.2570    -4.3110    -0.0140 N.pl3 1 <1>  -0.8380 
 10 N       -2.2740    -4.2530    -0.0510 N.pl3 1 <1>  -0.8690 
 11 C        3.5720    -3.6630    -0.2860 C.3   1 <1>   0.1290 
 12 C        2.3070    -5.7830     0.2130 C.3   1 <1>   0.1290 
 13 C       -3.6470    -3.6980    -0.1540 C.3   1 <1>   0.1290 
 14 H        0.8920     1.4530     0.3570 H     1 <1>   0.0800 
 15 H        1.7470     0.2430    -0.5990 H     1 <1>   0.0800 
 16 H        1.7160     0.1200     1.1650 H     1 <1>   0.0800 
 17 H       -2.1480    -5.2530    -0.1990 H     1 <1>   0.4000 
 18 H        3.4410    -2.7640    -0.8620 H     1 <1>   0.0800 
 19 H        4.2040    -4.3310    -0.8430 H     1 <1>   0.0800 
 20 H        4.0500    -3.4160     0.6460 H     1 <1>   0.0800 
 21 H        1.4840    -6.1010     0.8300 H     1 <1>   0.0800 
 22 H        3.2220    -6.0500     0.7120 H     1 <1>   0.0800 
 23 H        2.2540    -6.2950    -0.7310 H     1 <1>   0.0800 
 24 H       -3.6660    -2.6640     0.1460 H     1 <1>   0.0800 
 25 H       -4.3100    -4.2530     0.4860 H     1 <1>   0.0800 
 26 H       -3.9920    -3.7710    -1.1710 H     1 <1>   0.0800 
@<TRIPOS>BOND
  1   1   2  1   
  2   1   3  1   
  3   2   4  ar  
  4   2   5  ar  
  5   3  14  1   
  6   3  15  1   
  7   3  16  1   
  8   4   6  ar  
  9   5   7  ar  
 10   6   8  ar  
 11   6   9  1   
 12   7   8  ar  
 13   7  10  1   
 14   9  11  1   
 15   9  12  1   
 16  10  13  1   
 17  10  17  1   
 18  11  18  1   
 19  11  19  1   
 20  11  20  1   
 21  12  21  1   
 22  12  22  1   
 23  12  23  1   
 24  13  24  1   
 25  13  25  1   
 26  13  26  1   
@<TRIPOS>SUBSTRUCTURE
  1 ****   6 GROUP 4 **** **** 0

# MOE 2024.06 (io_trps.svl 2023.06)
