@<TRIPOS>MOLECULE
NONAME
50 51 1 0 0 
SMALL
USER_CHARGES


@<TRIPOS>ATOM
  1 S       -0.1240     0.6820     1.4800 S.o2  1 <1>   1.3330 
  2 O        0.9120    -0.3180     1.5810 O.2   1 <1>  -0.6500 
  3 O       -1.4940     0.3390     1.7720 O.2   1 <1>  -0.6500 
  4 N       -0.0500     1.2870    -0.1380 N.am  1 <1>  -0.6930 
  5 C        0.3690     2.1010     2.4340 C.3   1 <1>  -0.1350 
  6 C       -0.8900     2.3050    -0.5860 C.ar  1 <1>   0.1990 
  7 C        0.6690     0.4580    -1.1570 C.3   1 <1>   0.2570 
  8 C       -0.4020     3.5690    -0.9470 C.ar  1 <1>  -0.1440 
  9 C       -2.2510     2.0480    -0.6890 C.ar  1 <1>  -0.1500 
 10 C        2.1640     0.7720    -1.2600 C.2   1 <1>   0.5690 
 11 C       -1.2860     4.5370    -1.4190 C.ar  1 <1>  -0.1440 
 12 C        1.0910     3.8900    -0.8350 C.3   1 <1>  -0.0970 
 13 C       -3.1250     3.0130    -1.1420 C.ar  1 <1>  -0.1500 
 14 O        2.5960     1.1620    -2.3190 O.2   1 <1>  -0.5700 
 15 N        2.9390     0.6240    -0.1420 N.am  1 <1>  -0.5470 
 16 C       -2.6410     4.2540    -1.5070 C.ar  1 <1>  -0.1500 
 17 C       -0.8190     5.9200    -1.8560 C.3   1 <1>  -0.0970 
 18 C        4.2440     1.0480     0.1680 C.ar  1 <1>   0.1170 
 19 C        4.5840     1.2330     1.5120 C.ar  1 <1>   0.0830 
 20 C        5.2130     1.2760    -0.8020 C.ar  1 <1>  -0.1500 
 21 O        3.6200     1.0050     2.4500 O.3   1 <1>  -0.3630 
 22 C        5.8650     1.6440     1.8590 C.ar  1 <1>  -0.1500 
 23 C        6.4900     1.6860    -0.4580 C.ar  1 <1>  -0.1430 
 24 C        3.9840     0.5210     3.7240 C.3   1 <1>   0.0400 
 25 C        6.8130     1.8680     0.8760 C.ar  1 <1>  -0.1500 
 26 C        7.5310     1.9310    -1.5360 C.3   1 <1>  -0.0970 
 27 H        0.3780     1.8570     3.4780 H     1 <1>   0.0800 
 28 H       -0.3150     2.9100     2.2730 H     1 <1>   0.0800 
 29 H        1.3530     2.4170     2.1470 H     1 <1>   0.0800 
 30 H        0.2270     0.6330    -2.1220 H     1 <1>   0.0800 
 31 H        0.5460    -0.5850    -0.9300 H     1 <1>   0.0800 
 32 H       -2.6290     1.0800    -0.4100 H     1 <1>   0.1500 
 33 H        1.5690     3.7240    -1.7840 H     1 <1>   0.0800 
 34 H        1.5790     3.2810    -0.0990 H     1 <1>   0.0800 
 35 H        1.2500     4.9110    -0.5440 H     1 <1>   0.0800 
 36 H       -4.1770     2.8010    -1.2120 H     1 <1>   0.1500 
 37 H        2.4470     0.2420     0.6790 H     1 <1>   0.3700 
 38 H       -3.3310     4.9980    -1.8640 H     1 <1>   0.1500 
 39 H        0.0090     5.8350    -2.5370 H     1 <1>   0.0800 
 40 H       -0.5140     6.4930    -0.9990 H     1 <1>   0.0800 
 41 H       -1.6050     6.4540    -2.3580 H     1 <1>   0.0800 
 42 H        4.9700     1.1270    -1.8380 H     1 <1>   0.1500 
 43 H        6.1370     1.8020     2.8850 H     1 <1>   0.1500 
 44 H        3.0920     0.1780     4.2180 H     1 <1>   0.0800 
 45 H        4.4310     1.3190     4.2890 H     1 <1>   0.0800 
 46 H        4.6720    -0.2980     3.6040 H     1 <1>   0.0800 
 47 H        7.8030     2.1860     1.1530 H     1 <1>   0.1500 
 48 H        7.0570     2.1730    -2.4700 H     1 <1>   0.0800 
 49 H        8.1300     1.0480    -1.6700 H     1 <1>   0.0800 
 50 H        8.1720     2.7490    -1.2590 H     1 <1>   0.0800 
@<TRIPOS>BOND
  1   1   2  2   
  2   1   3  2   
  3   1   4  am  
  4   1   5  1   
  5   4   6  1   
  6   4   7  1   
  7   5  27  1   
  8   5  28  1   
  9   5  29  1   
 10   6   8  ar  
 11   6   9  ar  
 12   7  10  1   
 13   7  30  1   
 14   7  31  1   
 15   8  11  ar  
 16   8  12  1   
 17   9  13  ar  
 18   9  32  1   
 19  10  14  2   
 20  10  15  am  
 21  11  16  ar  
 22  11  17  1   
 23  12  33  1   
 24  12  34  1   
 25  12  35  1   
 26  13  16  ar  
 27  13  36  1   
 28  15  18  1   
 29  15  37  1   
 30  16  38  1   
 31  17  39  1   
 32  17  40  1   
 33  17  41  1   
 34  18  19  ar  
 35  18  20  ar  
 36  19  21  1   
 37  19  22  ar  
 38  20  23  ar  
 39  20  42  1   
 40  21  24  1   
 41  22  25  ar  
 42  22  43  1   
 43  23  25  ar  
 44  23  26  1   
 45  24  44  1   
 46  24  45  1   
 47  24  46  1   
 48  25  47  1   
 49  26  48  1   
 50  26  49  1   
 51  26  50  1   
@<TRIPOS>SUBSTRUCTURE
  1 ****  15 GROUP 4 **** **** 0

# MOE 2024.06 (io_trps.svl 2023.06)
