@<TRIPOS>MOLECULE
NONAME
49 52 1 0 0 
SMALL
USER_CHARGES


@<TRIPOS>ATOM
  1 S       -0.3420    -0.1930     0.8820 S.3   1 <1>  -0.3710 
  2 C        1.4210     0.0020     0.6710 C.2   1 <1>   0.6510 
  3 C       -0.6640    -1.9530     0.4110 C.3   1 <1>   0.0700 
  4 N        2.0740    -1.0200     0.2600 N.2   1 <1>  -0.6210 
  5 N        1.9560     1.2220     0.9700 N.am  1 <1>  -0.4200 
  6 C       -2.1670    -2.2050     0.5060 C.3   1 <1>   0.1200 
  7 C        3.4250    -0.8970     0.0640 C.2   1 <1>   0.1430 
  8 C        3.3220     1.3550     0.8780 C.2   1 <1>   0.6160 
  9 C        1.1040     2.3510     1.4530 C.3   1 <1>   0.0600 
 10 O       -2.4360    -3.5120     0.1280 O.3   1 <1>  -0.6800 
 11 C        4.1280    -2.0970    -0.3440 C.ar  1 <1>   0.0280 
 12 C        4.0690     0.2950     0.2760 C.2   1 <1>  -0.1240 
 13 O        3.8350     2.3500     1.3730 O.2   1 <1>  -0.5700 
 14 C        5.3810    -1.9830    -0.9360 C.ar  1 <1>  -0.1430 
 15 C        3.6220    -3.3830    -0.1440 C.ar  1 <1>  -0.1500 
 16 C        5.5780     0.4330    -0.0770 C.3   1 <1>   0.1380 
 17 C        6.1060    -3.1050    -1.3040 C.ar  1 <1>  -0.1500 
 18 C        5.9230    -0.5920    -1.1950 C.3   1 <1>  -0.0170 
 19 C        4.3390    -4.5060    -0.5110 C.ar  1 <1>  -0.1500 
 20 C        5.9850     1.8320    -0.6320 C.3   1 <1>  -0.1600 
 21 C        6.3900     0.1450     1.2080 C.3   1 <1>  -0.1600 
 22 C        5.5860    -4.3680    -1.0910 C.ar  1 <1>  -0.1500 
 23 C        7.5030     2.0070    -0.8220 C.3   1 <1>  -0.1600 
 24 C        7.9100     0.3410     1.0560 C.3   1 <1>  -0.1600 
 25 C        8.2480     1.7260     0.4890 C.3   1 <1>  -0.1600 
 26 H       -0.1160    -2.5730     1.0990 H     1 <1>   0.0800 
 27 H       -0.3000    -2.0830    -0.5930 H     1 <1>   0.0800 
 28 H       -2.7120    -1.5430    -0.1440 H     1 <1>   0.0800 
 29 H       -2.5060    -2.0760     1.5200 H     1 <1>   0.0800 
 30 H        0.7390     2.1300     2.4410 H     1 <1>   0.0800 
 31 H        0.2700     2.4950     0.7880 H     1 <1>   0.0800 
 32 H        1.6600     3.2720     1.4900 H     1 <1>   0.0800 
 33 H       -2.2250    -3.6530    -0.8150 H     1 <1>   0.4000 
 34 H        2.6570    -3.5050     0.3130 H     1 <1>   0.1500 
 35 H        7.0740    -3.0030    -1.7620 H     1 <1>   0.1500 
 36 H        5.4870    -0.2570    -2.1190 H     1 <1>   0.0800 
 37 H        6.9810    -0.6560    -1.3540 H     1 <1>   0.0800 
 38 H        3.9280    -5.4860    -0.3450 H     1 <1>   0.1500 
 39 H        5.7000     2.6120     0.0430 H     1 <1>   0.0800 
 40 H        5.4780     2.0220    -1.5610 H     1 <1>   0.0800 
 41 H        6.1960    -0.8590     1.5420 H     1 <1>   0.0800 
 42 H        6.0470     0.8090     1.9830 H     1 <1>   0.0800 
 43 H        6.1480    -5.2400    -1.3770 H     1 <1>   0.1500 
 44 H        7.7030     3.0200    -1.1280 H     1 <1>   0.0800 
 45 H        7.8710     1.3640    -1.6000 H     1 <1>   0.0800 
 46 H        8.3200    -0.4210     0.4180 H     1 <1>   0.0800 
 47 H        8.3760     0.2310     2.0200 H     1 <1>   0.0800 
 48 H        7.9750     2.4750     1.2140 H     1 <1>   0.0800 
 49 H        9.3090     1.8010     0.3260 H     1 <1>   0.0800 
@<TRIPOS>BOND
  1   1   2  1   
  2   1   3  1   
  3   2   4  2   
  4   2   5  1   
  5   3   6  1   
  6   3  26  1   
  7   3  27  1   
  8   4   7  1   
  9   5   8  am  
 10   5   9  1   
 11   6  10  1   
 12   6  28  1   
 13   6  29  1   
 14   7  11  1   
 15   7  12  2   
 16   8  12  1   
 17   8  13  2   
 18   9  30  1   
 19   9  31  1   
 20   9  32  1   
 21  10  33  1   
 22  11  14  ar  
 23  11  15  ar  
 24  12  16  1   
 25  14  17  ar  
 26  14  18  1   
 27  15  19  ar  
 28  15  34  1   
 29  16  18  1   
 30  16  20  1   
 31  16  21  1   
 32  17  22  ar  
 33  17  35  1   
 34  18  36  1   
 35  18  37  1   
 36  19  22  ar  
 37  19  38  1   
 38  20  23  1   
 39  20  39  1   
 40  20  40  1   
 41  21  24  1   
 42  21  41  1   
 43  21  42  1   
 44  22  43  1   
 45  23  25  1   
 46  23  44  1   
 47  23  45  1   
 48  24  25  1   
 49  24  46  1   
 50  24  47  1   
 51  25  48  1   
 52  25  49  1   
@<TRIPOS>SUBSTRUCTURE
  1 ****   7 GROUP 4 **** **** 0

# MOE 2024.06 (io_trps.svl 2023.06)
