@<TRIPOS>MOLECULE
NONAME
54 57 1 0 0 
SMALL
USER_CHARGES


@<TRIPOS>ATOM
  1 S       -0.1990    -0.1810    -0.2240 S.3   1 <1>  -0.0800 
  2 C       -0.2730     1.5710    -0.1090 C.2   1 <1>   0.1040 
  3 C        1.5470    -0.1440    -0.3300 C.2   1 <1>  -0.1400 
  4 N       -1.4950     2.2240    -0.0400 N.am  1 <1>  -0.4940 
  5 C        0.9820     2.1190    -0.1150 C.2   1 <1>  -0.0860 
  6 C        2.0120     1.1130    -0.2780 C.2   1 <1>  -0.1810 
  7 C        2.3130    -1.4390    -0.4890 C.3   1 <1>   0.0200 
  8 C       -2.7900     1.7900     0.0820 C.2   1 <1>   0.5690 
  9 C        1.2050     3.5350     0.0350 C.2   1 <1>   0.7160 
 10 C        3.5100     1.3740    -0.4190 C.3   1 <1>   0.0210 
 11 C        3.8150    -1.1640    -0.3060 C.3   1 <1>  -0.1600 
 12 O       -3.1000     0.6330     0.2280 O.2   1 <1>  -0.5700 
 13 C       -3.8810     2.8600     0.0280 C.3   1 <1>  -0.0190 
 14 O        0.3490     4.3400    -0.3000 O.2   1 <1>  -0.5700 
 15 N        2.3550     4.0010     0.6060 N.am  1 <1>  -0.5790 
 16 C        4.2440     0.1470    -0.9950 C.3   1 <1>  -0.1600 
 17 C       -5.1090     2.5050     0.8910 C.3   1 <1>  -0.1600 
 18 C       -4.3210     3.1220    -1.4250 C.3   1 <1>  -0.1600 
 19 C        2.7310     5.4070     0.8110 C.3   1 <1>   0.0490 
 20 C       -6.1940     3.5800     0.7970 C.3   1 <1>   0.1400 
 21 C       -5.4200     4.1860    -1.5020 C.3   1 <1>   0.1400 
 22 C        4.1810     5.7560     0.7500 C.3   1 <1>  -0.2000 
 23 C        3.4600     5.7600     2.0650 C.3   1 <1>  -0.2000 
 24 N       -6.5620     3.7920    -0.6310 N.am  1 <1>  -0.6600 
 25 C       -7.8210     3.6320    -1.1520 C.2   1 <1>   0.5690 
 26 O       -8.0750     3.8580    -2.3110 O.2   1 <1>  -0.5700 
 27 C       -8.9630     3.1610    -0.2810 C.3   1 <1>  -0.1790 
 28 H       -1.3930     3.2410    -0.1260 H     1 <1>   0.3700 
 29 H        2.1260    -1.8310    -1.4730 H     1 <1>   0.0800 
 30 H        1.9780    -2.1590     0.2360 H     1 <1>   0.0800 
 31 H        3.9190     1.6030     0.5490 H     1 <1>   0.0800 
 32 H        3.6770     2.2130    -1.0730 H     1 <1>   0.0800 
 33 H        4.3800    -1.9910    -0.7000 H     1 <1>   0.0800 
 34 H        4.0290    -1.0890     0.7460 H     1 <1>   0.0800 
 35 H       -3.4640     3.7710     0.4190 H     1 <1>   0.0800 
 36 H        2.9860     3.3160     1.0150 H     1 <1>   0.3700 
 37 H        5.3060     0.2830    -0.8900 H     1 <1>   0.0800 
 38 H        4.0250     0.0720    -2.0470 H     1 <1>   0.0800 
 39 H       -4.8070     2.3890     1.9170 H     1 <1>   0.0800 
 40 H       -5.5250     1.5660     0.5670 H     1 <1>   0.0800 
 41 H       -4.6910     2.2090    -1.8610 H     1 <1>   0.0800 
 42 H       -3.4780     3.4430    -2.0110 H     1 <1>   0.0800 
 43 H        2.0140     6.1080     0.4130 H     1 <1>   0.1000 
 44 H       -5.8250     4.5070     1.2010 H     1 <1>   0.0800 
 45 H       -7.0440     3.2800     1.3820 H     1 <1>   0.0800 
 46 H       -5.7390     4.2940    -2.5250 H     1 <1>   0.0800 
 47 H       -5.0400     5.1370    -1.1730 H     1 <1>   0.0800 
 48 H        4.4660     6.7040     0.3270 H     1 <1>   0.1000 
 49 H        4.9000     4.9820     0.5510 H     1 <1>   0.1000 
 50 H        3.6720     4.9880     2.7820 H     1 <1>   0.1000 
 51 H        3.2570     6.7100     2.5280 H     1 <1>   0.1000 
 52 H       -8.7270     2.2030     0.1420 H     1 <1>   0.0800 
 53 H       -9.8540     3.0630    -0.8740 H     1 <1>   0.0800 
 54 H       -9.1460     3.8740     0.4990 H     1 <1>   0.0800 
@<TRIPOS>BOND
  1   1   2  1   
  2   1   3  1   
  3   2   4  1   
  4   2   5  2   
  5   3   6  2   
  6   3   7  1   
  7   4   8  am  
  8   4  28  1   
  9   5   6  1   
 10   5   9  1   
 11   6  10  1   
 12   7  11  1   
 13   7  29  1   
 14   7  30  1   
 15   8  12  2   
 16   8  13  1   
 17   9  14  2   
 18   9  15  am  
 19  10  16  1   
 20  10  31  1   
 21  10  32  1   
 22  11  16  1   
 23  11  33  1   
 24  11  34  1   
 25  13  17  1   
 26  13  18  1   
 27  13  35  1   
 28  15  19  1   
 29  15  36  1   
 30  16  37  1   
 31  16  38  1   
 32  17  20  1   
 33  17  39  1   
 34  17  40  1   
 35  18  21  1   
 36  18  41  1   
 37  18  42  1   
 38  19  22  1   
 39  19  23  1   
 40  19  43  1   
 41  20  24  1   
 42  20  44  1   
 43  20  45  1   
 44  21  24  1   
 45  21  46  1   
 46  21  47  1   
 47  22  23  1   
 48  22  48  1   
 49  22  49  1   
 50  23  50  1   
 51  23  51  1   
 52  24  25  am  
 53  25  26  2   
 54  25  27  1   
 55  27  52  1   
 56  27  53  1   
 57  27  54  1   
@<TRIPOS>SUBSTRUCTURE
  1 ****   4 GROUP 4 **** **** 0

# MOE 2024.06 (io_trps.svl 2023.06)
