@<TRIPOS>MOLECULE
NONAME
39 40 1 0 0 
SMALL
USER_CHARGES


@<TRIPOS>ATOM
  1 CL      -0.3980    -0.6460     2.3010 Cl    1 <1>  -0.1770 
  2 C       -1.8120    -0.6810     1.2780 C.ar  1 <1>   0.1770 
  3 C       -2.8730     0.1570     1.5670 C.ar  1 <1>  -0.1500 
  4 C       -1.8450    -1.5390     0.1970 C.ar  1 <1>  -0.1500 
  5 C       -4.0040     0.1500     0.7610 C.ar  1 <1>  -0.1440 
  6 C       -2.9670    -1.5550    -0.6120 C.ar  1 <1>  -0.1500 
  7 C       -4.0420    -0.7200    -0.3290 C.ar  1 <1>   0.0830 
  8 C       -5.1620     1.0920     1.1010 C.3   1 <1>   0.5020 
  9 O       -5.1240    -0.7400    -1.1360 O.3   1 <1>  -0.3630 
 10 N       -6.2750     0.2690     1.6120 N.am  1 <1>  -0.7300 
 11 C       -5.5680     2.0160    -0.0560 C.2   1 <1>  -0.1240 
 12 C       -5.8560    -1.9420    -1.2160 C.3   1 <1>   0.0400 
 13 C       -7.4630     0.1800     0.9950 C.2   1 <1>   0.6900 
 14 C       -6.8430     1.9490    -0.5360 C.2   1 <1>  -0.0290 
 15 C       -4.4980     2.8600    -0.5000 C.2   1 <1>   0.7060 
 16 O       -8.2600    -0.6740     1.3110 O.2   1 <1>  -0.5700 
 17 N       -7.7460     1.0480    -0.0060 N.am  1 <1>  -0.5390 
 18 C       -7.4310     2.7930    -1.6570 C.3   1 <1>  -0.1020 
 19 O       -4.4710     3.4280    -1.5750 O.2   1 <1>  -0.5700 
 20 O       -3.4580     3.0440     0.3250 O.3   1 <1>  -0.4300 
 21 C       -2.3310     3.8000    -0.0580 C.3   1 <1>   0.1200 
 22 C       -1.3010     3.7100     1.0640 C.3   1 <1>  -0.2400 
 23 H       -2.7970     0.8110     2.4170 H     1 <1>   0.1500 
 24 H       -1.0050    -2.1780    -0.0080 H     1 <1>   0.1500 
 25 H       -3.0060    -2.2070    -1.4660 H     1 <1>   0.1500 
 26 H       -4.8570     1.7240     1.9170 H     1 <1>   0.0800 
 27 H       -6.0230    -0.5020     2.2230 H     1 <1>   0.3700 
 28 H       -5.2670    -2.6850    -1.7210 H     1 <1>   0.0800 
 29 H       -6.7570    -1.7470    -1.7700 H     1 <1>   0.0800 
 30 H       -6.1060    -2.2650    -0.2200 H     1 <1>   0.0800 
 31 H       -8.6800     0.9360    -0.3970 H     1 <1>   0.3700 
 32 H       -7.4680     2.2150    -2.5630 H     1 <1>   0.0800 
 33 H       -6.8590     3.6810    -1.8410 H     1 <1>   0.0800 
 34 H       -8.4280     3.1040    -1.4030 H     1 <1>   0.0800 
 35 H       -2.6420     4.8180    -0.2220 H     1 <1>   0.0800 
 36 H       -1.9380     3.3890    -0.9730 H     1 <1>   0.0800 
 37 H       -1.7100     4.1050     1.9770 H     1 <1>   0.0800 
 38 H       -0.4310     4.2850     0.8020 H     1 <1>   0.0800 
 39 H       -1.0020     2.6880     1.2120 H     1 <1>   0.0800 
@<TRIPOS>BOND
  1   1   2  1   
  2   2   3  ar  
  3   2   4  ar  
  4   3   5  ar  
  5   3  23  1   
  6   4   6  ar  
  7   4  24  1   
  8   5   7  ar  
  9   5   8  1   
 10   6   7  ar  
 11   6  25  1   
 12   7   9  1   
 13   8  10  1   
 14   8  11  1   
 15   8  26  1   
 16   9  12  1   
 17  10  13  am  
 18  10  27  1   
 19  11  14  2   
 20  11  15  1   
 21  12  28  1   
 22  12  29  1   
 23  12  30  1   
 24  13  16  2   
 25  13  17  am  
 26  14  17  1   
 27  14  18  1   
 28  15  19  2   
 29  15  20  1   
 30  17  31  1   
 31  18  32  1   
 32  18  33  1   
 33  18  34  1   
 34  20  21  1   
 35  21  22  1   
 36  21  35  1   
 37  21  36  1   
 38  22  37  1   
 39  22  38  1   
 40  22  39  1   
@<TRIPOS>SUBSTRUCTURE
  1 ****   5 GROUP 4 **** **** 0

# MOE 2024.06 (io_trps.svl 2023.06)
