@<TRIPOS>MOLECULE
NONAME
44 45 1 0 0 
SMALL
USER_CHARGES


@<TRIPOS>ATOM
  1 CL       0.6320    -1.1910     2.7250 Cl    1 <1>  -0.1770 
  2 C        1.1290    -2.2300     1.4040 C.ar  1 <1>   0.1770 
  3 C        0.1870    -2.7130     0.5030 C.ar  1 <1>   0.0830 
  4 C        2.4670    -2.5450     1.2910 C.ar  1 <1>  -0.1500 
  5 O       -1.1170    -2.3560     0.6820 O.3   1 <1>  -0.3630 
  6 C        0.6180    -3.5350    -0.5350 C.ar  1 <1>  -0.1500 
  7 C        2.9050    -3.3650     0.2580 C.ar  1 <1>   0.1170 
  8 C       -2.1370    -2.8020    -0.1840 C.3   1 <1>   0.0400 
  9 C        1.9670    -3.8590    -0.6570 C.ar  1 <1>   0.0830 
 10 N        4.2540    -3.7320     0.0780 N.am  1 <1>  -0.5470 
 11 O        2.4470    -4.6620    -1.6570 O.3   1 <1>  -0.3630 
 12 C        5.4060    -3.4350     0.7510 C.2   1 <1>   0.5690 
 13 C        1.5910    -5.2230    -2.6300 C.3   1 <1>   0.0400 
 14 O        5.4430    -2.7220     1.7240 O.2   1 <1>  -0.5700 
 15 C        6.7010    -4.0450     0.2140 C.3   1 <1>  -0.0190 
 16 C        7.7360    -4.3200     1.3250 C.3   1 <1>  -0.1600 
 17 C        7.3230    -3.1460    -0.8710 C.3   1 <1>  -0.1600 
 18 C        9.0330    -4.9010     0.7570 C.3   1 <1>   0.1400 
 19 C        8.6290    -3.7320    -1.4160 C.3   1 <1>   0.1400 
 20 N        9.5680    -3.9850    -0.2890 N.am  1 <1>  -0.6600 
 21 C       10.7990    -3.3790    -0.2520 C.2   1 <1>   0.5690 
 22 O       11.1960    -2.6700    -1.1440 O.2   1 <1>  -0.5700 
 23 C       11.7220    -3.5780     0.9280 C.3   1 <1>  -0.1790 
 24 H        3.1510    -2.1440     2.0140 H     1 <1>   0.1500 
 25 H       -0.0930    -3.9160    -1.2370 H     1 <1>   0.1500 
 26 H       -3.0690    -2.3910     0.1610 H     1 <1>   0.0800 
 27 H       -2.1790    -3.8760    -0.1510 H     1 <1>   0.0800 
 28 H       -1.9310    -2.4500    -1.1790 H     1 <1>   0.0800 
 29 H        4.3620    -4.3350    -0.7390 H     1 <1>   0.3700 
 30 H        2.1880    -5.8130    -3.3020 H     1 <1>   0.0800 
 31 H        1.1100    -4.4290    -3.1740 H     1 <1>   0.0800 
 32 H        0.8660    -5.8500    -2.1410 H     1 <1>   0.0800 
 33 H        6.4540    -4.9900    -0.2370 H     1 <1>   0.0800 
 34 H        7.3210    -5.0060     2.0420 H     1 <1>   0.0800 
 35 H        7.9670    -3.4060     1.8450 H     1 <1>   0.0800 
 36 H        7.5270    -2.1710    -0.4600 H     1 <1>   0.0800 
 37 H        6.6300    -3.0170    -1.6830 H     1 <1>   0.0800 
 38 H        8.8400    -5.8620     0.3120 H     1 <1>   0.0800 
 39 H        9.7390    -5.0430     1.5550 H     1 <1>   0.0800 
 40 H        9.0590    -3.0460    -2.1260 H     1 <1>   0.0800 
 41 H        8.4360    -4.6590    -1.9270 H     1 <1>   0.0800 
 42 H       11.9910    -4.6140     1.0110 H     1 <1>   0.0800 
 43 H       11.2390    -3.2490     1.8280 H     1 <1>   0.0800 
 44 H       12.6170    -3.0000     0.7880 H     1 <1>   0.0800 
@<TRIPOS>BOND
  1   1   2  1   
  2   2   3  ar  
  3   2   4  ar  
  4   3   5  1   
  5   3   6  ar  
  6   4   7  ar  
  7   4  24  1   
  8   5   8  1   
  9   6   9  ar  
 10   6  25  1   
 11   7   9  ar  
 12   7  10  1   
 13   8  26  1   
 14   8  27  1   
 15   8  28  1   
 16   9  11  1   
 17  10  12  am  
 18  10  29  1   
 19  11  13  1   
 20  12  14  2   
 21  12  15  1   
 22  13  30  1   
 23  13  31  1   
 24  13  32  1   
 25  15  16  1   
 26  15  17  1   
 27  15  33  1   
 28  16  18  1   
 29  16  34  1   
 30  16  35  1   
 31  17  19  1   
 32  17  36  1   
 33  17  37  1   
 34  18  20  1   
 35  18  38  1   
 36  18  39  1   
 37  19  20  1   
 38  19  40  1   
 39  19  41  1   
 40  20  21  am  
 41  21  22  2   
 42  21  23  1   
 43  23  42  1   
 44  23  43  1   
 45  23  44  1   
@<TRIPOS>SUBSTRUCTURE
  1 ****  10 GROUP 4 **** **** 0

# MOE 2024.06 (io_trps.svl 2023.06)
