@<TRIPOS>MOLECULE
NONAME
60 61 1 0 0 
SMALL
USER_CHARGES


@<TRIPOS>ATOM
  1 O        8.1140     0.0260     0.5560 O.3   1 <1>  -0.5600 
  2 C        9.4980     0.1190     0.6880 C.3   1 <1>   0.2000 
  3 C        7.3900     1.1420     0.9840 C.3   1 <1>   0.1200 
  4 C       10.0800     0.8290    -0.5400 C.3   1 <1>  -0.1600 
  5 C       10.0390    -1.3060     0.7920 C.3   1 <1>  -0.1600 
  6 C        5.9000     0.8630     0.7440 C.3   1 <1>   0.2000 
  7 C       11.6160     0.8210    -0.5090 C.3   1 <1>  -0.1600 
  8 C       11.5750    -1.3190     0.8300 C.3   1 <1>  -0.1600 
  9 O        5.7550     0.3490    -0.5440 O.3   1 <1>  -0.6800 
 10 C        5.0150     2.1180     0.8890 C.3   1 <1>   0.3430 
 11 C       12.1940    -0.6120    -0.4010 C.3   1 <1>  -0.0800 
 12 N        3.7430     1.9470     0.1220 N.4   1 <1>  -0.9590 
 13 C       13.7600    -0.6690    -0.4430 C.3   1 <1>   0.0000 
 14 C        3.1690     3.2390    -0.3420 C.3   1 <1>   0.3430 
 15 C        2.7530     1.0880     0.8310 C.3   1 <1>   0.3430 
 16 C       14.2910    -0.0350    -1.7430 C.3   1 <1>  -0.2400 
 17 C       14.2500    -2.1300    -0.4320 C.3   1 <1>  -0.2400 
 18 C       14.4190     0.0600     0.7420 C.3   1 <1>  -0.2400 
 19 C        1.9930     2.9710    -1.2810 C.3   1 <1>  -0.1600 
 20 C        1.5730     0.7940    -0.0950 C.3   1 <1>  -0.1600 
 21 C        0.9270     2.0840    -0.6210 C.3   1 <1>  -0.0800 
 22 C       -0.1960     1.7610    -1.6120 C.3   1 <1>  -0.2400 
 23 H        9.7390     0.6570     1.5900 H     1 <1>   0.0800 
 24 H        7.7080     2.0020     0.4210 H     1 <1>   0.0800 
 25 H        7.5850     1.3020     2.0310 H     1 <1>   0.0800 
 26 H        9.7420     1.8480    -0.5750 H     1 <1>   0.0800 
 27 H        9.7450     0.3260    -1.4310 H     1 <1>   0.0800 
 28 H        9.7050    -1.8760    -0.0570 H     1 <1>   0.0800 
 29 H        9.6570    -1.7680     1.6840 H     1 <1>   0.0800 
 30 H        5.5750     0.1040     1.4350 H     1 <1>   0.0800 
 31 H       11.9460     1.4120     0.3250 H     1 <1>   0.0800 
 32 H       11.9600     1.2970    -1.4090 H     1 <1>   0.0800 
 33 H       11.8890    -2.3450     0.8730 H     1 <1>   0.0800 
 34 H       11.9000    -0.8350     1.7340 H     1 <1>   0.0800 
 35 H        6.5400    -0.2320    -0.7030 H     1 <1>   0.4000 
 36 H        5.5610     2.9550     0.4860 H     1 <1>   0.0800 
 37 H        4.8150     2.3210     1.9280 H     1 <1>   0.0800 
 38 H       11.8470    -1.1490    -1.2680 H     1 <1>   0.0800 
 39 H        4.0480     1.4050    -0.7110 H     1 <1>   0.4500 
 40 H        3.9190     3.8110    -0.8630 H     1 <1>   0.0800 
 41 H        2.8280     3.8120     0.5050 H     1 <1>   0.0800 
 42 H        2.4000     1.5910     1.7160 H     1 <1>   0.0800 
 43 H        3.2140     0.1590     1.1240 H     1 <1>   0.0800 
 44 H       13.8100    -0.4720    -2.6000 H     1 <1>   0.0800 
 45 H       15.3510    -0.1910    -1.8370 H     1 <1>   0.0800 
 46 H       14.1240     1.0260    -1.7580 H     1 <1>   0.0800 
 47 H       15.3120    -2.1760    -0.5960 H     1 <1>   0.0800 
 48 H       13.7660    -2.6960    -1.2070 H     1 <1>   0.0800 
 49 H       14.0530    -2.6020     0.5130 H     1 <1>   0.0800 
 50 H       15.4900    -0.0070     0.6710 H     1 <1>   0.0800 
 51 H       14.1260    -0.3780     1.6780 H     1 <1>   0.0800 
 52 H       14.1570     1.1010     0.7520 H     1 <1>   0.0800 
 53 H        2.3590     2.5060    -2.1800 H     1 <1>   0.0800 
 54 H        1.5520     3.9120    -1.5630 H     1 <1>   0.0800 
 55 H        0.8410     0.2220     0.4470 H     1 <1>   0.0800 
 56 H        1.9130     0.1860    -0.9160 H     1 <1>   0.0800 
 57 H        0.4970     2.6200     0.2100 H     1 <1>   0.0800 
 58 H        0.1850     1.2230    -2.4640 H     1 <1>   0.0800 
 59 H       -0.6610     2.6660    -1.9620 H     1 <1>   0.0800 
 60 H       -0.9520     1.1580    -1.1400 H     1 <1>   0.0800 
@<TRIPOS>BOND
  1   1   2  1   
  2   1   3  1   
  3   2   4  1   
  4   2   5  1   
  5   2  23  1   
  6   3   6  1   
  7   3  24  1   
  8   3  25  1   
  9   4   7  1   
 10   4  26  1   
 11   4  27  1   
 12   5   8  1   
 13   5  28  1   
 14   5  29  1   
 15   6   9  1   
 16   6  10  1   
 17   6  30  1   
 18   7  11  1   
 19   7  31  1   
 20   7  32  1   
 21   8  11  1   
 22   8  33  1   
 23   8  34  1   
 24   9  35  1   
 25  10  12  1   
 26  10  36  1   
 27  10  37  1   
 28  11  13  1   
 29  11  38  1   
 30  12  14  1   
 31  12  15  1   
 32  12  39  1   
 33  13  16  1   
 34  13  17  1   
 35  13  18  1   
 36  14  19  1   
 37  14  40  1   
 38  14  41  1   
 39  15  20  1   
 40  15  42  1   
 41  15  43  1   
 42  16  44  1   
 43  16  45  1   
 44  16  46  1   
 45  17  47  1   
 46  17  48  1   
 47  17  49  1   
 48  18  50  1   
 49  18  51  1   
 50  18  52  1   
 51  19  21  1   
 52  19  53  1   
 53  19  54  1   
 54  20  21  1   
 55  20  55  1   
 56  20  56  1   
 57  21  22  1   
 58  21  57  1   
 59  22  58  1   
 60  22  59  1   
 61  22  60  1   
@<TRIPOS>SUBSTRUCTURE
  1 ****   1 GROUP 4 **** **** 0

# MOE 2024.06 (io_trps.svl 2023.06)
