@<TRIPOS>MOLECULE
NONAME
58 61 1 0 0 
SMALL
USER_CHARGES


@<TRIPOS>ATOM
  1 O        0.2230     0.7550    -1.1120 O.2   1 <1>  -0.5700 
  2 C       -0.1660     1.7740    -0.5920 C.2   1 <1>   0.5690 
  3 N       -1.4110     1.9540    -0.0790 N.am  1 <1>  -0.4200 
  4 C        0.6580     3.0730    -0.4920 C.3   1 <1>   0.2510 
  5 C       -1.5980     3.2410     0.3080 C.2   1 <1>   0.5690 
  6 C       -2.4400     0.8980     0.0150 C.3   1 <1>   0.1400 
  7 N        1.8390     3.0630     0.4260 N.3   1 <1>  -0.8100 
  8 C       -0.3780     4.0830     0.0370 C.3   1 <1>  -0.0990 
  9 O       -2.6040     3.6910     0.7910 O.2   1 <1>  -0.5700 
 10 C       -3.2860     0.8850    -1.2580 C.3   1 <1>  -0.2400 
 11 C        2.6800     4.2700     0.2330 C.3   1 <1>   0.1100 
 12 C        2.6800     1.8500     0.2570 C.3   1 <1>   0.1100 
 13 C        3.8890     4.3060     1.1880 C.3   1 <1>   0.2090 
 14 C        3.9010     1.8430     1.1950 C.3   1 <1>   0.2090 
 15 N        4.7410     3.0820     1.0200 N.pl3 1 <1>  -0.8380 
 16 C        6.0690     3.0530     0.7390 C.ar  1 <1>   0.4100 
 17 N        6.6120     1.8570     0.4610 N.ar  1 <1>  -0.6200 
 18 C        6.8810     4.1900     0.7290 C.ar  1 <1>  -0.1500 
 19 C        7.8730     1.7830     0.1790 C.ar  1 <1>   0.5280 
 20 C        8.2130     4.0900     0.4240 C.ar  1 <1>   0.3610 
 21 N        8.6840     2.8560     0.1500 N.ar  1 <1>  -0.1790 
 22 C        8.4630     0.4230    -0.1310 C.3   1 <1>  -0.0970 
 23 C        9.1210     5.2030     0.3950 C.ar  1 <1>   0.0000 
 24 C        9.6770     5.6540    -0.8040 C.ar  1 <1>  -0.1500 
 25 C        9.4830     5.8590     1.5710 C.ar  1 <1>  -0.1500 
 26 C       10.5710     6.7080    -0.8260 C.ar  1 <1>  -0.1500 
 27 C       10.3760     6.9120     1.5510 C.ar  1 <1>  -0.1500 
 28 C       10.9300     7.3450     0.3580 C.ar  1 <1>   0.0830 
 29 O       11.7970     8.3770     0.4260 O.3   1 <1>  -0.3630 
 30 C       12.4010     8.9320    -0.7220 C.3   1 <1>   0.0400 
 31 H        0.9720     3.3400    -1.4860 H     1 <1>   0.0800 
 32 H       -3.0660     1.0860     0.8710 H     1 <1>   0.0800 
 33 H       -1.9590    -0.0570     0.1470 H     1 <1>   0.0800 
 34 H       -0.6150     4.8190    -0.7070 H     1 <1>   0.0800 
 35 H       -0.0710     4.5580     0.9500 H     1 <1>   0.0800 
 36 H       -3.7830     1.8310    -1.3850 H     1 <1>   0.0800 
 37 H       -4.0330     0.1150    -1.1870 H     1 <1>   0.0800 
 38 H       -2.6680     0.6820    -2.1150 H     1 <1>   0.0800 
 39 H        2.0920     5.1540     0.4040 H     1 <1>   0.0800 
 40 H        3.0420     4.3020    -0.7810 H     1 <1>   0.0800 
 41 H        3.0180     1.7720    -0.7620 H     1 <1>   0.0800 
 42 H        2.1010     0.9730     0.4840 H     1 <1>   0.0800 
 43 H        3.5300     4.3520     2.2020 H     1 <1>   0.0800 
 44 H        4.4400     5.2040     0.9930 H     1 <1>   0.0800 
 45 H        4.4640     0.9460     1.0130 H     1 <1>   0.0800 
 46 H        3.5520     1.7980     2.2120 H     1 <1>   0.0800 
 47 H        6.4780     5.1520     0.9670 H     1 <1>   0.1500 
 48 H        9.6740     2.7460    -0.0660 H     1 <1>   0.4570 
 49 H        7.7000    -0.3330    -0.0650 H     1 <1>   0.0800 
 50 H        9.2380     0.1800     0.5740 H     1 <1>   0.0800 
 51 H        8.8650     0.4060    -1.1280 H     1 <1>   0.0800 
 52 H        9.4070     5.1880    -1.7370 H     1 <1>   0.1500 
 53 H        9.0680     5.5490     2.5170 H     1 <1>   0.1500 
 54 H       10.9790     7.0300    -1.7670 H     1 <1>   0.1500 
 55 H       10.6550     7.4140     2.4610 H     1 <1>   0.1500 
 56 H       13.0350     9.7420    -0.4060 H     1 <1>   0.0800 
 57 H       11.6340     9.3040    -1.3770 H     1 <1>   0.0800 
 58 H       12.9920     8.1760    -1.2080 H     1 <1>   0.0800 
@<TRIPOS>BOND
  1   1   2  2   
  2   2   3  am  
  3   2   4  1   
  4   3   5  am  
  5   3   6  1   
  6   4   7  1   
  7   4   8  1   
  8   4  31  1   
  9   5   8  1   
 10   5   9  2   
 11   6  10  1   
 12   6  32  1   
 13   6  33  1   
 14   7  11  1   
 15   7  12  1   
 16   8  34  1   
 17   8  35  1   
 18  10  36  1   
 19  10  37  1   
 20  10  38  1   
 21  11  13  1   
 22  11  39  1   
 23  11  40  1   
 24  12  14  1   
 25  12  41  1   
 26  12  42  1   
 27  13  15  1   
 28  13  43  1   
 29  13  44  1   
 30  14  15  1   
 31  14  45  1   
 32  14  46  1   
 33  15  16  1   
 34  16  17  ar  
 35  16  18  ar  
 36  17  19  ar  
 37  18  20  ar  
 38  18  47  1   
 39  19  21  ar  
 40  19  22  1   
 41  20  21  ar  
 42  20  23  1   
 43  21  48  1   
 44  22  49  1   
 45  22  50  1   
 46  22  51  1   
 47  23  24  ar  
 48  23  25  ar  
 49  24  26  ar  
 50  24  52  1   
 51  25  27  ar  
 52  25  53  1   
 53  26  28  ar  
 54  26  54  1   
 55  27  28  ar  
 56  27  55  1   
 57  28  29  1   
 58  29  30  1   
 59  30  56  1   
 60  30  57  1   
 61  30  58  1   
@<TRIPOS>SUBSTRUCTURE
  1 ****  15 GROUP 4 **** **** 0

# MOE 2024.06 (io_trps.svl 2023.06)
