@<TRIPOS>MOLECULE
NONAME
63 67 1 0 0 
SMALL
USER_CHARGES


@<TRIPOS>ATOM
  1 O       -1.6770    -3.1150     0.3240 O.3   1 <1>  -0.5600 
  2 C       -1.1520    -4.3880     0.5430 C.3   1 <1>   0.1200 
  3 C       -3.0530    -3.0910     0.1110 C.3   1 <1>   0.1200 
  4 C        0.3610    -4.2490     0.7590 C.3   1 <1>   0.2000 
  5 C       -3.4630    -1.6330    -0.1100 C.3   1 <1>  -0.1600 
  6 O        0.8690    -3.4100    -0.2310 O.3   1 <1>  -0.6800 
  7 C        1.1100    -5.5980     0.7100 C.3   1 <1>   0.3430 
  8 C       -4.9700    -1.4060    -0.3700 C.3   1 <1>   0.0000 
  9 N        2.5430    -5.3830     0.3450 N.4   1 <1>  -0.9590 
 10 C       -5.8350    -1.8800     0.8240 C.3   1 <1>  -0.1600 
 11 C       -5.4470    -2.1420    -1.6460 C.3   1 <1>  -0.1600 
 12 C       -5.2100     0.1090    -0.5680 C.3   1 <1>  -0.1600 
 13 C        3.1700    -6.5580    -0.3190 C.3   1 <1>   0.4860 
 14 C        3.3820    -4.8730     1.4650 C.3   1 <1>   0.3430 
 15 C       -7.3270    -1.5960     0.5650 C.3   1 <1>  -0.0800 
 16 C       -6.9370    -1.8580    -1.9150 C.3   1 <1>  -0.0800 
 17 C       -6.6980     0.4060    -0.8330 C.3   1 <1>  -0.0800 
 18 C        4.6150    -6.2660    -0.6940 C.ar  1 <1>  -0.1430 
 19 C        4.6890    -4.3030     0.9130 C.3   1 <1>  -0.0170 
 20 C       -7.7700    -2.3370    -0.7110 C.3   1 <1>  -0.1600 
 21 C       -7.5300    -0.0830     0.3660 C.3   1 <1>  -0.1600 
 22 C       -7.1420    -0.3440    -2.1020 C.3   1 <1>  -0.1600 
 23 C        5.3320    -5.2250    -0.1120 C.ar  1 <1>  -0.1430 
 24 C        5.2320    -7.0760    -1.6370 C.ar  1 <1>  -0.1500 
 25 C        6.6500    -5.0070    -0.4790 C.ar  1 <1>  -0.1500 
 26 C        6.5490    -6.8540    -1.9980 C.ar  1 <1>  -0.1500 
 27 C        7.2580    -5.8200    -1.4180 C.ar  1 <1>  -0.1500 
 28 H       -1.3600    -4.9980    -0.3200 H     1 <1>   0.0800 
 29 H       -1.6250    -4.8160     1.4110 H     1 <1>   0.0800 
 30 H       -3.5410    -3.5000     0.9790 H     1 <1>   0.0800 
 31 H       -3.2760    -3.6880    -0.7560 H     1 <1>   0.0800 
 32 H        0.5320    -3.7710     1.7080 H     1 <1>   0.0800 
 33 H       -2.9080    -1.2510    -0.9490 H     1 <1>   0.0800 
 34 H       -3.1750    -1.0680     0.7600 H     1 <1>   0.0800 
 35 H        0.1850    -2.7110    -0.3840 H     1 <1>   0.4000 
 36 H        0.6410    -6.2080    -0.0430 H     1 <1>   0.0800 
 37 H        1.0250    -6.1100     1.6540 H     1 <1>   0.0800 
 38 H        2.5070    -4.6160    -0.3560 H     1 <1>   0.4500 
 39 H       -5.5250    -1.3750     1.7220 H     1 <1>   0.0800 
 40 H       -5.7110    -2.9360     0.9820 H     1 <1>   0.0800 
 41 H       -5.3160    -3.2030    -1.5400 H     1 <1>   0.0800 
 42 H       -4.8630    -1.8220    -2.4910 H     1 <1>   0.0800 
 43 H       -4.6250     0.4680    -1.3970 H     1 <1>   0.0800 
 44 H       -4.8930     0.6480     0.3080 H     1 <1>   0.0800 
 45 H        2.6190    -6.8090    -1.2100 H     1 <1>   0.0800 
 46 H        3.1480    -7.4060     0.3450 H     1 <1>   0.0800 
 47 H        3.6030    -5.6780     2.1480 H     1 <1>   0.0800 
 48 H        2.8590    -4.0990     2.0020 H     1 <1>   0.0800 
 49 H       -7.9130    -1.9330     1.4030 H     1 <1>   0.0800 
 50 H       -7.2520    -2.3780    -2.8040 H     1 <1>   0.0800 
 51 H       -6.8400     1.4650    -0.9670 H     1 <1>   0.0800 
 52 H        5.3690    -4.1360     1.7300 H     1 <1>   0.0800 
 53 H        4.4920    -3.3500     0.4540 H     1 <1>   0.0800 
 54 H       -8.8140    -2.1530    -0.8940 H     1 <1>   0.0800 
 55 H       -7.6440    -3.3970    -0.5790 H     1 <1>   0.0800 
 56 H       -7.2320     0.4450     1.2560 H     1 <1>   0.0800 
 57 H       -8.5720     0.1260     0.1960 H     1 <1>   0.0800 
 58 H       -8.1790    -0.1380    -2.3020 H     1 <1>   0.0800 
 59 H       -6.5710     0.0000    -2.9470 H     1 <1>   0.0800 
 60 H        4.7010    -7.8890    -2.1020 H     1 <1>   0.1500 
 61 H        7.2150    -4.2030    -0.0390 H     1 <1>   0.1500 
 62 H        7.0240    -7.4850    -2.7300 H     1 <1>   0.1500 
 63 H        8.2830    -5.6470    -1.6990 H     1 <1>   0.1500 
@<TRIPOS>BOND
  1   1   2  1   
  2   1   3  1   
  3   2   4  1   
  4   2  28  1   
  5   2  29  1   
  6   3   5  1   
  7   3  30  1   
  8   3  31  1   
  9   4   6  1   
 10   4   7  1   
 11   4  32  1   
 12   5   8  1   
 13   5  33  1   
 14   5  34  1   
 15   6  35  1   
 16   7   9  1   
 17   7  36  1   
 18   7  37  1   
 19   8  10  1   
 20   8  11  1   
 21   8  12  1   
 22   9  13  1   
 23   9  14  1   
 24   9  38  1   
 25  10  15  1   
 26  10  39  1   
 27  10  40  1   
 28  11  16  1   
 29  11  41  1   
 30  11  42  1   
 31  12  17  1   
 32  12  43  1   
 33  12  44  1   
 34  13  18  1   
 35  13  45  1   
 36  13  46  1   
 37  14  19  1   
 38  14  47  1   
 39  14  48  1   
 40  15  20  1   
 41  15  21  1   
 42  15  49  1   
 43  16  20  1   
 44  16  22  1   
 45  16  50  1   
 46  17  21  1   
 47  17  22  1   
 48  17  51  1   
 49  18  23  ar  
 50  18  24  ar  
 51  19  23  1   
 52  19  52  1   
 53  19  53  1   
 54  20  54  1   
 55  20  55  1   
 56  21  56  1   
 57  21  57  1   
 58  22  58  1   
 59  22  59  1   
 60  23  25  ar  
 61  24  26  ar  
 62  24  60  1   
 63  25  27  ar  
 64  25  61  1   
 65  26  27  ar  
 66  26  62  1   
 67  27  63  1   
@<TRIPOS>SUBSTRUCTURE
  1 ****   1 GROUP 4 **** **** 0

# MOE 2024.06 (io_trps.svl 2023.06)
