@<TRIPOS>MOLECULE
NONAME
50 51 1 0 0 
SMALL
USER_CHARGES


@<TRIPOS>ATOM
  1 S        0.2170    -2.1190     0.8680 S.o2  1 <1>   1.4470 
  2 O        0.1600    -3.5480     1.0940 O.2   1 <1>  -0.6500 
  3 O        0.8500    -1.2940     1.8710 O.2   1 <1>  -0.6500 
  4 N        1.0830    -1.9470    -0.6260 N.am  1 <1>  -0.6930 
  5 C       -1.4540    -1.5180     0.5160 C.ar  1 <1>  -0.0090 
  6 C        2.0520    -0.9690    -0.8370 C.ar  1 <1>   0.1990 
  7 C        0.8200    -2.9530    -1.7000 C.3   1 <1>   0.2570 
  8 C       -1.6870    -0.2460     0.0030 C.ar  1 <1>   0.0830 
  9 C       -2.5610    -2.3200     0.7730 C.ar  1 <1>  -0.1500 
 10 C        3.1780    -0.8930    -0.0280 C.ar  1 <1>  -0.1500 
 11 C        1.9240    -0.0530    -1.8720 C.ar  1 <1>  -0.1500 
 12 C        1.8080    -4.1250    -1.7200 C.2   1 <1>   0.5690 
 13 O       -0.6630     0.5760    -0.2870 O.3   1 <1>  -0.3620 
 14 C       -2.9740     0.2010    -0.2540 C.ar  1 <1>  -0.1500 
 15 C       -3.8540    -1.8850     0.5230 C.ar  1 <1>  -0.1440 
 16 C        4.1560     0.0660    -0.2340 C.ar  1 <1>  -0.1430 
 17 C        2.8930     0.9070    -2.0900 C.ar  1 <1>  -0.1500 
 18 O        2.3580    -4.3990    -2.7610 O.2   1 <1>  -0.5700 
 19 N        2.0220    -4.8470    -0.5860 N.am  1 <1>  -0.7300 
 20 C       -0.3230     1.5450     0.6790 C.3   1 <1>   0.0400 
 21 C       -4.0560    -0.6170     0.0070 C.ar  1 <1>  -0.1500 
 22 C       -5.0410    -2.7850     0.8170 C.3   1 <1>  -0.0970 
 23 C        4.0140     0.9760    -1.2770 C.ar  1 <1>  -0.1430 
 24 C        5.3640     0.0980     0.6910 C.3   1 <1>  -0.0970 
 25 C        2.9600    -5.9860    -0.4410 C.3   1 <1>   0.0600 
 26 C        5.0620     2.0460    -1.5480 C.3   1 <1>  -0.0970 
 27 H        0.8670    -2.4660    -2.6570 H     1 <1>   0.0800 
 28 H       -0.1720    -3.3490    -1.5880 H     1 <1>   0.0800 
 29 H       -2.4090    -3.3060     1.1810 H     1 <1>   0.1500 
 30 H        3.2800    -1.6020     0.7730 H     1 <1>   0.1500 
 31 H        1.0550    -0.0870    -2.5010 H     1 <1>   0.1500 
 32 H       -3.1220     1.1840    -0.6620 H     1 <1>   0.1500 
 33 H        2.7670     1.6040    -2.9000 H     1 <1>   0.1500 
 34 H        1.4960    -4.5790     0.2610 H     1 <1>   0.3700 
 35 H        0.5750     2.0400     0.3540 H     1 <1>   0.0800 
 36 H       -0.1480     1.0600     1.6230 H     1 <1>   0.0800 
 37 H       -1.1280     2.2520     0.7640 H     1 <1>   0.0800 
 38 H       -5.0530    -0.2640    -0.1920 H     1 <1>   0.1500 
 39 H       -4.7430    -3.8190     0.8270 H     1 <1>   0.0800 
 40 H       -5.7990    -2.6600     0.0650 H     1 <1>   0.0800 
 41 H       -5.4580    -2.5370     1.7760 H     1 <1>   0.0800 
 42 H        5.2920    -0.6660     1.4450 H     1 <1>   0.0800 
 43 H        5.4270     1.0510     1.1830 H     1 <1>   0.0800 
 44 H        6.2640    -0.0690     0.1270 H     1 <1>   0.0800 
 45 H        3.4640    -6.1760    -1.3740 H     1 <1>   0.0800 
 46 H        2.4160    -6.8680    -0.1520 H     1 <1>   0.0800 
 47 H        3.6940    -5.7570     0.3120 H     1 <1>   0.0800 
 48 H        6.0120     1.5870    -1.7520 H     1 <1>   0.0800 
 49 H        5.1590     2.6910    -0.6930 H     1 <1>   0.0800 
 50 H        4.7890     2.6480    -2.3960 H     1 <1>   0.0800 
@<TRIPOS>BOND
  1   1   2  2   
  2   1   3  2   
  3   1   4  am  
  4   1   5  1   
  5   4   6  1   
  6   4   7  1   
  7   5   8  ar  
  8   5   9  ar  
  9   6  10  ar  
 10   6  11  ar  
 11   7  12  1   
 12   7  27  1   
 13   7  28  1   
 14   8  13  1   
 15   8  14  ar  
 16   9  15  ar  
 17   9  29  1   
 18  10  16  ar  
 19  10  30  1   
 20  11  17  ar  
 21  11  31  1   
 22  12  18  2   
 23  12  19  am  
 24  13  20  1   
 25  14  21  ar  
 26  14  32  1   
 27  15  21  ar  
 28  15  22  1   
 29  16  23  ar  
 30  16  24  1   
 31  17  23  ar  
 32  17  33  1   
 33  19  25  1   
 34  19  34  1   
 35  20  35  1   
 36  20  36  1   
 37  20  37  1   
 38  21  38  1   
 39  22  39  1   
 40  22  40  1   
 41  22  41  1   
 42  23  26  1   
 43  24  42  1   
 44  24  43  1   
 45  24  44  1   
 46  25  45  1   
 47  25  46  1   
 48  25  47  1   
 49  26  48  1   
 50  26  49  1   
 51  26  50  1   
@<TRIPOS>SUBSTRUCTURE
  1 ****   4 GROUP 4 **** **** 0

# MOE 2024.06 (io_trps.svl 2023.06)
