@<TRIPOS>MOLECULE
NONAME
33 34 1 0 0 
SMALL
USER_CHARGES


@<TRIPOS>ATOM
  1 S       -0.0760    -0.4820    -0.0780 S.3   1 <1>  -0.3710 
  2 C       -1.4440     0.6700    -0.0300 C.2   1 <1>   0.6510 
  3 C        1.3720     0.6790     0.0460 C.3   1 <1>   0.1310 
  4 N       -1.1340     1.9070     0.0800 N.2   1 <1>  -0.6210 
  5 N       -2.7130     0.1400    -0.1130 N.am  1 <1>  -0.4200 
  6 C        2.7400     0.0050     0.0630 C.2   1 <1>   0.5690 
  7 C       -2.1520     2.8120     0.1220 C.2   1 <1>   0.0210 
  8 C       -3.7650     1.0480    -0.0720 C.2   1 <1>   0.6160 
  9 C       -2.9480    -1.3250    -0.2410 C.3   1 <1>   0.0600 
 10 O        2.8380    -1.1660    -0.2290 O.2   1 <1>  -0.5700 
 11 N        3.8490     0.7470     0.3960 N.am  1 <1>  -0.6600 
 12 O       -1.8390     3.9990     0.2290 O.3   1 <1>  -0.8500 
 13 C       -3.4660     2.3940     0.0470 C.2   1 <1>  -0.1360 
 14 O       -4.9330     0.6220    -0.1430 O.2   1 <1>  -0.5700 
 15 C        3.8480     2.2150     0.6960 C.3   1 <1>   0.1400 
 16 C        5.2140     0.1440     0.4430 C.3   1 <1>   0.1400 
 17 C        4.9240     2.9370    -0.1330 C.3   1 <1>   0.1200 
 18 C        6.2040     0.9860    -0.3770 C.3   1 <1>   0.1200 
 19 O        6.1730     2.3260     0.0300 O.3   1 <1>  -0.5600 
 20 H        1.2270     1.2330     0.9540 H     1 <1>   0.0800 
 21 H        1.3020     1.3440    -0.7950 H     1 <1>   0.0800 
 22 H       -2.4750    -1.6870    -1.1370 H     1 <1>   0.0800 
 23 H       -3.9980    -1.5480    -0.2940 H     1 <1>   0.0800 
 24 H       -2.5310    -1.8310     0.6110 H     1 <1>   0.0800 
 25 H       -4.2470     3.1220     0.0820 H     1 <1>   0.1500 
 26 H        4.0540     2.3610     1.7420 H     1 <1>   0.0800 
 27 H        2.8930     2.6620     0.4820 H     1 <1>   0.0800 
 28 H        5.1990    -0.8600     0.0570 H     1 <1>   0.0800 
 29 H        5.5450     0.1000     1.4650 H     1 <1>   0.0800 
 30 H        5.0130     3.9600     0.1880 H     1 <1>   0.0800 
 31 H        4.6670     2.9250    -1.1780 H     1 <1>   0.0800 
 32 H        5.9630     0.9360    -1.4240 H     1 <1>   0.0800 
 33 H        7.2060     0.6220    -0.2350 H     1 <1>   0.0800 
@<TRIPOS>BOND
  1   1   2  1   
  2   1   3  1   
  3   2   4  2   
  4   2   5  1   
  5   3   6  1   
  6   3  20  1   
  7   3  21  1   
  8   4   7  1   
  9   5   8  am  
 10   5   9  1   
 11   6  10  2   
 12   6  11  am  
 13   7  12  1   
 14   7  13  2   
 15   8  13  1   
 16   8  14  2   
 17   9  22  1   
 18   9  23  1   
 19   9  24  1   
 20  11  15  1   
 21  11  16  1   
 22  13  25  1   
 23  15  17  1   
 24  15  26  1   
 25  15  27  1   
 26  16  18  1   
 27  16  28  1   
 28  16  29  1   
 29  17  19  1   
 30  17  30  1   
 31  17  31  1   
 32  18  19  1   
 33  18  32  1   
 34  18  33  1   
@<TRIPOS>SUBSTRUCTURE
  1 ****   3 GROUP 4 **** **** 0

# MOE 2024.06 (io_trps.svl 2023.06)
