@<TRIPOS>MOLECULE
NONAME
30 31 1 0 0 
SMALL
USER_CHARGES


@<TRIPOS>ATOM
  1 I       -0.4810    -1.2830     0.5330 I     1 <1>  -0.0810 
  2 C        1.6250    -1.5440     0.3880 C.ar  1 <1>   0.0810 
  3 C        2.4410    -0.4380     0.4740 C.ar  1 <1>  -0.1500 
  4 C        2.1210    -2.8250     0.2090 C.ar  1 <1>  -0.1500 
  5 C        3.8260    -0.6010     0.3800 C.ar  1 <1>   0.0860 
  6 C        3.4880    -2.9850     0.1160 C.ar  1 <1>  -0.1500 
  7 C        4.7590     0.4880     0.4590 C.2   1 <1>   0.5440 
  8 C        4.3480    -1.8910     0.1980 C.ar  1 <1>   0.1790 
  9 O        4.3740     1.6360     0.6110 O.2   1 <1>  -0.5700 
 10 N        6.1060     0.2150     0.3580 N.am  1 <1>  -0.4200 
 11 N        5.7020    -2.1060     0.0980 N.2   1 <1>  -0.6290 
 12 C        6.4890    -1.0990     0.1750 C.2   1 <1>   0.6510 
 13 C        7.0890     1.3350     0.4400 C.3   1 <1>   0.1400 
 14 S        8.2410    -1.4330     0.0300 S.3   1 <1>  -0.3710 
 15 C        7.3900     1.8720    -0.9610 C.3   1 <1>  -0.2400 
 16 C        8.3490    -3.2610    -0.2100 C.3   1 <1>   0.0700 
 17 C        9.8240    -3.6280    -0.3460 C.3   1 <1>  -0.2400 
 18 H        2.0250     0.5450     0.6130 H     1 <1>   0.1500 
 19 H        1.4550    -3.6680     0.1460 H     1 <1>   0.1500 
 20 H        3.9130    -3.9640    -0.0240 H     1 <1>   0.1500 
 21 H        7.9950     1.0120     0.9200 H     1 <1>   0.0800 
 22 H        6.6850     2.1300     1.0450 H     1 <1>   0.0800 
 23 H        7.8190     1.1040    -1.5790 H     1 <1>   0.0800 
 24 H        8.0910     2.6840    -0.8930 H     1 <1>   0.0800 
 25 H        6.4880     2.2400    -1.4180 H     1 <1>   0.0800 
 26 H        7.7920    -3.5030    -1.0980 H     1 <1>   0.0800 
 27 H        7.8980    -3.7260     0.6500 H     1 <1>   0.0800 
 28 H       10.2540    -3.1220    -1.1930 H     1 <1>   0.0800 
 29 H        9.9260    -4.6880    -0.4880 H     1 <1>   0.0800 
 30 H       10.3600    -3.3440     0.5420 H     1 <1>   0.0800 
@<TRIPOS>BOND
  1   1   2  1   
  2   2   3  ar  
  3   2   4  ar  
  4   3   5  ar  
  5   3  18  1   
  6   4   6  ar  
  7   4  19  1   
  8   5   7  1   
  9   5   8  ar  
 10   6   8  ar  
 11   6  20  1   
 12   7   9  2   
 13   7  10  am  
 14   8  11  1   
 15  10  12  1   
 16  10  13  1   
 17  11  12  2   
 18  12  14  1   
 19  13  15  1   
 20  13  21  1   
 21  13  22  1   
 22  14  16  1   
 23  15  23  1   
 24  15  24  1   
 25  15  25  1   
 26  16  17  1   
 27  16  26  1   
 28  16  27  1   
 29  17  28  1   
 30  17  29  1   
 31  17  30  1   
@<TRIPOS>SUBSTRUCTURE
  1 ****   8 GROUP 4 **** **** 0

# MOE 2024.06 (io_trps.svl 2023.06)
