@<TRIPOS>MOLECULE
NONAME
48 49 1 0 0 
SMALL
USER_CHARGES


@<TRIPOS>ATOM
  1 O        0.4570     0.4470    -0.6340 O.2   1 <1>  -0.5700 
  2 C        0.3870     1.5630    -0.1890 C.2   1 <1>   0.6590 
  3 O       -0.6980     2.0240     0.4120 O.3   1 <1>  -0.4300 
  4 C        1.5480     2.5370    -0.2980 C.3   1 <1>  -0.0190 
  5 C       -1.8470     1.2250     0.5780 C.3   1 <1>   0.1200 
  6 C        2.6380     1.9350    -1.2030 C.3   1 <1>   0.3430 
  7 C        2.1130     2.9360     1.0810 C.3   1 <1>  -0.1600 
  8 C       -2.8980     2.0550     1.3090 C.3   1 <1>  -0.2400 
  9 N        4.0100     2.4300    -0.8620 N.4   1 <1>  -0.9590 
 10 C        3.2750     3.9410     0.9370 C.3   1 <1>  -0.1600 
 11 C        4.0430     3.8390    -0.3880 C.3   1 <1>   0.3430 
 12 C        5.0070     2.1370    -1.9220 C.3   1 <1>   0.4860 
 13 C        6.3930     2.3580    -1.3480 C.ar  1 <1>  -0.1430 
 14 C        6.8120     1.6380    -0.2320 C.ar  1 <1>   0.0830 
 15 C        7.2370     3.2880    -1.9350 C.ar  1 <1>  -0.1500 
 16 O        5.9230     0.7250     0.2660 O.3   1 <1>  -0.3630 
 17 C        8.0770     1.8870     0.3240 C.ar  1 <1>   0.0830 
 18 C        8.4930     3.5140    -1.4060 C.ar  1 <1>  -0.1500 
 19 C        6.3750    -0.5280     0.7420 C.3   1 <1>   0.0400 
 20 O        8.4520     1.2300     1.4590 O.3   1 <1>  -0.3630 
 21 C        8.9110     2.8220    -0.2840 C.ar  1 <1>  -0.1500 
 22 C        9.7000     1.4530     2.0830 C.3   1 <1>   0.0400 
 23 H        1.1640     3.4190    -0.7780 H     1 <1>   0.0800 
 24 H       -1.5790     0.3520     1.1500 H     1 <1>   0.0800 
 25 H       -2.2000     0.9240    -0.3940 H     1 <1>   0.0800 
 26 H        2.4010     2.1670    -2.2280 H     1 <1>   0.0800 
 27 H        2.6320     0.8600    -1.1030 H     1 <1>   0.0800 
 28 H        2.4680     2.0500     1.5820 H     1 <1>   0.0800 
 29 H        1.3380     3.3630     1.6970 H     1 <1>   0.0800 
 30 H       -2.5310     2.3550     2.2740 H     1 <1>   0.0800 
 31 H       -3.7880     1.4690     1.4500 H     1 <1>   0.0800 
 32 H       -3.1520     2.9260     0.7320 H     1 <1>   0.0800 
 33 H        4.3600     1.8650    -0.0660 H     1 <1>   0.4500 
 34 H        3.9630     3.8040     1.7540 H     1 <1>   0.0800 
 35 H        2.8930     4.9440     1.0200 H     1 <1>   0.0800 
 36 H        3.5820     4.4760    -1.1260 H     1 <1>   0.0800 
 37 H        5.0590     4.1690    -0.2390 H     1 <1>   0.0800 
 38 H        4.8470     2.7740    -2.7760 H     1 <1>   0.0800 
 39 H        4.9200     1.1090    -2.2340 H     1 <1>   0.0800 
 40 H        6.9330     3.8440    -2.8060 H     1 <1>   0.1500 
 41 H        9.1520     4.2320    -1.8660 H     1 <1>   0.1500 
 42 H        6.6690    -0.4260     1.7720 H     1 <1>   0.0800 
 43 H        7.2070    -0.8580     0.1440 H     1 <1>   0.0800 
 44 H        5.5670    -1.2330     0.6680 H     1 <1>   0.0800 
 45 H        9.8910     3.0330     0.0990 H     1 <1>   0.1500 
 46 H        9.7670     2.4860     2.3740 H     1 <1>   0.0800 
 47 H       10.4870     1.1910     1.3980 H     1 <1>   0.0800 
 48 H        9.7540     0.8260     2.9550 H     1 <1>   0.0800 
@<TRIPOS>BOND
  1   1   2  2   
  2   2   3  1   
  3   2   4  1   
  4   3   5  1   
  5   4   6  1   
  6   4   7  1   
  7   4  23  1   
  8   5   8  1   
  9   5  24  1   
 10   5  25  1   
 11   6   9  1   
 12   6  26  1   
 13   6  27  1   
 14   7  10  1   
 15   7  28  1   
 16   7  29  1   
 17   8  30  1   
 18   8  31  1   
 19   8  32  1   
 20   9  11  1   
 21   9  12  1   
 22   9  33  1   
 23  10  11  1   
 24  10  34  1   
 25  10  35  1   
 26  11  36  1   
 27  11  37  1   
 28  12  13  1   
 29  12  38  1   
 30  12  39  1   
 31  13  14  ar  
 32  13  15  ar  
 33  14  16  1   
 34  14  17  ar  
 35  15  18  ar  
 36  15  40  1   
 37  16  19  1   
 38  17  20  1   
 39  17  21  ar  
 40  18  21  ar  
 41  18  41  1   
 42  19  42  1   
 43  19  43  1   
 44  19  44  1   
 45  20  22  1   
 46  21  45  1   
 47  22  46  1   
 48  22  47  1   
 49  22  48  1   
@<TRIPOS>SUBSTRUCTURE
  1 ****   9 GROUP 4 **** **** 0

# MOE 2024.06 (io_trps.svl 2023.06)
