@<TRIPOS>MOLECULE
NONAME
30 31 1 0 0 
SMALL
USER_CHARGES


@<TRIPOS>ATOM
  1 BR       2.0020    -1.9420    -3.0140 Br    1 <1>  -0.0580 
  2 C        2.3660    -0.6290    -1.6630 C.2   1 <1>   0.0980 
  3 S        3.9360     0.1310    -1.7370 S.3   1 <1>  -0.0800 
  4 C        1.6140    -0.1790    -0.6460 C.2   1 <1>  -0.1500 
  5 C        3.5540     1.1050    -0.3080 C.2   1 <1>  -0.0220 
  6 C        2.3020     0.8170     0.1210 C.2   1 <1>  -0.1500 
  7 S        4.8050     2.2730     0.2840 S.o2  1 <1>   1.5000 
  8 O        4.8120     2.3150     1.7280 O.2   1 <1>  -0.6500 
  9 O        4.7310     3.5060    -0.4650 O.2   1 <1>  -0.6500 
 10 N        6.2880     1.5590    -0.1410 N.am  1 <1>  -0.8490 
 11 C        7.3790     2.5590    -0.1450 C.3   1 <1>   0.1960 
 12 C        6.6440     0.4150     0.7280 C.3   1 <1>   0.1960 
 13 C        8.7680     1.9390    -0.4440 C.3   1 <1>   0.3430 
 14 C        7.9440    -0.2900     0.2620 C.3   1 <1>   0.3430 
 15 N        8.6610     0.4840    -0.8140 N.4   1 <1>  -0.9590 
 16 C        9.9710    -0.1220    -1.1960 C.3   1 <1>   0.2630 
 17 H        0.6150    -0.5010    -0.4070 H     1 <1>   0.1500 
 18 H        1.8230     1.2790     0.9680 H     1 <1>   0.1500 
 19 H        7.4160     3.0680     0.8060 H     1 <1>   0.0800 
 20 H        7.1730     3.3060    -0.8950 H     1 <1>   0.0800 
 21 H        5.8420    -0.3050     0.7350 H     1 <1>   0.0800 
 22 H        6.7770     0.7530     1.7430 H     1 <1>   0.0800 
 23 H        9.3920     2.0480     0.4270 H     1 <1>   0.0800 
 24 H        9.2300     2.4920    -1.2460 H     1 <1>   0.0800 
 25 H        7.6920    -1.2700    -0.1080 H     1 <1>   0.0800 
 26 H        8.5900    -0.4230     1.1140 H     1 <1>   0.0800 
 27 H        8.0170     0.4680    -1.6240 H     1 <1>   0.4500 
 28 H       10.6500    -0.1080    -0.3590 H     1 <1>   0.0800 
 29 H       10.4150     0.4280    -2.0100 H     1 <1>   0.0800 
 30 H        9.8320    -1.1440    -1.5110 H     1 <1>   0.0800 
@<TRIPOS>BOND
  1   1   2  1   
  2   2   3  1   
  3   2   4  2   
  4   3   5  1   
  5   4   6  1   
  6   4  17  1   
  7   5   6  2   
  8   5   7  1   
  9   6  18  1   
 10   7   8  2   
 11   7   9  2   
 12   7  10  am  
 13  10  11  1   
 14  10  12  1   
 15  11  13  1   
 16  11  19  1   
 17  11  20  1   
 18  12  14  1   
 19  12  21  1   
 20  12  22  1   
 21  13  15  1   
 22  13  23  1   
 23  13  24  1   
 24  14  15  1   
 25  14  25  1   
 26  14  26  1   
 27  15  16  1   
 28  15  27  1   
 29  16  28  1   
 30  16  29  1   
 31  16  30  1   
@<TRIPOS>SUBSTRUCTURE
  1 ****  10 GROUP 4 **** **** 0

# MOE 2024.06 (io_trps.svl 2023.06)
