@<TRIPOS>MOLECULE
NONAME
38 39 1 0 0 
SMALL
USER_CHARGES


@<TRIPOS>ATOM
  1 BR      -0.1600    -0.8890    -0.8150 Br    1 <1>  -0.1110 
  2 C        1.4240     0.1450    -0.4340 C.ar  1 <1>   0.1110 
  3 C        2.6740    -0.4490    -0.4970 C.ar  1 <1>   0.0820 
  4 C        1.2670     1.4800    -0.0960 C.ar  1 <1>  -0.1500 
  5 O        2.8330    -1.7520    -0.8300 O.3   1 <1>  -0.3630 
  6 C        3.7640     0.3610    -0.2220 C.ar  1 <1>   0.0400 
  7 C        2.3840     2.2540     0.1770 C.ar  1 <1>  -0.1500 
  8 C        2.7850    -2.6700     0.2350 C.3   1 <1>   0.1200 
  9 S        5.4490    -0.1560    -0.2190 S.3   1 <1>  -0.0800 
 10 C        3.6750     1.7100     0.1080 C.ar  1 <1>   0.0000 
 11 C        2.9370    -4.0730    -0.3440 C.3   1 <1>  -0.2400 
 12 C        6.0190     1.4500     0.2190 C.2   1 <1>   0.1040 
 13 C        4.9720     2.3260     0.3410 C.2   1 <1>  -0.0860 
 14 N        7.3760     1.6810     0.4000 N.am  1 <1>  -0.4940 
 15 C        5.1710     3.7150     0.6590 C.2   1 <1>   0.8060 
 16 C        8.5410     0.9930     0.2100 C.2   1 <1>   0.5690 
 17 O        6.2070     4.1320     1.1460 O.2   1 <1>  -0.5700 
 18 O        4.2020     4.5960     0.3860 O.3   1 <1>  -0.4300 
 19 O        9.5800     1.5060     0.5280 O.2   1 <1>  -0.5700 
 20 C        8.5920    -0.3880    -0.4000 C.3   1 <1>  -0.1790 
 21 C        4.3380     5.9880     0.5980 C.3   1 <1>   0.1200 
 22 C        5.0270     6.6090    -0.6160 C.3   1 <1>  -0.2400 
 23 H        0.2790     1.9030    -0.0500 H     1 <1>   0.1500 
 24 H        2.2310     3.2830     0.4440 H     1 <1>   0.1500 
 25 H        1.8390    -2.5650     0.7370 H     1 <1>   0.0800 
 26 H        3.5880    -2.4460     0.9160 H     1 <1>   0.0800 
 27 H        2.1350    -4.2770    -1.0310 H     1 <1>   0.0800 
 28 H        2.9050    -4.8000     0.4470 H     1 <1>   0.0800 
 29 H        3.8800    -4.1610    -0.8550 H     1 <1>   0.0800 
 30 H        7.5880     2.6140     0.7760 H     1 <1>   0.3700 
 31 H        8.1320    -1.0970     0.2610 H     1 <1>   0.0800 
 32 H        9.6160    -0.6770    -0.5520 H     1 <1>   0.0800 
 33 H        8.0920    -0.3900    -1.3500 H     1 <1>   0.0800 
 34 H        4.8950     6.1630     1.5040 H     1 <1>   0.0800 
 35 H        3.3490     6.3960     0.7140 H     1 <1>   0.0800 
 36 H        6.0230     6.2190    -0.7230 H     1 <1>   0.0800 
 37 H        5.0950     7.6740    -0.4860 H     1 <1>   0.0800 
 38 H        4.4620     6.4090    -1.5090 H     1 <1>   0.0800 
@<TRIPOS>BOND
  1   1   2  1   
  2   2   3  ar  
  3   2   4  ar  
  4   3   5  1   
  5   3   6  ar  
  6   4   7  ar  
  7   4  23  1   
  8   5   8  1   
  9   6   9  1   
 10   6  10  ar  
 11   7  10  ar  
 12   7  24  1   
 13   8  11  1   
 14   8  25  1   
 15   8  26  1   
 16   9  12  1   
 17  10  13  1   
 18  11  27  1   
 19  11  28  1   
 20  11  29  1   
 21  12  13  2   
 22  12  14  1   
 23  13  15  1   
 24  14  16  am  
 25  14  30  1   
 26  15  17  2   
 27  15  18  1   
 28  16  19  2   
 29  16  20  1   
 30  18  21  1   
 31  20  31  1   
 32  20  32  1   
 33  20  33  1   
 34  21  22  1   
 35  21  34  1   
 36  21  35  1   
 37  22  36  1   
 38  22  37  1   
 39  22  38  1   
@<TRIPOS>SUBSTRUCTURE
  1 ****  10 GROUP 4 **** **** 0

# MOE 2024.06 (io_trps.svl 2023.06)
