@<TRIPOS>MOLECULE
NONAME
35 35 1 0 0 
SMALL
USER_CHARGES


@<TRIPOS>ATOM
  1 F        1.2310    -0.0050     1.3010 F     1 <1>  -0.1900 
  2 C        0.7480    -1.2090     1.1050 C.ar  1 <1>   0.1900 
  3 C        1.5840    -2.1890     0.5710 C.ar  1 <1>   0.1170 
  4 C       -0.5720    -1.4370     1.4400 C.ar  1 <1>  -0.1500 
  5 N        2.9200    -1.8740     0.2520 N.am  1 <1>  -0.5470 
  6 C        1.0200    -3.4470     0.3680 C.ar  1 <1>  -0.1500 
  7 C       -1.1020    -2.6990     1.2330 C.ar  1 <1>  -0.1500 
  8 C        4.0160    -2.6550     0.0390 C.2   1 <1>   0.6900 
  9 C       -0.3040    -3.6980     0.6970 C.ar  1 <1>  -0.1500 
 10 O        3.9740    -3.8590     0.1800 O.2   1 <1>  -0.5700 
 11 N        5.1550    -2.0170    -0.3180 N.am  1 <1>  -0.7300 
 12 C        6.4880    -2.5420    -0.6420 C.3   1 <1>   0.5000 
 13 C        7.1170    -1.4180    -1.4030 C.1   1 <1>  -0.2000 
 14 C        7.3080    -2.7440     0.6540 C.3   1 <1>  -0.1600 
 15 C        6.4130    -3.7900    -1.5570 C.3   1 <1>  -0.1600 
 16 C        7.6150    -0.5200    -2.0050 C.1   1 <1>  -0.1770 
 17 C        6.8200    -3.8360     1.6230 C.3   1 <1>  -0.2400 
 18 C        7.7600    -4.3040    -2.1030 C.3   1 <1>  -0.2400 
 19 H       -1.1710    -0.6450     1.8520 H     1 <1>   0.1500 
 20 H        3.1290    -0.8820     0.3190 H     1 <1>   0.3700 
 21 H        1.6100    -4.2410    -0.0510 H     1 <1>   0.1500 
 22 H       -2.1280    -2.9050     1.4860 H     1 <1>   0.1500 
 23 H       -0.7130    -4.6800     0.5340 H     1 <1>   0.1500 
 24 H        5.1050    -1.0270    -0.5320 H     1 <1>   0.3700 
 25 H        7.3400    -1.8100     1.1870 H     1 <1>   0.0800 
 26 H        8.3220    -2.9740     0.3810 H     1 <1>   0.0800 
 27 H        5.7770    -3.5580    -2.3940 H     1 <1>   0.0800 
 28 H        5.9570    -4.6020    -1.0240 H     1 <1>   0.0800 
 29 H        8.0700     0.2860    -2.5540 H     1 <1>   0.1770 
 30 H        5.8440    -3.5960     2.0060 H     1 <1>   0.0800 
 31 H        7.4950    -3.9150     2.4560 H     1 <1>   0.0800 
 32 H        6.7710    -4.7930     1.1360 H     1 <1>   0.0800 
 33 H        8.2570    -3.5500    -2.6880 H     1 <1>   0.0800 
 34 H        7.5910    -5.1580    -2.7340 H     1 <1>   0.0800 
 35 H        8.4080    -4.6070    -1.3000 H     1 <1>   0.0800 
@<TRIPOS>BOND
  1   1   2  1   
  2   2   3  ar  
  3   2   4  ar  
  4   3   5  1   
  5   3   6  ar  
  6   4   7  ar  
  7   4  19  1   
  8   5   8  am  
  9   5  20  1   
 10   6   9  ar  
 11   6  21  1   
 12   7   9  ar  
 13   7  22  1   
 14   8  10  2   
 15   8  11  am  
 16   9  23  1   
 17  11  12  1   
 18  11  24  1   
 19  12  13  1   
 20  12  14  1   
 21  12  15  1   
 22  13  16  3   
 23  14  17  1   
 24  14  25  1   
 25  14  26  1   
 26  15  18  1   
 27  15  27  1   
 28  15  28  1   
 29  16  29  1   
 30  17  30  1   
 31  17  31  1   
 32  17  32  1   
 33  18  33  1   
 34  18  34  1   
 35  18  35  1   
@<TRIPOS>SUBSTRUCTURE
  1 ****   8 GROUP 4 **** **** 0

# MOE 2024.06 (io_trps.svl 2023.06)
