@<TRIPOS>MOLECULE
NONAME
28 30 1 0 0 
SMALL
USER_CHARGES


@<TRIPOS>ATOM
  1 S       -0.0600    -0.1280    -0.0300 S.3   1 <1>   0.1810 
  2 N       -0.5400     1.1950    -0.9980 N.2   1 <1>  -0.2210 
  3 C        1.5200     0.5380     0.2560 C.ar  1 <1>   0.0400 
  4 N        0.3800     2.0470    -1.0950 N.2   1 <1>  -0.2270 
  5 C        1.5510     1.7340    -0.4170 C.ar  1 <1>   0.2270 
  6 C        2.5840     0.0460     0.9900 C.ar  1 <1>  -0.1500 
  7 C        2.7100     2.4930    -0.3620 C.ar  1 <1>  -0.1500 
  8 C        3.7330     0.8160     1.0300 C.ar  1 <1>  -0.1500 
  9 C        3.8200     2.0430     0.3530 C.ar  1 <1>   0.0860 
 10 C        5.0320     2.8340     0.4020 C.2   1 <1>   0.5440 
 11 O        4.9950     3.9390     0.9070 O.2   1 <1>  -0.5700 
 12 N        6.2250     2.3730    -0.1130 N.am  1 <1>  -0.6600 
 13 C        6.3690     1.1800    -1.0010 C.3   1 <1>   0.1400 
 14 C        7.5050     3.1220     0.0670 C.3   1 <1>   0.1400 
 15 C        7.5700     0.3260    -0.5620 C.3   1 <1>   0.1200 
 16 C        8.6480     2.1610     0.4330 C.3   1 <1>   0.1200 
 17 O        8.7280     1.1060    -0.4860 O.3   1 <1>  -0.5600 
 18 H        2.5120    -0.8950     1.5070 H     1 <1>   0.1500 
 19 H        2.7470     3.4370    -0.8750 H     1 <1>   0.1500 
 20 H        4.5850     0.4790     1.5960 H     1 <1>   0.1500 
 21 H        6.5310     1.5140    -2.0110 H     1 <1>   0.0800 
 22 H        5.4790     0.5780    -0.9920 H     1 <1>   0.0800 
 23 H        7.4040     3.8610     0.8440 H     1 <1>   0.0800 
 24 H        7.7480     3.6340    -0.8470 H     1 <1>   0.0800 
 25 H        7.7500    -0.4580    -1.2770 H     1 <1>   0.0800 
 26 H        7.3900    -0.1190     0.4010 H     1 <1>   0.0800 
 27 H        8.4950     1.7510     1.4160 H     1 <1>   0.0800 
 28 H        9.5880     2.6820     0.4190 H     1 <1>   0.0800 
@<TRIPOS>BOND
  1   1   2  1   
  2   1   3  1   
  3   2   4  2   
  4   3   5  ar  
  5   3   6  ar  
  6   4   5  1   
  7   5   7  ar  
  8   6   8  ar  
  9   6  18  1   
 10   7   9  ar  
 11   7  19  1   
 12   8   9  ar  
 13   8  20  1   
 14   9  10  1   
 15  10  11  2   
 16  10  12  am  
 17  12  13  1   
 18  12  14  1   
 19  13  15  1   
 20  13  21  1   
 21  13  22  1   
 22  14  16  1   
 23  14  23  1   
 24  14  24  1   
 25  15  17  1   
 26  15  25  1   
 27  15  26  1   
 28  16  17  1   
 29  16  27  1   
 30  16  28  1   
@<TRIPOS>SUBSTRUCTURE
  1 ****   9 GROUP 4 **** **** 0

# MOE 2024.06 (io_trps.svl 2023.06)
