@<TRIPOS>MOLECULE
NONAME
37 38 1 0 0 
SMALL
USER_CHARGES


@<TRIPOS>ATOM
  1 S       -0.4180     0.5520    -1.0570 S.3   1 <1>  -0.0800 
  2 C        0.6390    -0.5720    -0.1890 C.2   1 <1>   0.4420 
  3 C       -1.8140    -0.2300    -0.3520 C.ar  1 <1>   0.0400 
  4 N        0.0170    -1.4220     0.5360 N.2   1 <1>  -0.5650 
  5 N        2.0060    -0.5090    -0.3050 N.am  1 <1>  -0.4940 
  6 C       -1.3580    -1.2490     0.4610 C.ar  1 <1>   0.2270 
  7 C       -3.1480     0.0720    -0.5340 C.ar  1 <1>  -0.1500 
  8 C        2.8320     0.3170    -1.0100 C.2   1 <1>   0.5690 
  9 C       -2.3070    -2.0110     1.1280 C.ar  1 <1>  -0.1500 
 10 C       -4.0960    -0.6910     0.1370 C.ar  1 <1>   0.1170 
 11 O        2.4480     1.2130    -1.7150 O.2   1 <1>  -0.5700 
 12 C        4.3260     0.0770    -0.8900 C.3   1 <1>  -0.0990 
 13 C       -3.6540    -1.7330     0.9630 C.ar  1 <1>  -0.1500 
 14 N       -5.4540    -0.3910    -0.0560 N.am  1 <1>  -0.5470 
 15 C        4.8820     0.5340     0.4690 C.3   1 <1>  -0.1600 
 16 C       -6.5610    -0.6940     0.6870 C.2   1 <1>   0.5690 
 17 C        6.3910     0.2900     0.5620 C.3   1 <1>  -0.2400 
 18 O       -6.5330    -1.3070     1.7240 O.2   1 <1>  -0.5700 
 19 C       -7.9040    -0.2090     0.1700 C.3   1 <1>  -0.0990 
 20 C       -8.3400    -0.9150    -1.1250 C.3   1 <1>  -0.2400 
 21 H        2.4680    -1.2170     0.2570 H     1 <1>   0.3700 
 22 H       -3.4330     0.8820    -1.1800 H     1 <1>   0.1500 
 23 H       -1.9800    -2.8120     1.7660 H     1 <1>   0.1500 
 24 H        4.8200     0.6190    -1.6770 H     1 <1>   0.0800 
 25 H        4.5250    -0.9680    -1.0390 H     1 <1>   0.0800 
 26 H       -4.3720    -2.3400     1.4850 H     1 <1>   0.1500 
 27 H       -5.6490     0.1730    -0.8800 H     1 <1>   0.3700 
 28 H        4.3890     0.0070     1.2670 H     1 <1>   0.0800 
 29 H        4.6850     1.5860     0.5960 H     1 <1>   0.0800 
 30 H        6.6140    -0.7570     0.4580 H     1 <1>   0.0800 
 31 H        6.7600     0.6240     1.5160 H     1 <1>   0.0800 
 32 H        6.9090     0.8330    -0.2100 H     1 <1>   0.0800 
 33 H       -7.8540     0.8520     0.0100 H     1 <1>   0.0800 
 34 H       -8.6440    -0.3870     0.9310 H     1 <1>   0.0800 
 35 H       -7.6440    -0.7240    -1.9210 H     1 <1>   0.0800 
 36 H       -9.3120    -0.5650    -1.4270 H     1 <1>   0.0800 
 37 H       -8.3950    -1.9780    -0.9630 H     1 <1>   0.0800 
@<TRIPOS>BOND
  1   1   2  1   
  2   1   3  1   
  3   2   4  2   
  4   2   5  1   
  5   3   6  ar  
  6   3   7  ar  
  7   4   6  1   
  8   5   8  am  
  9   5  21  1   
 10   6   9  ar  
 11   7  10  ar  
 12   7  22  1   
 13   8  11  2   
 14   8  12  1   
 15   9  13  ar  
 16   9  23  1   
 17  10  13  ar  
 18  10  14  1   
 19  12  15  1   
 20  12  24  1   
 21  12  25  1   
 22  13  26  1   
 23  14  16  am  
 24  14  27  1   
 25  15  17  1   
 26  15  28  1   
 27  15  29  1   
 28  16  18  2   
 29  16  19  1   
 30  17  30  1   
 31  17  31  1   
 32  17  32  1   
 33  19  20  1   
 34  19  33  1   
 35  19  34  1   
 36  20  35  1   
 37  20  36  1   
 38  20  37  1   
@<TRIPOS>SUBSTRUCTURE
  1 ****   3 GROUP 4 **** **** 0

# MOE 2024.06 (io_trps.svl 2023.06)
