@<TRIPOS>MOLECULE
NONAME
41 41 1 0 0 
SMALL
USER_CHARGES


@<TRIPOS>ATOM
  1 F       -0.3430     1.5040    -1.1790 F     1 <1>  -0.1900 
  2 C       -0.4130     2.3600    -0.1930 C.ar  1 <1>   0.1900 
  3 C       -1.5380     2.3740     0.6170 C.ar  1 <1>  -0.1440 
  4 C        0.6580     3.2200    -0.0070 C.ar  1 <1>  -0.1500 
  5 C       -1.5390     3.3050     1.6450 C.ar  1 <1>   0.1900 
  6 C       -2.7060     1.4240     0.4040 C.3   1 <1>   0.2540 
  7 C        0.6170     4.1400     1.0300 C.ar  1 <1>  -0.1500 
  8 F       -2.5630     3.3650     2.4570 F     1 <1>  -0.1900 
  9 C       -0.4900     4.1830     1.8630 C.ar  1 <1>  -0.1500 
 10 N       -3.8390     2.1280    -0.2340 N.3   1 <1>  -0.8100 
 11 C       -5.1020     1.4000    -0.0760 C.3   1 <1>   0.1100 
 12 C       -3.5410     2.4460    -1.6430 C.3   1 <1>   0.0300 
 13 C       -6.2720     2.3940    -0.1440 C.3   1 <1>   0.3430 
 14 N       -7.5870     1.7850     0.2470 N.4   1 <1>  -0.9590 
 15 C       -8.0410     0.7530    -0.7240 C.3   1 <1>   0.3430 
 16 C       -8.5950     2.8630     0.4280 C.3   1 <1>   0.3430 
 17 C       -7.9550    -0.6110    -0.0540 C.3   1 <1>  -0.2400 
 18 C       -9.7730     2.3330     1.2370 C.3   1 <1>  -0.2400 
 19 H        1.5060     3.1680    -0.6660 H     1 <1>   0.1500 
 20 H       -3.0050     1.0510     1.3690 H     1 <1>   0.0800 
 21 H       -2.4100     0.5780    -0.1940 H     1 <1>   0.0800 
 22 H        1.4400     4.8160     1.1870 H     1 <1>   0.1500 
 23 H       -0.5420     4.8870     2.6750 H     1 <1>   0.1500 
 24 H       -5.1190     0.9310     0.8930 H     1 <1>   0.0800 
 25 H       -5.1860     0.6410    -0.8350 H     1 <1>   0.0800 
 26 H       -2.6720     3.0810    -1.7030 H     1 <1>   0.0800 
 27 H       -4.3610     2.9740    -2.0970 H     1 <1>   0.0800 
 28 H       -3.3470     1.5460    -2.2030 H     1 <1>   0.0800 
 29 H       -6.3360     2.7960    -1.1400 H     1 <1>   0.0800 
 30 H       -6.0440     3.2040     0.5300 H     1 <1>   0.0800 
 31 H       -7.4640     1.3310     1.1620 H     1 <1>   0.4500 
 32 H       -7.4250     0.7700    -1.6100 H     1 <1>   0.0800 
 33 H       -9.0600     0.9400    -1.0220 H     1 <1>   0.0800 
 34 H       -8.9320     3.2260    -0.5310 H     1 <1>   0.0800 
 35 H       -8.1510     3.6880     0.9630 H     1 <1>   0.0800 
 36 H       -6.9450    -0.8450     0.2300 H     1 <1>   0.0800 
 37 H       -8.2860    -1.3660    -0.7460 H     1 <1>   0.0800 
 38 H       -8.5950    -0.6530     0.8100 H     1 <1>   0.0800 
 39 H      -10.2950     1.5530     0.7130 H     1 <1>   0.0800 
 40 H      -10.4700     3.1350     1.4070 H     1 <1>   0.0800 
 41 H       -9.4470     1.9710     2.1960 H     1 <1>   0.0800 
@<TRIPOS>BOND
  1   1   2  1   
  2   2   3  ar  
  3   2   4  ar  
  4   3   5  ar  
  5   3   6  1   
  6   4   7  ar  
  7   4  19  1   
  8   5   8  1   
  9   5   9  ar  
 10   6  10  1   
 11   6  20  1   
 12   6  21  1   
 13   7   9  ar  
 14   7  22  1   
 15   9  23  1   
 16  10  11  1   
 17  10  12  1   
 18  11  13  1   
 19  11  24  1   
 20  11  25  1   
 21  12  26  1   
 22  12  27  1   
 23  12  28  1   
 24  13  14  1   
 25  13  29  1   
 26  13  30  1   
 27  14  15  1   
 28  14  16  1   
 29  14  31  1   
 30  15  17  1   
 31  15  32  1   
 32  15  33  1   
 33  16  18  1   
 34  16  34  1   
 35  16  35  1   
 36  17  36  1   
 37  17  37  1   
 38  17  38  1   
 39  18  39  1   
 40  18  40  1   
 41  18  41  1   
@<TRIPOS>SUBSTRUCTURE
  1 ****  10 GROUP 4 **** **** 0

# MOE 2024.06 (io_trps.svl 2023.06)
