@<TRIPOS>MOLECULE
NONAME
36 37 1 0 0 
SMALL
USER_CHARGES


@<TRIPOS>ATOM
  1 S       -0.6230     0.2470     0.8790 S.o2  1 <1>   1.3330 
  2 O       -0.7220    -0.7920     1.8830 O.2   1 <1>  -0.6500 
  3 O       -1.1600     1.5460     1.2420 O.2   1 <1>  -0.6500 
  4 N        1.0540     0.5200     0.6980 N.am  1 <1>  -0.8490 
  5 C       -1.3750    -0.3100    -0.7230 C.3   1 <1>   0.8460 
  6 C        1.8700    -0.6900     0.5050 C.3   1 <1>   0.1960 
  7 C        1.4210     1.5880    -0.2450 C.3   1 <1>   0.1960 
  8 F       -1.2770     0.6280    -1.6840 F     1 <1>  -0.3400 
  9 F       -0.6910    -1.3330    -1.2650 F     1 <1>  -0.3400 
 10 C       -2.8540    -0.6990    -0.5010 C.2   1 <1>   0.5690 
 11 C        3.3700    -0.3440     0.4950 C.3   1 <1>   0.1200 
 12 C        2.9390     1.8420    -0.2180 C.3   1 <1>   0.1200 
 13 O       -3.1120    -1.8810    -0.3900 O.2   1 <1>  -0.5700 
 14 N       -3.8920     0.2190    -0.3990 N.am  1 <1>  -0.6600 
 15 O        3.6370     0.6520    -0.4520 O.3   1 <1>  -0.5600 
 16 C       -3.7940     1.7160    -0.4440 C.3   1 <1>   0.1400 
 17 C       -5.2930    -0.2220    -0.0930 C.3   1 <1>   0.1400 
 18 C       -4.3940     2.3310     0.8320 C.3   1 <1>   0.1200 
 19 C       -5.8230     0.4980     1.1580 C.3   1 <1>   0.1200 
 20 O       -5.7070     1.8850     1.0130 O.3   1 <1>  -0.5600 
 21 H        1.6250    -1.1700    -0.4270 H     1 <1>   0.0800 
 22 H        1.6800    -1.3880     1.3040 H     1 <1>   0.0800 
 23 H        0.9120     2.4990     0.0220 H     1 <1>   0.0800 
 24 H        1.1380     1.3190    -1.2480 H     1 <1>   0.0800 
 25 H        3.9510    -1.2110     0.2370 H     1 <1>   0.0800 
 26 H        3.6810     0.0070     1.4640 H     1 <1>   0.0800 
 27 H        3.2390     2.2370     0.7380 H     1 <1>   0.0800 
 28 H        3.2150     2.5430    -0.9850 H     1 <1>   0.0800 
 29 H       -4.3440     2.0800    -1.2950 H     1 <1>   0.0800 
 30 H       -2.7820     2.0550    -0.5460 H     1 <1>   0.0800 
 31 H       -5.3430    -1.2840     0.0700 H     1 <1>   0.0800 
 32 H       -5.9290     0.0100    -0.9290 H     1 <1>   0.0800 
 33 H       -4.4190     3.4030     0.7520 H     1 <1>   0.0800 
 34 H       -3.8110     2.0640     1.6970 H     1 <1>   0.0800 
 35 H       -5.2730     0.1930     2.0330 H     1 <1>   0.0800 
 36 H       -6.8630     0.2680     1.3070 H     1 <1>   0.0800 
@<TRIPOS>BOND
  1   1   2  2   
  2   1   3  2   
  3   1   4  am  
  4   1   5  1   
  5   4   6  1   
  6   4   7  1   
  7   5   8  1   
  8   5   9  1   
  9   5  10  1   
 10   6  11  1   
 11   6  21  1   
 12   6  22  1   
 13   7  12  1   
 14   7  23  1   
 15   7  24  1   
 16  10  13  2   
 17  10  14  am  
 18  11  15  1   
 19  11  25  1   
 20  11  26  1   
 21  12  15  1   
 22  12  27  1   
 23  12  28  1   
 24  14  16  1   
 25  14  17  1   
 26  16  18  1   
 27  16  29  1   
 28  16  30  1   
 29  17  19  1   
 30  17  31  1   
 31  17  32  1   
 32  18  20  1   
 33  18  33  1   
 34  18  34  1   
 35  19  20  1   
 36  19  35  1   
 37  19  36  1   
@<TRIPOS>SUBSTRUCTURE
  1 ****   1 GROUP 4 **** **** 0

# MOE 2024.06 (io_trps.svl 2023.06)
