@<TRIPOS>MOLECULE
NONAME
56 58 1 0 0 
SMALL
USER_CHARGES


@<TRIPOS>ATOM
  1 O        0.1930     0.4120     0.3490 O.2   1 <1>  -0.5700 
  2 C        0.8000    -0.4480    -0.2630 C.2   1 <1>   0.6900 
  3 N        2.1740    -0.4040    -0.2970 N.am  1 <1>  -0.6600 
  4 N        0.1210    -1.4450    -0.9390 N.am  1 <1>  -0.4770 
  5 C        3.0060    -1.6360    -0.4590 C.3   1 <1>   0.1400 
  6 C        2.8840     0.8190     0.1920 C.3   1 <1>   0.1400 
  7 C       -0.9810    -2.1440    -0.4190 C.ar  1 <1>   0.1170 
  8 C        0.4060    -1.6460    -2.3820 C.3   1 <1>   0.0600 
  9 C        4.2010    -1.6500     0.5060 C.3   1 <1>   0.1400 
 10 C        4.3830     0.8000    -0.1470 C.3   1 <1>   0.1400 
 11 C       -0.9600    -3.5340    -0.3750 C.ar  1 <1>  -0.1500 
 12 C       -2.1160    -1.4890     0.0460 C.ar  1 <1>  -0.1500 
 13 N        5.0630    -0.4380     0.3440 N.am  1 <1>  -0.6600 
 14 C       -2.0380    -4.2470     0.1160 C.ar  1 <1>  -0.1500 
 15 C       -3.1950    -2.1990     0.5390 C.ar  1 <1>  -0.1500 
 16 C        6.4350    -0.5160     0.3120 C.2   1 <1>   0.6900 
 17 C       -3.1640    -3.5840     0.5750 C.ar  1 <1>  -0.1440 
 18 O        7.0630     0.3280    -0.3030 O.2   1 <1>  -0.5700 
 19 N        7.0900    -1.5270     0.9900 N.am  1 <1>  -0.4770 
 20 C       -4.3480    -4.3620     1.1190 C.3   1 <1>  -0.0970 
 21 C        8.1790    -2.2490     0.4750 C.ar  1 <1>   0.1170 
 22 C        6.7960    -1.7210     2.4320 C.3   1 <1>   0.0600 
 23 C        9.3300    -1.6180     0.0180 C.ar  1 <1>  -0.1500 
 24 C        8.1280    -3.6380     0.4290 C.ar  1 <1>  -0.1500 
 25 C       10.3970    -2.3520    -0.4700 C.ar  1 <1>  -0.1500 
 26 C        9.1920    -4.3750    -0.0570 C.ar  1 <1>  -0.1500 
 27 C       10.3350    -3.7350    -0.5090 C.ar  1 <1>  -0.1440 
 28 C       11.5050    -4.5390    -1.0470 C.3   1 <1>  -0.0970 
 29 H        3.3710    -1.6840    -1.4700 H     1 <1>   0.0800 
 30 H        2.4040    -2.5080    -0.2760 H     1 <1>   0.0800 
 31 H        2.7630     0.8900     1.2590 H     1 <1>   0.0800 
 32 H        2.4300     1.6900    -0.2480 H     1 <1>   0.0800 
 33 H        1.0030    -0.8350    -2.7600 H     1 <1>   0.0800 
 34 H       -0.5200    -1.6770    -2.9290 H     1 <1>   0.0800 
 35 H        0.9320    -2.5720    -2.5230 H     1 <1>   0.0800 
 36 H        4.7820    -2.5370     0.3230 H     1 <1>   0.0800 
 37 H        3.8360    -1.6900     1.5170 H     1 <1>   0.0800 
 38 H        4.8580     1.6610     0.2910 H     1 <1>   0.0800 
 39 H        4.5060     0.8670    -1.2140 H     1 <1>   0.0800 
 40 H       -0.0910    -4.0580    -0.7260 H     1 <1>   0.1500 
 41 H       -2.1520    -0.4150     0.0200 H     1 <1>   0.1500 
 42 H       -1.9970    -5.3220     0.1430 H     1 <1>   0.1500 
 43 H       -4.0590    -1.6670     0.8950 H     1 <1>   0.1500 
 44 H       -4.2430    -4.4870     2.1820 H     1 <1>   0.0800 
 45 H       -4.4060    -5.3320     0.6580 H     1 <1>   0.0800 
 46 H       -5.2650    -3.8370     0.9190 H     1 <1>   0.0800 
 47 H        6.2150    -0.8970     2.8080 H     1 <1>   0.0800 
 48 H        7.7190    -1.7730     2.9820 H     1 <1>   0.0800 
 49 H        6.2480    -2.6350     2.5720 H     1 <1>   0.0800 
 50 H        9.3900    -0.5450     0.0450 H     1 <1>   0.1500 
 51 H        7.2460    -4.1430     0.7740 H     1 <1>   0.1500 
 52 H       11.2740    -1.8380    -0.8210 H     1 <1>   0.1500 
 53 H        9.1280    -5.4480    -0.0860 H     1 <1>   0.1500 
 54 H       12.4320    -4.0340    -0.8410 H     1 <1>   0.0800 
 55 H       11.4040    -4.6580    -2.1110 H     1 <1>   0.0800 
 56 H       11.5380    -5.5100    -0.5890 H     1 <1>   0.0800 
@<TRIPOS>BOND
  1   1   2  2   
  2   2   3  am  
  3   2   4  am  
  4   3   5  1   
  5   3   6  1   
  6   4   7  1   
  7   4   8  1   
  8   5   9  1   
  9   5  29  1   
 10   5  30  1   
 11   6  10  1   
 12   6  31  1   
 13   6  32  1   
 14   7  11  ar  
 15   7  12  ar  
 16   8  33  1   
 17   8  34  1   
 18   8  35  1   
 19   9  13  1   
 20   9  36  1   
 21   9  37  1   
 22  10  13  1   
 23  10  38  1   
 24  10  39  1   
 25  11  14  ar  
 26  11  40  1   
 27  12  15  ar  
 28  12  41  1   
 29  13  16  am  
 30  14  17  ar  
 31  14  42  1   
 32  15  17  ar  
 33  15  43  1   
 34  16  18  2   
 35  16  19  am  
 36  17  20  1   
 37  19  21  1   
 38  19  22  1   
 39  20  44  1   
 40  20  45  1   
 41  20  46  1   
 42  21  23  ar  
 43  21  24  ar  
 44  22  47  1   
 45  22  48  1   
 46  22  49  1   
 47  23  25  ar  
 48  23  50  1   
 49  24  26  ar  
 50  24  51  1   
 51  25  27  ar  
 52  25  52  1   
 53  26  27  ar  
 54  26  53  1   
 55  27  28  1   
 56  28  54  1   
 57  28  55  1   
 58  28  56  1   
@<TRIPOS>SUBSTRUCTURE
  1 ****   9 GROUP 4 **** **** 0

# MOE 2024.06 (io_trps.svl 2023.06)
