@<TRIPOS>MOLECULE
NONAME
44 46 1 0 0 
SMALL
USER_CHARGES


@<TRIPOS>ATOM
  1 S       -0.2190     0.6580    -0.2520 S.o2  1 <1>   1.0900 
  2 O       -0.9380     1.2990     0.8230 O.2   1 <1>  -0.6500 
  3 O       -0.7400     0.6080    -1.5970 O.2   1 <1>  -0.6500 
  4 C        1.4340     1.3100    -0.2880 C.3   1 <1>  -0.0550 
  5 C        0.2420    -0.9940     0.2460 C.3   1 <1>  -0.0550 
  6 C        2.3640     0.1000    -0.2700 C.3   1 <1>   0.2760 
  7 C        1.7230    -0.9630     0.6370 C.3   1 <1>  -0.1600 
  8 N        3.7480     0.4510     0.0890 N.am  1 <1>  -0.8490 
  9 S        4.8590    -0.7630    -0.3470 S.o2  1 <1>   1.4470 
 10 C        3.9590     0.9340     1.4670 C.3   1 <1>   0.1160 
 11 O        4.4890    -1.2170    -1.6690 O.2   1 <1>  -0.6500 
 12 O        4.8720    -1.7090     0.7490 O.2   1 <1>  -0.6500 
 13 C        6.4360     0.1300    -0.4420 C.ar  1 <1>  -0.0090 
 14 C        6.6830     1.0400    -1.4620 C.ar  1 <1>  -0.1500 
 15 C        7.4330    -0.0540     0.5100 C.ar  1 <1>  -0.1500 
 16 C        7.8750     1.7400    -1.5310 C.ar  1 <1>  -0.1500 
 17 C        8.6230     0.6470     0.4460 C.ar  1 <1>  -0.1500 
 18 C        8.8670     1.5620    -0.5720 C.ar  1 <1>   0.1170 
 19 N       10.0740     2.2840    -0.6260 N.am  1 <1>  -0.4770 
 20 C       11.3250     1.8440    -0.2940 C.2   1 <1>   0.5690 
 21 C       10.0910     3.7290    -0.9390 C.3   1 <1>   0.1400 
 22 O       11.6360     0.7260     0.0340 O.2   1 <1>  -0.5700 
 23 C       12.3390     2.9530    -0.3700 C.3   1 <1>  -0.0990 
 24 C       11.5750     4.1040    -1.0340 C.3   1 <1>  -0.1600 
 25 H        1.5800     1.9190     0.5800 H     1 <1>   0.0800 
 26 H        1.5980     1.9010    -1.1680 H     1 <1>   0.0800 
 27 H        0.1150    -1.6600    -0.5870 H     1 <1>   0.0800 
 28 H       -0.3670    -1.3430     1.0580 H     1 <1>   0.0800 
 29 H        2.3530    -0.2860    -1.2770 H     1 <1>   0.0800 
 30 H        2.1720    -1.9310     0.4970 H     1 <1>   0.0800 
 31 H        1.7940    -0.6790     1.6710 H     1 <1>   0.0800 
 32 H        3.8050     0.1410     2.1810 H     1 <1>   0.0800 
 33 H        3.3020     1.7510     1.7020 H     1 <1>   0.0800 
 34 H        4.9690     1.2900     1.5780 H     1 <1>   0.0800 
 35 H        5.9310     1.1970    -2.2170 H     1 <1>   0.1500 
 36 H        7.2790    -0.7580     1.3100 H     1 <1>   0.1500 
 37 H        8.0350     2.4220    -2.3450 H     1 <1>   0.1500 
 38 H        9.3760     0.4800     1.1960 H     1 <1>   0.1500 
 39 H        9.6120     4.2670    -0.1390 H     1 <1>   0.0800 
 40 H        9.5870     3.9320    -1.8670 H     1 <1>   0.0800 
 41 H       13.1910     2.6480    -0.9500 H     1 <1>   0.0800 
 42 H       12.6470     3.2120     0.6260 H     1 <1>   0.0800 
 43 H       11.7750     5.0500    -0.5610 H     1 <1>   0.0800 
 44 H       11.8530     4.1720    -2.0720 H     1 <1>   0.0800 
@<TRIPOS>BOND
  1   1   2  2   
  2   1   3  2   
  3   1   4  1   
  4   1   5  1   
  5   4   6  1   
  6   4  25  1   
  7   4  26  1   
  8   5   7  1   
  9   5  27  1   
 10   5  28  1   
 11   6   7  1   
 12   6   8  1   
 13   6  29  1   
 14   7  30  1   
 15   7  31  1   
 16   8   9  am  
 17   8  10  1   
 18   9  11  2   
 19   9  12  2   
 20   9  13  1   
 21  10  32  1   
 22  10  33  1   
 23  10  34  1   
 24  13  14  ar  
 25  13  15  ar  
 26  14  16  ar  
 27  14  35  1   
 28  15  17  ar  
 29  15  36  1   
 30  16  18  ar  
 31  16  37  1   
 32  17  18  ar  
 33  17  38  1   
 34  18  19  1   
 35  19  20  am  
 36  19  21  1   
 37  20  22  2   
 38  20  23  1   
 39  21  24  1   
 40  21  39  1   
 41  21  40  1   
 42  23  24  1   
 43  23  41  1   
 44  23  42  1   
 45  24  43  1   
 46  24  44  1   
@<TRIPOS>SUBSTRUCTURE
  1 ****  13 GROUP 4 **** **** 0

# MOE 2024.06 (io_trps.svl 2023.06)
