@<TRIPOS>MOLECULE
NONAME
38 39 1 0 0 
SMALL
USER_CHARGES


@<TRIPOS>ATOM
  1 S       -0.2890    -0.1270     1.1580 S.3   1 <1>  -0.3710 
  2 C       -0.5730     1.6380     1.0110 C.2   1 <1>   0.9200 
  3 C       -1.5900    -1.0390     0.2170 C.3   1 <1>   0.0700 
  4 N       -0.0830     2.7830     1.1590 N.2   1 <1>  -0.3320 
  5 N       -1.4160     2.7790     0.6690 N.2   1 <1>   0.1530 
  6 C       -1.1650    -2.5050     0.1400 C.3   1 <1>  -0.1600 
  7 C       -2.4740     3.5260     0.2920 C.2   1 <1>   0.5970 
  8 C       -2.1990    -3.3390    -0.6260 C.3   1 <1>  -0.1600 
  9 N       -2.2240     4.8340     0.2000 N.2   1 <1>  -0.6610 
 10 C       -3.7770     2.9930     0.0240 C.2   1 <1>  -0.1240 
 11 C       -1.7730    -4.8070    -0.6990 C.3   1 <1>  -0.2400 
 12 C       -3.2090     5.6170    -0.1340 C.2   1 <1>   0.5500 
 13 C       -4.7770     3.8620    -0.2990 C.2   1 <1>  -0.0380 
 14 C       -4.0370     1.4910     0.1020 C.3   1 <1>  -0.0220 
 15 N       -4.4470     5.1730    -0.3780 N.pl3 1 <1>  -0.5500 
 16 N       -2.9630     6.9130    -0.2320 N.pl3 1 <1>  -0.8500 
 17 C       -6.2400     3.5460    -0.5810 C.3   1 <1>  -0.1020 
 18 C       -4.2810     1.0500     1.5490 C.3   1 <1>  -0.2400 
 19 H       -1.6560    -0.6090    -0.7670 H     1 <1>   0.0800 
 20 H       -2.5160    -0.9430     0.7520 H     1 <1>   0.0800 
 21 H       -1.0570    -2.8980     1.1370 H     1 <1>   0.0800 
 22 H       -0.2110    -2.5770    -0.3540 H     1 <1>   0.0800 
 23 H       -2.3100    -2.9570    -1.6270 H     1 <1>   0.0800 
 24 H       -3.1560    -3.2770    -0.1350 H     1 <1>   0.0800 
 25 H       -0.8290    -4.9030    -1.2060 H     1 <1>   0.0800 
 26 H       -2.5080    -5.3780    -1.2380 H     1 <1>   0.0800 
 27 H       -1.6770    -5.2230     0.2890 H     1 <1>   0.0800 
 28 H       -3.2170     0.9620    -0.3360 H     1 <1>   0.0800 
 29 H       -4.8940     1.2230    -0.4910 H     1 <1>   0.0800 
 30 H       -5.1500     5.8690    -0.6270 H     1 <1>   0.4000 
 31 H       -2.0210     7.2580    -0.0420 H     1 <1>   0.4000 
 32 H       -3.6450     7.6260    -0.4830 H     1 <1>   0.4000 
 33 H       -6.4160     3.5360    -1.6420 H     1 <1>   0.0800 
 34 H       -6.8710     4.2970    -0.1380 H     1 <1>   0.0800 
 35 H       -6.5420     2.6020    -0.1700 H     1 <1>   0.0800 
 36 H       -3.4240     1.2240     2.1720 H     1 <1>   0.0800 
 37 H       -4.5230     0.0010     1.5820 H     1 <1>   0.0800 
 38 H       -5.1150     1.5920     1.9620 H     1 <1>   0.0800 
@<TRIPOS>BOND
  1   1   2  1   
  2   1   3  1   
  3   2   4  2   
  4   2   5  1   
  5   3   6  1   
  6   3  19  1   
  7   3  20  1   
  8   4   5  1   
  9   5   7  2   
 10   6   8  1   
 11   6  21  1   
 12   6  22  1   
 13   7   9  1   
 14   7  10  1   
 15   8  11  1   
 16   8  23  1   
 17   8  24  1   
 18   9  12  2   
 19  10  13  2   
 20  10  14  1   
 21  11  25  1   
 22  11  26  1   
 23  11  27  1   
 24  12  15  1   
 25  12  16  1   
 26  13  15  1   
 27  13  17  1   
 28  14  18  1   
 29  14  28  1   
 30  14  29  1   
 31  15  30  1   
 32  16  31  1   
 33  16  32  1   
 34  17  33  1   
 35  17  34  1   
 36  17  35  1   
 37  18  36  1   
 38  18  37  1   
 39  18  38  1   
@<TRIPOS>SUBSTRUCTURE
  1 ****  14 GROUP 4 **** **** 0

# MOE 2024.06 (io_trps.svl 2023.06)
