@<TRIPOS>MOLECULE
NONAME
46 48 1 0 0 
SMALL
USER_CHARGES


@<TRIPOS>ATOM
  1 F       -1.3350     1.6970     1.8510 F     1 <1>  -0.1900 
  2 C       -2.2100     1.2900     0.9690 C.ar  1 <1>   0.1900 
  3 C       -1.8660     1.1850    -0.3680 C.ar  1 <1>   0.1900 
  4 C       -3.4840     0.9710     1.4010 C.ar  1 <1>  -0.1500 
  5 F       -0.6600     1.4920    -0.7700 F     1 <1>  -0.1900 
  6 C       -2.7920     0.7570    -1.3000 C.ar  1 <1>  -0.1500 
  7 C       -4.4280     0.5470     0.4700 C.ar  1 <1>  -0.1440 
  8 C       -4.0740     0.4370    -0.8740 C.ar  1 <1>  -0.1500 
  9 C       -5.8390     0.2020     0.9180 C.3   1 <1>   0.4870 
 10 N       -6.5670     1.4600     1.2330 N.4   1 <1>  -0.9590 
 11 C       -7.9090     1.1860     1.8660 C.3   1 <1>   0.3430 
 12 C       -6.7200     2.3480     0.0180 C.3   1 <1>   0.3430 
 13 C       -8.6730     2.4780     2.2270 C.3   1 <1>   0.2090 
 14 C       -7.4580     3.6660     0.3310 C.3   1 <1>   0.2090 
 15 N       -8.7260     3.4240     1.0770 N.pl3 1 <1>  -0.8380 
 16 C       -9.9220     3.5030     0.3640 C.ar  1 <1>   0.1000 
 17 C      -10.7840     4.5860     0.5350 C.ar  1 <1>  -0.1430 
 18 C      -10.2730     2.4970    -0.5310 C.ar  1 <1>  -0.1500 
 19 C      -11.9660     4.6420    -0.1820 C.ar  1 <1>  -0.1500 
 20 C      -10.4400     5.7110     1.5020 C.3   1 <1>  -0.0970 
 21 C      -11.4550     2.5530    -1.2470 C.ar  1 <1>  -0.1430 
 22 C      -12.3020     3.6330    -1.0680 C.ar  1 <1>  -0.1500 
 23 C      -11.8400     1.4570    -2.2240 C.3   1 <1>  -0.0970 
 24 H       -3.7080     1.0560     2.4500 H     1 <1>   0.1500 
 25 H       -2.5070     0.6740    -2.3360 H     1 <1>   0.1500 
 26 H       -4.7880     0.0980    -1.6070 H     1 <1>   0.1500 
 27 H       -5.7890    -0.4260     1.7930 H     1 <1>   0.0800 
 28 H       -6.3510    -0.3400     0.1400 H     1 <1>   0.0800 
 29 H       -6.0010     1.9860     1.9100 H     1 <1>   0.4500 
 30 H       -7.7840     0.5970     2.7600 H     1 <1>   0.0800 
 31 H       -8.5220     0.6210     1.1830 H     1 <1>   0.0800 
 32 H       -7.2780     1.8270    -0.7410 H     1 <1>   0.0800 
 33 H       -5.7510     2.5850    -0.3900 H     1 <1>   0.0800 
 34 H       -8.1980     2.9650     3.0600 H     1 <1>   0.0800 
 35 H       -9.6770     2.2270     2.5280 H     1 <1>   0.0800 
 36 H       -7.6780     4.1800    -0.5900 H     1 <1>   0.0800 
 37 H       -6.8250     4.3100     0.9160 H     1 <1>   0.0800 
 38 H       -9.6160     1.6630    -0.6680 H     1 <1>   0.1500 
 39 H      -12.6380     5.4730    -0.0570 H     1 <1>   0.1500 
 40 H      -10.3420     5.3180     2.4970 H     1 <1>   0.0800 
 41 H      -11.2040     6.4680     1.5060 H     1 <1>   0.0800 
 42 H       -9.5100     6.1650     1.2150 H     1 <1>   0.0800 
 43 H      -13.2260     3.6950    -1.6170 H     1 <1>   0.1500 
 44 H      -11.1150     0.6640    -2.2240 H     1 <1>   0.0800 
 45 H      -11.9060     1.8620    -3.2180 H     1 <1>   0.0800 
 46 H      -12.7960     1.0460    -1.9540 H     1 <1>   0.0800 
@<TRIPOS>BOND
  1   1   2  1   
  2   2   3  ar  
  3   2   4  ar  
  4   3   5  1   
  5   3   6  ar  
  6   4   7  ar  
  7   4  24  1   
  8   6   8  ar  
  9   6  25  1   
 10   7   8  ar  
 11   7   9  1   
 12   8  26  1   
 13   9  10  1   
 14   9  27  1   
 15   9  28  1   
 16  10  11  1   
 17  10  12  1   
 18  10  29  1   
 19  11  13  1   
 20  11  30  1   
 21  11  31  1   
 22  12  14  1   
 23  12  32  1   
 24  12  33  1   
 25  13  15  1   
 26  13  34  1   
 27  13  35  1   
 28  14  15  1   
 29  14  36  1   
 30  14  37  1   
 31  15  16  1   
 32  16  17  ar  
 33  16  18  ar  
 34  17  19  ar  
 35  17  20  1   
 36  18  21  ar  
 37  18  38  1   
 38  19  22  ar  
 39  19  39  1   
 40  20  40  1   
 41  20  41  1   
 42  20  42  1   
 43  21  22  ar  
 44  21  23  1   
 45  22  43  1   
 46  23  44  1   
 47  23  45  1   
 48  23  46  1   
@<TRIPOS>SUBSTRUCTURE
  1 ****  12 GROUP 4 **** **** 0

# MOE 2024.06 (io_trps.svl 2023.06)
