@<TRIPOS>MOLECULE
NONAME
40 43 1 0 0 
SMALL
USER_CHARGES


@<TRIPOS>ATOM
  1 BR       2.0920     0.5160    -1.9070 Br    1 <1>  -0.1110 
  2 C        1.4050     2.0410    -0.9510 C.ar  1 <1>   0.1110 
  3 C        1.9310     2.4030     0.2910 C.ar  1 <1>   0.0860 
  4 C        0.3670     2.7240    -1.5590 C.ar  1 <1>  -0.1500 
  5 C        3.0310     1.7190     0.9370 C.2   1 <1>   0.5440 
  6 C        1.3320     3.4990     0.9150 C.ar  1 <1>  -0.1500 
  7 C       -0.1930     3.8120    -0.9150 C.ar  1 <1>  -0.1500 
  8 O        2.9530     1.4150     2.1110 O.2   1 <1>  -0.5700 
  9 N        4.1860     1.4500     0.2620 N.am  1 <1>  -0.7300 
 10 C        0.2910     4.1950     0.3250 C.ar  1 <1>  -0.1500 
 11 C        5.3680     0.7440     0.8000 C.3   1 <1>   0.2200 
 12 C        6.6110     1.6560     0.7350 C.3   1 <1>  -0.0800 
 13 C        5.6320    -0.5440    -0.0080 C.3   1 <1>  -0.0800 
 14 C        7.7970     0.9090     1.3800 C.3   1 <1>  -0.1600 
 15 C        6.9760     1.9870    -0.7310 C.3   1 <1>  -0.1600 
 16 C        6.8200    -1.2890     0.6380 C.3   1 <1>  -0.1600 
 17 C        6.0000    -0.2130    -1.4730 C.3   1 <1>  -0.1600 
 18 C        8.0780    -0.3980     0.6130 C.3   1 <1>  -0.0800 
 19 C        7.2510     0.6870    -1.5120 C.3   1 <1>  -0.0800 
 20 C        8.4250    -0.0580    -0.8490 C.3   1 <1>  -0.1600 
 21 H       -0.0010     2.4060    -2.5180 H     1 <1>   0.1500 
 22 H        1.6960     3.8030     1.8830 H     1 <1>   0.1500 
 23 H       -1.0020     4.3560    -1.3720 H     1 <1>   0.1500 
 24 H        4.2510     1.6670    -0.7310 H     1 <1>   0.3700 
 25 H       -0.1470     5.0380     0.8330 H     1 <1>   0.1500 
 26 H        5.1810     0.4800     1.8280 H     1 <1>   0.0800 
 27 H        6.4180     2.5600     1.2860 H     1 <1>   0.0800 
 28 H        4.7590    -1.1720     0.0250 H     1 <1>   0.0800 
 29 H        7.5710     0.6860     2.4080 H     1 <1>   0.0800 
 30 H        8.6730     1.5350     1.3680 H     1 <1>   0.0800 
 31 H        7.8510     2.6130    -0.7510 H     1 <1>   0.0800 
 32 H        6.1790     2.5360    -1.1990 H     1 <1>   0.0800 
 33 H        7.0090    -2.2050     0.1060 H     1 <1>   0.0800 
 34 H        6.5770    -1.5470     1.6540 H     1 <1>   0.0800 
 35 H        6.1930    -1.1240    -2.0110 H     1 <1>   0.0800 
 36 H        5.1800     0.2780    -1.9650 H     1 <1>   0.0800 
 37 H        8.9030    -0.9190     1.0700 H     1 <1>   0.0800 
 38 H        7.5000     0.9210    -2.5330 H     1 <1>   0.0800 
 39 H        8.6360    -0.9630    -1.3930 H     1 <1>   0.0800 
 40 H        9.3090     0.5540    -0.8810 H     1 <1>   0.0800 
@<TRIPOS>BOND
  1   1   2  1   
  2   2   3  ar  
  3   2   4  ar  
  4   3   5  1   
  5   3   6  ar  
  6   4   7  ar  
  7   4  21  1   
  8   5   8  2   
  9   5   9  am  
 10   6  10  ar  
 11   6  22  1   
 12   7  10  ar  
 13   7  23  1   
 14   9  11  1   
 15   9  24  1   
 16  10  25  1   
 17  11  12  1   
 18  11  13  1   
 19  11  26  1   
 20  12  14  1   
 21  12  15  1   
 22  12  27  1   
 23  13  16  1   
 24  13  17  1   
 25  13  28  1   
 26  14  18  1   
 27  14  29  1   
 28  14  30  1   
 29  15  19  1   
 30  15  31  1   
 31  15  32  1   
 32  16  18  1   
 33  16  33  1   
 34  16  34  1   
 35  17  19  1   
 36  17  35  1   
 37  17  36  1   
 38  18  20  1   
 39  18  37  1   
 40  19  20  1   
 41  19  38  1   
 42  20  39  1   
 43  20  40  1   
@<TRIPOS>SUBSTRUCTURE
  1 ****   9 GROUP 4 **** **** 0

# MOE 2024.06 (io_trps.svl 2023.06)
