@<TRIPOS>MOLECULE
NONAME
45 47 1 0 0 
SMALL
USER_CHARGES


@<TRIPOS>ATOM
  1 BR      -0.3980    -0.3750     1.7830 Br    1 <1>  -0.0580 
  2 C       -2.2370     0.1110     1.5150 C.2   1 <1>   0.1980 
  3 O       -2.9920    -0.6970     0.8160 O.3   1 <1>  -0.2800 
  4 C       -2.8940     1.2010     1.9540 C.2   1 <1>  -0.1500 
  5 C       -4.2110    -0.1530     0.7640 C.2   1 <1>   0.0550 
  6 C       -4.1900     1.0260     1.4630 C.2   1 <1>  -0.1500 
  7 C       -5.2870    -0.8180     0.0610 C.2   1 <1>   0.7150 
  8 O       -5.3660    -2.0310     0.0280 O.2   1 <1>  -0.5700 
  9 N       -6.2990    -0.1430    -0.5570 N.am  1 <1>  -0.5470 
 10 C       -6.5250     1.2030    -0.8770 C.ar  1 <1>   0.1170 
 11 C       -7.8520     1.6570    -0.8940 C.ar  1 <1>   0.1000 
 12 C       -5.4970     2.0770    -1.2040 C.ar  1 <1>  -0.1500 
 13 N       -8.9060     0.7690    -0.6200 N.pl3 1 <1>  -0.8380 
 14 C       -8.1050     2.9900    -1.1910 C.ar  1 <1>  -0.1500 
 15 C       -5.7660     3.4020    -1.5040 C.ar  1 <1>  -0.1500 
 16 C       -9.8900     0.5620    -1.7310 C.3   1 <1>   0.2090 
 17 C       -9.5790     0.9600     0.7010 C.3   1 <1>   0.2090 
 18 C       -7.0710     3.8590    -1.4910 C.ar  1 <1>  -0.1500 
 19 C      -10.8420    -0.6060    -1.4240 C.3   1 <1>   0.1400 
 20 C      -10.5360    -0.2050     1.0190 C.3   1 <1>   0.1400 
 21 N      -11.5130    -0.4230    -0.0970 N.am  1 <1>  -0.6600 
 22 C      -12.8800    -0.3970     0.0120 C.2   1 <1>   0.5690 
 23 O      -13.5890    -0.4850    -0.9640 O.2   1 <1>  -0.5700 
 24 C      -13.5370    -0.2490     1.3830 C.3   1 <1>  -0.0990 
 25 C      -15.0720    -0.3740     1.3860 C.3   1 <1>  -0.2400 
 26 H       -2.5260     2.0200     2.5450 H     1 <1>   0.1500 
 27 H       -5.0090     1.7060     1.6210 H     1 <1>   0.1500 
 28 H       -7.1330    -0.7160    -0.6980 H     1 <1>   0.3700 
 29 H       -4.4810     1.7280    -1.2360 H     1 <1>   0.1500 
 30 H       -9.1170     3.3480    -1.1920 H     1 <1>   0.1500 
 31 H       -4.9610     4.0730    -1.7490 H     1 <1>   0.1500 
 32 H       -9.3590     0.3590    -2.6440 H     1 <1>   0.0800 
 33 H      -10.4720     1.4560    -1.8750 H     1 <1>   0.0800 
 34 H      -10.1340     1.8820     0.6910 H     1 <1>   0.0800 
 35 H       -8.8310     1.0280     1.4720 H     1 <1>   0.0800 
 36 H       -7.2830     4.8890    -1.7210 H     1 <1>   0.1500 
 37 H      -10.2790    -1.5230    -1.4090 H     1 <1>   0.0800 
 38 H      -11.5690    -0.6820    -2.2130 H     1 <1>   0.0800 
 39 H      -11.0390     0.0030     1.9430 H     1 <1>   0.0800 
 40 H       -9.9560    -1.1010     1.1540 H     1 <1>   0.0800 
 41 H      -13.2730     0.7140     1.7790 H     1 <1>   0.0800 
 42 H      -13.1370    -1.0060     2.0320 H     1 <1>   0.0800 
 43 H      -15.5080     0.3900     0.7640 H     1 <1>   0.0800 
 44 H      -15.4560    -0.2680     2.3850 H     1 <1>   0.0800 
 45 H      -15.3660    -1.3350     1.0010 H     1 <1>   0.0800 
@<TRIPOS>BOND
  1   1   2  1   
  2   2   3  1   
  3   2   4  2   
  4   3   5  1   
  5   4   6  1   
  6   4  26  1   
  7   5   6  2   
  8   5   7  1   
  9   6  27  1   
 10   7   8  2   
 11   7   9  am  
 12   9  10  1   
 13   9  28  1   
 14  10  11  ar  
 15  10  12  ar  
 16  11  13  1   
 17  11  14  ar  
 18  12  15  ar  
 19  12  29  1   
 20  13  16  1   
 21  13  17  1   
 22  14  18  ar  
 23  14  30  1   
 24  15  18  ar  
 25  15  31  1   
 26  16  19  1   
 27  16  32  1   
 28  16  33  1   
 29  17  20  1   
 30  17  34  1   
 31  17  35  1   
 32  18  36  1   
 33  19  21  1   
 34  19  37  1   
 35  19  38  1   
 36  20  21  1   
 37  20  39  1   
 38  20  40  1   
 39  21  22  am  
 40  22  23  2   
 41  22  24  1   
 42  24  25  1   
 43  24  41  1   
 44  24  42  1   
 45  25  43  1   
 46  25  44  1   
 47  25  45  1   
@<TRIPOS>SUBSTRUCTURE
  1 ****  13 GROUP 4 **** **** 0

# MOE 2024.06 (io_trps.svl 2023.06)
