@<TRIPOS>MOLECULE
NONAME
35 36 1 0 0 
SMALL
USER_CHARGES


@<TRIPOS>ATOM
  1 O        1.0400    -1.0230    -1.4190 O.3   1 <1>  -0.5600 
  2 C        1.6850     0.1570    -1.0130 C.3   1 <1>   0.1200 
  3 C        0.4480    -1.7450    -0.3740 C.3   1 <1>   0.1200 
  4 C        2.7180    -0.1140     0.1060 C.3   1 <1>   0.3430 
  5 C        1.5120    -2.2100     0.6490 C.3   1 <1>   0.3430 
  6 N        2.8480    -1.5860     0.3760 N.4   1 <1>  -0.9590 
  7 C        3.8920    -1.9220     1.3800 C.3   1 <1>   0.4860 
  8 C        5.2140    -1.3440     0.9130 C.ar  1 <1>  -0.1430 
  9 C        5.9330    -1.9000    -0.1430 C.ar  1 <1>  -0.1430 
 10 C        5.7040    -0.2170     1.5590 C.ar  1 <1>  -0.1500 
 11 C        7.1170    -1.2990    -0.5440 C.ar  1 <1>  -0.1500 
 12 C        5.4810    -3.1520    -0.8850 C.3   1 <1>  -0.0970 
 13 C        6.8870     0.3680     1.1510 C.ar  1 <1>  -0.1500 
 14 C        7.5970    -0.1680     0.0920 C.ar  1 <1>  -0.1430 
 15 C        8.8980     0.4710    -0.3620 C.3   1 <1>  -0.0970 
 16 H        0.9410     0.8610    -0.6810 H     1 <1>   0.0800 
 17 H        2.1770     0.5710    -1.8760 H     1 <1>   0.0800 
 18 H       -0.0540    -2.5960    -0.8020 H     1 <1>   0.0800 
 19 H       -0.2910    -1.1220     0.0990 H     1 <1>   0.0800 
 20 H        2.4120     0.4000     1.0010 H     1 <1>   0.0800 
 21 H        3.6710     0.2950    -0.1940 H     1 <1>   0.0800 
 22 H        1.5940    -3.2830     0.6020 H     1 <1>   0.0800 
 23 H        1.1750    -1.9530     1.6400 H     1 <1>   0.0800 
 24 H        3.1650    -1.9690    -0.5250 H     1 <1>   0.4500 
 25 H        3.9830    -2.9910     1.4810 H     1 <1>   0.0800 
 26 H        3.6320    -1.5090     2.3400 H     1 <1>   0.0800 
 27 H        5.1760     0.2210     2.3890 H     1 <1>   0.1500 
 28 H        7.6810    -1.7150    -1.3610 H     1 <1>   0.1500 
 29 H        4.7380    -2.9040    -1.6210 H     1 <1>   0.0800 
 30 H        5.0880    -3.8860    -0.2060 H     1 <1>   0.0800 
 31 H        6.3140    -3.6040    -1.3960 H     1 <1>   0.0800 
 32 H        7.2580     1.2410     1.6600 H     1 <1>   0.1500 
 33 H        9.7270    -0.0030     0.1320 H     1 <1>   0.0800 
 34 H        8.9080     1.5200    -0.1260 H     1 <1>   0.0800 
 35 H        9.0190     0.3620    -1.4250 H     1 <1>   0.0800 
@<TRIPOS>BOND
  1   1   2  1   
  2   1   3  1   
  3   2   4  1   
  4   2  16  1   
  5   2  17  1   
  6   3   5  1   
  7   3  18  1   
  8   3  19  1   
  9   4   6  1   
 10   4  20  1   
 11   4  21  1   
 12   5   6  1   
 13   5  22  1   
 14   5  23  1   
 15   6   7  1   
 16   6  24  1   
 17   7   8  1   
 18   7  25  1   
 19   7  26  1   
 20   8   9  ar  
 21   8  10  ar  
 22   9  11  ar  
 23   9  12  1   
 24  10  13  ar  
 25  10  27  1   
 26  11  14  ar  
 27  11  28  1   
 28  12  29  1   
 29  12  30  1   
 30  12  31  1   
 31  13  14  ar  
 32  13  32  1   
 33  14  15  1   
 34  15  33  1   
 35  15  34  1   
 36  15  35  1   
@<TRIPOS>SUBSTRUCTURE
  1 ****   8 GROUP 4 **** **** 0

# MOE 2024.06 (io_trps.svl 2023.06)
