@<TRIPOS>MOLECULE
NONAME
36 37 1 0 0 
SMALL
USER_CHARGES


@<TRIPOS>ATOM
  1 BR      -0.9730    -0.2350     1.9890 Br    1 <1>  -0.1110 
  2 C       -1.2250     1.5020     1.1990 C.ar  1 <1>   0.1110 
  3 C       -0.4950     2.5660     1.6910 C.ar  1 <1>  -0.1500 
  4 C       -2.1280     1.6380     0.1630 C.ar  1 <1>  -0.1500 
  5 C       -0.6750     3.8190     1.1230 C.ar  1 <1>  -0.1440 
  6 C       -2.3040     2.8890    -0.4040 C.ar  1 <1>  -0.1500 
  7 C       -1.5790     3.9830     0.0720 C.ar  1 <1>   0.0830 
  8 C        0.1040     5.0070     1.6440 C.3   1 <1>   0.4870 
  9 O       -1.7010     5.2330    -0.4530 O.3   1 <1>  -0.3630 
 10 N        0.9710     5.4720     0.5510 N.4   1 <1>  -0.9060 
 11 C       -2.7290     5.5370    -1.3770 C.3   1 <1>   0.0400 
 12 C        1.7720     6.6920     0.8280 C.3   1 <1>   0.3430 
 13 C        2.9850     6.7200    -0.1190 C.3   1 <1>   0.2000 
 14 O        3.4380     5.4140    -0.3120 O.3   1 <1>  -0.5600 
 15 C        4.1980     7.4630     0.4210 C.3   1 <1>  -0.1600 
 16 C        4.7720     5.4230    -0.7250 C.3   1 <1>   0.1200 
 17 C        5.3560     6.7580    -0.2660 C.3   1 <1>  -0.1600 
 18 H        0.1910     2.3970     2.5030 H     1 <1>   0.1500 
 19 H       -2.6780     0.7830    -0.1910 H     1 <1>   0.1500 
 20 H       -3.0060     2.9840    -1.2120 H     1 <1>   0.1500 
 21 H        0.6940     4.7230     2.5000 H     1 <1>   0.0800 
 22 H       -0.5840     5.7860     1.9310 H     1 <1>   0.0800 
 23 H        0.3670     5.5860    -0.2760 H     1 <1>   0.4500 
 24 H        1.6550     4.7390     0.2930 H     1 <1>   0.4500 
 25 H       -2.6930     6.5910    -1.5900 H     1 <1>   0.0800 
 26 H       -3.6810     5.2890    -0.9400 H     1 <1>   0.0800 
 27 H       -2.5670     4.9790    -2.2830 H     1 <1>   0.0800 
 28 H        2.1380     6.6610     1.8410 H     1 <1>   0.0800 
 29 H        1.1780     7.5840     0.7090 H     1 <1>   0.0800 
 30 H        2.7080     7.1130    -1.0830 H     1 <1>   0.0800 
 31 H        4.2740     7.3330     1.4870 H     1 <1>   0.0800 
 32 H        4.1660     8.5150     0.1930 H     1 <1>   0.0800 
 33 H        4.7980     5.3330    -1.7990 H     1 <1>   0.0800 
 34 H        5.2770     4.5850    -0.2750 H     1 <1>   0.0800 
 35 H        6.1890     6.6120     0.4000 H     1 <1>   0.0800 
 36 H        5.6940     7.3150    -1.1230 H     1 <1>   0.0800 
@<TRIPOS>BOND
  1   1   2  1   
  2   2   3  ar  
  3   2   4  ar  
  4   3   5  ar  
  5   3  18  1   
  6   4   6  ar  
  7   4  19  1   
  8   5   7  ar  
  9   5   8  1   
 10   6   7  ar  
 11   6  20  1   
 12   7   9  1   
 13   8  10  1   
 14   8  21  1   
 15   8  22  1   
 16   9  11  1   
 17  10  12  1   
 18  10  23  1   
 19  10  24  1   
 20  11  25  1   
 21  11  26  1   
 22  11  27  1   
 23  12  13  1   
 24  12  28  1   
 25  12  29  1   
 26  13  14  1   
 27  13  15  1   
 28  13  30  1   
 29  14  16  1   
 30  15  17  1   
 31  15  31  1   
 32  15  32  1   
 33  16  17  1   
 34  16  33  1   
 35  16  34  1   
 36  17  35  1   
 37  17  36  1   
@<TRIPOS>SUBSTRUCTURE
  1 ****  10 GROUP 4 **** **** 0

# MOE 2024.06 (io_trps.svl 2023.06)
