@<TRIPOS>MOLECULE
NONAME
36 36 1 0 0 
SMALL
USER_CHARGES


@<TRIPOS>ATOM
  1 O       -1.0200    -0.9830    -0.5490 O.2   1 <1>  -0.5700 
  2 C       -0.1080    -1.6860    -0.1680 C.2   1 <1>   0.4950 
  3 C       -0.3360    -2.9130     0.5170 C.2   1 <1>  -0.1360 
  4 C        1.3250    -1.1600    -0.4790 C.3   1 <1>   0.0610 
  5 C       -1.5030    -3.5220     0.8840 C.2   1 <1>   0.0720 
  6 C        1.5120     0.2300     0.1610 C.3   1 <1>  -0.2400 
  7 C        2.4770    -2.0530     0.0290 C.3   1 <1>  -0.2400 
  8 C        1.4980    -1.0160    -2.0040 C.3   1 <1>  -0.2400 
  9 N       -1.4570    -4.7330     1.5290 N.pl3 1 <1>  -0.9000 
 10 C       -2.8310    -3.0040     0.6560 C.ar  1 <1>   0.0280 
 11 C       -3.2890    -1.8570     1.3010 C.ar  1 <1>  -0.1500 
 12 C       -3.7120    -3.6610    -0.2000 C.ar  1 <1>  -0.1500 
 13 C       -4.5740    -1.3900     1.1030 C.ar  1 <1>  -0.1500 
 14 C       -5.0000    -3.2000    -0.4040 C.ar  1 <1>  -0.1500 
 15 C       -5.4430    -2.0550     0.2530 C.ar  1 <1>   0.0820 
 16 O       -6.6860    -1.5390     0.1140 O.3   1 <1>  -0.3620 
 17 C       -7.6230    -2.1000    -0.7760 C.3   1 <1>   0.0400 
 18 H        0.5460    -3.4500     0.7840 H     1 <1>   0.1500 
 19 H        2.4870     0.6290    -0.0580 H     1 <1>   0.0800 
 20 H        1.3950     0.1690     1.2280 H     1 <1>   0.0800 
 21 H        0.7750     0.9180    -0.2170 H     1 <1>   0.0800 
 22 H        3.4290    -1.6160    -0.2180 H     1 <1>   0.0800 
 23 H        2.4350    -3.0270    -0.4260 H     1 <1>   0.0800 
 24 H        2.4320    -2.1610     1.0990 H     1 <1>   0.0800 
 25 H        1.3730    -1.9700    -2.4860 H     1 <1>   0.0800 
 26 H        2.4720    -0.6320    -2.2480 H     1 <1>   0.0800 
 27 H        0.7600    -0.3420    -2.4020 H     1 <1>   0.0800 
 28 H       -0.5930    -5.2140     1.7940 H     1 <1>   0.4000 
 29 H       -2.3180    -5.1790     1.8650 H     1 <1>   0.4000 
 30 H       -2.6210    -1.3290     1.9570 H     1 <1>   0.1500 
 31 H       -3.3710    -4.5440    -0.7090 H     1 <1>   0.1500 
 32 H       -4.9130    -0.5020     1.6040 H     1 <1>   0.1500 
 33 H       -5.6410    -3.7390    -1.0740 H     1 <1>   0.1500 
 34 H       -8.5200    -1.5090    -0.7320 H     1 <1>   0.0800 
 35 H       -7.8340    -3.1090    -0.4700 H     1 <1>   0.0800 
 36 H       -7.2160    -2.0740    -1.7710 H     1 <1>   0.0800 
@<TRIPOS>BOND
  1   1   2  2   
  2   2   3  1   
  3   2   4  1   
  4   3   5  2   
  5   3  18  1   
  6   4   6  1   
  7   4   7  1   
  8   4   8  1   
  9   5   9  1   
 10   5  10  1   
 11   6  19  1   
 12   6  20  1   
 13   6  21  1   
 14   7  22  1   
 15   7  23  1   
 16   7  24  1   
 17   8  25  1   
 18   8  26  1   
 19   8  27  1   
 20   9  28  1   
 21   9  29  1   
 22  10  11  ar  
 23  10  12  ar  
 24  11  13  ar  
 25  11  30  1   
 26  12  14  ar  
 27  12  31  1   
 28  13  15  ar  
 29  13  32  1   
 30  14  15  ar  
 31  14  33  1   
 32  15  16  1   
 33  16  17  1   
 34  17  34  1   
 35  17  35  1   
 36  17  36  1   
@<TRIPOS>SUBSTRUCTURE
  1 ****  10 GROUP 4 **** **** 0

# MOE 2024.06 (io_trps.svl 2023.06)
