@<TRIPOS>MOLECULE
NONAME
40 41 1 0 0 
SMALL
USER_CHARGES


@<TRIPOS>ATOM
  1 O       -1.5740    -6.2780     0.7100 O.2   1 <1>  -0.5700 
  2 C       -1.6040    -5.1690     0.2390 C.2   1 <1>   0.6590 
  3 O       -2.6770    -4.6530    -0.3300 O.3   1 <1>  -0.4300 
  4 C       -0.3850    -4.2840     0.2890 C.3   1 <1>  -0.0990 
  5 C       -3.8890    -5.3670    -0.4280 C.3   1 <1>   0.1200 
  6 C        0.8880    -5.1360     0.2760 C.3   1 <1>   0.5660 
  7 C       -4.9040    -4.4780    -1.1370 C.3   1 <1>  -0.2400 
  8 N        1.0110    -5.9350     1.5060 N.4   1 <1>  -0.8530 
  9 C        2.1930    -4.3620     0.1550 C.ar  1 <1>  -0.1440 
 10 C        3.3130    -5.0130    -0.4300 C.ar  1 <1>   0.0000 
 11 C        2.3110    -3.0760     0.6280 C.ar  1 <1>  -0.1500 
 12 C        4.5510    -4.3240    -0.4830 C.ar  1 <1>   0.0000 
 13 C        3.2710    -6.3280    -0.9670 C.ar  1 <1>  -0.1500 
 14 C        3.5230    -2.3930     0.5510 C.ar  1 <1>  -0.1500 
 15 C        4.6300    -2.9980     0.0110 C.ar  1 <1>   0.0820 
 16 C        5.6740    -4.9850    -1.0300 C.ar  1 <1>  -0.1500 
 17 C        4.3780    -6.9330    -1.4920 C.ar  1 <1>  -0.1500 
 18 O        5.8330    -2.3760    -0.0750 O.3   1 <1>  -0.3620 
 19 C        5.5960    -6.2560    -1.5210 C.ar  1 <1>  -0.1500 
 20 C        6.0340    -1.0380     0.3270 C.3   1 <1>   0.0400 
 21 H       -0.4420    -3.6630     1.1620 H     1 <1>   0.0800 
 22 H       -0.3900    -3.6510    -0.5800 H     1 <1>   0.0800 
 23 H       -4.2240    -5.6160     0.5650 H     1 <1>   0.0800 
 24 H       -3.7130    -6.2710    -0.9870 H     1 <1>   0.0800 
 25 H        0.8050    -5.7980    -0.5700 H     1 <1>   0.0800 
 26 H       -5.0680    -3.5760    -0.5750 H     1 <1>   0.0800 
 27 H       -5.8420    -4.9970    -1.2260 H     1 <1>   0.0800 
 28 H       -4.5590    -4.2290    -2.1250 H     1 <1>   0.0800 
 29 H        1.1410    -5.3290     2.3190 H     1 <1>   0.4500 
 30 H        1.8260    -6.5520     1.4370 H     1 <1>   0.4500 
 31 H        0.1500    -6.4980     1.6210 H     1 <1>   0.4500 
 32 H        1.4940    -2.5370     1.0760 H     1 <1>   0.1500 
 33 H        2.3610    -6.8930    -0.9870 H     1 <1>   0.1500 
 34 H        3.5580    -1.3880     0.9290 H     1 <1>   0.1500 
 35 H        6.6150    -4.4650    -1.0610 H     1 <1>   0.1500 
 36 H        4.3340    -7.9310    -1.8960 H     1 <1>   0.1500 
 37 H        6.4640    -6.7420    -1.9350 H     1 <1>   0.1500 
 38 H        7.0610    -0.7830     0.1330 H     1 <1>   0.0800 
 39 H        5.8310    -0.9540     1.3800 H     1 <1>   0.0800 
 40 H        5.3860    -0.3990    -0.2460 H     1 <1>   0.0800 
@<TRIPOS>BOND
  1   1   2  2   
  2   2   3  1   
  3   2   4  1   
  4   3   5  1   
  5   4   6  1   
  6   4  21  1   
  7   4  22  1   
  8   5   7  1   
  9   5  23  1   
 10   5  24  1   
 11   6   8  1   
 12   6   9  1   
 13   6  25  1   
 14   7  26  1   
 15   7  27  1   
 16   7  28  1   
 17   8  29  1   
 18   8  30  1   
 19   8  31  1   
 20   9  10  ar  
 21   9  11  ar  
 22  10  12  ar  
 23  10  13  ar  
 24  11  14  ar  
 25  11  32  1   
 26  12  15  ar  
 27  12  16  ar  
 28  13  17  ar  
 29  13  33  1   
 30  14  15  ar  
 31  14  34  1   
 32  15  18  1   
 33  16  19  ar  
 34  16  35  1   
 35  17  19  ar  
 36  17  36  1   
 37  18  20  1   
 38  19  37  1   
 39  20  38  1   
 40  20  39  1   
 41  20  40  1   
@<TRIPOS>SUBSTRUCTURE
  1 ****   9 GROUP 4 **** **** 0

# MOE 2024.06 (io_trps.svl 2023.06)
