@<TRIPOS>MOLECULE
NONAME
50 51 1 0 0 
SMALL
USER_CHARGES


@<TRIPOS>ATOM
  1 O       -7.0110    -1.1580     0.4730 O.3   1 <1>  -0.3630 
  2 C       -8.3660    -1.1090     0.5190 C.ar  1 <1>   0.0830 
  3 C       -6.3300    -2.3750     0.2330 C.3   1 <1>   0.1200 
  4 C       -9.1910    -2.2060     0.2870 C.ar  1 <1>  -0.1500 
  5 C       -8.9370     0.1170     0.8180 C.ar  1 <1>  -0.1500 
  6 C       -4.8180    -2.1180     0.2560 C.3   1 <1>   0.2000 
  7 C      -10.5660    -2.0660     0.3560 C.ar  1 <1>  -0.1500 
  8 C      -10.3130     0.2530     0.8870 C.ar  1 <1>  -0.1500 
  9 O       -4.5350    -1.0890    -0.6350 O.3   1 <1>  -0.6800 
 10 C       -4.0110    -3.3940    -0.0920 C.3   1 <1>   0.1100 
 11 C      -11.1350    -0.8380     0.6570 C.ar  1 <1>  -0.1430 
 12 N       -2.5740    -3.1770    -0.3910 N.3   1 <1>  -0.8100 
 13 C      -12.6470    -0.6890     0.7300 C.3   1 <1>  -0.0170 
 14 C       -1.9020    -4.4060    -0.8470 C.3   1 <1>   0.1100 
 15 C       -1.8250    -2.4950     0.6820 C.3   1 <1>   0.1100 
 16 C      -13.2170    -0.3190    -0.6430 C.3   1 <1>  -0.1600 
 17 C       -0.4600    -4.1070    -1.3080 C.3   1 <1>   0.3430 
 18 C       -0.3850    -2.1810     0.2320 C.3   1 <1>   0.3430 
 19 C      -14.7400    -0.1620    -0.5980 C.3   1 <1>  -0.2400 
 20 N        0.3400    -3.4160    -0.2360 N.4   1 <1>  -0.9590 
 21 C        1.7130    -3.0840    -0.7160 C.3   1 <1>   0.2630 
 22 H       -6.6300    -2.7510    -0.7290 H     1 <1>   0.0800 
 23 H       -6.6040    -3.0740     1.0030 H     1 <1>   0.0800 
 24 H       -8.7890    -3.1720     0.0490 H     1 <1>   0.1500 
 25 H       -8.3010     0.9640     0.9960 H     1 <1>   0.1500 
 26 H       -4.5470    -1.7800     1.2400 H     1 <1>   0.0800 
 27 H      -11.1960    -2.9180     0.1730 H     1 <1>   0.1500 
 28 H      -10.7400     1.2130     1.1180 H     1 <1>   0.1500 
 29 H       -5.2440    -0.4150    -0.5600 H     1 <1>   0.4000 
 30 H       -4.4700    -3.8420    -0.9560 H     1 <1>   0.0800 
 31 H       -4.1060    -4.0930     0.7210 H     1 <1>   0.0800 
 32 H      -12.8980     0.0730     1.4470 H     1 <1>   0.0800 
 33 H      -13.0830    -1.6120     1.0690 H     1 <1>   0.0800 
 34 H       -2.4490    -4.8180    -1.6790 H     1 <1>   0.0800 
 35 H       -1.8930    -5.1380    -0.0580 H     1 <1>   0.0800 
 36 H       -1.8130    -3.1020     1.5710 H     1 <1>   0.0800 
 37 H       -2.3060    -1.5620     0.9190 H     1 <1>   0.0800 
 38 H      -12.9570    -1.0840    -1.3540 H     1 <1>   0.0800 
 39 H      -12.7720     0.6040    -0.9760 H     1 <1>   0.0800 
 40 H       -0.5120    -3.4790    -2.1820 H     1 <1>   0.0800 
 41 H        0.0200    -5.0300    -1.5890 H     1 <1>   0.0800 
 42 H        0.1500    -1.7260     1.0490 H     1 <1>   0.0800 
 43 H       -0.4370    -1.4650    -0.5720 H     1 <1>   0.0800 
 44 H      -15.2050    -1.0820    -0.2900 H     1 <1>   0.0800 
 45 H      -15.1110     0.0980    -1.5740 H     1 <1>   0.0800 
 46 H      -15.0180     0.6170     0.0910 H     1 <1>   0.0800 
 47 H        0.4000    -4.0570     0.5660 H     1 <1>   0.4500 
 48 H        1.6610    -2.4090    -1.5560 H     1 <1>   0.0800 
 49 H        2.2290    -3.9790    -1.0240 H     1 <1>   0.0800 
 50 H        2.2810    -2.6120     0.0690 H     1 <1>   0.0800 
@<TRIPOS>BOND
  1   1   2  1   
  2   1   3  1   
  3   2   4  ar  
  4   2   5  ar  
  5   3   6  1   
  6   3  22  1   
  7   3  23  1   
  8   4   7  ar  
  9   4  24  1   
 10   5   8  ar  
 11   5  25  1   
 12   6   9  1   
 13   6  10  1   
 14   6  26  1   
 15   7  11  ar  
 16   7  27  1   
 17   8  11  ar  
 18   8  28  1   
 19   9  29  1   
 20  10  12  1   
 21  10  30  1   
 22  10  31  1   
 23  11  13  1   
 24  12  14  1   
 25  12  15  1   
 26  13  16  1   
 27  13  32  1   
 28  13  33  1   
 29  14  17  1   
 30  14  34  1   
 31  14  35  1   
 32  15  18  1   
 33  15  36  1   
 34  15  37  1   
 35  16  19  1   
 36  16  38  1   
 37  16  39  1   
 38  17  20  1   
 39  17  40  1   
 40  17  41  1   
 41  18  20  1   
 42  18  42  1   
 43  18  43  1   
 44  19  44  1   
 45  19  45  1   
 46  19  46  1   
 47  20  21  1   
 48  20  47  1   
 49  21  48  1   
 50  21  49  1   
 51  21  50  1   
@<TRIPOS>SUBSTRUCTURE
  1 ****   3 GROUP 4 **** **** 0

# MOE 2024.06 (io_trps.svl 2023.06)
