@<TRIPOS>MOLECULE
NONAME
43 45 1 0 0 
SMALL
USER_CHARGES


@<TRIPOS>ATOM
  1 CL      -0.0940     0.3980     1.5690 Cl    1 <1>  -0.1770 
  2 C       -0.2290     2.0250     0.9500 C.ar  1 <1>   0.1770 
  3 C       -1.4730     2.5230     0.6170 C.ar  1 <1>  -0.1500 
  4 C        0.9150     2.7860     0.8080 C.ar  1 <1>  -0.1500 
  5 C       -1.5920     3.8170     0.1230 C.ar  1 <1>   0.1170 
  6 C        0.8110     4.0790     0.3230 C.ar  1 <1>  -0.1500 
  7 N       -2.8250     4.3880    -0.2330 N.am  1 <1>  -0.5470 
  8 C       -0.4360     4.5990    -0.0170 C.ar  1 <1>   0.0830 
  9 C       -4.0680     3.8770    -0.4570 C.2   1 <1>   0.6900 
 10 O       -0.6010     5.8710    -0.4930 O.3   1 <1>  -0.3630 
 11 O       -4.2690     2.6770    -0.4600 O.2   1 <1>  -0.5700 
 12 N       -5.1000     4.7470    -0.6950 N.am  1 <1>  -0.6600 
 13 C        0.5080     6.7020    -0.7600 C.3   1 <1>   0.0400 
 14 C       -6.4050     4.2550    -1.2320 C.3   1 <1>   0.1400 
 15 C       -5.1920     6.1010    -0.0660 C.3   1 <1>   0.1400 
 16 C       -7.4830     4.2600    -0.1370 C.3   1 <1>   0.1400 
 17 C       -6.2640     6.1060     1.0350 C.3   1 <1>   0.1400 
 18 N       -7.5740     5.6070     0.5080 N.am  1 <1>  -0.6600 
 19 C       -8.6460     6.4580     0.3200 C.2   1 <1>   0.7150 
 20 O       -8.4360     7.6590     0.3470 O.2   1 <1>  -0.5700 
 21 C       -9.9850     5.9500     0.1040 C.2   1 <1>   0.0550 
 22 O      -10.8290     6.5620    -0.7240 O.3   1 <1>  -0.2800 
 23 C      -10.6210     4.8630     0.6300 C.2   1 <1>  -0.1500 
 24 C      -11.9660     5.9050    -0.7390 C.2   1 <1>  -0.0100 
 25 C      -11.9030     4.8360     0.0810 C.2   1 <1>  -0.1500 
 26 H       -2.3340     1.8970     0.7480 H     1 <1>   0.1500 
 27 H        1.8690     2.3690     1.0750 H     1 <1>   0.1500 
 28 H        1.7100     4.6580     0.2220 H     1 <1>   0.1500 
 29 H       -2.7320     5.3570    -0.5300 H     1 <1>   0.3700 
 30 H        0.1410     7.6310    -1.1610 H     1 <1>   0.0800 
 31 H        1.1420     6.2190    -1.4830 H     1 <1>   0.0800 
 32 H        1.0370     6.8860     0.1580 H     1 <1>   0.0800 
 33 H       -6.2990     3.2590    -1.6280 H     1 <1>   0.0800 
 34 H       -6.7150     4.8940    -2.0400 H     1 <1>   0.0800 
 35 H       -5.4540     6.8260    -0.8180 H     1 <1>   0.0800 
 36 H       -4.2510     6.3930     0.3640 H     1 <1>   0.0800 
 37 H       -7.2310     3.5240     0.6080 H     1 <1>   0.0800 
 38 H       -8.4210     3.9800    -0.5790 H     1 <1>   0.0800 
 39 H       -6.3680     7.1020     1.4300 H     1 <1>   0.0800 
 40 H       -5.9450     5.4680     1.8410 H     1 <1>   0.0800 
 41 H      -10.2310     4.1560     1.3400 H     1 <1>   0.1500 
 42 H      -12.7680     6.2660    -1.3590 H     1 <1>   0.1500 
 43 H      -12.6650     4.1040     0.2890 H     1 <1>   0.1500 
@<TRIPOS>BOND
  1   1   2  1   
  2   2   3  ar  
  3   2   4  ar  
  4   3   5  ar  
  5   3  26  1   
  6   4   6  ar  
  7   4  27  1   
  8   5   7  1   
  9   5   8  ar  
 10   6   8  ar  
 11   6  28  1   
 12   7   9  am  
 13   7  29  1   
 14   8  10  1   
 15   9  11  2   
 16   9  12  am  
 17  10  13  1   
 18  12  14  1   
 19  12  15  1   
 20  13  30  1   
 21  13  31  1   
 22  13  32  1   
 23  14  16  1   
 24  14  33  1   
 25  14  34  1   
 26  15  17  1   
 27  15  35  1   
 28  15  36  1   
 29  16  18  1   
 30  16  37  1   
 31  16  38  1   
 32  17  18  1   
 33  17  39  1   
 34  17  40  1   
 35  18  19  am  
 36  19  20  2   
 37  19  21  1   
 38  21  22  1   
 39  21  23  2   
 40  22  24  1   
 41  23  25  1   
 42  23  41  1   
 43  24  25  2   
 44  24  42  1   
 45  25  43  1   
@<TRIPOS>SUBSTRUCTURE
  1 ****  12 GROUP 4 **** **** 0

# MOE 2024.06 (io_trps.svl 2023.06)
