@<TRIPOS>MOLECULE
NONAME
35 36 1 0 0 
SMALL
USER_CHARGES


@<TRIPOS>ATOM
  1 BR      -0.4470     0.2340    -0.6760 Br    1 <1>  -0.1110 
  2 C       -1.9970    -0.8830    -0.4310 C.ar  1 <1>   0.1110 
  3 C       -2.9580    -0.4990     0.4840 C.ar  1 <1>  -0.1500 
  4 C       -2.1090    -2.0410    -1.1760 C.ar  1 <1>  -0.1500 
  5 C       -4.0670    -1.3080     0.6550 C.ar  1 <1>  -0.1500 
  6 C       -3.2260    -2.8390    -0.9940 C.ar  1 <1>  -0.1500 
  7 C       -4.2140    -2.4840    -0.0760 C.ar  1 <1>   0.1000 
  8 N       -5.3580    -3.2670     0.1360 N.pl3 1 <1>  -0.6000 
  9 C       -5.6480    -4.5370    -0.2680 C.2   1 <1>  -0.0500 
 10 C       -6.8110    -5.2280    -0.0090 C.2   1 <1>   0.0290 
 11 C       -6.9640    -6.5600    -0.5150 C.2   1 <1>   0.4950 
 12 C       -7.8890    -4.6630     0.7570 C.2   1 <1>   0.4950 
 13 O       -6.1110    -7.1230    -1.1590 O.2   1 <1>  -0.5700 
 14 C       -8.2260    -7.3670    -0.2580 C.3   1 <1>  -0.0990 
 15 O       -7.8640    -3.5560     1.2450 O.2   1 <1>  -0.5700 
 16 C       -9.1600    -5.4540     1.0260 C.3   1 <1>  -0.0990 
 17 C       -9.4710    -6.4910    -0.0620 C.3   1 <1>   0.0000 
 18 C       -9.8570    -5.7950    -1.3800 C.3   1 <1>  -0.2400 
 19 C      -10.6510    -7.3670     0.3850 C.3   1 <1>  -0.2400 
 20 H       -2.8390     0.4090     1.0470 H     1 <1>   0.1500 
 21 H       -1.3430    -2.3090    -1.8810 H     1 <1>   0.1500 
 22 H       -4.8260    -1.0280     1.3630 H     1 <1>   0.1500 
 23 H       -3.3250    -3.7370    -1.5730 H     1 <1>   0.1500 
 24 H       -6.0940    -2.8110     0.7040 H     1 <1>   0.4000 
 25 H       -4.8810    -5.0330    -0.8410 H     1 <1>   0.1500 
 26 H       -8.3830    -8.0390    -1.0850 H     1 <1>   0.0800 
 27 H       -8.0550    -7.9690     0.6160 H     1 <1>   0.0800 
 28 H       -9.0440    -5.9400     1.9780 H     1 <1>   0.0800 
 29 H       -9.9830    -4.7670     1.1150 H     1 <1>   0.0800 
 30 H      -10.0790    -6.5250    -2.1400 H     1 <1>   0.0800 
 31 H       -9.0710    -5.1620    -1.7500 H     1 <1>   0.0800 
 32 H      -10.7340    -5.1850    -1.2400 H     1 <1>   0.0800 
 33 H      -10.4260    -7.8760     1.3070 H     1 <1>   0.0800 
 34 H      -10.8760    -8.1090    -0.3610 H     1 <1>   0.0800 
 35 H      -11.5310    -6.7680     0.5390 H     1 <1>   0.0800 
@<TRIPOS>BOND
  1   1   2  1   
  2   2   3  ar  
  3   2   4  ar  
  4   3   5  ar  
  5   3  20  1   
  6   4   6  ar  
  7   4  21  1   
  8   5   7  ar  
  9   5  22  1   
 10   6   7  ar  
 11   6  23  1   
 12   7   8  1   
 13   8   9  1   
 14   8  24  1   
 15   9  10  2   
 16   9  25  1   
 17  10  11  1   
 18  10  12  1   
 19  11  13  2   
 20  11  14  1   
 21  12  15  2   
 22  12  16  1   
 23  14  17  1   
 24  14  26  1   
 25  14  27  1   
 26  16  17  1   
 27  16  28  1   
 28  16  29  1   
 29  17  18  1   
 30  17  19  1   
 31  18  30  1   
 32  18  31  1   
 33  18  32  1   
 34  19  33  1   
 35  19  34  1   
 36  19  35  1   
@<TRIPOS>SUBSTRUCTURE
  1 ****   9 GROUP 4 **** **** 0

# MOE 2024.06 (io_trps.svl 2023.06)
