@<TRIPOS>MOLECULE
NONAME
31 31 1 0 0 
SMALL
USER_CHARGES


@<TRIPOS>ATOM
  1 S        0.0780     0.1470     0.3510 S.o2  1 <1>   1.4470 
  2 O        0.5230     0.2260     1.7240 O.2   1 <1>  -0.6500 
  3 O        0.0440     1.3310    -0.4750 O.2   1 <1>  -0.6500 
  4 N        1.1610    -0.8450    -0.4580 N.am  1 <1>  -0.9140 
  5 C       -1.4800    -0.7710     0.2400 C.ar  1 <1>  -0.0090 
  6 C        2.5500    -0.5530    -0.1160 C.3   1 <1>   0.1960 
  7 C       -2.5780    -0.2560    -0.4400 C.ar  1 <1>  -0.1500 
  8 C       -1.6110    -2.0220     0.8300 C.ar  1 <1>  -0.1500 
  9 C        3.4940    -1.4120    -0.9630 C.3   1 <1>   0.1200 
 10 C       -3.7690    -0.9570    -0.5380 C.ar  1 <1>  -0.1430 
 11 C       -2.7910    -2.7370     0.7440 C.ar  1 <1>  -0.1500 
 12 O        4.8120    -1.0740    -0.6860 O.3   1 <1>  -0.6800 
 13 C       -3.8810    -2.2100     0.0570 C.ar  1 <1>   0.0830 
 14 C       -4.9440    -0.3520    -1.2930 C.3   1 <1>  -0.0970 
 15 O       -5.0640    -2.8650    -0.0630 O.3   1 <1>  -0.3630 
 16 C       -5.2790    -4.1290     0.5230 C.3   1 <1>   0.0400 
 17 H        1.0240    -0.5800    -1.4320 H     1 <1>   0.4200 
 18 H        2.7180    -0.7740     0.9260 H     1 <1>   0.0800 
 19 H        2.7510     0.4920    -0.2900 H     1 <1>   0.0800 
 20 H       -2.4940     0.7140    -0.9010 H     1 <1>   0.1500 
 21 H       -0.7730    -2.4390     1.3640 H     1 <1>   0.1500 
 22 H        3.3240    -1.2590    -2.0150 H     1 <1>   0.0800 
 23 H        3.3650    -2.4530    -0.7210 H     1 <1>   0.0800 
 24 H       -2.8420    -3.7000     1.2160 H     1 <1>   0.1500 
 25 H        5.0220    -0.1700    -0.9950 H     1 <1>   0.4000 
 26 H       -4.6980     0.6150    -1.6910 H     1 <1>   0.0800 
 27 H       -5.7850    -0.2480    -0.6310 H     1 <1>   0.0800 
 28 H       -5.2250    -0.9980    -2.1060 H     1 <1>   0.0800 
 29 H       -6.2860    -4.4340     0.2980 H     1 <1>   0.0800 
 30 H       -5.1520    -4.0470     1.5880 H     1 <1>   0.0800 
 31 H       -4.5830    -4.8320     0.1020 H     1 <1>   0.0800 
@<TRIPOS>BOND
  1   1   2  2   
  2   1   3  2   
  3   1   4  am  
  4   1   5  1   
  5   4   6  1   
  6   4  17  1   
  7   5   7  ar  
  8   5   8  ar  
  9   6   9  1   
 10   6  18  1   
 11   6  19  1   
 12   7  10  ar  
 13   7  20  1   
 14   8  11  ar  
 15   8  21  1   
 16   9  12  1   
 17   9  22  1   
 18   9  23  1   
 19  10  13  ar  
 20  10  14  1   
 21  11  13  ar  
 22  11  24  1   
 23  12  25  1   
 24  13  15  1   
 25  14  26  1   
 26  14  27  1   
 27  14  28  1   
 28  15  16  1   
 29  16  29  1   
 30  16  30  1   
 31  16  31  1   
@<TRIPOS>SUBSTRUCTURE
  1 ****   5 GROUP 4 **** **** 0

# MOE 2024.06 (io_trps.svl 2023.06)
