@<TRIPOS>MOLECULE
NONAME
38 38 1 0 0 
SMALL
USER_CHARGES


@<TRIPOS>ATOM
  1 O       -1.1430     1.1420    -1.7320 O.2   1 <1>  -0.5700 
  2 C       -1.9430     1.4680    -0.9080 C.2   1 <1>   0.4480 
  3 C       -2.2210     2.9170    -0.5750 C.3   1 <1>   0.1030 
  4 C       -2.7580     0.4650    -0.1080 C.3   1 <1>   0.0420 
  5 C       -3.7020     3.1520    -0.7520 C.2   1 <1>   0.4480 
  6 C       -1.3930     3.8560    -1.4360 C.2   1 <1>   0.3290 
  7 C       -2.2290    -0.9580    -0.3140 C.2   1 <1>   0.6590 
  8 C       -4.2840     0.7130    -0.3460 C.3   1 <1>   0.0000 
  9 O       -4.1540     4.0180    -1.4350 O.2   1 <1>  -0.5700 
 10 C       -4.6050     2.1870    -0.0020 C.3   1 <1>  -0.0990 
 11 N       -0.4690     4.6200    -1.0340 N.2   1 <1>  -0.5130 
 12 O       -2.7900    -1.7610    -1.0080 O.2   1 <1>  -0.5700 
 13 O       -1.1650    -1.3500     0.3860 O.3   1 <1>  -0.4300 
 14 C       -5.1340    -0.1870     0.5690 C.3   1 <1>  -0.2400 
 15 C       -4.7160     0.4650    -1.8100 C.3   1 <1>  -0.2400 
 16 O       -0.1550     4.6290     0.2460 O.3   1 <1>  -0.2170 
 17 C       -0.0440    -0.5550     0.7150 C.3   1 <1>   0.0400 
 18 C        0.8170     5.5730     0.6330 C.3   1 <1>   0.1200 
 19 C        0.1410     6.9240     0.8740 C.3   1 <1>  -0.2400 
 20 H       -1.9880     3.0740     0.4590 H     1 <1>   0.0800 
 21 H       -2.5800     0.6770     0.9290 H     1 <1>   0.0800 
 22 H       -1.6650     3.8190    -2.4770 H     1 <1>   0.0600 
 23 H       -5.6300     2.4120    -0.2430 H     1 <1>   0.0800 
 24 H       -4.4830     2.3600     1.0530 H     1 <1>   0.0800 
 25 H       -4.8760    -0.0450     1.6040 H     1 <1>   0.0800 
 26 H       -4.9920    -1.2270     0.3270 H     1 <1>   0.0800 
 27 H       -6.1810     0.0330     0.4500 H     1 <1>   0.0800 
 28 H       -4.1140     1.0180    -2.5090 H     1 <1>   0.0800 
 29 H       -5.7410     0.7570    -1.9560 H     1 <1>   0.0800 
 30 H       -4.6490    -0.5760    -2.0710 H     1 <1>   0.0800 
 31 H        0.6670    -1.1810     1.2260 H     1 <1>   0.0800 
 32 H       -0.3430     0.2510     1.3590 H     1 <1>   0.0800 
 33 H        0.3990    -0.1810    -0.1920 H     1 <1>   0.0800 
 34 H        1.5600     5.6390    -0.1440 H     1 <1>   0.0800 
 35 H        1.2780     5.2140     1.5350 H     1 <1>   0.0800 
 36 H       -0.3150     7.2760    -0.0350 H     1 <1>   0.0800 
 37 H        0.8730     7.6450     1.1890 H     1 <1>   0.0800 
 38 H       -0.6070     6.8350     1.6400 H     1 <1>   0.0800 
@<TRIPOS>BOND
  1   1   2  2   
  2   2   3  1   
  3   2   4  1   
  4   3   5  1   
  5   3   6  1   
  6   3  20  1   
  7   4   7  1   
  8   4   8  1   
  9   4  21  1   
 10   5   9  2   
 11   5  10  1   
 12   6  11  2   
 13   6  22  1   
 14   7  12  2   
 15   7  13  1   
 16   8  10  1   
 17   8  14  1   
 18   8  15  1   
 19  10  23  1   
 20  10  24  1   
 21  11  16  1   
 22  13  17  1   
 23  14  25  1   
 24  14  26  1   
 25  14  27  1   
 26  15  28  1   
 27  15  29  1   
 28  15  30  1   
 29  16  18  1   
 30  17  31  1   
 31  17  32  1   
 32  17  33  1   
 33  18  19  1   
 34  18  34  1   
 35  18  35  1   
 36  19  36  1   
 37  19  37  1   
 38  19  38  1   
@<TRIPOS>SUBSTRUCTURE
  1 ****   2 GROUP 4 **** **** 0

# MOE 2024.06 (io_trps.svl 2023.06)
