@<TRIPOS>MOLECULE
NONAME
46 47 1 0 0 
SMALL
USER_CHARGES


@<TRIPOS>ATOM
  1 O       -0.3610     0.1490    -0.9630 O.2   1 <1>  -0.5700 
  2 C       -0.2290     1.3160    -0.6550 C.2   1 <1>   0.5440 
  3 N        0.9970     1.8000    -0.2780 N.am  1 <1>  -0.7300 
  4 C       -1.3860     2.1970    -0.6640 C.ar  1 <1>   0.0860 
  5 C        2.3220     1.1500    -0.2190 C.3   1 <1>   0.3000 
  6 C       -2.6670     1.6900    -0.4520 C.ar  1 <1>  -0.1500 
  7 C       -1.2700     3.5710    -0.8850 C.ar  1 <1>  -0.1500 
  8 C        3.2870     2.2720     0.2610 C.3   1 <1>  -0.1600 
  9 C        2.2270     0.0040     0.7980 C.3   1 <1>  -0.2400 
 10 C        2.6590     0.6170    -1.6130 C.3   1 <1>  -0.2400 
 11 C       -3.7940     2.5030    -0.4420 C.ar  1 <1>  -0.0230 
 12 C       -2.3780     4.3970    -0.8760 C.ar  1 <1>  -0.1500 
 13 C        4.8420     2.1870     0.1930 C.3   1 <1>   0.0000 
 14 N       -5.0830     1.9500    -0.2200 N.pl3 1 <1>   0.3260 
 15 C       -3.6350     3.8680    -0.6530 C.ar  1 <1>  -0.1500 
 16 C        5.3980     3.3270     1.0640 C.3   1 <1>  -0.2400 
 17 C        5.4170     0.8740     0.7380 C.3   1 <1>  -0.2400 
 18 C        5.3770     2.4200    -1.2310 C.3   1 <1>  -0.2400 
 19 C       -6.2390     2.2130    -0.8460 C.2   1 <1>   0.0360 
 20 C       -5.4730     1.0410     0.6840 C.2   1 <1>   0.0360 
 21 N       -7.2250     1.5370    -0.3700 N.2   1 <1>  -0.3380 
 22 N       -6.7330     0.7830     0.6150 N.2   1 <1>  -0.3380 
 23 H        1.0210     2.7460     0.0960 H     1 <1>   0.3700 
 24 H       -2.7720     0.6290    -0.2990 H     1 <1>   0.1500 
 25 H       -0.3020     4.0000    -1.0760 H     1 <1>   0.1500 
 26 H        3.0280     2.4590     1.2890 H     1 <1>   0.0800 
 27 H        3.0250     3.1650    -0.2780 H     1 <1>   0.0800 
 28 H        1.9700     0.3800     1.7710 H     1 <1>   0.0800 
 29 H        3.1520    -0.5300     0.8730 H     1 <1>   0.0800 
 30 H        1.4830    -0.7100     0.4970 H     1 <1>   0.0800 
 31 H        1.9080    -0.0700    -1.9560 H     1 <1>   0.0800 
 32 H        2.7360     1.4260    -2.3160 H     1 <1>   0.0800 
 33 H        3.5840     0.0770    -1.5940 H     1 <1>   0.0800 
 34 H       -2.2630     5.4550    -1.0460 H     1 <1>   0.1500 
 35 H       -4.4900     4.5240    -0.6430 H     1 <1>   0.1500 
 36 H        5.0990     3.2050     2.0910 H     1 <1>   0.0800 
 37 H        5.0390     4.2810     0.7180 H     1 <1>   0.0800 
 38 H        6.4740     3.3450     1.0340 H     1 <1>   0.0800 
 39 H        5.0410     0.6780     1.7270 H     1 <1>   0.0800 
 40 H        6.4900     0.9280     0.7940 H     1 <1>   0.0800 
 41 H        5.1710     0.0480     0.0980 H     1 <1>   0.0800 
 42 H        4.9630     3.3190    -1.6520 H     1 <1>   0.0800 
 43 H        5.1490     1.6030    -1.8860 H     1 <1>   0.0800 
 44 H        6.4480     2.5230    -1.2160 H     1 <1>   0.0800 
 45 H       -6.3080     2.9130    -1.6580 H     1 <1>   0.1500 
 46 H       -4.7910     0.5930     1.3820 H     1 <1>   0.1500 
@<TRIPOS>BOND
  1   1   2  2   
  2   2   3  am  
  3   2   4  1   
  4   3   5  1   
  5   3  23  1   
  6   4   6  ar  
  7   4   7  ar  
  8   5   8  1   
  9   5   9  1   
 10   5  10  1   
 11   6  11  ar  
 12   6  24  1   
 13   7  12  ar  
 14   7  25  1   
 15   8  13  1   
 16   8  26  1   
 17   8  27  1   
 18   9  28  1   
 19   9  29  1   
 20   9  30  1   
 21  10  31  1   
 22  10  32  1   
 23  10  33  1   
 24  11  14  1   
 25  11  15  ar  
 26  12  15  ar  
 27  12  34  1   
 28  13  16  1   
 29  13  17  1   
 30  13  18  1   
 31  14  19  1   
 32  14  20  1   
 33  15  35  1   
 34  16  36  1   
 35  16  37  1   
 36  16  38  1   
 37  17  39  1   
 38  17  40  1   
 39  17  41  1   
 40  18  42  1   
 41  18  43  1   
 42  18  44  1   
 43  19  21  2   
 44  19  45  1   
 45  20  22  2   
 46  20  46  1   
 47  21  22  1   
@<TRIPOS>SUBSTRUCTURE
  1 ****   2 GROUP 4 **** **** 0

# MOE 2024.06 (io_trps.svl 2023.06)
