@<TRIPOS>MOLECULE
NONAME
39 41 1 0 0 
SMALL
USER_CHARGES


@<TRIPOS>ATOM
  1 S        0.1500     0.3150    -0.1090 S.3   1 <1>  -0.0800 
  2 C        1.6590    -0.5330    -0.0240 C.2   1 <1>   0.4420 
  3 C       -0.6280    -1.1840     0.2640 C.2   1 <1>   0.1980 
  4 N        1.5020    -1.7750     0.2540 N.2   1 <1>  -0.3380 
  5 N        2.7980     0.2110    -0.2550 N.am  1 <1>  -0.4940 
  6 N        0.1930    -2.1400     0.4170 N.2   1 <1>  -0.3380 
  7 C       -2.1360    -1.2010     0.3640 C.3   1 <1>  -0.0600 
  8 C        4.1040    -0.1930    -0.2660 C.2   1 <1>   0.5690 
  9 O        4.4470    -1.3330    -0.0960 O.2   1 <1>  -0.5700 
 10 C        5.1690     0.8630    -0.5300 C.3   1 <1>  -0.0190 
 11 C        6.6070     0.3630    -0.3250 C.3   1 <1>   0.1400 
 12 C        5.0670     2.1010     0.3730 C.3   1 <1>  -0.0990 
 13 N        7.3600     1.5620     0.1030 N.am  1 <1>  -0.4770 
 14 C        6.4980     2.5420     0.5050 C.2   1 <1>   0.5690 
 15 C        8.7690     1.5940     0.0460 C.ar  1 <1>   0.1170 
 16 O        6.7760     3.6410     0.9140 O.2   1 <1>  -0.5700 
 17 C        9.5190     0.4420     0.2650 C.ar  1 <1>  -0.1500 
 18 C        9.4520     2.7720    -0.2420 C.ar  1 <1>  -0.1500 
 19 C       10.9010     0.4560     0.1940 C.ar  1 <1>   0.0820 
 20 C       10.8330     2.8000    -0.3130 C.ar  1 <1>  -0.1500 
 21 O       11.5340    -0.7230     0.4210 O.3   1 <1>  -0.3630 
 22 C       11.5630     1.6450    -0.0970 C.ar  1 <1>  -0.1500 
 23 C       12.9420    -0.8120     0.4060 C.3   1 <1>   0.0400 
 24 H        2.6260     1.1940    -0.4400 H     1 <1>   0.3700 
 25 H       -2.4590    -0.5310     1.1400 H     1 <1>   0.0800 
 26 H       -2.4730    -2.1940     0.5990 H     1 <1>   0.0800 
 27 H       -2.5690    -0.8980    -0.5710 H     1 <1>   0.0800 
 28 H        5.0840     1.1720    -1.5570 H     1 <1>   0.0800 
 29 H        7.0160    -0.0480    -1.2320 H     1 <1>   0.0800 
 30 H        6.6560    -0.3730     0.4610 H     1 <1>   0.0800 
 31 H        4.7010     1.8500     1.3520 H     1 <1>   0.0800 
 32 H        4.4690     2.8800    -0.0630 H     1 <1>   0.0800 
 33 H        9.0360    -0.4860     0.5020 H     1 <1>   0.1500 
 34 H        8.9000     3.6790    -0.4130 H     1 <1>   0.1500 
 35 H       11.3380     3.7230    -0.5350 H     1 <1>   0.1500 
 36 H       12.6330     1.6910    -0.1590 H     1 <1>   0.1500 
 37 H       13.2140    -1.8300     0.6220 H     1 <1>   0.0800 
 38 H       13.3400    -0.1590     1.1620 H     1 <1>   0.0800 
 39 H       13.2980    -0.5380    -0.5710 H     1 <1>   0.0800 
@<TRIPOS>BOND
  1   1   2  1   
  2   1   3  1   
  3   2   4  2   
  4   2   5  1   
  5   3   6  2   
  6   3   7  1   
  7   4   6  1   
  8   5   8  am  
  9   5  24  1   
 10   7  25  1   
 11   7  26  1   
 12   7  27  1   
 13   8   9  2   
 14   8  10  1   
 15  10  11  1   
 16  10  12  1   
 17  10  28  1   
 18  11  13  1   
 19  11  29  1   
 20  11  30  1   
 21  12  14  1   
 22  12  31  1   
 23  12  32  1   
 24  13  14  am  
 25  13  15  1   
 26  14  16  2   
 27  15  17  ar  
 28  15  18  ar  
 29  17  19  ar  
 30  17  33  1   
 31  18  20  ar  
 32  18  34  1   
 33  19  21  1   
 34  19  22  ar  
 35  20  22  ar  
 36  20  35  1   
 37  21  23  1   
 38  22  36  1   
 39  23  37  1   
 40  23  38  1   
 41  23  39  1   
@<TRIPOS>SUBSTRUCTURE
  1 ****  11 GROUP 4 **** **** 0

# MOE 2024.06 (io_trps.svl 2023.06)
