@<TRIPOS>MOLECULE
NONAME
45 47 1 0 0 
SMALL
USER_CHARGES


@<TRIPOS>ATOM
  1 S        0.8730    -0.9180     0.8450 S.3   1 <1>  -0.2860 
  2 C       -0.9190    -1.0250     0.9440 C.2   1 <1>   0.2420 
  3 C        1.3120     0.5980     1.8290 C.3   1 <1>   0.1310 
  4 N       -1.6590    -0.2510     1.6560 N.2   1 <1>  -0.3380 
  5 N       -1.6080    -1.9320     0.2550 N.pl3 1 <1>   0.0480 
  6 C        1.7940     1.7100     0.9080 C.2   1 <1>   0.5690 
  7 N       -2.9150    -0.6430     1.4310 N.2   1 <1>  -0.3380 
  8 C       -2.8710    -1.6360     0.6020 C.2   1 <1>   0.0060 
  9 C       -1.0770    -2.9670    -0.6560 C.3   1 <1>   0.0160 
 10 O        2.9880     1.8810     0.8160 O.2   1 <1>  -0.5700 
 11 N        0.9100     2.5020     0.2230 N.am  1 <1>  -0.6600 
 12 C       -4.0840    -2.3900     0.0710 C.3   1 <1>   0.0200 
 13 C       -0.5670     2.4130     0.2580 C.3   1 <1>   0.1400 
 14 C        1.3550     3.5800    -0.6840 C.3   1 <1>   0.1400 
 15 C       -5.4160    -1.8240     0.5790 C.3   1 <1>  -0.0160 
 16 C       -1.0470     3.6670    -0.4630 C.3   1 <1>  -0.1600 
 17 C        0.0930     4.0240    -1.4130 C.3   1 <1>  -0.1600 
 18 C       -6.5760    -2.6090    -0.0120 C.ar  1 <1>  -0.1430 
 19 C       -7.0760    -3.7220     0.6460 C.ar  1 <1>  -0.1500 
 20 C       -7.1400    -2.2210    -1.2180 C.ar  1 <1>  -0.1500 
 21 C       -8.1260    -4.4420     0.1030 C.ar  1 <1>  -0.1500 
 22 C       -8.1890    -2.9410    -1.7630 C.ar  1 <1>  -0.1500 
 23 C       -8.6830    -4.0530    -1.1030 C.ar  1 <1>  -0.1500 
 24 H        2.1010     0.3110     2.4970 H     1 <1>   0.0800 
 25 H        0.4580     0.9050     2.4000 H     1 <1>   0.0800 
 26 H       -0.3270    -3.5410    -0.1410 H     1 <1>   0.0800 
 27 H       -0.6330    -2.4900    -1.5110 H     1 <1>   0.0800 
 28 H       -1.8650    -3.6200    -0.9790 H     1 <1>   0.0800 
 29 H       -4.0120    -3.4210     0.3660 H     1 <1>   0.0800 
 30 H       -4.0790    -2.3470    -1.0030 H     1 <1>   0.0800 
 31 H       -0.9390     2.3760     1.2680 H     1 <1>   0.0800 
 32 H       -0.8820     1.5360    -0.2810 H     1 <1>   0.0800 
 33 H        2.1070     3.2200    -1.3660 H     1 <1>   0.0800 
 34 H        1.7600     4.3860    -0.0960 H     1 <1>   0.0800 
 35 H       -5.4990    -0.7870     0.3020 H     1 <1>   0.0800 
 36 H       -5.4480    -1.8770     1.6530 H     1 <1>   0.0800 
 37 H       -1.1820     4.4540     0.2600 H     1 <1>   0.0800 
 38 H       -1.9770     3.5000    -0.9770 H     1 <1>   0.0800 
 39 H        0.0000     3.4590    -2.3240 H     1 <1>   0.0800 
 40 H        0.1170     5.0730    -1.6520 H     1 <1>   0.0800 
 41 H       -6.6510    -4.0320     1.5840 H     1 <1>   0.1500 
 42 H       -6.7640    -1.3580    -1.7390 H     1 <1>   0.1500 
 43 H       -8.5100    -5.3050     0.6180 H     1 <1>   0.1500 
 44 H       -8.6230    -2.6350    -2.6990 H     1 <1>   0.1500 
 45 H       -9.4990    -4.6120    -1.5250 H     1 <1>   0.1500 
@<TRIPOS>BOND
  1   1   2  1   
  2   1   3  1   
  3   2   4  2   
  4   2   5  1   
  5   3   6  1   
  6   3  24  1   
  7   3  25  1   
  8   4   7  1   
  9   5   8  1   
 10   5   9  1   
 11   6  10  2   
 12   6  11  am  
 13   7   8  2   
 14   8  12  1   
 15   9  26  1   
 16   9  27  1   
 17   9  28  1   
 18  11  13  1   
 19  11  14  1   
 20  12  15  1   
 21  12  29  1   
 22  12  30  1   
 23  13  16  1   
 24  13  31  1   
 25  13  32  1   
 26  14  17  1   
 27  14  33  1   
 28  14  34  1   
 29  15  18  1   
 30  15  35  1   
 31  15  36  1   
 32  16  17  1   
 33  16  37  1   
 34  16  38  1   
 35  17  39  1   
 36  17  40  1   
 37  18  19  ar  
 38  18  20  ar  
 39  19  21  ar  
 40  19  41  1   
 41  20  22  ar  
 42  20  42  1   
 43  21  23  ar  
 44  21  43  1   
 45  22  23  ar  
 46  22  44  1   
 47  23  45  1   
@<TRIPOS>SUBSTRUCTURE
  1 ****   8 GROUP 4 **** **** 0

# MOE 2024.06 (io_trps.svl 2023.06)
