@<TRIPOS>MOLECULE
NONAME
50 52 1 0 0 
SMALL
USER_CHARGES


@<TRIPOS>ATOM
  1 F        2.1780     2.5730     1.7140 F     1 <1>  -0.3400 
  2 C        1.9940     2.6250     0.3990 C.3   1 <1>   1.1640 
  3 F        0.7930     2.1070     0.1730 F     1 <1>  -0.3400 
  4 F        1.9090     3.9120     0.0860 F     1 <1>  -0.3400 
  5 C        3.0980     1.9110    -0.3960 C.ar  1 <1>  -0.1440 
  6 C        4.2920     1.5210     0.2010 C.ar  1 <1>  -0.1500 
  7 C        2.9170     1.6460    -1.7510 C.ar  1 <1>  -0.1500 
  8 C        5.2870     0.8780    -0.5210 C.ar  1 <1>   0.1000 
  9 C        3.9030     1.0060    -2.4820 C.ar  1 <1>  -0.1500 
 10 N        6.4620     0.5020     0.1190 N.pl3 1 <1>  -0.8380 
 11 C        5.0800     0.6230    -1.8700 C.ar  1 <1>  -0.1500 
 12 C        7.7080     1.2030    -0.3130 C.3   1 <1>   0.2090 
 13 C        6.6370    -0.9600     0.3650 C.3   1 <1>   0.2090 
 14 C        8.8600     0.9380     0.6800 C.3   1 <1>   0.3430 
 15 C        7.7920    -1.2170     1.3570 C.3   1 <1>   0.3430 
 16 N        9.0660    -0.5330     0.9410 N.4   1 <1>  -0.9590 
 17 C       10.1870    -0.7850     1.8780 C.3   1 <1>   0.4860 
 18 C       11.4700    -0.3020     1.2290 C.ar  1 <1>  -0.1430 
 19 C       11.8810    -0.8300     0.0070 C.ar  1 <1>   0.0830 
 20 C       12.2380     0.6680     1.8560 C.ar  1 <1>  -0.1500 
 21 O       11.0860    -1.7700    -0.5720 O.3   1 <1>  -0.3630 
 22 C       13.0630    -0.3770    -0.5740 C.ar  1 <1>  -0.1500 
 23 C       13.4090     1.1140     1.2710 C.ar  1 <1>  -0.1500 
 24 C       11.5210    -2.5090    -1.6930 C.3   1 <1>   0.1200 
 25 C       13.8200     0.5920     0.0580 C.ar  1 <1>  -0.1500 
 26 C       10.4420    -3.5340    -2.0280 C.3   1 <1>  -0.2400 
 27 H        4.4730     1.7100     1.2440 H     1 <1>   0.1500 
 28 H        2.0040     1.9390    -2.2440 H     1 <1>   0.1500 
 29 H        3.7480     0.8070    -3.5290 H     1 <1>   0.1500 
 30 H        5.8410     0.1260    -2.4420 H     1 <1>   0.1500 
 31 H        7.5190     2.2620    -0.3660 H     1 <1>   0.0800 
 32 H        7.9920     0.8680    -1.2950 H     1 <1>   0.0800 
 33 H        6.8360    -1.4630    -0.5650 H     1 <1>   0.0800 
 34 H        5.7230    -1.3620     0.7690 H     1 <1>   0.0800 
 35 H        8.6260     1.4390     1.6040 H     1 <1>   0.0800 
 36 H        9.7660     1.3720     0.2880 H     1 <1>   0.0800 
 37 H        7.9550    -2.2790     1.4380 H     1 <1>   0.0800 
 38 H        7.4870    -0.8530     2.3240 H     1 <1>   0.0800 
 39 H        9.3980    -0.9560     0.0560 H     1 <1>   0.4500 
 40 H       10.2740    -1.8410     2.0740 H     1 <1>   0.0800 
 41 H       10.0210    -0.2710     2.8100 H     1 <1>   0.0800 
 42 H       11.9420     1.0850     2.8040 H     1 <1>   0.1500 
 43 H       13.4130    -0.7600    -1.5150 H     1 <1>   0.1500 
 44 H       14.0060     1.8670     1.7590 H     1 <1>   0.1500 
 45 H       12.4470    -3.0000    -1.4430 H     1 <1>   0.0800 
 46 H       11.6710    -1.8330    -2.5180 H     1 <1>   0.0800 
 47 H       14.7340     0.9410    -0.3930 H     1 <1>   0.1500 
 48 H       10.2890    -4.2010    -1.1990 H     1 <1>   0.0800 
 49 H       10.7520    -4.1170    -2.8770 H     1 <1>   0.0800 
 50 H        9.5190    -3.0410    -2.2770 H     1 <1>   0.0800 
@<TRIPOS>BOND
  1   1   2  1   
  2   2   3  1   
  3   2   4  1   
  4   2   5  1   
  5   5   6  ar  
  6   5   7  ar  
  7   6   8  ar  
  8   6  27  1   
  9   7   9  ar  
 10   7  28  1   
 11   8  10  1   
 12   8  11  ar  
 13   9  11  ar  
 14   9  29  1   
 15  10  12  1   
 16  10  13  1   
 17  11  30  1   
 18  12  14  1   
 19  12  31  1   
 20  12  32  1   
 21  13  15  1   
 22  13  33  1   
 23  13  34  1   
 24  14  16  1   
 25  14  35  1   
 26  14  36  1   
 27  15  16  1   
 28  15  37  1   
 29  15  38  1   
 30  16  17  1   
 31  16  39  1   
 32  17  18  1   
 33  17  40  1   
 34  17  41  1   
 35  18  19  ar  
 36  18  20  ar  
 37  19  21  1   
 38  19  22  ar  
 39  20  23  ar  
 40  20  42  1   
 41  21  24  1   
 42  22  25  ar  
 43  22  43  1   
 44  23  25  ar  
 45  23  44  1   
 46  24  26  1   
 47  24  45  1   
 48  24  46  1   
 49  25  47  1   
 50  26  48  1   
 51  26  49  1   
 52  26  50  1   
@<TRIPOS>SUBSTRUCTURE
  1 ****  12 GROUP 4 **** **** 0

# MOE 2024.06 (io_trps.svl 2023.06)
