@<TRIPOS>MOLECULE
NONAME
47 48 1 0 0 
SMALL
USER_CHARGES


@<TRIPOS>ATOM
  1 S        0.2820     0.4890    -1.7500 S.3   1 <1>  -0.2860 
  2 C        0.2570    -1.1180    -0.9370 C.2   1 <1>   0.2420 
  3 C       -1.4410     0.7210    -2.4140 C.3   1 <1>   0.1310 
  4 N       -0.7560    -1.9100    -0.9420 N.2   1 <1>  -0.3380 
  5 N        1.3100    -1.5860    -0.2530 N.pl3 1 <1>   0.3260 
  6 C       -2.1230     1.9130    -1.7510 C.2   1 <1>   0.5690 
  7 N       -0.3930    -2.9710    -0.2160 N.2   1 <1>  -0.3380 
  8 C        2.5830    -1.0080    -0.0140 C.ar  1 <1>  -0.0230 
  9 C        0.8190    -2.7650     0.1800 C.2   1 <1>   0.0060 
 10 O       -2.1380     2.9420    -2.3880 O.2   1 <1>  -0.5700 
 11 N       -2.7230     1.8300    -0.5120 N.am  1 <1>  -0.6600 
 12 C        3.7240    -1.5520    -0.5900 C.ar  1 <1>  -0.1500 
 13 C        2.7110     0.1040     0.8070 C.ar  1 <1>  -0.1500 
 14 C        1.6050    -3.7320     1.0470 C.3   1 <1>  -0.0600 
 15 C       -2.7820     0.6000     0.3260 C.3   1 <1>   0.1400 
 16 C       -3.4030     3.0200     0.0680 C.3   1 <1>   0.1400 
 17 C        4.9760    -1.0090    -0.3490 C.ar  1 <1>  -0.1430 
 18 C        3.9560     0.6510     1.0500 C.ar  1 <1>  -0.1500 
 19 C       -1.7180     0.6610     1.4210 C.3   1 <1>  -0.2400 
 20 C       -4.8820     3.0010    -0.3140 C.3   1 <1>  -0.2400 
 21 C        5.0940     0.1020     0.4790 C.ar  1 <1>  -0.1430 
 22 C        6.1950    -1.6440    -1.0040 C.3   1 <1>  -0.0970 
 23 C        6.4470     0.7350     0.7730 C.3   1 <1>  -0.0970 
 24 H       -1.9990    -0.1830    -2.2800 H     1 <1>   0.0800 
 25 H       -1.3330     0.9090    -3.4650 H     1 <1>   0.0800 
 26 H        3.6280    -2.4070    -1.2350 H     1 <1>   0.1500 
 27 H        1.8400     0.5470     1.2570 H     1 <1>   0.1500 
 28 H        1.9490    -3.2370     1.9370 H     1 <1>   0.0800 
 29 H        2.4510    -4.1110     0.5050 H     1 <1>   0.0800 
 30 H        0.9800    -4.5600     1.3330 H     1 <1>   0.0800 
 31 H       -2.6360    -0.2770    -0.2750 H     1 <1>   0.0800 
 32 H       -3.7570     0.5160     0.7740 H     1 <1>   0.0800 
 33 H       -2.9460     3.9210    -0.3070 H     1 <1>   0.0800 
 34 H       -3.2980     3.0220     1.1390 H     1 <1>   0.0800 
 35 H        4.0340     1.5140     1.6880 H     1 <1>   0.1500 
 36 H       -0.7490     0.8370     0.9930 H     1 <1>   0.0800 
 37 H       -1.6930    -0.2770     1.9460 H     1 <1>   0.0800 
 38 H       -1.9410     1.4400     2.1250 H     1 <1>   0.0800 
 39 H       -4.9830     3.0220    -1.3840 H     1 <1>   0.0800 
 40 H       -5.3690     3.8700     0.0900 H     1 <1>   0.0800 
 41 H       -5.3650     2.1250     0.0760 H     1 <1>   0.0800 
 42 H        5.9170    -2.4860    -1.6100 H     1 <1>   0.0800 
 43 H        6.8830    -1.9830    -0.2510 H     1 <1>   0.0800 
 44 H        6.6900    -0.9260    -1.6340 H     1 <1>   0.0800 
 45 H        7.0960     0.0180     1.2410 H     1 <1>   0.0800 
 46 H        6.3440     1.5780     1.4330 H     1 <1>   0.0800 
 47 H        6.8990     1.0770    -0.1400 H     1 <1>   0.0800 
@<TRIPOS>BOND
  1   1   2  1   
  2   1   3  1   
  3   2   4  2   
  4   2   5  1   
  5   3   6  1   
  6   3  24  1   
  7   3  25  1   
  8   4   7  1   
  9   5   8  1   
 10   5   9  1   
 11   6  10  2   
 12   6  11  am  
 13   7   9  2   
 14   8  12  ar  
 15   8  13  ar  
 16   9  14  1   
 17  11  15  1   
 18  11  16  1   
 19  12  17  ar  
 20  12  26  1   
 21  13  18  ar  
 22  13  27  1   
 23  14  28  1   
 24  14  29  1   
 25  14  30  1   
 26  15  19  1   
 27  15  31  1   
 28  15  32  1   
 29  16  20  1   
 30  16  33  1   
 31  16  34  1   
 32  17  21  ar  
 33  17  22  1   
 34  18  21  ar  
 35  18  35  1   
 36  19  36  1   
 37  19  37  1   
 38  19  38  1   
 39  20  39  1   
 40  20  40  1   
 41  20  41  1   
 42  21  23  1   
 43  22  42  1   
 44  22  43  1   
 45  22  44  1   
 46  23  45  1   
 47  23  46  1   
 48  23  47  1   
@<TRIPOS>SUBSTRUCTURE
  1 ****   2 GROUP 4 **** **** 0

# MOE 2024.06 (io_trps.svl 2023.06)
