@<TRIPOS>MOLECULE
NONAME
43 45 1 0 0 
SMALL
USER_CHARGES


@<TRIPOS>ATOM
  1 CL       2.1590     0.0570     1.6730 Cl    1 <1>  -0.1770 
  2 C        2.3700     1.3410     0.5040 C.ar  1 <1>   0.1770 
  3 C        1.3560     1.6630    -0.3840 C.ar  1 <1>   0.1770 
  4 C        3.5670     2.0290     0.4820 C.ar  1 <1>  -0.1500 
  5 CL      -0.1660     0.7960    -0.3630 Cl    1 <1>  -0.1770 
  6 C        1.5330     2.6790    -1.3060 C.ar  1 <1>  -0.1500 
  7 C        3.7580     3.0540    -0.4390 C.ar  1 <1>   0.1000 
  8 C        2.7340     3.3680    -1.3270 C.ar  1 <1>  -0.1500 
  9 N        4.9460     3.7700    -0.4960 N.pl3 1 <1>  -0.8380 
 10 C        6.1400     3.1190    -1.1160 C.3   1 <1>   0.2090 
 11 C        5.2820     4.6950     0.6310 C.3   1 <1>   0.2090 
 12 C        7.1090     2.5520    -0.0600 C.3   1 <1>   0.1960 
 13 C        6.3000     4.0870     1.6170 C.3   1 <1>   0.1960 
 14 N        7.5030     3.5600     0.9450 N.am  1 <1>  -0.8490 
 15 S        8.6070     2.9450     2.0740 S.o2  1 <1>   1.4470 
 16 O        8.0990     1.6490     2.4740 O.2   1 <1>  -0.6500 
 17 O        8.7940     3.9720     3.0740 O.2   1 <1>  -0.6500 
 18 C       10.1290     2.7530     1.1070 C.ar  1 <1>  -0.0090 
 19 C       10.6450     3.8140     0.3700 C.ar  1 <1>  -0.1500 
 20 C       10.8190     1.5450     1.0750 C.ar  1 <1>  -0.1500 
 21 C       11.8010     3.6730    -0.3760 C.ar  1 <1>  -0.1500 
 22 C       11.9770     1.3940     0.3320 C.ar  1 <1>  -0.1500 
 23 C       12.4760     2.4650    -0.4030 C.ar  1 <1>   0.0820 
 24 O       13.6000     2.4060    -1.1570 O.3   1 <1>  -0.3630 
 25 C       14.3920     1.2410    -1.2100 C.3   1 <1>   0.0400 
 26 H        4.3430     1.7680     1.1740 H     1 <1>   0.1500 
 27 H        0.7430     2.9240    -1.9930 H     1 <1>   0.1500 
 28 H        2.8940     4.1630    -2.0340 H     1 <1>   0.1500 
 29 H        6.6600     3.8450    -1.7160 H     1 <1>   0.0800 
 30 H        5.8170     2.3250    -1.7670 H     1 <1>   0.0800 
 31 H        4.3830     4.9550     1.1620 H     1 <1>   0.0800 
 32 H        5.6930     5.6020     0.2220 H     1 <1>   0.0800 
 33 H        7.9860     2.1860    -0.5660 H     1 <1>   0.0800 
 34 H        6.6370     1.7130     0.4230 H     1 <1>   0.0800 
 35 H        5.8220     3.3020     2.1770 H     1 <1>   0.0800 
 36 H        6.5870     4.8550     2.3150 H     1 <1>   0.0800 
 37 H       10.1320     4.7610     0.3830 H     1 <1>   0.1500 
 38 H       10.4420     0.7090     1.6420 H     1 <1>   0.1500 
 39 H       12.1900     4.5010    -0.9420 H     1 <1>   0.1500 
 40 H       12.4750     0.4430     0.3380 H     1 <1>   0.1500 
 41 H       15.2330     1.4390    -1.8490 H     1 <1>   0.0800 
 42 H       13.8050     0.4370    -1.6170 H     1 <1>   0.0800 
 43 H       14.7340     1.0060    -0.2180 H     1 <1>   0.0800 
@<TRIPOS>BOND
  1   1   2  1   
  2   2   3  ar  
  3   2   4  ar  
  4   3   5  1   
  5   3   6  ar  
  6   4   7  ar  
  7   4  26  1   
  8   6   8  ar  
  9   6  27  1   
 10   7   8  ar  
 11   7   9  1   
 12   8  28  1   
 13   9  10  1   
 14   9  11  1   
 15  10  12  1   
 16  10  29  1   
 17  10  30  1   
 18  11  13  1   
 19  11  31  1   
 20  11  32  1   
 21  12  14  1   
 22  12  33  1   
 23  12  34  1   
 24  13  14  1   
 25  13  35  1   
 26  13  36  1   
 27  14  15  am  
 28  15  16  2   
 29  15  17  2   
 30  15  18  1   
 31  18  19  ar  
 32  18  20  ar  
 33  19  21  ar  
 34  19  37  1   
 35  20  22  ar  
 36  20  38  1   
 37  21  23  ar  
 38  21  39  1   
 39  22  23  ar  
 40  22  40  1   
 41  23  24  1   
 42  24  25  1   
 43  25  41  1   
 44  25  42  1   
 45  25  43  1   
@<TRIPOS>SUBSTRUCTURE
  1 ****  12 GROUP 4 **** **** 0

# MOE 2024.06 (io_trps.svl 2023.06)
