@<TRIPOS>MOLECULE
NONAME
46 50 1 0 0 
SMALL
USER_CHARGES


@<TRIPOS>ATOM
  1 N        1.0730     0.8640     0.4350 N.2   1 <1>  -0.7070 
  2 N        2.2630     1.3370     0.0180 N.pl3 1 <1>   0.3000 
  3 C        0.2240     1.8130     0.1350 C.2   1 <1>   0.2880 
  4 C        2.1610     2.5680    -0.5260 C.2   1 <1>  -0.3020 
  5 C       -1.2000     1.8540     0.3050 C.2   1 <1>  -0.1510 
  6 C        0.8590     2.9040    -0.4580 C.2   1 <1>  -0.1810 
  7 N       -2.0090     1.0110     1.0250 N.pl3 1 <1>   0.0480 
  8 C       -1.9690     2.8050    -0.2850 C.2   1 <1>  -0.1810 
  9 C        0.0980     4.1640    -0.8630 C.3   1 <1>   0.0210 
 10 C       -3.3100     1.4450     0.8820 C.ar  1 <1>  -0.1520 
 11 C       -1.5440    -0.1560     1.7950 C.3   1 <1>   0.0160 
 12 C       -3.3120     2.5720     0.0630 C.ar  1 <1>   0.0000 
 13 C       -1.3880     3.8820    -1.1910 C.3   1 <1>   0.0210 
 14 C       -4.5120     0.9520     1.3970 C.ar  1 <1>  -0.1500 
 15 C       -4.5180     3.2090    -0.2450 C.ar  1 <1>  -0.1500 
 16 C       -5.6900     1.5910     1.0860 C.ar  1 <1>  -0.1500 
 17 C       -5.7060     2.7270     0.2610 C.ar  1 <1>  -0.1430 
 18 C       -7.0210     3.4260    -0.0780 C.3   1 <1>   0.0630 
 19 C       -7.7040     3.9770     1.1850 C.3   1 <1>  -0.1600 
 20 C       -7.9670     2.4940    -0.8540 C.3   1 <1>  -0.1600 
 21 C       -9.0280     4.6780     0.8460 C.3   1 <1>  -0.1600 
 22 C       -9.2910     3.1950    -1.1930 C.3   1 <1>  -0.1600 
 23 C       -9.9670     3.7440     0.0700 C.3   1 <1>  -0.1600 
 24 H        3.1300     0.7960     0.1200 H     1 <1>   0.2700 
 25 H        3.0010     3.1170    -0.9100 H     1 <1>   0.1500 
 26 H        0.5790     4.6360    -1.7000 H     1 <1>   0.0800 
 27 H        0.1340     4.8440    -0.0300 H     1 <1>   0.0800 
 28 H       -1.1630    -0.8940     1.1130 H     1 <1>   0.0800 
 29 H       -2.3520    -0.5700     2.3660 H     1 <1>   0.0800 
 30 H       -0.7550     0.1520     2.4570 H     1 <1>   0.0800 
 31 H       -1.9570     4.7890    -1.0970 H     1 <1>   0.0800 
 32 H       -1.4670     3.5380    -2.2070 H     1 <1>   0.0800 
 33 H       -4.5120     0.0830     2.0280 H     1 <1>   0.1500 
 34 H       -4.4900     4.0740    -0.8800 H     1 <1>   0.1500 
 35 H       -6.6150     1.2120     1.4820 H     1 <1>   0.1500 
 36 H       -6.8020     4.2650    -0.7160 H     1 <1>   0.0800 
 37 H       -7.9010     3.1730     1.8720 H     1 <1>   0.0800 
 38 H       -7.0420     4.6710     1.6730 H     1 <1>   0.0800 
 39 H       -8.1760     1.6180    -0.2660 H     1 <1>   0.0800 
 40 H       -7.4840     2.1730    -1.7600 H     1 <1>   0.0800 
 41 H       -8.8260     5.5530     0.2520 H     1 <1>   0.0800 
 42 H       -9.5080     4.9990     1.7540 H     1 <1>   0.0800 
 43 H       -9.1000     4.0050    -1.8760 H     1 <1>   0.0800 
 44 H       -9.9510     2.4990    -1.6830 H     1 <1>   0.0800 
 45 H      -10.8610     4.2770    -0.2030 H     1 <1>   0.0800 
 46 H      -10.2540     2.9230     0.7050 H     1 <1>   0.0800 
@<TRIPOS>BOND
  1   1   2  1   
  2   1   3  2   
  3   2   4  1   
  4   2  24  1   
  5   3   5  1   
  6   3   6  1   
  7   4   6  2   
  8   4  25  1   
  9   5   7  1   
 10   5   8  2   
 11   6   9  1   
 12   7  10  1   
 13   7  11  1   
 14   8  12  1   
 15   8  13  1   
 16   9  13  1   
 17   9  26  1   
 18   9  27  1   
 19  10  12  ar  
 20  10  14  ar  
 21  11  28  1   
 22  11  29  1   
 23  11  30  1   
 24  12  15  ar  
 25  13  31  1   
 26  13  32  1   
 27  14  16  ar  
 28  14  33  1   
 29  15  17  ar  
 30  15  34  1   
 31  16  17  ar  
 32  16  35  1   
 33  17  18  1   
 34  18  19  1   
 35  18  20  1   
 36  18  36  1   
 37  19  21  1   
 38  19  37  1   
 39  19  38  1   
 40  20  22  1   
 41  20  39  1   
 42  20  40  1   
 43  21  23  1   
 44  21  41  1   
 45  21  42  1   
 46  22  23  1   
 47  22  43  1   
 48  22  44  1   
 49  23  45  1   
 50  23  46  1   
@<TRIPOS>SUBSTRUCTURE
  1 ****  12 GROUP 4 **** **** 0

# MOE 2024.06 (io_trps.svl 2023.06)
