@<TRIPOS>MOLECULE
NONAME
54 55 1 0 0 
SMALL
USER_CHARGES


@<TRIPOS>ATOM
  1 O       -2.3890    -1.6270     2.2370 O.2   1 <1>  -0.5700 
  2 C       -2.0060    -2.5360     1.5400 C.2   1 <1>   0.5690 
  3 N       -2.8430    -3.1410     0.6550 N.am  1 <1>  -0.7300 
  4 C       -0.5590    -3.0010     1.6530 C.3   1 <1>   0.1810 
  5 C       -4.2550    -2.7890     0.4770 C.3   1 <1>   0.2200 
  6 O       -0.2710    -4.0170     0.7000 O.3   1 <1>  -0.3630 
  7 C       -5.0570    -4.0400     0.1430 C.3   1 <1>  -0.1600 
  8 C       -4.3750    -1.7810    -0.6600 C.3   1 <1>  -0.1600 
  9 C        0.9640    -4.5760     0.6280 C.ar  1 <1>   0.0830 
 10 C       -6.5380    -3.7200    -0.1030 C.3   1 <1>   0.5030 
 11 C       -5.8320    -1.3880    -0.9260 C.3   1 <1>   0.5030 
 12 C        1.1540    -5.5550    -0.3330 C.ar  1 <1>  -0.1500 
 13 C        2.0240    -4.2200     1.4550 C.ar  1 <1>  -0.1500 
 14 N       -6.6980    -2.5770    -1.0190 N.4   1 <1>  -0.9060 
 15 C       -7.2050    -4.9020    -0.8030 C.3   1 <1>  -0.2400 
 16 C       -7.2940    -3.4540     1.2020 C.3   1 <1>  -0.2400 
 17 C       -5.9340    -0.7000    -2.2860 C.3   1 <1>  -0.2400 
 18 C       -6.3730    -0.4260     0.1350 C.3   1 <1>  -0.2400 
 19 C        2.3800    -6.1840    -0.4830 C.ar  1 <1>  -0.1430 
 20 C        3.2490    -4.8450     1.3090 C.ar  1 <1>  -0.1500 
 21 C        3.4380    -5.8260     0.3460 C.ar  1 <1>  -0.1430 
 22 C        2.5360    -7.2540    -1.5540 C.3   1 <1>  -0.0970 
 23 C        4.8040    -6.4870     0.2220 C.3   1 <1>  -0.0970 
 24 H       -2.4420    -3.8830     0.0720 H     1 <1>   0.3700 
 25 H       -0.3900    -3.3990     2.6370 H     1 <1>   0.0800 
 26 H        0.0970    -2.1700     1.4730 H     1 <1>   0.0800 
 27 H       -4.6150    -2.3540     1.3960 H     1 <1>   0.0800 
 28 H       -4.9740    -4.7430     0.9540 H     1 <1>   0.0800 
 29 H       -4.6380    -4.5030    -0.7330 H     1 <1>   0.0800 
 30 H       -3.9410    -2.2010    -1.5500 H     1 <1>   0.0800 
 31 H       -3.8090    -0.8990    -0.4090 H     1 <1>   0.0800 
 32 H        0.3280    -5.8210    -0.9650 H     1 <1>   0.1500 
 33 H        1.9240    -3.4680     2.2120 H     1 <1>   0.1500 
 34 H       -7.6680    -2.2630    -0.9650 H     1 <1>   0.4500 
 35 H       -6.5710    -2.9470    -1.9630 H     1 <1>   0.4500 
 36 H       -6.7320    -5.1210    -1.7440 H     1 <1>   0.0800 
 37 H       -8.2520    -4.7170    -0.9700 H     1 <1>   0.0800 
 38 H       -7.1260    -5.7840    -0.1900 H     1 <1>   0.0800 
 39 H       -6.8070    -2.7250     1.8190 H     1 <1>   0.0800 
 40 H       -7.3400    -4.3590     1.7830 H     1 <1>   0.0800 
 41 H       -8.3040    -3.1390     1.0120 H     1 <1>   0.0800 
 42 H       -5.5890    -1.3400    -3.0780 H     1 <1>   0.0800 
 43 H       -5.3180     0.1840    -2.2950 H     1 <1>   0.0800 
 44 H       -6.9440    -0.3930    -2.4940 H     1 <1>   0.0800 
 45 H       -6.2070    -0.7780     1.1330 H     1 <1>   0.0800 
 46 H       -7.4220    -0.2350    -0.0060 H     1 <1>   0.0800 
 47 H       -5.8590     0.5170     0.0610 H     1 <1>   0.0800 
 48 H        4.0620    -4.5610     1.9540 H     1 <1>   0.1500 
 49 H        1.6190    -7.3950    -2.0960 H     1 <1>   0.0800 
 50 H        2.8080    -8.1910    -1.1020 H     1 <1>   0.0800 
 51 H        3.3000    -6.9660    -2.2540 H     1 <1>   0.0800 
 52 H        4.7180    -7.5450     0.3900 H     1 <1>   0.0800 
 53 H        5.4940    -6.0870     0.9420 H     1 <1>   0.0800 
 54 H        5.2060    -6.3180    -0.7600 H     1 <1>   0.0800 
@<TRIPOS>BOND
  1   1   2  2   
  2   2   3  am  
  3   2   4  1   
  4   3   5  1   
  5   3  24  1   
  6   4   6  1   
  7   4  25  1   
  8   4  26  1   
  9   5   7  1   
 10   5   8  1   
 11   5  27  1   
 12   6   9  1   
 13   7  10  1   
 14   7  28  1   
 15   7  29  1   
 16   8  11  1   
 17   8  30  1   
 18   8  31  1   
 19   9  12  ar  
 20   9  13  ar  
 21  10  14  1   
 22  10  15  1   
 23  10  16  1   
 24  11  14  1   
 25  11  17  1   
 26  11  18  1   
 27  12  19  ar  
 28  12  32  1   
 29  13  20  ar  
 30  13  33  1   
 31  14  34  1   
 32  14  35  1   
 33  15  36  1   
 34  15  37  1   
 35  15  38  1   
 36  16  39  1   
 37  16  40  1   
 38  16  41  1   
 39  17  42  1   
 40  17  43  1   
 41  17  44  1   
 42  18  45  1   
 43  18  46  1   
 44  18  47  1   
 45  19  21  ar  
 46  19  22  1   
 47  20  21  ar  
 48  20  48  1   
 49  21  23  1   
 50  22  49  1   
 51  22  50  1   
 52  22  51  1   
 53  23  52  1   
 54  23  53  1   
 55  23  54  1   
@<TRIPOS>SUBSTRUCTURE
  1 ****   3 GROUP 4 **** **** 0

# MOE 2024.06 (io_trps.svl 2023.06)
