@<TRIPOS>MOLECULE
NONAME
47 48 1 0 0 
SMALL
USER_CHARGES


@<TRIPOS>ATOM
  1 O        1.4070    -2.1140     2.3230 O.2   1 <1>  -0.5700 
  2 C        1.0840    -2.5300     1.2380 C.2   1 <1>   0.6590 
  3 O        0.0170    -2.0740     0.5960 O.3   1 <1>  -0.4300 
  4 C        1.9230    -3.5790     0.5470 C.3   1 <1>   0.0420 
  5 C       -0.8010    -1.0650     1.1380 C.3   1 <1>   0.1200 
  6 C        2.9120    -2.7770    -0.2760 C.2   1 <1>   0.5690 
  7 C        1.1110    -4.6630    -0.2180 C.3   1 <1>  -0.0800 
  8 C       -1.9460    -0.8150     0.1630 C.3   1 <1>  -0.2400 
  9 O        2.8070    -2.7350    -1.4780 O.2   1 <1>  -0.5700 
 10 N        3.8810    -2.1000     0.4150 N.am  1 <1>  -0.5470 
 11 C        0.0630    -5.3360     0.6970 C.3   1 <1>  -0.1600 
 12 C        2.0430    -5.7420    -0.8140 C.3   1 <1>  -0.1600 
 13 C        4.9310    -1.2790    -0.0240 C.ar  1 <1>   0.1170 
 14 C       -0.7250    -6.4240    -0.0440 C.3   1 <1>  -0.1600 
 15 C        1.2540    -6.8280    -1.5560 C.3   1 <1>  -0.1600 
 16 C        5.4140    -0.2750     0.8180 C.ar  1 <1>  -0.1430 
 17 C        5.5220    -1.4500    -1.2720 C.ar  1 <1>  -0.1500 
 18 C        0.2110    -7.4790    -0.6410 C.3   1 <1>  -0.1600 
 19 C        6.4650     0.5280     0.4030 C.ar  1 <1>  -0.1500 
 20 C        4.8020    -0.0340     2.1940 C.3   1 <1>  -0.0970 
 21 C        6.5680    -0.6440    -1.6810 C.ar  1 <1>  -0.1500 
 22 C        7.0420     0.3470    -0.8420 C.ar  1 <1>  -0.1500 
 23 H        2.4840    -4.0850     1.3110 H     1 <1>   0.0800 
 24 H       -0.2050    -0.1780     1.2710 H     1 <1>   0.0800 
 25 H       -1.1720    -1.4010     2.0920 H     1 <1>   0.0800 
 26 H        0.5900    -4.1830    -1.0310 H     1 <1>   0.0800 
 27 H       -1.5580    -0.4940    -0.7880 H     1 <1>   0.0800 
 28 H       -2.5900    -0.0450     0.5480 H     1 <1>   0.0800 
 29 H       -2.5240    -1.7120     0.0300 H     1 <1>   0.0800 
 30 H        3.7450    -2.0700     1.4260 H     1 <1>   0.3700 
 31 H       -0.6390    -4.6090     1.0650 H     1 <1>   0.0800 
 32 H        0.5550    -5.7780     1.5470 H     1 <1>   0.0800 
 33 H        2.6170    -6.2020    -0.0280 H     1 <1>   0.0800 
 34 H        2.7350    -5.2960    -1.5080 H     1 <1>   0.0800 
 35 H       -1.3000    -5.9710    -0.8340 H     1 <1>   0.0800 
 36 H       -1.4130    -6.8970     0.6350 H     1 <1>   0.0800 
 37 H        1.9320    -7.5800    -1.9220 H     1 <1>   0.0800 
 38 H        0.7600    -6.3900    -2.4060 H     1 <1>   0.0800 
 39 H        5.1660    -2.2190    -1.9320 H     1 <1>   0.1500 
 40 H       -0.3640    -8.1960    -1.2020 H     1 <1>   0.0800 
 41 H        0.7110    -8.0060     0.1530 H     1 <1>   0.0800 
 42 H        6.8440     1.3040     1.0440 H     1 <1>   0.1500 
 43 H        3.7410     0.1220     2.1060 H     1 <1>   0.0800 
 44 H        5.2290     0.8360     2.6590 H     1 <1>   0.0800 
 45 H        4.9820    -0.8800     2.8330 H     1 <1>   0.0800 
 46 H        7.0110    -0.7890    -2.6510 H     1 <1>   0.1500 
 47 H        7.8560     0.9760    -1.1570 H     1 <1>   0.1500 
@<TRIPOS>BOND
  1   1   2  2   
  2   2   3  1   
  3   2   4  1   
  4   3   5  1   
  5   4   6  1   
  6   4   7  1   
  7   4  23  1   
  8   5   8  1   
  9   5  24  1   
 10   5  25  1   
 11   6   9  2   
 12   6  10  am  
 13   7  11  1   
 14   7  12  1   
 15   7  26  1   
 16   8  27  1   
 17   8  28  1   
 18   8  29  1   
 19  10  13  1   
 20  10  30  1   
 21  11  14  1   
 22  11  31  1   
 23  11  32  1   
 24  12  15  1   
 25  12  33  1   
 26  12  34  1   
 27  13  16  ar  
 28  13  17  ar  
 29  14  18  1   
 30  14  35  1   
 31  14  36  1   
 32  15  18  1   
 33  15  37  1   
 34  15  38  1   
 35  16  19  ar  
 36  16  20  1   
 37  17  21  ar  
 38  17  39  1   
 39  18  40  1   
 40  18  41  1   
 41  19  22  ar  
 42  19  42  1   
 43  20  43  1   
 44  20  44  1   
 45  20  45  1   
 46  21  22  ar  
 47  21  46  1   
 48  22  47  1   
@<TRIPOS>SUBSTRUCTURE
  1 ****   6 GROUP 4 **** **** 0

# MOE 2024.06 (io_trps.svl 2023.06)
