@<TRIPOS>MOLECULE
NONAME
39 39 1 0 0 
SMALL
USER_CHARGES


@<TRIPOS>ATOM
  1 F       -0.7590    -0.4260     1.7040 F     1 <1>  -0.1900 
  2 C       -1.8020    -0.9670     1.1370 C.ar  1 <1>   0.1900 
  3 C       -2.6010    -1.8140     1.8800 C.ar  1 <1>  -0.1500 
  4 C       -2.0680    -0.6760    -0.1860 C.ar  1 <1>  -0.1500 
  5 C       -3.7090    -2.3830     1.2770 C.ar  1 <1>  -0.1500 
  6 C       -3.1790    -1.2490    -0.7820 C.ar  1 <1>  -0.1500 
  7 C       -4.0090    -2.0960    -0.0520 C.ar  1 <1>  -0.1430 
  8 C       -5.2380    -2.7020    -0.7000 C.3   1 <1>   0.4870 
  9 N       -6.4410    -2.0040    -0.1470 N.4   1 <1>  -0.9590 
 10 C       -7.6910    -2.8200    -0.3800 C.3   1 <1>   0.3430 
 11 C       -6.5020    -0.6060    -0.6740 C.3   1 <1>   0.3430 
 12 C       -8.9620    -2.2970     0.3540 C.3   1 <1>   0.3430 
 13 C       -6.7910     0.3420     0.4810 C.3   1 <1>  -0.2400 
 14 N      -10.1790    -3.1840     0.2220 N.4   1 <1>  -0.9590 
 15 C      -10.7050    -3.2860    -1.1830 C.3   1 <1>   0.2630 
 16 C      -11.2820    -2.6840     1.1130 C.3   1 <1>   0.2630 
 17 H       -2.3480    -2.0200     2.9060 H     1 <1>   0.1500 
 18 H       -1.4130    -0.0180    -0.7300 H     1 <1>   0.1500 
 19 H       -4.3190    -3.0530     1.8590 H     1 <1>   0.1500 
 20 H       -3.3780    -1.0250    -1.8170 H     1 <1>   0.1500 
 21 H       -5.2700    -3.7540    -0.4650 H     1 <1>   0.0800 
 22 H       -5.1900    -2.5920    -1.7720 H     1 <1>   0.0800 
 23 H       -6.2270    -1.9200     0.8580 H     1 <1>   0.4500 
 24 H       -7.5060    -3.8270    -0.0450 H     1 <1>   0.0800 
 25 H       -7.8920    -2.8530    -1.4380 H     1 <1>   0.0800 
 26 H       -7.2560    -0.5150    -1.4400 H     1 <1>   0.0800 
 27 H       -5.5540    -0.3280    -1.1090 H     1 <1>   0.0800 
 28 H       -9.2050    -1.3180    -0.0250 H     1 <1>   0.0800 
 29 H       -8.7260    -2.1970     1.4010 H     1 <1>   0.0800 
 30 H       -7.7410     0.1500     0.9420 H     1 <1>   0.0800 
 31 H       -6.8080     1.3510     0.1070 H     1 <1>   0.0800 
 32 H       -6.0100     0.2870     1.2200 H     1 <1>   0.0800 
 33 H       -9.9610    -4.1420     0.5520 H     1 <1>   0.4500 
 34 H      -10.9790    -2.3120    -1.5560 H     1 <1>   0.0800 
 35 H      -11.5810    -3.9150    -1.2070 H     1 <1>   0.0800 
 36 H       -9.9660    -3.7160    -1.8400 H     1 <1>   0.0800 
 37 H      -11.5860    -1.6910     0.8190 H     1 <1>   0.0800 
 38 H      -10.9560    -2.6540     2.1410 H     1 <1>   0.0800 
 39 H      -12.1400    -3.3350     1.0500 H     1 <1>   0.0800 
@<TRIPOS>BOND
  1   1   2  1   
  2   2   3  ar  
  3   2   4  ar  
  4   3   5  ar  
  5   3  17  1   
  6   4   6  ar  
  7   4  18  1   
  8   5   7  ar  
  9   5  19  1   
 10   6   7  ar  
 11   6  20  1   
 12   7   8  1   
 13   8   9  1   
 14   8  21  1   
 15   8  22  1   
 16   9  10  1   
 17   9  11  1   
 18   9  23  1   
 19  10  12  1   
 20  10  24  1   
 21  10  25  1   
 22  11  13  1   
 23  11  26  1   
 24  11  27  1   
 25  12  14  1   
 26  12  28  1   
 27  12  29  1   
 28  13  30  1   
 29  13  31  1   
 30  13  32  1   
 31  14  15  1   
 32  14  16  1   
 33  14  33  1   
 34  15  34  1   
 35  15  35  1   
 36  15  36  1   
 37  16  37  1   
 38  16  38  1   
 39  16  39  1   
@<TRIPOS>SUBSTRUCTURE
  1 ****   9 GROUP 4 **** **** 0

# MOE 2024.06 (io_trps.svl 2023.06)
