@<TRIPOS>MOLECULE
NONAME
41 43 1 0 0 
SMALL
USER_CHARGES


@<TRIPOS>ATOM
  1 O        3.8010    -1.2690     1.6470 O.2   1 <1>  -0.5700 
  2 C        2.7030    -1.1500     1.1610 C.2   1 <1>   0.5690 
  3 N        1.6290    -1.6880     1.7610 N.am  1 <1>  -0.8000 
  4 C        2.5590    -0.3720    -0.1390 C.3   1 <1>  -0.0190 
  5 C        3.7380    -0.7440    -1.0550 C.3   1 <1>   0.3430 
  6 C        2.4860     1.1530     0.1380 C.3   1 <1>  -0.1600 
  7 N        4.9470    -0.0110    -0.5900 N.4   1 <1>  -0.9590 
  8 C        3.4020     1.9600    -0.7990 C.3   1 <1>  -0.1600 
  9 C        4.8610     1.4730    -0.7730 C.3   1 <1>   0.3430 
 10 C        6.2210    -0.5890    -1.0860 C.3   1 <1>   0.4860 
 11 C        7.3660     0.0780    -0.3490 C.ar  1 <1>  -0.1440 
 12 C        8.2330     0.9170    -0.9980 C.ar  1 <1>  -0.1500 
 13 C        7.5330    -0.1590     1.0250 C.ar  1 <1>  -0.1500 
 14 C        9.2850     1.5610    -0.3180 C.ar  1 <1>   0.0000 
 15 C        8.5460     0.4530     1.7080 C.ar  1 <1>  -0.1500 
 16 C        9.4430     1.3280     1.0640 C.ar  1 <1>   0.0000 
 17 C       10.1850     2.4320    -0.9650 C.ar  1 <1>  -0.1500 
 18 C       10.4910     1.9770     1.7470 C.ar  1 <1>  -0.1500 
 19 C       11.1940     3.0490    -0.2780 C.ar  1 <1>  -0.1500 
 20 C       11.3480     2.8190     1.0940 C.ar  1 <1>  -0.1500 
 21 H        1.7460    -2.1880     2.6470 H     1 <1>   0.3700 
 22 H        0.6630    -1.5910     1.4420 H     1 <1>   0.3700 
 23 H        1.6550    -0.6900    -0.6260 H     1 <1>   0.0800 
 24 H        3.5150    -0.4710    -2.0730 H     1 <1>   0.0800 
 25 H        3.9020    -1.8090    -1.0090 H     1 <1>   0.0800 
 26 H        2.7870     1.3530     1.1540 H     1 <1>   0.0800 
 27 H        1.4690     1.4930     0.0370 H     1 <1>   0.0800 
 28 H        4.9590    -0.1790     0.4350 H     1 <1>   0.4500 
 29 H        3.3780     3.0010    -0.5250 H     1 <1>   0.0800 
 30 H        3.0320     1.8970    -1.8080 H     1 <1>   0.0800 
 31 H        5.3440     1.7630    -1.6920 H     1 <1>   0.0800 
 32 H        5.3870     1.9540     0.0380 H     1 <1>   0.0800 
 33 H        6.3180    -0.4240    -2.1460 H     1 <1>   0.0800 
 34 H        6.2470    -1.6500    -0.8970 H     1 <1>   0.0800 
 35 H        8.1380     1.1110    -2.0520 H     1 <1>   0.1500 
 36 H        6.8660    -0.8270     1.5460 H     1 <1>   0.1500 
 37 H        8.6790     0.2740     2.7610 H     1 <1>   0.1500 
 38 H       10.0690     2.6070    -2.0190 H     1 <1>   0.1500 
 39 H       10.6080     1.7970     2.8000 H     1 <1>   0.1500 
 40 H       11.8790     3.7130    -0.7760 H     1 <1>   0.1500 
 41 H       12.1480     3.3120     1.6200 H     1 <1>   0.1500 
@<TRIPOS>BOND
  1   1   2  2   
  2   2   3  am  
  3   2   4  1   
  4   3  21  1   
  5   3  22  1   
  6   4   5  1   
  7   4   6  1   
  8   4  23  1   
  9   5   7  1   
 10   5  24  1   
 11   5  25  1   
 12   6   8  1   
 13   6  26  1   
 14   6  27  1   
 15   7   9  1   
 16   7  10  1   
 17   7  28  1   
 18   8   9  1   
 19   8  29  1   
 20   8  30  1   
 21   9  31  1   
 22   9  32  1   
 23  10  11  1   
 24  10  33  1   
 25  10  34  1   
 26  11  12  ar  
 27  11  13  ar  
 28  12  14  ar  
 29  12  35  1   
 30  13  15  ar  
 31  13  36  1   
 32  14  16  ar  
 33  14  17  ar  
 34  15  16  ar  
 35  15  37  1   
 36  16  18  ar  
 37  17  19  ar  
 38  17  38  1   
 39  18  20  ar  
 40  18  39  1   
 41  19  20  ar  
 42  19  40  1   
 43  20  41  1   
@<TRIPOS>SUBSTRUCTURE
  1 ****  11 GROUP 4 **** **** 0

# MOE 2024.06 (io_trps.svl 2023.06)
