@<TRIPOS>MOLECULE
NONAME
37 38 1 0 0 
SMALL
USER_CHARGES


@<TRIPOS>ATOM
  1 CL      -0.0930     0.0840    -0.6590 Cl    1 <1>  -0.1770 
  2 C       -0.0610    -1.6280    -0.3170 C.ar  1 <1>   0.1770 
  3 C        1.1490    -2.2990    -0.2030 C.ar  1 <1>  -0.0090 
  4 C       -1.2790    -2.2660    -0.1640 C.ar  1 <1>  -0.1500 
  5 S        2.7010    -1.3950    -0.4130 S.o2  1 <1>   1.4470 
  6 C        1.1050    -3.6620     0.0940 C.ar  1 <1>  -0.1500 
  7 C       -1.2860    -3.6150     0.1190 C.ar  1 <1>   0.1770 
  8 O        2.8110    -0.7970    -1.7200 O.2   1 <1>  -0.6500 
  9 O        3.0250    -0.6370     0.7730 O.2   1 <1>  -0.6500 
 10 N        3.8920    -2.5760    -0.5290 N.am  1 <1>  -0.9140 
 11 C       -0.1050    -4.3210     0.2520 C.ar  1 <1>  -0.1500 
 12 CL      -2.8070    -4.4440     0.3150 Cl    1 <1>  -0.1770 
 13 C        5.2110    -2.0390    -0.1890 C.3   1 <1>   0.1960 
 14 C        6.3160    -3.1010    -0.3480 C.3   1 <1>   0.3430 
 15 N        7.6520    -2.6240     0.1390 N.4   1 <1>  -0.9590 
 16 C        8.2110    -1.4370    -0.6030 C.3   1 <1>   0.3430 
 17 C        8.6720    -3.7280     0.1890 C.3   1 <1>   0.3430 
 18 C        9.6050    -1.0380    -0.0640 C.3   1 <1>   0.1200 
 19 C       10.0320    -3.2160     0.7200 C.3   1 <1>   0.1200 
 20 O        9.9780    -1.8470     1.0180 O.3   1 <1>  -0.5600 
 21 H       -2.2010    -1.7220    -0.2610 H     1 <1>   0.1500 
 22 H        2.0170    -4.2220     0.2100 H     1 <1>   0.1500 
 23 H        3.8730    -2.7650    -1.5340 H     1 <1>   0.4200 
 24 H       -0.1380    -5.3730     0.4790 H     1 <1>   0.1500 
 25 H        5.2010    -1.7160     0.8390 H     1 <1>   0.0800 
 26 H        5.4190    -1.1890    -0.8180 H     1 <1>   0.0800 
 27 H        6.3890    -3.3820    -1.3850 H     1 <1>   0.0800 
 28 H        6.0240    -3.9690     0.2190 H     1 <1>   0.0800 
 29 H        7.5740    -2.3070     1.1210 H     1 <1>   0.4500 
 30 H        7.5490    -0.5920    -0.5050 H     1 <1>   0.0800 
 31 H        8.2950    -1.6630    -1.6540 H     1 <1>   0.0800 
 32 H        8.8160    -4.1430    -0.7950 H     1 <1>   0.0800 
 33 H        8.3260    -4.5230     0.8290 H     1 <1>   0.0800 
 34 H        9.5920    -0.0170     0.2780 H     1 <1>   0.0800 
 35 H       10.3530    -1.1240    -0.8340 H     1 <1>   0.0800 
 36 H       10.8120    -3.3820    -0.0040 H     1 <1>   0.0800 
 37 H       10.2980    -3.7380     1.6230 H     1 <1>   0.0800 
@<TRIPOS>BOND
  1   1   2  1   
  2   2   3  ar  
  3   2   4  ar  
  4   3   5  1   
  5   3   6  ar  
  6   4   7  ar  
  7   4  21  1   
  8   5   8  2   
  9   5   9  2   
 10   5  10  am  
 11   6  11  ar  
 12   6  22  1   
 13   7  11  ar  
 14   7  12  1   
 15  10  13  1   
 16  10  23  1   
 17  11  24  1   
 18  13  14  1   
 19  13  25  1   
 20  13  26  1   
 21  14  15  1   
 22  14  27  1   
 23  14  28  1   
 24  15  16  1   
 25  15  17  1   
 26  15  29  1   
 27  16  18  1   
 28  16  30  1   
 29  16  31  1   
 30  17  19  1   
 31  17  32  1   
 32  17  33  1   
 33  18  20  1   
 34  18  34  1   
 35  18  35  1   
 36  19  20  1   
 37  19  36  1   
 38  19  37  1   
@<TRIPOS>SUBSTRUCTURE
  1 ****  10 GROUP 4 **** **** 0

# MOE 2024.06 (io_trps.svl 2023.06)
