@<TRIPOS>MOLECULE
NONAME
36 36 1 0 0 
SMALL
USER_CHARGES


@<TRIPOS>ATOM
  1 CL       0.6440     0.8220     0.5060 Cl    1 <1>  -0.1770 
  2 C       -0.4580     2.0940     0.0320 C.ar  1 <1>   0.1770 
  3 C        0.0280     3.1810    -0.6720 C.ar  1 <1>  -0.1440 
  4 C       -1.7870     1.9930     0.3900 C.ar  1 <1>  -0.1500 
  5 C       -0.8570     4.1880    -1.0180 C.ar  1 <1>  -0.1500 
  6 C        1.4880     3.2680    -1.0510 C.3   1 <1>   0.4870 
  7 C       -2.6780     3.0060     0.0460 C.ar  1 <1>   0.0820 
  8 C       -2.1980     4.1200    -0.6710 C.ar  1 <1>   0.0820 
  9 N        2.2400     3.6300     0.1700 N.4   1 <1>  -0.9060 
 10 O       -3.9910     2.9310     0.4040 O.3   1 <1>  -0.3620 
 11 O       -2.9190     5.2000    -1.0890 O.3   1 <1>  -0.3620 
 12 C        3.7030     3.7750    -0.0780 C.3   1 <1>   0.3430 
 13 C       -4.5560     1.7960     1.0200 C.3   1 <1>   0.1200 
 14 C       -4.3280     5.2640    -1.0420 C.3   1 <1>   0.0400 
 15 C        4.4650     4.1110     1.2090 C.3   1 <1>   0.1200 
 16 C       -6.0510     2.0520     1.1900 C.3   1 <1>  -0.2400 
 17 O        5.7990     4.2380     0.8750 O.3   1 <1>  -0.6800 
 18 H       -2.0960     1.1230     0.9370 H     1 <1>   0.1500 
 19 H       -0.5290     5.0530    -1.5700 H     1 <1>   0.1500 
 20 H        1.6250     4.0170    -1.8150 H     1 <1>   0.0800 
 21 H        1.8240     2.3170    -1.4340 H     1 <1>   0.0800 
 22 H        2.0650     2.8910     0.8650 H     1 <1>   0.4500 
 23 H        1.8400     4.4980     0.5470 H     1 <1>   0.4500 
 24 H        3.8750     4.5620    -0.7940 H     1 <1>   0.0800 
 25 H        4.0970     2.8550    -0.4780 H     1 <1>   0.0800 
 26 H       -4.0860     1.6540     1.9780 H     1 <1>   0.0800 
 27 H       -4.3890     0.9420     0.3870 H     1 <1>   0.0800 
 28 H       -4.6410     6.1620    -1.5430 H     1 <1>   0.0800 
 29 H       -4.6430     5.2930    -0.0140 H     1 <1>   0.0800 
 30 H       -4.7360     4.4040    -1.5440 H     1 <1>   0.0800 
 31 H        4.3770     3.3190     1.9340 H     1 <1>   0.0800 
 32 H        4.1360     5.0470     1.6280 H     1 <1>   0.0800 
 33 H       -6.2100     2.9160     1.8100 H     1 <1>   0.0800 
 34 H       -6.5140     1.2030     1.6600 H     1 <1>   0.0800 
 35 H       -6.5120     2.2070     0.2310 H     1 <1>   0.0800 
 36 H        6.3560     4.4450     1.6580 H     1 <1>   0.4000 
@<TRIPOS>BOND
  1   1   2  1   
  2   2   3  ar  
  3   2   4  ar  
  4   3   5  ar  
  5   3   6  1   
  6   4   7  ar  
  7   4  18  1   
  8   5   8  ar  
  9   5  19  1   
 10   6   9  1   
 11   6  20  1   
 12   6  21  1   
 13   7   8  ar  
 14   7  10  1   
 15   8  11  1   
 16   9  12  1   
 17   9  22  1   
 18   9  23  1   
 19  10  13  1   
 20  11  14  1   
 21  12  15  1   
 22  12  24  1   
 23  12  25  1   
 24  13  16  1   
 25  13  26  1   
 26  13  27  1   
 27  14  28  1   
 28  14  29  1   
 29  14  30  1   
 30  15  17  1   
 31  15  31  1   
 32  15  32  1   
 33  16  33  1   
 34  16  34  1   
 35  16  35  1   
 36  17  36  1   
@<TRIPOS>SUBSTRUCTURE
  1 ****   3 GROUP 4 **** **** 0

# MOE 2024.06 (io_trps.svl 2023.06)
