@<TRIPOS>MOLECULE
NONAME
21 22 1 0 0 
SMALL
USER_CHARGES


@<TRIPOS>ATOM
  1 O       -0.6880     0.0440     0.7600 O.3   1 <1>  -0.5600 
  2 C        0.4000    -0.2340     0.0190 C.3   1 <1>   0.4800 
  3 C       -1.6370     0.2890    -0.1610 C.3   1 <1>   0.2000 
  4 O        0.5030     1.1250    -0.3250 O.3   1 <1>  -0.5600 
  5 C        0.2520    -1.7530     0.3580 C.3   1 <1>   0.2000 
  6 C       -2.3290    -1.0650     0.1390 C.3   1 <1>   0.2000 
  7 C       -0.8590     1.5670    -0.5000 C.3   1 <1>   0.1200 
  8 O        1.1890    -2.5480    -0.3080 O.3   1 <1>  -0.6800 
  9 C       -1.2240    -2.2010    -0.0620 C.3   1 <1>   0.2000 
 10 O       -3.4080    -1.2880    -0.7110 O.3   1 <1>  -0.6800 
 11 O       -1.5940    -3.3850     0.5790 O.3   1 <1>  -0.6800 
 12 H        0.2760    -0.5110    -1.0170 H     1 <1>   0.0800 
 13 H       -1.4970    -0.0400    -1.1820 H     1 <1>   0.0800 
 14 H        0.4070    -1.8890     1.4150 H     1 <1>   0.0800 
 15 H       -2.7030    -1.0610     1.1490 H     1 <1>   0.0800 
 16 H       -1.0650     2.3620     0.1960 H     1 <1>   0.0800 
 17 H       -1.0080     1.9010    -1.5120 H     1 <1>   0.0800 
 18 H        0.9790    -3.4930    -0.1550 H     1 <1>   0.4000 
 19 H       -1.1910    -2.4150    -1.1170 H     1 <1>   0.0800 
 20 H       -3.7420    -2.2000    -0.5770 H     1 <1>   0.4000 
 21 H       -1.6510    -3.2490     1.5460 H     1 <1>   0.4000 
@<TRIPOS>BOND
  1   1   2  1   
  2   1   3  1   
  3   2   4  1   
  4   2   5  1   
  5   2  12  1   
  6   3   6  1   
  7   3   7  1   
  8   3  13  1   
  9   4   7  1   
 10   5   8  1   
 11   5   9  1   
 12   5  14  1   
 13   6   9  1   
 14   6  10  1   
 15   6  15  1   
 16   7  16  1   
 17   7  17  1   
 18   8  18  1   
 19   9  11  1   
 20   9  19  1   
 21  10  20  1   
 22  11  21  1   
@<TRIPOS>SUBSTRUCTURE
  1 ****   1 GROUP 4 **** **** 0

# MOE 2024.06 (io_trps.svl 2023.06)
