@<TRIPOS>MOLECULE
NONAME
45 47 1 0 0 
SMALL
USER_CHARGES


@<TRIPOS>ATOM
  1 O        2.0160    -0.5890    -1.7210 O.2   1 <1>  -0.5700 
  2 C        1.8980    -1.6690    -1.2050 C.2   1 <1>   0.6590 
  3 O        2.7400    -2.1720    -0.3210 O.3   1 <1>  -0.4300 
  4 C        0.7910    -2.6980    -1.4180 C.3   1 <1>   0.0610 
  5 C        2.2740    -3.4660     0.0580 C.3   1 <1>   0.3410 
  6 C        0.7320    -3.2520     0.0200 C.3   1 <1>   0.0000 
  7 C        1.4810    -3.8270    -2.2130 C.3   1 <1>  -0.1600 
  8 C       -0.5150    -2.1870    -2.0520 C.3   1 <1>  -0.2400 
  9 C        2.9280    -3.9640     1.3770 C.2   1 <1>   0.5690 
 10 C        2.5220    -4.3470    -1.1960 C.3   1 <1>  -0.1600 
 11 C        0.1980    -2.2210     1.0550 C.3   1 <1>  -0.2400 
 12 C       -0.1410    -4.5260     0.1920 C.3   1 <1>  -0.2400 
 13 O        2.2430    -4.2280     2.3350 O.2   1 <1>  -0.5700 
 14 N        4.2750    -4.1470     1.5000 N.am  1 <1>  -0.5470 
 15 C        5.2820    -4.1230     0.5280 C.ar  1 <1>   0.1170 
 16 C        5.8870    -2.9260     0.1340 C.ar  1 <1>  -0.1440 
 17 C        5.6920    -5.3260    -0.0550 C.ar  1 <1>  -0.1440 
 18 C        6.8520    -2.9410    -0.8570 C.ar  1 <1>  -0.1500 
 19 C        5.5470    -1.5720     0.7510 C.3   1 <1>  -0.0970 
 20 C        6.6620    -5.3180    -1.0420 C.ar  1 <1>  -0.1500 
 21 C        5.0980    -6.6610     0.3800 C.3   1 <1>  -0.0970 
 22 C        7.2370    -4.1290    -1.4490 C.ar  1 <1>  -0.1500 
 23 H        1.9560    -3.4420    -3.1000 H     1 <1>   0.0800 
 24 H        0.7860    -4.5980    -2.4960 H     1 <1>   0.0800 
 25 H       -0.3200    -1.8260    -3.0460 H     1 <1>   0.0800 
 26 H       -0.9200    -1.3750    -1.4760 H     1 <1>   0.0800 
 27 H       -1.2440    -2.9750    -2.1070 H     1 <1>   0.0800 
 28 H        2.3550    -5.3850    -0.9740 H     1 <1>   0.0800 
 29 H        3.5260    -4.2270    -1.5640 H     1 <1>   0.0800 
 30 H        0.7510    -1.2990     1.0640 H     1 <1>   0.0800 
 31 H        0.2470    -2.6290     2.0490 H     1 <1>   0.0800 
 32 H       -0.8320    -1.9860     0.8540 H     1 <1>   0.0800 
 33 H        0.1270    -5.3330    -0.4610 H     1 <1>   0.0800 
 34 H       -1.1750    -4.2910     0.0130 H     1 <1>   0.0800 
 35 H       -0.0600    -4.8920     1.2010 H     1 <1>   0.0800 
 36 H        4.5530    -4.4740     2.4240 H     1 <1>   0.3700 
 37 H        7.3130    -2.0220    -1.1740 H     1 <1>   0.1500 
 38 H        4.8660    -1.6570     1.5770 H     1 <1>   0.0800 
 39 H        5.0990    -0.9370     0.0080 H     1 <1>   0.0800 
 40 H        6.4450    -1.1000     1.1080 H     1 <1>   0.0800 
 41 H        6.9810    -6.2370    -1.5030 H     1 <1>   0.1500 
 42 H        5.3300    -6.8450     1.4140 H     1 <1>   0.0800 
 43 H        5.4960    -7.4710    -0.2040 H     1 <1>   0.0800 
 44 H        4.0300    -6.6540     0.2620 H     1 <1>   0.0800 
 45 H        7.9880    -4.1280    -2.2200 H     1 <1>   0.1500 
@<TRIPOS>BOND
  1   1   2  2   
  2   2   3  1   
  3   2   4  1   
  4   3   5  1   
  5   4   6  1   
  6   4   7  1   
  7   4   8  1   
  8   5   6  1   
  9   5   9  1   
 10   5  10  1   
 11   6  11  1   
 12   6  12  1   
 13   7  10  1   
 14   7  23  1   
 15   7  24  1   
 16   8  25  1   
 17   8  26  1   
 18   8  27  1   
 19   9  13  2   
 20   9  14  am  
 21  10  28  1   
 22  10  29  1   
 23  11  30  1   
 24  11  31  1   
 25  11  32  1   
 26  12  33  1   
 27  12  34  1   
 28  12  35  1   
 29  14  15  1   
 30  14  36  1   
 31  15  16  ar  
 32  15  17  ar  
 33  16  18  ar  
 34  16  19  1   
 35  17  20  ar  
 36  17  21  1   
 37  18  22  ar  
 38  18  37  1   
 39  19  38  1   
 40  19  39  1   
 41  19  40  1   
 42  20  22  ar  
 43  20  41  1   
 44  21  42  1   
 45  21  43  1   
 46  21  44  1   
 47  22  45  1   
@<TRIPOS>SUBSTRUCTURE
  1 ****   5 GROUP 4 **** **** 0

# MOE 2024.06 (io_trps.svl 2023.06)
