@<TRIPOS>MOLECULE
NONAME
44 45 1 0 0 
SMALL
USER_CHARGES


@<TRIPOS>ATOM
  1 S       -0.3740     0.2210    -0.4470 S.3   1 <1>  -0.3320 
  2 C       -1.8280    -0.6940     0.0900 C.ar  1 <1>   0.1020 
  3 C        0.1510    -0.5000    -2.0640 C.3   1 <1>  -0.0100 
  4 C       -2.3940    -1.7010    -0.6740 C.ar  1 <1>  -0.1500 
  5 C       -2.3670    -0.3490     1.3150 C.ar  1 <1>  -0.1500 
  6 C       -3.5160    -2.3620    -0.2030 C.ar  1 <1>  -0.1500 
  7 C       -3.4890    -1.0110     1.7830 C.ar  1 <1>  -0.1500 
  8 C       -4.0730    -2.0160     1.0230 C.ar  1 <1>  -0.1430 
  9 C       -5.3130    -2.7270     1.5290 C.3   1 <1>   0.4860 
 10 N       -6.4910    -2.2520     0.7520 N.4   1 <1>  -0.9590 
 11 C       -6.7340    -0.7930     0.9530 C.3   1 <1>   0.3430 
 12 C       -7.6990    -3.0730     1.0390 C.3   1 <1>   0.3430 
 13 C       -7.8500    -0.3280     0.0200 C.3   1 <1>  -0.1600 
 14 C       -8.8330    -2.6550     0.1050 C.3   1 <1>  -0.1600 
 15 C       -9.1410    -1.1490     0.2040 C.3   1 <1>  -0.0190 
 16 C      -10.1980    -0.7370    -0.8170 C.2   1 <1>   0.6590 
 17 O      -10.0270    -0.9120    -1.9950 O.2   1 <1>  -0.5700 
 18 O      -11.2950    -0.1820    -0.3250 O.3   1 <1>  -0.4300 
 19 C      -12.3440     0.2420    -1.1660 C.3   1 <1>   0.1200 
 20 C      -13.4440     0.8310    -0.2900 C.3   1 <1>  -0.2400 
 21 H        1.0320     0.0280    -2.3830 H     1 <1>   0.0800 
 22 H       -0.6500    -0.3620    -2.7670 H     1 <1>   0.0800 
 23 H        0.3680    -1.5420    -1.9100 H     1 <1>   0.0800 
 24 H       -1.9740    -1.9770    -1.6220 H     1 <1>   0.1500 
 25 H       -1.9040     0.4330     1.8930 H     1 <1>   0.1500 
 26 H       -3.9410    -3.1480    -0.8050 H     1 <1>   0.1500 
 27 H       -3.8900    -0.7310     2.7420 H     1 <1>   0.1500 
 28 H       -5.4500    -2.5250     2.5790 H     1 <1>   0.0800 
 29 H       -5.1870    -3.7900     1.4000 H     1 <1>   0.0800 
 30 H       -6.2480    -2.3700    -0.2410 H     1 <1>   0.4500 
 31 H       -5.8370    -0.2320     0.7380 H     1 <1>   0.0800 
 32 H       -7.0140    -0.6040     1.9770 H     1 <1>   0.0800 
 33 H       -8.0040    -2.9300     2.0630 H     1 <1>   0.0800 
 34 H       -7.4820    -4.1190     0.8900 H     1 <1>   0.0800 
 35 H       -7.5100    -0.4000    -0.9990 H     1 <1>   0.0800 
 36 H       -8.0580     0.7110     0.2130 H     1 <1>   0.0800 
 37 H       -9.7180    -3.2160     0.3540 H     1 <1>   0.0800 
 38 H       -8.5690    -2.9120    -0.9080 H     1 <1>   0.0800 
 39 H       -9.5380    -0.9460     1.1840 H     1 <1>   0.0800 
 40 H      -12.7040    -0.6090    -1.7200 H     1 <1>   0.0800 
 41 H      -11.9580     0.9800    -1.8500 H     1 <1>   0.0800 
 42 H      -13.8150     0.0870     0.3920 H     1 <1>   0.0800 
 43 H      -14.2590     1.1630    -0.9080 H     1 <1>   0.0800 
 44 H      -13.0700     1.6740     0.2630 H     1 <1>   0.0800 
@<TRIPOS>BOND
  1   1   2  1   
  2   1   3  1   
  3   2   4  ar  
  4   2   5  ar  
  5   3  21  1   
  6   3  22  1   
  7   3  23  1   
  8   4   6  ar  
  9   4  24  1   
 10   5   7  ar  
 11   5  25  1   
 12   6   8  ar  
 13   6  26  1   
 14   7   8  ar  
 15   7  27  1   
 16   8   9  1   
 17   9  10  1   
 18   9  28  1   
 19   9  29  1   
 20  10  11  1   
 21  10  12  1   
 22  10  30  1   
 23  11  13  1   
 24  11  31  1   
 25  11  32  1   
 26  12  14  1   
 27  12  33  1   
 28  12  34  1   
 29  13  15  1   
 30  13  35  1   
 31  13  36  1   
 32  14  15  1   
 33  14  37  1   
 34  14  38  1   
 35  15  16  1   
 36  15  39  1   
 37  16  17  2   
 38  16  18  1   
 39  18  19  1   
 40  19  20  1   
 41  19  40  1   
 42  19  41  1   
 43  20  42  1   
 44  20  43  1   
 45  20  44  1   
@<TRIPOS>SUBSTRUCTURE
  1 ****  11 GROUP 4 **** **** 0

# MOE 2024.06 (io_trps.svl 2023.06)
