@<TRIPOS>MOLECULE
NONAME
49 50 1 0 0 
SMALL
USER_CHARGES


@<TRIPOS>ATOM
  1 O       -1.1630    -0.9670     0.7870 O.2   1 <1>  -0.5700 
  2 C       -1.1790     0.1150     1.3260 C.2   1 <1>   0.5690 
  3 N       -0.1680     1.0130     1.1710 N.am  1 <1>  -0.7300 
  4 C       -2.3930     0.4930     2.1900 C.3   1 <1>   0.2610 
  5 C        0.9770     0.8790     0.2590 C.3   1 <1>   0.2200 
  6 O       -2.6070     1.9000     2.2040 O.3   1 <1>  -0.3630 
  7 C       -2.2180     0.0560     3.6480 C.3   1 <1>  -0.2400 
  8 C        2.2450     1.0190     1.1090 C.3   1 <1>  -0.1600 
  9 C        0.8150     1.9400    -0.8400 C.3   1 <1>  -0.1600 
 10 C       -2.9200     2.5920     1.0750 C.ar  1 <1>   0.0820 
 11 C        3.5660     0.7920     0.3560 C.3   1 <1>  -0.1600 
 12 C        1.5110     1.5790    -2.1670 C.3   1 <1>  -0.1600 
 13 C       -2.8970     3.9740     1.1720 C.ar  1 <1>  -0.1500 
 14 C       -3.2410     1.9960    -0.1430 C.ar  1 <1>  -0.1500 
 15 C        4.1160     2.0460    -0.3480 C.3   1 <1>  -0.1600 
 16 C        2.7270     2.4560    -2.4960 C.3   1 <1>  -0.1600 
 17 C       -3.1780     4.7570     0.0670 C.ar  1 <1>  -0.1500 
 18 C       -3.5210     2.7810    -1.2480 C.ar  1 <1>  -0.1500 
 19 C        4.0520     1.9850    -1.8810 C.3   1 <1>  -0.1600 
 20 C       -3.4880     4.1690    -1.1490 C.ar  1 <1>   0.0820 
 21 O       -3.7470     5.0090    -2.1850 O.3   1 <1>  -0.3620 
 22 C       -4.0690     4.5090    -3.4630 C.3   1 <1>   0.0400 
 23 H       -0.2990     1.9440     1.5720 H     1 <1>   0.3700 
 24 H       -3.2750     0.0280     1.7880 H     1 <1>   0.0800 
 25 H        0.9510    -0.1040    -0.1830 H     1 <1>   0.0800 
 26 H       -1.3510     0.5270     4.0750 H     1 <1>   0.0800 
 27 H       -2.0830    -1.0100     3.6900 H     1 <1>   0.0800 
 28 H       -3.0900     0.3160     4.2190 H     1 <1>   0.0800 
 29 H        2.1880     0.2700     1.8800 H     1 <1>   0.0800 
 30 H        2.2610     1.9780     1.5960 H     1 <1>   0.0800 
 31 H        1.1380     2.8990    -0.4780 H     1 <1>   0.0800 
 32 H       -0.2360     2.0250    -1.0600 H     1 <1>   0.0800 
 33 H        3.4660    -0.0330    -0.3280 H     1 <1>   0.0800 
 34 H        4.2970     0.4930     1.0890 H     1 <1>   0.0800 
 35 H        0.7910     1.7310    -2.9530 H     1 <1>   0.0800 
 36 H        1.7810     0.5380    -2.1990 H     1 <1>   0.0800 
 37 H       -2.6570     4.4330     2.1140 H     1 <1>   0.1500 
 38 H       -3.2750     0.9290    -0.2560 H     1 <1>   0.1500 
 39 H        5.1560     2.1280    -0.0820 H     1 <1>   0.0800 
 40 H        3.6400     2.9420     0.0090 H     1 <1>   0.0800 
 41 H        2.5350     3.4790    -2.2200 H     1 <1>   0.0800 
 42 H        2.8550     2.4450    -3.5650 H     1 <1>   0.0800 
 43 H       -3.1580     5.8290     0.1390 H     1 <1>   0.1500 
 44 H       -3.7610     2.2940    -2.1740 H     1 <1>   0.1500 
 45 H        4.2840     0.9910    -2.2250 H     1 <1>   0.0800 
 46 H        4.8240     2.6300    -2.2640 H     1 <1>   0.0800 
 47 H       -4.2290     5.3470    -4.1180 H     1 <1>   0.0800 
 48 H       -4.9680     3.9240    -3.3930 H     1 <1>   0.0800 
 49 H       -3.2480     3.9160    -3.8240 H     1 <1>   0.0800 
@<TRIPOS>BOND
  1   1   2  2   
  2   2   3  am  
  3   2   4  1   
  4   3   5  1   
  5   3  23  1   
  6   4   6  1   
  7   4   7  1   
  8   4  24  1   
  9   5   8  1   
 10   5   9  1   
 11   5  25  1   
 12   6  10  1   
 13   7  26  1   
 14   7  27  1   
 15   7  28  1   
 16   8  11  1   
 17   8  29  1   
 18   8  30  1   
 19   9  12  1   
 20   9  31  1   
 21   9  32  1   
 22  10  13  ar  
 23  10  14  ar  
 24  11  15  1   
 25  11  33  1   
 26  11  34  1   
 27  12  16  1   
 28  12  35  1   
 29  12  36  1   
 30  13  17  ar  
 31  13  37  1   
 32  14  18  ar  
 33  14  38  1   
 34  15  19  1   
 35  15  39  1   
 36  15  40  1   
 37  16  19  1   
 38  16  41  1   
 39  16  42  1   
 40  17  20  ar  
 41  17  43  1   
 42  18  20  ar  
 43  18  44  1   
 44  19  45  1   
 45  19  46  1   
 46  20  21  1   
 47  21  22  1   
 48  22  47  1   
 49  22  48  1   
 50  22  49  1   
@<TRIPOS>SUBSTRUCTURE
  1 ****   3 GROUP 4 **** **** 0

# MOE 2024.06 (io_trps.svl 2023.06)
