@<TRIPOS>MOLECULE
NONAME
41 43 1 0 0 
SMALL
USER_CHARGES


@<TRIPOS>ATOM
  1 O       -0.3100    -0.7530    -0.6960 O.2   1 <1>  -0.5700 
  2 C       -0.1240    -1.8560    -0.2100 C.2   1 <1>   0.7150 
  3 N       -1.2030    -2.5110     0.3580 N.am  1 <1>  -0.6600 
  4 C        1.2160    -2.4120    -0.2640 C.2   1 <1>   0.0550 
  5 C       -2.4240    -1.7690     0.7820 C.3   1 <1>   0.1400 
  6 C       -1.2730    -3.9880     0.5350 C.3   1 <1>   0.1400 
  7 O        1.6430    -3.3220     0.6280 O.3   1 <1>  -0.2800 
  8 C        2.2270    -2.1280    -1.1250 C.2   1 <1>  -0.1500 
  9 C       -3.6470    -2.3120     0.0420 C.3   1 <1>  -0.1600 
 10 C       -2.5040    -4.5440    -0.1870 C.3   1 <1>  -0.1600 
 11 C        2.9060    -3.6280     0.3400 C.ar  1 <1>   0.1400 
 12 C        3.3350    -2.9090    -0.7590 C.ar  1 <1>   0.0000 
 13 C       -3.8000    -3.8320     0.2420 C.3   1 <1>  -0.0190 
 14 C        3.7350    -4.5260     1.0000 C.ar  1 <1>  -0.1500 
 15 C        4.6380    -3.0840    -1.2280 C.ar  1 <1>  -0.1500 
 16 C       -5.0110    -4.4120    -0.4880 C.2   1 <1>   0.6590 
 17 C        5.0220    -4.6960     0.5300 C.ar  1 <1>  -0.1500 
 18 C        5.4700    -3.9750    -0.5820 C.ar  1 <1>  -0.1500 
 19 O       -5.6240    -3.8000    -1.3260 O.2   1 <1>  -0.5700 
 20 O       -5.3480    -5.6460    -0.1360 O.3   1 <1>  -0.4300 
 21 C       -6.4380    -6.3080    -0.7330 C.3   1 <1>   0.1200 
 22 C       -6.5400    -7.7000    -0.1180 C.3   1 <1>  -0.2400 
 23 H       -2.3210    -0.7150     0.5840 H     1 <1>   0.0800 
 24 H       -2.5530    -1.8920     1.8440 H     1 <1>   0.0800 
 25 H       -1.3240    -4.2130     1.5870 H     1 <1>   0.0800 
 26 H       -0.4010    -4.4670     0.1290 H     1 <1>   0.0800 
 27 H        2.2100    -1.4320    -1.9440 H     1 <1>   0.1500 
 28 H       -3.5450    -2.0850    -1.0060 H     1 <1>   0.0800 
 29 H       -4.5290    -1.8080     0.3980 H     1 <1>   0.0800 
 30 H       -2.5820    -5.5970     0.0180 H     1 <1>   0.0800 
 31 H       -2.3640    -4.4290    -1.2490 H     1 <1>   0.0800 
 32 H       -3.9540    -4.0150     1.2910 H     1 <1>   0.0800 
 33 H        3.3660    -5.0650     1.8530 H     1 <1>   0.1500 
 34 H        4.9730    -2.5250    -2.0830 H     1 <1>   0.1500 
 35 H        5.6900    -5.3840     1.0190 H     1 <1>   0.1500 
 36 H        6.4780    -4.1230    -0.9310 H     1 <1>   0.1500 
 37 H       -6.2630    -6.3650    -1.7940 H     1 <1>   0.0800 
 38 H       -7.3300    -5.7340    -0.5450 H     1 <1>   0.0800 
 39 H       -5.6380    -8.2550    -0.3050 H     1 <1>   0.0800 
 40 H       -7.3650    -8.2300    -0.5580 H     1 <1>   0.0800 
 41 H       -6.7060    -7.6270     0.9410 H     1 <1>   0.0800 
@<TRIPOS>BOND
  1   1   2  2   
  2   2   3  am  
  3   2   4  1   
  4   3   5  1   
  5   3   6  1   
  6   4   7  1   
  7   4   8  2   
  8   5   9  1   
  9   5  23  1   
 10   5  24  1   
 11   6  10  1   
 12   6  25  1   
 13   6  26  1   
 14   7  11  1   
 15   8  12  1   
 16   8  27  1   
 17   9  13  1   
 18   9  28  1   
 19   9  29  1   
 20  10  13  1   
 21  10  30  1   
 22  10  31  1   
 23  11  12  ar  
 24  11  14  ar  
 25  12  15  ar  
 26  13  16  1   
 27  13  32  1   
 28  14  17  ar  
 29  14  33  1   
 30  15  18  ar  
 31  15  34  1   
 32  16  19  2   
 33  16  20  1   
 34  17  18  ar  
 35  17  35  1   
 36  18  36  1   
 37  20  21  1   
 38  21  22  1   
 39  21  37  1   
 40  21  38  1   
 41  22  39  1   
 42  22  40  1   
 43  22  41  1   
@<TRIPOS>SUBSTRUCTURE
  1 ****   6 GROUP 4 **** **** 0

# MOE 2024.06 (io_trps.svl 2023.06)
