@<TRIPOS>MOLECULE
NONAME
35 36 1 0 0 
SMALL
USER_CHARGES


@<TRIPOS>ATOM
  1 CL      -2.9000     1.7280    -3.0610 Cl    1 <1>  -0.1770 
  2 C       -1.7770     2.4240    -1.9110 C.ar  1 <1>   0.1770 
  3 C       -2.1770     2.6530    -0.5990 C.ar  1 <1>   0.0820 
  4 C       -0.5010     2.7340    -2.3420 C.ar  1 <1>  -0.1500 
  5 O       -3.4480     2.3210    -0.2510 O.3   1 <1>  -0.3630 
  6 C       -1.2590     3.2090     0.2910 C.ar  1 <1>  -0.1500 
  7 C        0.4030     3.2850    -1.4490 C.ar  1 <1>  -0.1500 
  8 C       -3.9450     2.5330     1.0630 C.3   1 <1>   0.1810 
  9 C        0.0220     3.5200    -0.1380 C.ar  1 <1>  -0.1500 
 10 C       -5.3930     2.0780     1.1770 C.2   1 <1>   0.5690 
 11 O       -5.8820     2.0020     2.2840 O.2   1 <1>  -0.5700 
 12 N       -6.0800     1.7670     0.0440 N.am  1 <1>  -0.4300 
 13 N       -7.5210     1.4950    -0.0390 N.am  1 <1>  -0.4300 
 14 C       -8.5010     2.4150    -0.2500 C.2   1 <1>   0.5690 
 15 O       -8.2640     3.5720    -0.5350 O.2   1 <1>  -0.5700 
 16 C       -9.9600     1.9550    -0.1280 C.3   1 <1>   0.2610 
 17 O      -10.0620     0.5780     0.1310 O.3   1 <1>  -0.5600 
 18 C      -10.7860     2.1480    -1.3950 C.3   1 <1>  -0.1600 
 19 C      -11.3360     0.1280    -0.2020 C.3   1 <1>   0.1200 
 20 C      -11.8540     1.0690    -1.2880 C.3   1 <1>  -0.1600 
 21 H       -0.2210     2.5460    -3.3630 H     1 <1>   0.1500 
 22 H       -1.5150     3.4060     1.3150 H     1 <1>   0.1500 
 23 H        1.4000     3.5310    -1.7740 H     1 <1>   0.1500 
 24 H       -3.8860     3.5820     1.2870 H     1 <1>   0.0800 
 25 H       -3.3420     1.9710     1.7520 H     1 <1>   0.0800 
 26 H        0.7280     3.9490     0.5530 H     1 <1>   0.1500 
 27 H       -5.5770     1.8520    -0.8490 H     1 <1>   0.3700 
 28 H       -7.8390     0.5510     0.2180 H     1 <1>   0.3700 
 29 H      -10.4210     2.4720     0.6960 H     1 <1>   0.0800 
 30 H      -10.1640     1.9750    -2.2570 H     1 <1>   0.0800 
 31 H      -11.1950     3.1410    -1.4500 H     1 <1>   0.0800 
 32 H      -11.9500     0.1750     0.6810 H     1 <1>   0.0800 
 33 H      -11.2630    -0.8900    -0.5460 H     1 <1>   0.0800 
 34 H      -11.9810     0.5500    -2.2220 H     1 <1>   0.0800 
 35 H      -12.8000     1.4850    -0.9880 H     1 <1>   0.0800 
@<TRIPOS>BOND
  1   1   2  1   
  2   2   3  ar  
  3   2   4  ar  
  4   3   5  1   
  5   3   6  ar  
  6   4   7  ar  
  7   4  21  1   
  8   5   8  1   
  9   6   9  ar  
 10   6  22  1   
 11   7   9  ar  
 12   7  23  1   
 13   8  10  1   
 14   8  24  1   
 15   8  25  1   
 16   9  26  1   
 17  10  11  2   
 18  10  12  am  
 19  12  13  1   
 20  12  27  1   
 21  13  14  am  
 22  13  28  1   
 23  14  15  2   
 24  14  16  1   
 25  16  17  1   
 26  16  18  1   
 27  16  29  1   
 28  17  19  1   
 29  18  20  1   
 30  18  30  1   
 31  18  31  1   
 32  19  20  1   
 33  19  32  1   
 34  19  33  1   
 35  20  34  1   
 36  20  35  1   
@<TRIPOS>SUBSTRUCTURE
  1 ****  12 GROUP 4 **** **** 0

# MOE 2024.06 (io_trps.svl 2023.06)
