@<TRIPOS>MOLECULE
NONAME
42 44 1 0 0 
SMALL
USER_CHARGES


@<TRIPOS>ATOM
  1 O        0.8150    -1.6020    -1.4920 O.2   1 <1>  -0.5700 
  2 C        0.0230    -1.4210    -0.5890 C.2   1 <1>   0.6340 
  3 O        0.2500    -0.4170     0.2670 O.3   1 <1>  -0.4300 
  4 C       -1.1650    -2.1930    -0.3670 C.ar  1 <1>   0.0860 
  5 C        1.3940     0.4120     0.1990 C.3   1 <1>   0.1200 
  6 C       -1.2740    -3.5740    -0.5550 C.ar  1 <1>   0.4100 
  7 C       -2.3150    -1.5680     0.0660 C.ar  1 <1>   0.1600 
  8 C        2.5470    -0.2770     0.9260 C.3   1 <1>  -0.2400 
  9 N       -2.4180    -4.2040    -0.3600 N.ar  1 <1>  -0.6200 
 10 N       -0.2240    -4.3850    -0.9220 N.pl3 1 <1>  -0.8380 
 11 N       -3.4500    -2.1860     0.2750 N.ar  1 <1>  -0.6200 
 12 C       -3.4670    -3.5030     0.0460 C.ar  1 <1>   0.6200 
 13 C       -0.4000    -5.5670    -1.8190 C.3   1 <1>   0.2090 
 14 C        1.0870    -4.3970    -0.2070 C.3   1 <1>   0.2090 
 15 C       -4.7200    -4.2120     0.2620 C.ar  1 <1>   0.0000 
 16 C       -0.0790    -6.8690    -1.0660 C.3   1 <1>   0.1200 
 17 C        1.3410    -5.7700     0.4440 C.3   1 <1>   0.1200 
 18 C       -5.9580    -3.5710     0.1490 C.ar  1 <1>  -0.1500 
 19 C       -4.7460    -5.5710     0.5930 C.ar  1 <1>  -0.1500 
 20 O        1.1960    -6.8110    -0.4840 O.3   1 <1>  -0.5600 
 21 C       -7.1490    -4.2430     0.3530 C.ar  1 <1>  -0.1500 
 22 C       -5.9330    -6.2500     0.7980 C.ar  1 <1>  -0.1500 
 23 C       -7.1400    -5.5860     0.6790 C.ar  1 <1>  -0.1500 
 24 H        1.1500     1.3420     0.6820 H     1 <1>   0.0800 
 25 H        1.6350     0.6070    -0.8330 H     1 <1>   0.0800 
 26 H       -2.2950    -0.5050     0.2430 H     1 <1>   0.1500 
 27 H        2.2770    -0.4790     1.9470 H     1 <1>   0.0800 
 28 H        3.4100     0.3640     0.9210 H     1 <1>   0.0800 
 29 H        2.8070    -1.1950     0.4290 H     1 <1>   0.0800 
 30 H        0.2650    -5.4720    -2.6600 H     1 <1>   0.0800 
 31 H       -1.4050    -5.6070    -2.2010 H     1 <1>   0.0800 
 32 H        1.1030    -3.6410     0.5580 H     1 <1>   0.0800 
 33 H        1.8750    -4.1790    -0.9070 H     1 <1>   0.0800 
 34 H       -0.0940    -7.7030    -1.7440 H     1 <1>   0.0800 
 35 H       -0.8060    -7.0370    -0.2900 H     1 <1>   0.0800 
 36 H        0.6470    -5.9330     1.2500 H     1 <1>   0.0800 
 37 H        2.3420    -5.8150     0.8340 H     1 <1>   0.0800 
 38 H       -5.9880    -2.5250    -0.1040 H     1 <1>   0.1500 
 39 H       -3.8170    -6.1060     0.6920 H     1 <1>   0.1500 
 40 H       -8.0850    -3.7200     0.2590 H     1 <1>   0.1500 
 41 H       -5.9190    -7.2960     1.0520 H     1 <1>   0.1500 
 42 H       -8.0650    -6.1110     0.8380 H     1 <1>   0.1500 
@<TRIPOS>BOND
  1   1   2  2   
  2   2   3  1   
  3   2   4  1   
  4   3   5  1   
  5   4   6  ar  
  6   4   7  ar  
  7   5   8  1   
  8   5  24  1   
  9   5  25  1   
 10   6   9  ar  
 11   6  10  1   
 12   7  11  ar  
 13   7  26  1   
 14   8  27  1   
 15   8  28  1   
 16   8  29  1   
 17   9  12  ar  
 18  10  13  1   
 19  10  14  1   
 20  11  12  ar  
 21  12  15  1   
 22  13  16  1   
 23  13  30  1   
 24  13  31  1   
 25  14  17  1   
 26  14  32  1   
 27  14  33  1   
 28  15  18  ar  
 29  15  19  ar  
 30  16  20  1   
 31  16  34  1   
 32  16  35  1   
 33  17  20  1   
 34  17  36  1   
 35  17  37  1   
 36  18  21  ar  
 37  18  38  1   
 38  19  22  ar  
 39  19  39  1   
 40  21  23  ar  
 41  21  40  1   
 42  22  23  ar  
 43  22  41  1   
 44  23  42  1   
@<TRIPOS>SUBSTRUCTURE
  1 ****   6 GROUP 4 **** **** 0

# MOE 2024.06 (io_trps.svl 2023.06)
