@<TRIPOS>MOLECULE
NONAME
45 47 1 0 0 
SMALL
USER_CHARGES


@<TRIPOS>ATOM
  1 S        0.7040    -0.6040    -0.0610 S.3   1 <1>  -0.2860 
  2 C       -1.0330    -0.6960     0.3870 C.2   1 <1>   0.2420 
  3 C        1.5520    -1.0090     1.5460 C.3   1 <1>   0.1310 
  4 N       -1.4410    -0.9240     1.5830 N.2   1 <1>  -0.3380 
  5 N       -2.0200    -0.5360    -0.4940 N.pl3 1 <1>   0.0480 
  6 C        3.0640    -0.9150     1.4210 C.2   1 <1>   0.5690 
  7 N       -2.7740    -0.9220     1.5140 N.2   1 <1>  -0.3380 
  8 C       -3.1040    -0.6960     0.2820 C.2   1 <1>   0.0060 
  9 C       -1.9150    -0.2690    -1.9430 C.3   1 <1>   0.0160 
 10 O        3.7340    -1.5590     2.1900 O.2   1 <1>  -0.5700 
 11 N        3.5870    -0.1040     0.4490 N.am  1 <1>  -0.5470 
 12 C       -4.5380    -0.6200    -0.2420 C.3   1 <1>   0.1000 
 13 C        4.9070     0.2120     0.0880 C.ar  1 <1>   0.1170 
 14 C       -5.6220    -0.6490     0.8360 C.3   1 <1>  -0.1600 
 15 C       -4.9120    -1.8030    -1.1350 C.3   1 <1>  -0.1600 
 16 C        5.1650     0.7150    -1.1900 C.ar  1 <1>  -0.1430 
 17 C        5.9700     0.0590     0.9730 C.ar  1 <1>  -0.1500 
 18 C       -6.8980    -1.0420     0.0940 C.3   1 <1>  -0.1600 
 19 C       -6.4430    -1.8750    -1.1100 C.3   1 <1>  -0.1600 
 20 C        6.4610     1.0460    -1.5540 C.ar  1 <1>  -0.1500 
 21 C        4.0460     0.9060    -2.2080 C.3   1 <1>  -0.0970 
 22 C        7.2600     0.3890     0.6020 C.ar  1 <1>  -0.1500 
 23 C        7.5080     0.8840    -0.6640 C.ar  1 <1>  -0.1500 
 24 H        1.2590    -2.0070     1.8170 H     1 <1>   0.0800 
 25 H        1.1940    -0.3140     2.2830 H     1 <1>   0.0800 
 26 H       -1.0500     0.3390    -2.1370 H     1 <1>   0.0800 
 27 H       -2.7910     0.2500    -2.2850 H     1 <1>   0.0800 
 28 H       -1.8210    -1.2030    -2.4680 H     1 <1>   0.0800 
 29 H        2.8850     0.2870    -0.1780 H     1 <1>   0.3700 
 30 H       -4.6600     0.2920    -0.8020 H     1 <1>   0.0800 
 31 H       -5.7140     0.2980     1.3390 H     1 <1>   0.0800 
 32 H       -5.3920    -1.4100     1.5620 H     1 <1>   0.0800 
 33 H       -4.5100    -2.7060    -0.7050 H     1 <1>   0.0800 
 34 H       -4.5350    -1.6930    -2.1360 H     1 <1>   0.0800 
 35 H        5.7970    -0.3190     1.9630 H     1 <1>   0.1500 
 36 H       -7.4020    -0.1560    -0.2520 H     1 <1>   0.0800 
 37 H       -7.5650    -1.5960     0.7320 H     1 <1>   0.0800 
 38 H       -6.7680    -2.8980    -1.0160 H     1 <1>   0.0800 
 39 H       -6.8550    -1.4630    -2.0160 H     1 <1>   0.0800 
 40 H        6.6700     1.4320    -2.5360 H     1 <1>   0.1500 
 41 H        3.5290    -0.0240    -2.3650 H     1 <1>   0.0800 
 42 H        4.4380     1.2350    -3.1540 H     1 <1>   0.0800 
 43 H        3.3500     1.6460    -1.8560 H     1 <1>   0.0800 
 44 H        8.0690     0.2600     1.3000 H     1 <1>   0.1500 
 45 H        8.5110     1.1420    -0.9560 H     1 <1>   0.1500 
@<TRIPOS>BOND
  1   1   2  1   
  2   1   3  1   
  3   2   4  2   
  4   2   5  1   
  5   3   6  1   
  6   3  24  1   
  7   3  25  1   
  8   4   7  1   
  9   5   8  1   
 10   5   9  1   
 11   6  10  2   
 12   6  11  am  
 13   7   8  2   
 14   8  12  1   
 15   9  26  1   
 16   9  27  1   
 17   9  28  1   
 18  11  13  1   
 19  11  29  1   
 20  12  14  1   
 21  12  15  1   
 22  12  30  1   
 23  13  16  ar  
 24  13  17  ar  
 25  14  18  1   
 26  14  31  1   
 27  14  32  1   
 28  15  19  1   
 29  15  33  1   
 30  15  34  1   
 31  16  20  ar  
 32  16  21  1   
 33  17  22  ar  
 34  17  35  1   
 35  18  19  1   
 36  18  36  1   
 37  18  37  1   
 38  19  38  1   
 39  19  39  1   
 40  20  23  ar  
 41  20  40  1   
 42  21  41  1   
 43  21  42  1   
 44  21  43  1   
 45  22  23  ar  
 46  22  44  1   
 47  23  45  1   
@<TRIPOS>SUBSTRUCTURE
  1 ****   1 GROUP 4 **** **** 0

# MOE 2024.06 (io_trps.svl 2023.06)
