@<TRIPOS>MOLECULE
NONAME
53 54 1 0 0 
SMALL
USER_CHARGES


@<TRIPOS>ATOM
  1 S        0.7340    -0.1380    -1.4800 S.o2  1 <1>   1.3330 
  2 O        1.8890    -0.2850    -2.3370 O.2   1 <1>  -0.6500 
  3 O        0.8240    -0.5460    -0.1020 O.2   1 <1>  -0.6500 
  4 N        0.3150     1.5380    -1.5220 N.am  1 <1>  -0.6930 
  5 C       -0.6670    -0.9070    -2.2620 C.3   1 <1>  -0.1350 
  6 C       -0.6900     2.0030    -0.6760 C.ar  1 <1>   0.1990 
  7 C        1.4200     2.4720    -1.9220 C.3   1 <1>   0.3370 
  8 C       -0.4610     2.2040     0.6800 C.ar  1 <1>  -0.1500 
  9 C       -1.9530     2.2750    -1.1890 C.ar  1 <1>  -0.1500 
 10 C        2.5520     2.5680    -0.8700 C.2   1 <1>   0.5690 
 11 C        0.8400     3.8410    -2.3200 C.3   1 <1>  -0.2400 
 12 C       -1.4730     2.6630     1.5030 C.ar  1 <1>  -0.1500 
 13 C       -2.9690     2.7340    -0.3700 C.ar  1 <1>  -0.1500 
 14 O        2.6080     3.5260    -0.1330 O.2   1 <1>  -0.5700 
 15 N        3.4620     1.5470    -0.8090 N.am  1 <1>  -0.5470 
 16 C       -2.7310     2.9300     0.9880 C.ar  1 <1>   0.0830 
 17 C        4.4390     1.3190     0.1670 C.ar  1 <1>   0.1170 
 18 O       -3.6680     3.3760     1.8670 O.3   1 <1>  -0.3630 
 19 C        5.5640     2.1310     0.3220 C.ar  1 <1>  -0.1430 
 20 C        4.2780     0.2190     0.9990 C.ar  1 <1>  -0.1500 
 21 C       -4.9660     3.7070     1.4360 C.3   1 <1>   0.1200 
 22 C        6.4920     1.8270     1.3040 C.ar  1 <1>  -0.1500 
 23 C        5.8020     3.3460    -0.5650 C.3   1 <1>  -0.0970 
 24 C        5.2070    -0.0840     1.9780 C.ar  1 <1>  -0.1430 
 25 C       -5.7570     4.1860     2.6490 C.3   1 <1>  -0.2400 
 26 C        6.3180     0.7280     2.1260 C.ar  1 <1>  -0.1500 
 27 C        5.0150    -1.2880     2.8810 C.3   1 <1>  -0.0970 
 28 H       -0.5130    -1.9660    -2.3300 H     1 <1>   0.0800 
 29 H       -0.8030    -0.5140    -3.2500 H     1 <1>   0.0800 
 30 H       -1.5550    -0.7250    -1.6890 H     1 <1>   0.0800 
 31 H        1.8710     2.0810    -2.8170 H     1 <1>   0.0800 
 32 H        0.5120     1.9980     1.0920 H     1 <1>   0.1500 
 33 H       -2.1330     2.1300    -2.2370 H     1 <1>   0.1500 
 34 H        0.4150     4.3380    -1.4650 H     1 <1>   0.0800 
 35 H        0.0900     3.7250    -3.0800 H     1 <1>   0.0800 
 36 H        1.6260     4.4650    -2.7050 H     1 <1>   0.0800 
 37 H       -1.2910     2.8170     2.5510 H     1 <1>   0.1500 
 38 H       -3.9310     2.9330    -0.8020 H     1 <1>   0.1500 
 39 H        3.2490     0.7290    -1.3940 H     1 <1>   0.3700 
 40 H        3.4060    -0.4010     0.8760 H     1 <1>   0.1500 
 41 H       -5.4190     2.8290     1.0100 H     1 <1>   0.0800 
 42 H       -4.8920     4.4880     0.6990 H     1 <1>   0.0800 
 43 H        7.3610     2.4470     1.4370 H     1 <1>   0.1500 
 44 H        5.1780     4.1590    -0.2390 H     1 <1>   0.0800 
 45 H        5.5670     3.1160    -1.5880 H     1 <1>   0.0800 
 46 H        6.8280     3.6610    -0.5180 H     1 <1>   0.0800 
 47 H       -5.8110     3.4050     3.3860 H     1 <1>   0.0800 
 48 H       -6.7560     4.4480     2.3530 H     1 <1>   0.0800 
 49 H       -5.2860     5.0520     3.0780 H     1 <1>   0.0800 
 50 H        7.0500     0.5080     2.8820 H     1 <1>   0.1500 
 51 H        4.0050    -1.6520     2.8220 H     1 <1>   0.0800 
 52 H        5.2200    -1.0190     3.9020 H     1 <1>   0.0800 
 53 H        5.6850    -2.0750     2.5860 H     1 <1>   0.0800 
@<TRIPOS>BOND
  1   1   2  2   
  2   1   3  2   
  3   1   4  am  
  4   1   5  1   
  5   4   6  1   
  6   4   7  1   
  7   5  28  1   
  8   5  29  1   
  9   5  30  1   
 10   6   8  ar  
 11   6   9  ar  
 12   7  10  1   
 13   7  11  1   
 14   7  31  1   
 15   8  12  ar  
 16   8  32  1   
 17   9  13  ar  
 18   9  33  1   
 19  10  14  2   
 20  10  15  am  
 21  11  34  1   
 22  11  35  1   
 23  11  36  1   
 24  12  16  ar  
 25  12  37  1   
 26  13  16  ar  
 27  13  38  1   
 28  15  17  1   
 29  15  39  1   
 30  16  18  1   
 31  17  19  ar  
 32  17  20  ar  
 33  18  21  1   
 34  19  22  ar  
 35  19  23  1   
 36  20  24  ar  
 37  20  40  1   
 38  21  25  1   
 39  21  41  1   
 40  21  42  1   
 41  22  26  ar  
 42  22  43  1   
 43  23  44  1   
 44  23  45  1   
 45  23  46  1   
 46  24  26  ar  
 47  24  27  1   
 48  25  47  1   
 49  25  48  1   
 50  25  49  1   
 51  26  50  1   
 52  27  51  1   
 53  27  52  1   
 54  27  53  1   
@<TRIPOS>SUBSTRUCTURE
  1 ****   8 GROUP 4 **** **** 0

# MOE 2024.06 (io_trps.svl 2023.06)
