@<TRIPOS>MOLECULE
NONAME
46 49 1 0 0 
SMALL
USER_CHARGES


@<TRIPOS>ATOM
  1 CL       2.1910    -1.2300    -2.2900 Cl    1 <1>  -0.1770 
  2 C        3.6010    -0.5730    -1.4990 C.ar  1 <1>   0.1770 
  3 C        4.4370    -1.4130    -0.7930 C.ar  1 <1>  -0.1500 
  4 C        3.8630     0.7790    -1.5900 C.ar  1 <1>  -0.1500 
  5 C        5.5540    -0.8840    -0.1680 C.ar  1 <1>  -0.1500 
  6 C        4.9820     1.3000    -0.9620 C.ar  1 <1>  -0.1500 
  7 C        5.8450     0.4770    -0.2380 C.ar  1 <1>  -0.1430 
  8 C        7.1030     1.0080     0.4770 C.3   1 <1>   0.4240 
  9 O        7.0600     0.5000     1.7610 O.3   1 <1>  -0.6800 
 10 C        8.3800     0.4900    -0.1930 C.3   1 <1>  -0.1600 
 11 C        7.1760     2.5370     0.6100 C.3   1 <1>  -0.1600 
 12 C        9.6460     1.0270     0.4780 C.3   1 <1>   0.1100 
 13 C        8.4770     2.9890     1.2790 C.3   1 <1>   0.1100 
 14 N        9.6190     2.5000     0.4970 N.3   1 <1>  -0.8100 
 15 C       10.8880     3.0490     1.0320 C.3   1 <1>   0.2900 
 16 C       12.1080     2.7150     0.1790 C.2   1 <1>   0.2980 
 17 O       12.1590     3.1670    -1.0470 O.3   1 <1>  -0.0190 
 18 N       13.1130     2.0300     0.5480 N.2   1 <1>  -0.5650 
 19 N       13.2940     2.7320    -1.4980 N.2   1 <1>  -0.4100 
 20 C       13.8600     2.0560    -0.5610 C.2   1 <1>   0.4620 
 21 C       15.1500     1.3910    -0.6560 C.ar  1 <1>   0.0540 
 22 C       15.9080     1.4440    -1.8280 C.ar  1 <1>  -0.1500 
 23 C       15.6870     0.6710     0.4140 C.ar  1 <1>  -0.1500 
 24 C       17.1360     0.8150    -1.9290 C.ar  1 <1>  -0.1500 
 25 C       16.9150     0.0400     0.3210 C.ar  1 <1>  -0.1500 
 26 C       17.6430     0.1110    -0.8520 C.ar  1 <1>  -0.1500 
 27 H        4.2170    -2.4630    -0.7360 H     1 <1>   0.1500 
 28 H        3.1970     1.4130    -2.1480 H     1 <1>   0.1500 
 29 H        6.2040    -1.5470     0.3800 H     1 <1>   0.1500 
 30 H        5.1580     2.3560    -1.0560 H     1 <1>   0.1500 
 31 H        6.1350     0.5440     2.0650 H     1 <1>   0.4000 
 32 H        8.3840     0.7970    -1.2220 H     1 <1>   0.0800 
 33 H        8.3930    -0.5840    -0.1760 H     1 <1>   0.0800 
 34 H        6.3310     2.9010     1.1640 H     1 <1>   0.0800 
 35 H        7.1540     2.9840    -0.3660 H     1 <1>   0.0800 
 36 H       10.5010     0.6790    -0.0780 H     1 <1>   0.0800 
 37 H        9.7180     0.6450     1.4830 H     1 <1>   0.0800 
 38 H        8.5280     2.6110     2.2880 H     1 <1>   0.0800 
 39 H        8.4950     4.0650     1.3140 H     1 <1>   0.0800 
 40 H       11.0500     2.6750     2.0280 H     1 <1>   0.0800 
 41 H       10.8130     4.1200     1.0870 H     1 <1>   0.0800 
 42 H       15.5290     1.9880    -2.6760 H     1 <1>   0.1500 
 43 H       15.1350     0.6050     1.3350 H     1 <1>   0.1500 
 44 H       17.6980     0.8740    -2.8450 H     1 <1>   0.1500 
 45 H       17.3030    -0.5070     1.1620 H     1 <1>   0.1500 
 46 H       18.5980    -0.3800    -0.9280 H     1 <1>   0.1500 
@<TRIPOS>BOND
  1   1   2  1   
  2   2   3  ar  
  3   2   4  ar  
  4   3   5  ar  
  5   3  27  1   
  6   4   6  ar  
  7   4  28  1   
  8   5   7  ar  
  9   5  29  1   
 10   6   7  ar  
 11   6  30  1   
 12   7   8  1   
 13   8   9  1   
 14   8  10  1   
 15   8  11  1   
 16   9  31  1   
 17  10  12  1   
 18  10  32  1   
 19  10  33  1   
 20  11  13  1   
 21  11  34  1   
 22  11  35  1   
 23  12  14  1   
 24  12  36  1   
 25  12  37  1   
 26  13  14  1   
 27  13  38  1   
 28  13  39  1   
 29  14  15  1   
 30  15  16  1   
 31  15  40  1   
 32  15  41  1   
 33  16  17  1   
 34  16  18  2   
 35  17  19  1   
 36  18  20  1   
 37  19  20  2   
 38  20  21  1   
 39  21  22  ar  
 40  21  23  ar  
 41  22  24  ar  
 42  22  42  1   
 43  23  25  ar  
 44  23  43  1   
 45  24  26  ar  
 46  24  44  1   
 47  25  26  ar  
 48  25  45  1   
 49  26  46  1   
@<TRIPOS>SUBSTRUCTURE
  1 ****  12 GROUP 4 **** **** 0

# MOE 2024.06 (io_trps.svl 2023.06)
