@<TRIPOS>MOLECULE
NONAME
40 41 1 0 0 
SMALL
USER_CHARGES


@<TRIPOS>ATOM
  1 O       -0.3160    -0.0720     0.0920 O.2   1 <1>  -0.5700 
  2 C       -0.1770    -1.2460    -0.1990 C.2   1 <1>   0.6900 
  3 N       -1.2690    -2.0140    -0.5170 N.am  1 <1>  -0.6600 
  4 N        1.0530    -1.8380    -0.1870 N.am  1 <1>  -0.5470 
  5 C       -2.6490    -1.5630    -0.1790 C.3   1 <1>   0.1400 
  6 C       -1.2200    -3.2340    -1.3660 C.3   1 <1>   0.1400 
  7 C        2.3450    -1.3140    -0.0380 C.ar  1 <1>   0.1170 
  8 C       -3.4080    -2.6930     0.5390 C.3   1 <1>  -0.0800 
  9 C       -1.9400    -4.3810    -0.6500 C.3   1 <1>  -0.1600 
 10 C        2.6600     0.0090    -0.3250 C.ar  1 <1>  -0.1500 
 11 C        3.3620    -2.1570     0.3940 C.ar  1 <1>  -0.1500 
 12 C       -3.3810    -3.9930    -0.2840 C.3   1 <1>  -0.1600 
 13 C       -4.8550    -2.2740     0.8290 C.3   1 <1>  -0.2400 
 14 C        3.9530     0.4840    -0.1810 C.ar  1 <1>  -0.1430 
 15 C        4.6600    -1.6980     0.5410 C.ar  1 <1>  -0.1430 
 16 C        4.9490    -0.3750     0.2510 C.ar  1 <1>  -0.1500 
 17 C        4.2800     1.9320    -0.4940 C.3   1 <1>  -0.0970 
 18 C        5.7670    -2.6220     1.0150 C.3   1 <1>  -0.0970 
 19 H        0.9870    -2.8480    -0.1670 H     1 <1>   0.3700 
 20 H       -3.1590    -1.2910    -1.0860 H     1 <1>   0.0800 
 21 H       -2.6140    -0.6960     0.4590 H     1 <1>   0.0800 
 22 H       -0.2070    -3.5150    -1.5900 H     1 <1>   0.0800 
 23 H       -1.7160    -3.0240    -2.2990 H     1 <1>   0.0800 
 24 H       -2.9160    -2.8690     1.4810 H     1 <1>   0.0800 
 25 H       -1.3950    -4.6350     0.2420 H     1 <1>   0.0800 
 26 H       -1.9520    -5.2470    -1.2870 H     1 <1>   0.0800 
 27 H        1.8870     0.6720    -0.6670 H     1 <1>   0.1500 
 28 H        3.1320    -3.1810     0.6210 H     1 <1>   0.1500 
 29 H       -3.9500    -3.8580    -1.1880 H     1 <1>   0.0800 
 30 H       -3.8360    -4.7900     0.2790 H     1 <1>   0.0800 
 31 H       -5.3850    -2.0780    -0.0860 H     1 <1>   0.0800 
 32 H       -4.8700    -1.3840     1.4330 H     1 <1>   0.0800 
 33 H       -5.3680    -3.0540     1.3640 H     1 <1>   0.0800 
 34 H        5.9560    -0.0110     0.3630 H     1 <1>   0.1500 
 35 H        3.3850     2.5290    -0.5080 H     1 <1>   0.0800 
 36 H        4.7550     1.9980    -1.4560 H     1 <1>   0.0800 
 37 H        4.9430     2.3320     0.2510 H     1 <1>   0.0800 
 38 H        5.3920    -3.6140     1.1920 H     1 <1>   0.0800 
 39 H        6.1870    -2.2460     1.9300 H     1 <1>   0.0800 
 40 H        6.5410    -2.6750     0.2720 H     1 <1>   0.0800 
@<TRIPOS>BOND
  1   1   2  2   
  2   2   3  am  
  3   2   4  am  
  4   3   5  1   
  5   3   6  1   
  6   4   7  1   
  7   4  19  1   
  8   5   8  1   
  9   5  20  1   
 10   5  21  1   
 11   6   9  1   
 12   6  22  1   
 13   6  23  1   
 14   7  10  ar  
 15   7  11  ar  
 16   8  12  1   
 17   8  13  1   
 18   8  24  1   
 19   9  12  1   
 20   9  25  1   
 21   9  26  1   
 22  10  14  ar  
 23  10  27  1   
 24  11  15  ar  
 25  11  28  1   
 26  12  29  1   
 27  12  30  1   
 28  13  31  1   
 29  13  32  1   
 30  13  33  1   
 31  14  16  ar  
 32  14  17  1   
 33  15  16  ar  
 34  15  18  1   
 35  16  34  1   
 36  17  35  1   
 37  17  36  1   
 38  17  37  1   
 39  18  38  1   
 40  18  39  1   
 41  18  40  1   
@<TRIPOS>SUBSTRUCTURE
  1 ****   4 GROUP 4 **** **** 0

# MOE 2024.06 (io_trps.svl 2023.06)
