@<TRIPOS>MOLECULE
NONAME
29 29 1 0 0 
SMALL
USER_CHARGES


@<TRIPOS>ATOM
  1 BR      -0.0590    -0.5800     2.0130 Br    1 <1>  -0.1110 
  2 C       -1.5510    -1.1560     0.9380 C.ar  1 <1>   0.1110 
  3 C       -1.6970    -2.5040     0.6700 C.ar  1 <1>  -0.1500 
  4 C       -2.4320    -0.2080     0.4620 C.ar  1 <1>  -0.1500 
  5 C       -2.7690    -2.9350    -0.1040 C.ar  1 <1>  -0.1440 
  6 C       -3.4980    -0.6360    -0.3060 C.ar  1 <1>  -0.1500 
  7 C       -3.6820    -1.9880    -0.5880 C.ar  1 <1>   0.1990 
  8 C       -2.9770    -4.4170    -0.4460 C.3   1 <1>  -0.0160 
  9 N       -4.7690    -2.3840    -1.3570 N.am  1 <1>  -0.7570 
 10 C       -1.8950    -5.3790     0.0590 C.3   1 <1>  -0.2400 
 11 S       -6.4110    -2.1660    -0.9140 S.o2  1 <1>   1.3330 
 12 O       -6.5700    -0.7810    -0.5470 O.2   1 <1>  -0.6500 
 13 O       -7.1460    -2.7210    -2.0220 O.2   1 <1>  -0.6500 
 14 C       -6.5790    -3.2350     0.5210 C.3   1 <1>  -0.0550 
 15 C       -7.9870    -3.2490     1.1420 C.3   1 <1>  -0.2400 
 16 H       -0.9670    -3.1800     1.0730 H     1 <1>   0.1500 
 17 H       -2.2870     0.8340     0.6870 H     1 <1>   0.1500 
 18 H       -4.1970     0.0880    -0.6880 H     1 <1>   0.1500 
 19 H       -3.0360    -4.5130    -1.5170 H     1 <1>   0.0800 
 20 H       -3.9230    -4.7330    -0.0440 H     1 <1>   0.0800 
 21 H       -4.6910    -2.2130    -2.3560 H     1 <1>   0.4200 
 22 H       -0.9350    -5.1120    -0.3480 H     1 <1>   0.0800 
 23 H       -2.1260    -6.3820    -0.2520 H     1 <1>   0.0800 
 24 H       -1.8440    -5.3610     1.1330 H     1 <1>   0.0800 
 25 H       -5.8780    -2.9200     1.2700 H     1 <1>   0.0800 
 26 H       -6.3220    -4.2370     0.2380 H     1 <1>   0.0800 
 27 H       -8.2600    -2.2570     1.4610 H     1 <1>   0.0800 
 28 H       -8.0120    -3.9060     1.9930 H     1 <1>   0.0800 
 29 H       -8.7080    -3.5880     0.4180 H     1 <1>   0.0800 
@<TRIPOS>BOND
  1   1   2  1   
  2   2   3  ar  
  3   2   4  ar  
  4   3   5  ar  
  5   3  16  1   
  6   4   6  ar  
  7   4  17  1   
  8   5   7  ar  
  9   5   8  1   
 10   6   7  ar  
 11   6  18  1   
 12   7   9  1   
 13   8  10  1   
 14   8  19  1   
 15   8  20  1   
 16   9  11  am  
 17   9  21  1   
 18  10  22  1   
 19  10  23  1   
 20  10  24  1   
 21  11  12  2   
 22  11  13  2   
 23  11  14  1   
 24  14  15  1   
 25  14  25  1   
 26  14  26  1   
 27  15  27  1   
 28  15  28  1   
 29  15  29  1   
@<TRIPOS>SUBSTRUCTURE
  1 ****   7 GROUP 4 **** **** 0

# MOE 2024.06 (io_trps.svl 2023.06)
