@<TRIPOS>MOLECULE
NONAME
31 32 1 0 0 
SMALL
USER_CHARGES


@<TRIPOS>ATOM
  1 CL      -0.1820    -0.2610    -0.0260 Cl    1 <1>  -0.1770 
  2 C       -1.7630     0.4890    -0.0070 C.ar  1 <1>   0.1770 
  3 C       -2.9090    -0.2930     0.0430 C.ar  1 <1>  -0.1440 
  4 C       -1.8320     1.8700    -0.0440 C.ar  1 <1>  -0.1500 
  5 C       -4.1400     0.3430     0.0560 C.ar  1 <1>  -0.1500 
  6 C       -2.8260    -1.8120     0.0840 C.3   1 <1>  -0.0960 
  7 C       -3.0670     2.4950    -0.0310 C.ar  1 <1>  -0.1500 
  8 C       -4.2300     1.7270     0.0190 C.ar  1 <1>   0.0830 
  9 O       -5.4790     2.2550     0.0360 O.3   1 <1>  -0.3630 
 10 C       -5.6840     3.6500     0.0010 C.3   1 <1>   0.1200 
 11 C       -7.1860     3.9090     0.0310 C.3   1 <1>   0.0700 
 12 S       -7.4460     5.7390    -0.0140 S.3   1 <1>  -0.2860 
 13 C       -9.2190     5.9830     0.0240 C.2   1 <1>   0.4340 
 14 S      -10.2420     4.5920     0.0890 S.3   1 <1>  -0.0800 
 15 N       -9.8420     7.0910     0.0080 N.2   1 <1>  -0.3380 
 16 C      -11.5680     5.7060     0.0900 C.2   1 <1>   0.1980 
 17 N      -11.2040     6.9250     0.0460 N.2   1 <1>  -0.3380 
 18 C      -12.9700     5.1410     0.1410 C.3   1 <1>  -0.0600 
 19 H       -0.9240     2.4440    -0.0830 H     1 <1>   0.1500 
 20 H       -5.0500    -0.2290     0.0950 H     1 <1>   0.1500 
 21 H       -2.2780    -2.1270     0.9540 H     1 <1>   0.0800 
 22 H       -2.3220    -2.1760    -0.7940 H     1 <1>   0.0800 
 23 H       -3.8070    -2.2510     0.1210 H     1 <1>   0.0800 
 24 H       -3.1010     3.5670    -0.0600 H     1 <1>   0.1500 
 25 H       -5.2530     4.0360    -0.9060 H     1 <1>   0.0800 
 26 H       -5.2090     4.0860     0.8630 H     1 <1>   0.0800 
 27 H       -7.6260     3.5420     0.9410 H     1 <1>   0.0800 
 28 H       -7.6700     3.4920    -0.8330 H     1 <1>   0.0800 
 29 H      -13.0990     4.5640     1.0380 H     1 <1>   0.0800 
 30 H      -13.1430     4.5140    -0.7140 H     1 <1>   0.0800 
 31 H      -13.6850     5.9430     0.1360 H     1 <1>   0.0800 
@<TRIPOS>BOND
  1   1   2  1   
  2   2   3  ar  
  3   2   4  ar  
  4   3   5  ar  
  5   3   6  1   
  6   4   7  ar  
  7   4  19  1   
  8   5   8  ar  
  9   5  20  1   
 10   6  21  1   
 11   6  22  1   
 12   6  23  1   
 13   7   8  ar  
 14   7  24  1   
 15   8   9  1   
 16   9  10  1   
 17  10  11  1   
 18  10  25  1   
 19  10  26  1   
 20  11  12  1   
 21  11  27  1   
 22  11  28  1   
 23  12  13  1   
 24  13  14  1   
 25  13  15  2   
 26  14  16  1   
 27  15  17  1   
 28  16  17  2   
 29  16  18  1   
 30  18  29  1   
 31  18  30  1   
 32  18  31  1   
@<TRIPOS>SUBSTRUCTURE
  1 ****  10 GROUP 4 **** **** 0

# MOE 2024.06 (io_trps.svl 2023.06)
