@<TRIPOS>MOLECULE
NONAME
45 46 1 0 0 
SMALL
USER_CHARGES


@<TRIPOS>ATOM
  1 O       -0.5240    -1.2700     2.0210 O.co2 1 <1>  -0.9000 
  2 C       -0.7390    -2.2290     1.2680 C.2   1 <1>   0.9060 
  3 O       -0.1440    -3.3050     1.4290 O.co2 1 <1>  -0.9000 
  4 C       -1.7410    -2.0910     0.0850 C.3   1 <1>  -0.1060 
  5 C       -3.0030    -3.0090     0.2210 C.3   1 <1>   0.0000 
  6 C       -2.3580    -0.6750    -0.0240 C.3   1 <1>  -0.1600 
  7 C       -0.9570    -2.3390    -1.2370 C.3   1 <1>  -0.2400 
  8 C       -4.0260    -2.3440    -0.7400 C.3   1 <1>  -0.0190 
  9 C       -2.7200    -4.4840    -0.1480 C.3   1 <1>  -0.2400 
 10 C       -3.5440    -2.9930     1.6710 C.3   1 <1>  -0.2400 
 11 C       -3.7510    -0.8300    -0.6430 C.3   1 <1>  -0.1600 
 12 C       -5.4990    -2.7490    -0.5920 C.2   1 <1>   0.5690 
 13 O       -6.3490    -1.9140    -0.3910 O.2   1 <1>  -0.5700 
 14 N       -5.7930    -4.0780    -0.7350 N.am  1 <1>  -0.5470 
 15 C       -6.9980    -4.7830    -0.6870 C.ar  1 <1>   0.1170 
 16 C       -8.2430    -4.1920    -0.8760 C.ar  1 <1>  -0.1500 
 17 C       -6.9640    -6.1520    -0.4520 C.ar  1 <1>  -0.1500 
 18 C       -9.4010    -4.9420    -0.8240 C.ar  1 <1>  -0.1500 
 19 C       -8.1240    -6.9000    -0.4010 C.ar  1 <1>  -0.1500 
 20 C       -9.3840    -6.3190    -0.5840 C.ar  1 <1>   0.0860 
 21 C      -10.6210    -7.0690    -0.5360 C.2   1 <1>   0.4230 
 22 O      -11.7020    -6.5740    -0.7310 O.2   1 <1>  -0.5700 
 23 C      -10.6100    -8.5540    -0.2280 C.3   1 <1>  -0.1790 
 24 H       -1.7360    -0.0010    -0.5860 H     1 <1>   0.0800 
 25 H       -2.4780    -0.2530     0.9600 H     1 <1>   0.0800 
 26 H       -1.5730    -2.2330    -2.1090 H     1 <1>   0.0800 
 27 H       -0.5170    -3.3210    -1.2320 H     1 <1>   0.0800 
 28 H       -0.1480    -1.6350    -1.3060 H     1 <1>   0.0800 
 29 H       -3.7560    -2.6280    -1.7400 H     1 <1>   0.0800 
 30 H       -2.5420    -4.6000    -1.2010 H     1 <1>   0.0800 
 31 H       -3.5230    -5.1310     0.1470 H     1 <1>   0.0800 
 32 H       -1.8420    -4.8240     0.3740 H     1 <1>   0.0800 
 33 H       -3.7390    -1.9890     2.0040 H     1 <1>   0.0800 
 34 H       -2.8250    -3.4270     2.3440 H     1 <1>   0.0800 
 35 H       -4.4530    -3.5580     1.7620 H     1 <1>   0.0800 
 36 H       -3.7970    -0.3760    -1.6170 H     1 <1>   0.0800 
 37 H       -4.4650    -0.3430    -0.0020 H     1 <1>   0.0800 
 38 H       -4.9570    -4.6550    -0.8060 H     1 <1>   0.3700 
 39 H       -8.3110    -3.1370    -1.0670 H     1 <1>   0.1500 
 40 H       -6.0150    -6.6350    -0.3020 H     1 <1>   0.1500 
 41 H      -10.3490    -4.4520    -0.9720 H     1 <1>   0.1500 
 42 H       -8.0390    -7.9550    -0.2140 H     1 <1>   0.1500 
 43 H      -10.1560    -8.7280     0.7300 H     1 <1>   0.0800 
 44 H      -10.0710    -9.0840    -0.9900 H     1 <1>   0.0800 
 45 H      -11.6180    -8.9280    -0.2000 H     1 <1>   0.0800 
@<TRIPOS>BOND
  1   1   2  ar  
  2   2   3  ar  
  3   2   4  1   
  4   4   5  1   
  5   4   6  1   
  6   4   7  1   
  7   5   8  1   
  8   5   9  1   
  9   5  10  1   
 10   6  11  1   
 11   6  24  1   
 12   6  25  1   
 13   7  26  1   
 14   7  27  1   
 15   7  28  1   
 16   8  11  1   
 17   8  12  1   
 18   8  29  1   
 19   9  30  1   
 20   9  31  1   
 21   9  32  1   
 22  10  33  1   
 23  10  34  1   
 24  10  35  1   
 25  11  36  1   
 26  11  37  1   
 27  12  13  2   
 28  12  14  am  
 29  14  15  1   
 30  14  38  1   
 31  15  16  ar  
 32  15  17  ar  
 33  16  18  ar  
 34  16  39  1   
 35  17  19  ar  
 36  17  40  1   
 37  18  20  ar  
 38  18  41  1   
 39  19  20  ar  
 40  19  42  1   
 41  20  21  1   
 42  21  22  2   
 43  21  23  1   
 44  23  43  1   
 45  23  44  1   
 46  23  45  1   
@<TRIPOS>SUBSTRUCTURE
  1 ****  14 GROUP 4 **** **** 0

# MOE 2024.06 (io_trps.svl 2023.06)
