@<TRIPOS>MOLECULE
NONAME
42 44 1 0 0 
SMALL
USER_CHARGES


@<TRIPOS>ATOM
  1 S       -0.3890    -0.3470     0.7200 S.3   1 <1>  -0.0800 
  2 C        0.8560    -1.5800     0.4860 C.2   1 <1>  -0.0450 
  3 C       -1.6710    -1.5370     0.7500 C.2   1 <1>  -0.1100 
  4 C        2.2360    -1.1740     0.3790 C.2   1 <1>   0.7150 
  5 C        0.2510    -2.7980     0.4440 C.2   1 <1>  -0.1500 
  6 C       -1.1660    -2.7730     0.5920 C.2   1 <1>  -0.1500 
  7 O        2.5660    -0.0060     0.4450 O.2   1 <1>  -0.5700 
  8 N        3.1790    -2.1480     0.1990 N.am  1 <1>  -0.5470 
  9 C        4.5730    -2.1800     0.0530 C.ar  1 <1>   0.1170 
 10 C        5.1330    -3.4540    -0.1150 C.ar  1 <1>   0.1000 
 11 C        5.3930    -1.0630     0.0650 C.ar  1 <1>  -0.1500 
 12 N        4.3150    -4.5890    -0.1290 N.pl3 1 <1>  -0.8380 
 13 C        6.5080    -3.5620    -0.2660 C.ar  1 <1>  -0.1500 
 14 C        6.7800    -1.1570    -0.0860 C.ar  1 <1>   0.0860 
 15 C        4.4690    -5.5330     1.0200 C.3   1 <1>   0.2090 
 16 C        4.2160    -5.3210    -1.4290 C.3   1 <1>   0.2090 
 17 C        7.3120    -2.4400    -0.2510 C.ar  1 <1>  -0.1500 
 18 C        7.6200     0.0230    -0.0700 C.2   1 <1>   0.6340 
 19 C        3.3890    -6.6290     0.9760 C.3   1 <1>   0.1200 
 20 C        3.1480    -6.4270    -1.3540 C.3   1 <1>   0.1200 
 21 O        7.1930     1.1510     0.0710 O.2   1 <1>  -0.5700 
 22 O        8.9410    -0.1430    -0.2210 O.3   1 <1>  -0.4300 
 23 O        3.3830    -7.2780    -0.2660 O.3   1 <1>  -0.5600 
 24 C        9.8330     0.9540    -0.2170 C.3   1 <1>   0.0400 
 25 H       -2.6770    -1.1810     0.8840 H     1 <1>   0.1500 
 26 H        0.7610    -3.7360     0.3120 H     1 <1>   0.1500 
 27 H       -1.7450    -3.6810     0.5740 H     1 <1>   0.1500 
 28 H        2.8210    -3.1040     0.1540 H     1 <1>   0.3700 
 29 H        4.9620    -0.0860     0.1940 H     1 <1>   0.1500 
 30 H        6.9480    -4.5340    -0.3950 H     1 <1>   0.1500 
 31 H        4.3920    -4.9870     1.9440 H     1 <1>   0.0800 
 32 H        5.4400    -5.9950     0.9840 H     1 <1>   0.0800 
 33 H        5.1660    -5.7650    -1.6700 H     1 <1>   0.0800 
 34 H        3.9630    -4.6270    -2.2110 H     1 <1>   0.0800 
 35 H        8.3750    -2.5600    -0.3710 H     1 <1>   0.1500 
 36 H        2.4150    -6.2040     1.1460 H     1 <1>   0.0800 
 37 H        3.5810    -7.3690     1.7320 H     1 <1>   0.0800 
 38 H        3.1700    -7.0240    -2.2480 H     1 <1>   0.0800 
 39 H        2.1680    -5.9970    -1.2480 H     1 <1>   0.0800 
 40 H       10.8320     0.5820    -0.3520 H     1 <1>   0.0800 
 41 H        9.7500     1.4660     0.7260 H     1 <1>   0.0800 
 42 H        9.5700     1.6180    -1.0240 H     1 <1>   0.0800 
@<TRIPOS>BOND
  1   1   2  1   
  2   1   3  1   
  3   2   4  1   
  4   2   5  2   
  5   3   6  2   
  6   3  25  1   
  7   4   7  2   
  8   4   8  am  
  9   5   6  1   
 10   5  26  1   
 11   6  27  1   
 12   8   9  1   
 13   8  28  1   
 14   9  10  ar  
 15   9  11  ar  
 16  10  12  1   
 17  10  13  ar  
 18  11  14  ar  
 19  11  29  1   
 20  12  15  1   
 21  12  16  1   
 22  13  17  ar  
 23  13  30  1   
 24  14  17  ar  
 25  14  18  1   
 26  15  19  1   
 27  15  31  1   
 28  15  32  1   
 29  16  20  1   
 30  16  33  1   
 31  16  34  1   
 32  17  35  1   
 33  18  21  2   
 34  18  22  1   
 35  19  23  1   
 36  19  36  1   
 37  19  37  1   
 38  20  23  1   
 39  20  38  1   
 40  20  39  1   
 41  22  24  1   
 42  24  40  1   
 43  24  41  1   
 44  24  42  1   
@<TRIPOS>SUBSTRUCTURE
  1 ****   9 GROUP 4 **** **** 0

# MOE 2024.06 (io_trps.svl 2023.06)
