@<TRIPOS>MOLECULE
NONAME
47 50 1 0 0 
SMALL
USER_CHARGES


@<TRIPOS>ATOM
  1 O       -0.3130    -1.0310    -2.3970 O.3   1 <1>  -0.0190 
  2 N       -1.5420    -0.6990    -2.1540 N.2   1 <1>  -0.4100 
  3 C        0.0170    -1.7900    -1.3850 C.2   1 <1>   0.2980 
  4 C       -1.8910    -1.2500    -1.0450 C.2   1 <1>   0.4620 
  5 N       -0.8950    -1.9730    -0.5200 N.2   1 <1>  -0.5650 
  6 C        1.4260    -2.3730    -1.3370 C.3   1 <1>   0.2900 
  7 C       -3.1930    -1.1260    -0.4090 C.ar  1 <1>   0.0540 
  8 N        2.4830    -1.3440    -1.1930 N.3   1 <1>  -0.8100 
  9 C       -3.4920    -1.7780     0.7890 C.ar  1 <1>  -0.1500 
 10 C       -4.2020    -0.3430    -0.9710 C.ar  1 <1>  -0.1500 
 11 C        3.8290    -1.9580    -1.2510 C.3   1 <1>   0.1100 
 12 C        2.3310    -0.5880     0.0770 C.3   1 <1>   0.1100 
 13 C       -4.7300    -1.6570     1.3920 C.ar  1 <1>  -0.1500 
 14 C       -5.4430    -0.2180    -0.3720 C.ar  1 <1>  -0.1500 
 15 C        4.9520    -0.9150    -1.0950 C.3   1 <1>   0.2090 
 16 C        3.4330     0.4720     0.2610 C.3   1 <1>   0.2090 
 17 C       -5.7160    -0.8760     0.8140 C.ar  1 <1>  -0.1430 
 18 N        4.7890    -0.1440     0.1700 N.pl3 1 <1>  -0.8380 
 19 C       -7.0760    -0.7390     1.4750 C.3   1 <1>  -0.0970 
 20 C        5.8550     0.6710     0.5300 C.ar  1 <1>   0.1000 
 21 C        6.5980     0.3660     1.6610 C.ar  1 <1>  -0.1500 
 22 C        6.2030     1.7930    -0.2160 C.ar  1 <1>  -0.1500 
 23 C        7.6650     1.1580     2.0440 C.ar  1 <1>  -0.1500 
 24 C        7.2700     2.5890     0.1620 C.ar  1 <1>  -0.1500 
 25 C        8.0030     2.2720     1.2940 C.ar  1 <1>  -0.1500 
 26 H        1.5900    -2.9200    -2.2480 H     1 <1>   0.0800 
 27 H        1.4850    -3.0660    -0.5150 H     1 <1>   0.0800 
 28 H       -2.7420    -2.3920     1.2570 H     1 <1>   0.1500 
 29 H       -4.0140     0.1770    -1.8940 H     1 <1>   0.1500 
 30 H        3.9540    -2.4570    -2.1960 H     1 <1>   0.0800 
 31 H        3.9340    -2.6890    -0.4670 H     1 <1>   0.0800 
 32 H        2.3650    -1.2650     0.9140 H     1 <1>   0.0800 
 33 H        1.3790    -0.0870     0.0910 H     1 <1>   0.0800 
 34 H       -4.9240    -2.1740     2.3160 H     1 <1>   0.1500 
 35 H       -6.1960     0.3960    -0.8350 H     1 <1>   0.1500 
 36 H        4.9310    -0.2420    -1.9350 H     1 <1>   0.0800 
 37 H        5.9070    -1.4110    -1.0850 H     1 <1>   0.0800 
 38 H        3.3230     0.9420     1.2220 H     1 <1>   0.0800 
 39 H        3.3260     1.2270    -0.4980 H     1 <1>   0.0800 
 40 H       -7.3200    -1.6330     2.0210 H     1 <1>   0.0800 
 41 H       -7.8390    -0.5760     0.7350 H     1 <1>   0.0800 
 42 H       -7.0670     0.0930     2.1550 H     1 <1>   0.0800 
 43 H        6.3270    -0.5000     2.2350 H     1 <1>   0.1500 
 44 H        5.6340     2.0360    -1.0920 H     1 <1>   0.1500 
 45 H        8.2320     0.9090     2.9230 H     1 <1>   0.1500 
 46 H        7.5300     3.4540    -0.4220 H     1 <1>   0.1500 
 47 H        8.8320     2.8900     1.5890 H     1 <1>   0.1500 
@<TRIPOS>BOND
  1   1   2  1   
  2   1   3  1   
  3   2   4  2   
  4   3   5  2   
  5   3   6  1   
  6   4   5  1   
  7   4   7  1   
  8   6   8  1   
  9   6  26  1   
 10   6  27  1   
 11   7   9  ar  
 12   7  10  ar  
 13   8  11  1   
 14   8  12  1   
 15   9  13  ar  
 16   9  28  1   
 17  10  14  ar  
 18  10  29  1   
 19  11  15  1   
 20  11  30  1   
 21  11  31  1   
 22  12  16  1   
 23  12  32  1   
 24  12  33  1   
 25  13  17  ar  
 26  13  34  1   
 27  14  17  ar  
 28  14  35  1   
 29  15  18  1   
 30  15  36  1   
 31  15  37  1   
 32  16  18  1   
 33  16  38  1   
 34  16  39  1   
 35  17  19  1   
 36  18  20  1   
 37  19  40  1   
 38  19  41  1   
 39  19  42  1   
 40  20  21  ar  
 41  20  22  ar  
 42  21  23  ar  
 43  21  43  1   
 44  22  24  ar  
 45  22  44  1   
 46  23  25  ar  
 47  23  45  1   
 48  24  25  ar  
 49  24  46  1   
 50  25  47  1   
@<TRIPOS>SUBSTRUCTURE
  1 ****  12 GROUP 4 **** **** 0

# MOE 2024.06 (io_trps.svl 2023.06)
