@<TRIPOS>MOLECULE
NONAME
57 59 1 0 0 
SMALL
USER_CHARGES


@<TRIPOS>ATOM
  1 O       -6.3310     0.8500     1.1410 O.co2 1 <1>  -0.9000 
  2 C       -5.9360     1.9750     1.4810 C.2   1 <1>   0.9060 
  3 O       -6.7340     2.7950     1.9460 O.co2 1 <1>  -0.9000 
  4 C       -4.5210     2.4380     1.2080 C.3   1 <1>  -0.1860 
  5 C       -4.4560     3.3470    -0.0410 C.3   1 <1>  -0.0190 
  6 C       -3.5220     1.2760     1.1070 C.3   1 <1>  -0.0220 
  7 C       -4.9150     2.6330    -1.3300 C.2   1 <1>   0.5690 
  8 C       -3.0360     3.9410    -0.1580 C.3   1 <1>  -0.0220 
  9 C       -2.1260     1.7590     0.7240 C.2   1 <1>  -0.2760 
 10 O       -4.0770     2.0990    -2.0210 O.2   1 <1>  -0.5700 
 11 N       -6.2380     2.5730    -1.7260 N.am  1 <1>  -0.6600 
 12 C       -1.9060     2.9630     0.1720 C.2   1 <1>  -0.2760 
 13 C       -1.0800     0.6940     1.0360 C.3   1 <1>  -0.1020 
 14 C       -6.6720     1.4400    -2.5830 C.3   1 <1>   0.1400 
 15 C       -7.4080     3.2950    -1.1280 C.3   1 <1>   0.1400 
 16 C       -0.5530     3.5480    -0.2180 C.3   1 <1>  -0.1020 
 17 C       -7.4020     0.4280    -1.6930 C.3   1 <1>   0.3430 
 18 C       -8.4340     2.3540    -0.4480 C.3   1 <1>   0.3430 
 19 N       -8.6510     0.9990    -1.0830 N.4   1 <1>  -0.9590 
 20 C       -9.0760     0.0900     0.0150 C.3   1 <1>   0.4860 
 21 C      -10.4570     0.5080     0.4840 C.ar  1 <1>  -0.1430 
 22 C      -11.5910     0.1630    -0.2360 C.ar  1 <1>  -0.1500 
 23 C      -10.5870     1.2510     1.6470 C.ar  1 <1>  -0.1500 
 24 C      -12.8410     0.5690     0.1990 C.ar  1 <1>  -0.1500 
 25 C      -11.8380     1.6550     2.0790 C.ar  1 <1>  -0.1500 
 26 C      -12.9700     1.3190     1.3560 C.ar  1 <1>  -0.1430 
 27 C      -14.3410     1.7620     1.8340 C.3   1 <1>  -0.0970 
 28 H       -4.2370     3.0300     2.0580 H     1 <1>   0.0800 
 29 H       -5.1050     4.1820     0.1240 H     1 <1>   0.0800 
 30 H       -3.8550     0.5620     0.3730 H     1 <1>   0.0800 
 31 H       -3.4940     0.7760     2.0590 H     1 <1>   0.0800 
 32 H       -2.9580     4.7710     0.5210 H     1 <1>   0.0800 
 33 H       -2.9050     4.3260    -1.1550 H     1 <1>   0.0800 
 34 H       -1.0190     0.5440     2.0990 H     1 <1>   0.0800 
 35 H       -0.1050     0.9490     0.6740 H     1 <1>   0.0800 
 36 H       -1.3640    -0.2340     0.5730 H     1 <1>   0.0800 
 37 H       -5.8280     0.9550    -3.0420 H     1 <1>   0.0800 
 38 H       -7.3160     1.7930    -3.3680 H     1 <1>   0.0800 
 39 H       -7.9070     3.8350    -1.9120 H     1 <1>   0.0800 
 40 H       -7.0920     4.0210    -0.4030 H     1 <1>   0.0800 
 41 H       -0.5010     3.6540    -1.2870 H     1 <1>   0.0800 
 42 H        0.2700     2.9390     0.0980 H     1 <1>   0.0800 
 43 H       -0.4310     4.5160     0.2310 H     1 <1>   0.0800 
 44 H       -6.7200     0.1290    -0.9130 H     1 <1>   0.0800 
 45 H       -7.6450    -0.4460    -2.2710 H     1 <1>   0.0800 
 46 H       -9.3760     2.8690    -0.3710 H     1 <1>   0.0800 
 47 H       -8.1220     2.1900     0.5610 H     1 <1>   0.0800 
 48 H       -9.4060     1.0710    -1.7670 H     1 <1>   0.4500 
 49 H       -8.3790     0.1450     0.8370 H     1 <1>   0.0800 
 50 H       -9.1080    -0.9280    -0.3320 H     1 <1>   0.0800 
 51 H      -11.5170    -0.4250    -1.1340 H     1 <1>   0.1500 
 52 H       -9.7140     1.5220     2.2240 H     1 <1>   0.1500 
 53 H      -13.7170     0.2960    -0.3640 H     1 <1>   0.1500 
 54 H      -11.9240     2.2320     2.9840 H     1 <1>   0.1500 
 55 H      -14.7490     1.0240     2.5000 H     1 <1>   0.0800 
 56 H      -15.0100     1.8870     1.0020 H     1 <1>   0.0800 
 57 H      -14.2720     2.7000     2.3560 H     1 <1>   0.0800 
@<TRIPOS>BOND
  1   1   2  ar  
  2   2   3  ar  
  3   2   4  1   
  4   4   5  1   
  5   4   6  1   
  6   4  28  1   
  7   5   7  1   
  8   5   8  1   
  9   5  29  1   
 10   6   9  1   
 11   6  30  1   
 12   6  31  1   
 13   7  10  2   
 14   7  11  am  
 15   8  12  1   
 16   8  32  1   
 17   8  33  1   
 18   9  12  2   
 19   9  13  1   
 20  11  14  1   
 21  11  15  1   
 22  12  16  1   
 23  13  34  1   
 24  13  35  1   
 25  13  36  1   
 26  14  17  1   
 27  14  37  1   
 28  14  38  1   
 29  15  18  1   
 30  15  39  1   
 31  15  40  1   
 32  16  41  1   
 33  16  42  1   
 34  16  43  1   
 35  17  19  1   
 36  17  44  1   
 37  17  45  1   
 38  18  19  1   
 39  18  46  1   
 40  18  47  1   
 41  19  20  1   
 42  19  48  1   
 43  20  21  1   
 44  20  49  1   
 45  20  50  1   
 46  21  22  ar  
 47  21  23  ar  
 48  22  24  ar  
 49  22  51  1   
 50  23  25  ar  
 51  23  52  1   
 52  24  26  ar  
 53  24  53  1   
 54  25  26  ar  
 55  25  54  1   
 56  26  27  1   
 57  27  55  1   
 58  27  56  1   
 59  27  57  1   
@<TRIPOS>SUBSTRUCTURE
  1 ****   1 GROUP 4 **** **** 0

# MOE 2024.06 (io_trps.svl 2023.06)
