@<TRIPOS>MOLECULE
NONAME
55 57 1 0 0 
SMALL
USER_CHARGES


@<TRIPOS>ATOM
  1 S        0.0900    -0.4270    -0.7430 S.o2  1 <1>   1.3330 
  2 O        0.2420     0.9720    -0.4150 O.2   1 <1>  -0.6500 
  3 O        0.1800    -0.8560    -2.1190 O.2   1 <1>  -0.6500 
  4 N       -1.3990    -0.9600    -0.1340 N.am  1 <1>  -0.8490 
  5 C        1.2600    -1.3420     0.2380 C.3   1 <1>  -0.1350 
  6 C       -1.8210    -2.2320    -0.7320 C.3   1 <1>   0.1960 
  7 C       -2.4350     0.0690    -0.2660 C.3   1 <1>   0.1960 
  8 C       -3.0850    -2.7490    -0.0440 C.3   1 <1>  -0.1600 
  9 C       -3.7290    -0.3810     0.4170 C.3   1 <1>  -0.1600 
 10 C       -4.2290    -1.7230    -0.1450 C.3   1 <1>  -0.0190 
 11 C       -5.5150    -2.1770     0.5580 C.2   1 <1>   0.5690 
 12 O       -5.4150    -2.9730     1.4640 O.2   1 <1>  -0.5700 
 13 N       -6.7430    -1.6900     0.1780 N.am  1 <1>  -0.6600 
 14 C       -7.9970    -2.1250     0.8760 C.3   1 <1>   0.1400 
 15 C       -7.0090    -0.6270    -0.8450 C.3   1 <1>   0.1400 
 16 C       -8.7390    -0.9350     1.5100 C.3   1 <1>   0.2090 
 17 C       -7.7140     0.5910    -0.2210 C.3   1 <1>   0.2090 
 18 N       -8.9240     0.2020     0.5550 N.pl3 1 <1>  -0.8380 
 19 C      -10.1720     0.3880    -0.0400 C.ar  1 <1>   0.1000 
 20 C      -10.9690     1.4950     0.2720 C.ar  1 <1>  -0.1430 
 21 C      -10.6280    -0.5350    -0.9720 C.ar  1 <1>  -0.1500 
 22 C      -12.1960     1.6670    -0.3660 C.ar  1 <1>  -0.1430 
 23 C      -10.4620     2.4990     1.3080 C.3   1 <1>  -0.0970 
 24 C      -11.8480    -0.3710    -1.5950 C.ar  1 <1>  -0.1500 
 25 C      -12.6280     0.7290    -1.2920 C.ar  1 <1>  -0.1500 
 26 C      -13.0990     2.8620    -0.0880 C.3   1 <1>  -0.0970 
 27 H        1.1160    -1.1220     1.2780 H     1 <1>   0.0800 
 28 H        2.2590    -1.0690    -0.0370 H     1 <1>   0.0800 
 29 H        1.1350    -2.3950     0.0850 H     1 <1>   0.0800 
 30 H       -1.0390    -2.9640    -0.6220 H     1 <1>   0.0800 
 31 H       -2.0080    -2.0990    -1.7860 H     1 <1>   0.0800 
 32 H       -2.6110     0.2750    -1.3100 H     1 <1>   0.0800 
 33 H       -2.1050     0.9810     0.2040 H     1 <1>   0.0800 
 34 H       -2.8580    -2.9530     0.9890 H     1 <1>   0.0800 
 35 H       -3.3890    -3.6740    -0.5010 H     1 <1>   0.0800 
 36 H       -4.4770     0.3790     0.2880 H     1 <1>   0.0800 
 37 H       -3.5460    -0.4790     1.4730 H     1 <1>   0.0800 
 38 H       -4.4430    -1.6080    -1.1910 H     1 <1>   0.0800 
 39 H       -7.7770    -2.8440     1.6460 H     1 <1>   0.0800 
 40 H       -8.6440    -2.6060     0.1660 H     1 <1>   0.0800 
 41 H       -7.6410    -1.0340    -1.6140 H     1 <1>   0.0800 
 42 H       -6.1040    -0.2930    -1.3140 H     1 <1>   0.0800 
 43 H       -8.1790    -0.5860     2.3590 H     1 <1>   0.0800 
 44 H       -9.7010    -1.2620     1.8650 H     1 <1>   0.0800 
 45 H       -7.9980     1.2780    -1.0000 H     1 <1>   0.0800 
 46 H       -7.0310     1.1000     0.4350 H     1 <1>   0.0800 
 47 H      -10.0210    -1.3850    -1.2120 H     1 <1>   0.1500 
 48 H       -9.9590     1.9870     2.1080 H     1 <1>   0.0800 
 49 H      -11.2570     3.0680     1.7490 H     1 <1>   0.0800 
 50 H       -9.7660     3.1720     0.8430 H     1 <1>   0.0800 
 51 H      -12.1910    -1.0930    -2.3140 H     1 <1>   0.1500 
 52 H      -13.5760     0.8480    -1.7860 H     1 <1>   0.1500 
 53 H      -12.5430     3.7760    -0.1920 H     1 <1>   0.0800 
 54 H      -13.4930     2.7980     0.9100 H     1 <1>   0.0800 
 55 H      -13.9230     2.8930    -0.7760 H     1 <1>   0.0800 
@<TRIPOS>BOND
  1   1   2  2   
  2   1   3  2   
  3   1   4  am  
  4   1   5  1   
  5   4   6  1   
  6   4   7  1   
  7   5  27  1   
  8   5  28  1   
  9   5  29  1   
 10   6   8  1   
 11   6  30  1   
 12   6  31  1   
 13   7   9  1   
 14   7  32  1   
 15   7  33  1   
 16   8  10  1   
 17   8  34  1   
 18   8  35  1   
 19   9  10  1   
 20   9  36  1   
 21   9  37  1   
 22  10  11  1   
 23  10  38  1   
 24  11  12  2   
 25  11  13  am  
 26  13  14  1   
 27  13  15  1   
 28  14  16  1   
 29  14  39  1   
 30  14  40  1   
 31  15  17  1   
 32  15  41  1   
 33  15  42  1   
 34  16  18  1   
 35  16  43  1   
 36  16  44  1   
 37  17  18  1   
 38  17  45  1   
 39  17  46  1   
 40  18  19  1   
 41  19  20  ar  
 42  19  21  ar  
 43  20  22  ar  
 44  20  23  1   
 45  21  24  ar  
 46  21  47  1   
 47  22  25  ar  
 48  22  26  1   
 49  23  48  1   
 50  23  49  1   
 51  23  50  1   
 52  24  25  ar  
 53  24  51  1   
 54  25  52  1   
 55  26  53  1   
 56  26  54  1   
 57  26  55  1   
@<TRIPOS>SUBSTRUCTURE
  1 ****  15 GROUP 4 **** **** 0

# MOE 2024.06 (io_trps.svl 2023.06)
