@<TRIPOS>MOLECULE
NONAME
51 53 1 0 0 
SMALL
USER_CHARGES


@<TRIPOS>ATOM
  1 S       -0.6350    -0.1140    -0.8720 S.3   1 <1>  -0.0800 
  2 C       -2.0370     0.8920    -0.7070 C.2   1 <1>   0.4420 
  3 C        0.2550     1.3140    -1.2760 C.2   1 <1>   0.1980 
  4 N       -1.7780     2.1260    -0.9400 N.2   1 <1>  -0.3380 
  5 N       -3.2110     0.2600    -0.3450 N.am  1 <1>  -0.4940 
  6 N       -0.4690     2.3590    -1.2630 N.2   1 <1>  -0.3380 
  7 C        1.7360     1.1500    -1.5830 C.3   1 <1>   0.0200 
  8 C       -4.4690     0.7890    -0.2340 C.2   1 <1>   0.5690 
  9 C        2.4270     2.4770    -1.9250 C.3   1 <1>  -0.2400 
 10 O       -4.7310     1.9220    -0.5550 O.2   1 <1>  -0.5700 
 11 C       -5.5770    -0.1260     0.3300 C.3   1 <1>   0.1710 
 12 N       -6.8510     0.5470     0.7180 N.3   1 <1>  -0.8100 
 13 C       -7.9640    -0.3860     1.0080 C.3   1 <1>   0.1100 
 14 C       -6.6930     1.5390     1.8110 C.3   1 <1>   0.1100 
 15 C       -9.2710     0.3680     1.3690 C.3   1 <1>   0.3430 
 16 C       -7.9740     2.3890     1.9930 C.3   1 <1>   0.3430 
 17 N       -9.1040     1.8470     1.1700 N.4   1 <1>  -0.9590 
 18 C      -10.3610     2.6330     1.2620 C.3   1 <1>   0.4860 
 19 C      -11.3720     2.0530     0.2940 C.ar  1 <1>  -0.1440 
 20 C      -12.4720     1.3540     0.7690 C.ar  1 <1>  -0.1500 
 21 C      -11.2020     2.2040    -1.0750 C.ar  1 <1>  -0.1500 
 22 C      -13.3830     0.8040    -0.1140 C.ar  1 <1>  -0.1500 
 23 C      -12.1150     1.6510    -1.9550 C.ar  1 <1>  -0.1500 
 24 C      -13.2080     0.9460    -1.4800 C.ar  1 <1>  -0.1440 
 25 C      -14.2100     0.3420    -2.4470 C.3   1 <1>  -0.0970 
 26 H       -3.1040    -0.7290    -0.1460 H     1 <1>   0.3700 
 27 H        1.8430     0.4730    -2.4110 H     1 <1>   0.0800 
 28 H        2.2180     0.7120    -0.7280 H     1 <1>   0.0800 
 29 H        1.9660     2.9240    -2.7890 H     1 <1>   0.0800 
 30 H        3.4680     2.3120    -2.1340 H     1 <1>   0.0800 
 31 H        2.3430     3.1630    -1.1000 H     1 <1>   0.0800 
 32 H       -5.1860    -0.6510     1.1840 H     1 <1>   0.0800 
 33 H       -5.7970    -0.8530    -0.4310 H     1 <1>   0.0800 
 34 H       -7.6970    -1.0430     1.8190 H     1 <1>   0.0800 
 35 H       -8.1490    -0.9970     0.1400 H     1 <1>   0.0800 
 36 H       -5.8760     2.2080     1.6000 H     1 <1>   0.0800 
 37 H       -6.4630     1.0330     2.7330 H     1 <1>   0.0800 
 38 H       -9.5330     0.1620     2.3940 H     1 <1>   0.0800 
 39 H      -10.0680    -0.0050     0.7460 H     1 <1>   0.0800 
 40 H       -7.7580     3.4010     1.6890 H     1 <1>   0.0800 
 41 H       -8.2420     2.4080     3.0360 H     1 <1>   0.0800 
 42 H       -8.7520     1.9070     0.2010 H     1 <1>   0.4500 
 43 H      -10.1740     3.6630     1.0080 H     1 <1>   0.0800 
 44 H      -10.7510     2.5910     2.2650 H     1 <1>   0.0800 
 45 H      -12.6380     1.2310     1.8260 H     1 <1>   0.1500 
 46 H      -10.3650     2.7510    -1.4750 H     1 <1>   0.1500 
 47 H      -14.2360     0.2650     0.2630 H     1 <1>   0.1500 
 48 H      -11.9760     1.7750    -3.0160 H     1 <1>   0.1500 
 49 H      -13.7390     0.1100    -3.3860 H     1 <1>   0.0800 
 50 H      -15.0100     1.0380    -2.6240 H     1 <1>   0.0800 
 51 H      -14.6240    -0.5650    -2.0440 H     1 <1>   0.0800 
@<TRIPOS>BOND
  1   1   2  1   
  2   1   3  1   
  3   2   4  2   
  4   2   5  1   
  5   3   6  2   
  6   3   7  1   
  7   4   6  1   
  8   5   8  am  
  9   5  26  1   
 10   7   9  1   
 11   7  27  1   
 12   7  28  1   
 13   8  10  2   
 14   8  11  1   
 15   9  29  1   
 16   9  30  1   
 17   9  31  1   
 18  11  12  1   
 19  11  32  1   
 20  11  33  1   
 21  12  13  1   
 22  12  14  1   
 23  13  15  1   
 24  13  34  1   
 25  13  35  1   
 26  14  16  1   
 27  14  36  1   
 28  14  37  1   
 29  15  17  1   
 30  15  38  1   
 31  15  39  1   
 32  16  17  1   
 33  16  40  1   
 34  16  41  1   
 35  17  18  1   
 36  17  42  1   
 37  18  19  1   
 38  18  43  1   
 39  18  44  1   
 40  19  20  ar  
 41  19  21  ar  
 42  20  22  ar  
 43  20  45  1   
 44  21  23  ar  
 45  21  46  1   
 46  22  24  ar  
 47  22  47  1   
 48  23  24  ar  
 49  23  48  1   
 50  24  25  1   
 51  25  49  1   
 52  25  50  1   
 53  25  51  1   
@<TRIPOS>SUBSTRUCTURE
  1 ****  12 GROUP 4 **** **** 0

# MOE 2024.06 (io_trps.svl 2023.06)
