@<TRIPOS>MOLECULE
NONAME
39 40 1 0 0 
SMALL
USER_CHARGES


@<TRIPOS>ATOM
  1 CL       1.1360    -2.6130    -1.3740 Cl    1 <1>  -0.1770 
  2 C        1.9940    -1.1690    -0.8770 C.ar  1 <1>   0.1770 
  3 C        2.4670    -1.0240     0.4330 C.ar  1 <1>   0.1170 
  4 C        2.1650    -0.1780    -1.8240 C.ar  1 <1>  -0.1500 
  5 N        2.3300    -2.0080     1.4250 N.am  1 <1>  -0.5470 
  6 C        3.1020     0.1670     0.7720 C.ar  1 <1>  -0.1500 
  7 C        2.8090     0.9870    -1.4550 C.ar  1 <1>   0.1770 
  8 C        2.5890    -3.3420     1.3770 C.2   1 <1>   0.6900 
  9 C        3.2770     1.1710    -0.1660 C.ar  1 <1>  -0.1500 
 10 CL       3.0330     2.2530    -2.6360 Cl    1 <1>  -0.1770 
 11 O        1.9750    -4.0490     2.1500 O.2   1 <1>  -0.5700 
 12 N        3.5060    -3.8840     0.5150 N.am  1 <1>  -0.6600 
 13 C        4.7800    -3.2110     0.1220 C.3   1 <1>   0.1400 
 14 C        3.4420    -5.3270     0.1380 C.3   1 <1>   0.1400 
 15 C        5.9910    -3.9800     0.6730 C.3   1 <1>   0.1400 
 16 C        4.6490    -6.0950     0.6980 C.3   1 <1>   0.1400 
 17 N        5.9280    -5.4270     0.3060 N.am  1 <1>  -0.6600 
 18 C        6.7850    -5.9550    -0.6250 C.2   1 <1>   0.7800 
 19 O        7.5050    -5.2670    -1.3160 O.2   1 <1>  -0.5700 
 20 O        6.8270    -7.2720    -0.7990 O.3   1 <1>  -0.4300 
 21 C        7.2790    -8.0890     0.2540 C.3   1 <1>   0.1200 
 22 C        7.0800    -9.5430    -0.1590 C.3   1 <1>  -0.2400 
 23 H        1.8000    -0.3070    -2.8260 H     1 <1>   0.1500 
 24 H        1.6950    -1.7970     2.1930 H     1 <1>   0.3700 
 25 H        3.4660     0.3040     1.7760 H     1 <1>   0.1500 
 26 H        3.7700     2.0910     0.0940 H     1 <1>   0.1500 
 27 H        4.8110    -2.2070     0.5010 H     1 <1>   0.0800 
 28 H        4.8420    -3.1680    -0.9510 H     1 <1>   0.0800 
 29 H        3.4340    -5.4080    -0.9340 H     1 <1>   0.0800 
 30 H        2.5320    -5.7700     0.5060 H     1 <1>   0.0800 
 31 H        6.0070    -3.8930     1.7460 H     1 <1>   0.0800 
 32 H        6.8970    -3.5370     0.2960 H     1 <1>   0.0800 
 33 H        4.6180    -7.1040     0.3270 H     1 <1>   0.0800 
 34 H        4.5780    -6.1290     1.7710 H     1 <1>   0.0800 
 35 H        6.7200    -7.8640     1.1460 H     1 <1>   0.0800 
 36 H        8.3210    -7.8740     0.4180 H     1 <1>   0.0800 
 37 H        6.0380    -9.7400    -0.3350 H     1 <1>   0.0800 
 38 H        7.4270   -10.1950     0.6220 H     1 <1>   0.0800 
 39 H        7.6410    -9.7510    -1.0530 H     1 <1>   0.0800 
@<TRIPOS>BOND
  1   1   2  1   
  2   2   3  ar  
  3   2   4  ar  
  4   3   5  1   
  5   3   6  ar  
  6   4   7  ar  
  7   4  23  1   
  8   5   8  am  
  9   5  24  1   
 10   6   9  ar  
 11   6  25  1   
 12   7   9  ar  
 13   7  10  1   
 14   8  11  2   
 15   8  12  am  
 16   9  26  1   
 17  12  13  1   
 18  12  14  1   
 19  13  15  1   
 20  13  27  1   
 21  13  28  1   
 22  14  16  1   
 23  14  29  1   
 24  14  30  1   
 25  15  17  1   
 26  15  31  1   
 27  15  32  1   
 28  16  17  1   
 29  16  33  1   
 30  16  34  1   
 31  17  18  am  
 32  18  19  2   
 33  18  20  1   
 34  20  21  1   
 35  21  22  1   
 36  21  35  1   
 37  21  36  1   
 38  22  37  1   
 39  22  38  1   
 40  22  39  1   
@<TRIPOS>SUBSTRUCTURE
  1 ****  13 GROUP 4 **** **** 0

# MOE 2024.06 (io_trps.svl 2023.06)
