@<TRIPOS>MOLECULE
NONAME
42 43 1 0 0 
SMALL
USER_CHARGES


@<TRIPOS>ATOM
  1 S        0.3130     1.4330     0.1610 S.3   1 <1>  -0.3320 
  2 C       -1.4220     1.0350     0.0700 C.ar  1 <1>   0.7220 
  3 C        0.9200     1.2010    -1.5840 C.3   1 <1>   0.1310 
  4 N       -1.8690     0.6880    -1.1260 N.ar  1 <1>  -0.6200 
  5 N       -2.0720     1.1320     1.2160 N.ar  1 <1>  -0.6200 
  6 C        2.4060     1.4960    -1.7240 C.2   1 <1>   0.5690 
  7 C       -3.1490     0.4010    -1.1650 C.ar  1 <1>   0.1660 
  8 C       -3.3490     0.8380     1.1450 C.ar  1 <1>   0.1660 
  9 O        2.8930     1.3740    -2.8210 O.2   1 <1>  -0.5700 
 10 N        3.1120     1.8810    -0.6190 N.am  1 <1>  -0.5470 
 11 C       -3.9400     0.4620    -0.0400 C.ar  1 <1>  -0.1500 
 12 C       -3.7210    -0.0030    -2.5080 C.3   1 <1>  -0.0970 
 13 C       -4.1450     0.9320     2.4300 C.3   1 <1>  -0.0970 
 14 C        4.4590     2.2230    -0.3870 C.ar  1 <1>   0.1170 
 15 C        4.8300     2.5770     0.9150 C.ar  1 <1>   0.0830 
 16 C        5.4290     2.2270    -1.3820 C.ar  1 <1>  -0.1500 
 17 O        3.8480     2.5620     1.8680 O.3   1 <1>  -0.3630 
 18 C        6.1480     2.9230     1.1970 C.ar  1 <1>  -0.1500 
 19 C        6.7410     2.5710    -1.1050 C.ar  1 <1>   0.0830 
 20 C        4.1200     2.9030     3.2100 C.3   1 <1>   0.0400 
 21 C        7.1000     2.9200     0.1920 C.ar  1 <1>  -0.1500 
 22 O        7.6140     2.5430    -2.1470 O.3   1 <1>  -0.3630 
 23 C        8.9730     2.8760    -1.9720 C.3   1 <1>   0.0400 
 24 H        0.3520     1.8650    -2.2090 H     1 <1>   0.0800 
 25 H        0.7190     0.1830    -1.8590 H     1 <1>   0.0800 
 26 H        2.5550     1.9390     0.2400 H     1 <1>   0.3700 
 27 H       -4.9860     0.2250    -0.0850 H     1 <1>   0.1500 
 28 H       -3.2120    -0.8800    -2.8670 H     1 <1>   0.0800 
 29 H       -3.5770     0.7930    -3.2150 H     1 <1>   0.0800 
 30 H       -4.7710    -0.2170    -2.4330 H     1 <1>   0.0800 
 31 H       -3.7280     0.2630     3.1600 H     1 <1>   0.0800 
 32 H       -5.1750     0.6730     2.2680 H     1 <1>   0.0800 
 33 H       -4.0930     1.9350     2.8120 H     1 <1>   0.0800 
 34 H        5.1790     1.9610    -2.3910 H     1 <1>   0.1500 
 35 H        6.4560     3.1980     2.1870 H     1 <1>   0.1500 
 36 H        3.2050     2.8200     3.7670 H     1 <1>   0.0800 
 37 H        4.4800     3.9160     3.2470 H     1 <1>   0.0800 
 38 H        4.8500     2.2170     3.6030 H     1 <1>   0.0800 
 39 H        8.1090     3.1920     0.4380 H     1 <1>   0.1500 
 40 H        9.4630     2.7830    -2.9240 H     1 <1>   0.0800 
 41 H        9.4120     2.1920    -1.2670 H     1 <1>   0.0800 
 42 H        9.0420     3.8900    -1.6220 H     1 <1>   0.0800 
@<TRIPOS>BOND
  1   1   2  1   
  2   1   3  1   
  3   2   4  ar  
  4   2   5  ar  
  5   3   6  1   
  6   3  24  1   
  7   3  25  1   
  8   4   7  ar  
  9   5   8  ar  
 10   6   9  2   
 11   6  10  am  
 12   7  11  ar  
 13   7  12  1   
 14   8  11  ar  
 15   8  13  1   
 16  10  14  1   
 17  10  26  1   
 18  11  27  1   
 19  12  28  1   
 20  12  29  1   
 21  12  30  1   
 22  13  31  1   
 23  13  32  1   
 24  13  33  1   
 25  14  15  ar  
 26  14  16  ar  
 27  15  17  1   
 28  15  18  ar  
 29  16  19  ar  
 30  16  34  1   
 31  17  20  1   
 32  18  21  ar  
 33  18  35  1   
 34  19  21  ar  
 35  19  22  1   
 36  20  36  1   
 37  20  37  1   
 38  20  38  1   
 39  21  39  1   
 40  22  23  1   
 41  23  40  1   
 42  23  41  1   
 43  23  42  1   
@<TRIPOS>SUBSTRUCTURE
  1 ****  10 GROUP 4 **** **** 0

# MOE 2024.06 (io_trps.svl 2023.06)
