@<TRIPOS>MOLECULE
NONAME
35 36 1 0 0 
SMALL
USER_CHARGES


@<TRIPOS>ATOM
  1 F       -0.6960     1.1900     0.5950 F     1 <1>  -0.1900 
  2 C        0.3190     1.9330     0.2520 C.ar  1 <1>   0.1900 
  3 C        1.0100     1.6300    -0.9040 C.ar  1 <1>  -0.1500 
  4 C        0.6700     3.0000     1.0560 C.ar  1 <1>  -0.1500 
  5 C        2.0870     2.4230    -1.2590 C.ar  1 <1>  -0.1500 
  6 C        1.7490     3.7820     0.6840 C.ar  1 <1>  -0.1500 
  7 C        2.4860     3.5130    -0.4760 C.ar  1 <1>   0.0860 
  8 C        3.6230     4.3330    -0.8640 C.2   1 <1>   0.5440 
  9 O        3.9680     4.3870    -2.0310 O.2   1 <1>  -0.5700 
 10 N        4.3200     5.0760     0.0590 N.am  1 <1>  -0.6600 
 11 C        4.5250     6.5260    -0.2310 C.3   1 <1>   0.2200 
 12 C        5.3790     4.4580     0.9070 C.3   1 <1>   0.2200 
 13 C        5.9920     6.9610    -0.0470 C.3   1 <1>  -0.1600 
 14 C        3.5910     7.3360     0.6660 C.3   1 <1>  -0.2400 
 15 C        6.7320     4.5430     0.1770 C.3   1 <1>  -0.1600 
 16 C        5.0660     3.0160     1.3170 C.3   1 <1>  -0.2400 
 17 C        6.9530     5.8790    -0.5580 C.3   1 <1>  -0.1600 
 18 H        0.7090     0.7940    -1.5090 H     1 <1>   0.1500 
 19 H        0.1070     3.2090     1.9480 H     1 <1>   0.1500 
 20 H        2.6360     2.2040    -2.1590 H     1 <1>   0.1500 
 21 H        2.0320     4.6180     1.3000 H     1 <1>   0.1500 
 22 H        4.2540     6.7120    -1.2580 H     1 <1>   0.0800 
 23 H        5.4460     5.0390     1.8110 H     1 <1>   0.0800 
 24 H        6.1940     7.1590     0.9910 H     1 <1>   0.0800 
 25 H        6.1560     7.8770    -0.5860 H     1 <1>   0.0800 
 26 H        3.8110     7.1560     1.7020 H     1 <1>   0.0800 
 27 H        2.5700     7.0690     0.4660 H     1 <1>   0.0800 
 28 H        3.7110     8.3850     0.4640 H     1 <1>   0.0800 
 29 H        6.8050     3.7420    -0.5380 H     1 <1>   0.0800 
 30 H        7.5140     4.3990     0.9000 H     1 <1>   0.0800 
 31 H        5.0030     2.3730     0.4570 H     1 <1>   0.0800 
 32 H        4.1470     2.9750     1.8710 H     1 <1>   0.0800 
 33 H        5.8510     2.6450     1.9520 H     1 <1>   0.0800 
 34 H        7.9750     6.1990    -0.4470 H     1 <1>   0.0800 
 35 H        6.7650     5.7290    -1.6090 H     1 <1>   0.0800 
@<TRIPOS>BOND
  1   1   2  1   
  2   2   3  ar  
  3   2   4  ar  
  4   3   5  ar  
  5   3  18  1   
  6   4   6  ar  
  7   4  19  1   
  8   5   7  ar  
  9   5  20  1   
 10   6   7  ar  
 11   6  21  1   
 12   7   8  1   
 13   8   9  2   
 14   8  10  am  
 15  10  11  1   
 16  10  12  1   
 17  11  13  1   
 18  11  14  1   
 19  11  22  1   
 20  12  15  1   
 21  12  16  1   
 22  12  23  1   
 23  13  17  1   
 24  13  24  1   
 25  13  25  1   
 26  14  26  1   
 27  14  27  1   
 28  14  28  1   
 29  15  17  1   
 30  15  29  1   
 31  15  30  1   
 32  16  31  1   
 33  16  32  1   
 34  16  33  1   
 35  17  34  1   
 36  17  35  1   
@<TRIPOS>SUBSTRUCTURE
  1 ****   8 GROUP 4 **** **** 0

# MOE 2024.06 (io_trps.svl 2023.06)
