@<TRIPOS>MOLECULE
NONAME
36 37 1 0 0 
SMALL
USER_CHARGES


@<TRIPOS>ATOM
  1 O        1.0930    -0.8610     1.4200 O.3   1 <1>  -0.5600 
  2 C        0.4750    -1.3640     0.2680 C.3   1 <1>   0.1200 
  3 C        1.8770     0.2840     1.2020 C.3   1 <1>   0.1200 
  4 C        1.5270    -1.8010    -0.7780 C.3   1 <1>   0.3430 
  5 C        2.9220     0.0550     0.0850 C.3   1 <1>   0.3430 
  6 N        2.9100    -1.3720    -0.3850 N.4   1 <1>  -0.9590 
  7 C        3.9460    -1.6760    -1.4090 C.3   1 <1>   0.4860 
  8 C        5.3040    -1.2990    -0.8520 C.ar  1 <1>  -0.1430 
  9 C        5.8700    -2.0390     0.1760 C.ar  1 <1>  -0.1500 
 10 C        5.9860    -0.2030    -1.3590 C.ar  1 <1>  -0.1500 
 11 C        7.0980    -1.6840     0.7090 C.ar  1 <1>  -0.1430 
 12 C        7.2140     0.1570    -0.8340 C.ar  1 <1>  -0.1500 
 13 C        7.7760    -0.5790     0.2060 C.ar  1 <1>   0.0830 
 14 C        7.7020    -2.5080     1.8390 C.3   1 <1>  -0.0970 
 15 O        8.9760    -0.2680     0.7630 O.3   1 <1>  -0.3630 
 16 C        9.7820     0.7780     0.2690 C.3   1 <1>   0.0400 
 17 H       -0.1730    -0.6040    -0.1340 H     1 <1>   0.0800 
 18 H       -0.1330    -2.2040     0.5590 H     1 <1>   0.0800 
 19 H        2.3740     0.5180     2.1280 H     1 <1>   0.0800 
 20 H        1.2280     1.1050     0.9540 H     1 <1>   0.0800 
 21 H        1.2620    -1.3780    -1.7330 H     1 <1>   0.0800 
 22 H        1.4920    -2.8740    -0.8780 H     1 <1>   0.0800 
 23 H        3.8990     0.3160     0.4620 H     1 <1>   0.0800 
 24 H        2.7070     0.7160    -0.7380 H     1 <1>   0.0800 
 25 H        3.1410    -1.9110     0.4620 H     1 <1>   0.4500 
 26 H        3.7530    -1.1180    -2.3100 H     1 <1>   0.0800 
 27 H        3.9370    -2.7270    -1.6470 H     1 <1>   0.0800 
 28 H        5.3620    -2.9020     0.5710 H     1 <1>   0.1500 
 29 H        5.5770     0.3820    -2.1650 H     1 <1>   0.1500 
 30 H        7.7200     1.0100    -1.2450 H     1 <1>   0.1500 
 31 H        7.0640    -3.3260     2.1180 H     1 <1>   0.0800 
 32 H        7.8570    -1.8840     2.7020 H     1 <1>   0.0800 
 33 H        8.6530    -2.9040     1.5310 H     1 <1>   0.0800 
 34 H       10.6870     0.8040     0.8490 H     1 <1>   0.0800 
 35 H        9.2540     1.7090     0.3770 H     1 <1>   0.0800 
 36 H       10.0160     0.5830    -0.7630 H     1 <1>   0.0800 
@<TRIPOS>BOND
  1   1   2  1   
  2   1   3  1   
  3   2   4  1   
  4   2  17  1   
  5   2  18  1   
  6   3   5  1   
  7   3  19  1   
  8   3  20  1   
  9   4   6  1   
 10   4  21  1   
 11   4  22  1   
 12   5   6  1   
 13   5  23  1   
 14   5  24  1   
 15   6   7  1   
 16   6  25  1   
 17   7   8  1   
 18   7  26  1   
 19   7  27  1   
 20   8   9  ar  
 21   8  10  ar  
 22   9  11  ar  
 23   9  28  1   
 24  10  12  ar  
 25  10  29  1   
 26  11  13  ar  
 27  11  14  1   
 28  12  13  ar  
 29  12  30  1   
 30  13  15  1   
 31  14  31  1   
 32  14  32  1   
 33  14  33  1   
 34  15  16  1   
 35  16  34  1   
 36  16  35  1   
 37  16  36  1   
@<TRIPOS>SUBSTRUCTURE
  1 ****   8 GROUP 4 **** **** 0

# MOE 2024.06 (io_trps.svl 2023.06)
