@<TRIPOS>MOLECULE
NONAME
39 41 1 0 0 
SMALL
USER_CHARGES


@<TRIPOS>ATOM
  1 O        0.6840    -0.5800    -0.5470 O.2   1 <1>  -0.5200 
  2 N       -0.0090    -1.3990    -1.1710 N.pl3 1 <1>   0.8000 
  3 O        0.2480    -1.6930    -2.3510 O.2   1 <1>  -0.5200 
  4 C       -1.2240    -2.0160    -0.5250 C.3   1 <1>   0.3780 
  5 C       -1.2590    -1.8250     1.0010 C.2   1 <1>  -0.2880 
  6 C       -1.2490    -3.5330    -0.8310 C.3   1 <1>   0.1100 
  7 C       -2.5010    -1.3760    -1.1110 C.3   1 <1>  -0.1600 
  8 C       -2.3880    -1.6730     1.7010 C.2   1 <1>  -0.2880 
  9 N       -2.4650    -4.1940    -0.2830 N.3   1 <1>  -0.8100 
 10 C       -3.7540    -2.0190    -0.4570 C.3   1 <1>   0.2400 
 11 C       -3.7730    -1.6920     1.0640 C.3   1 <1>  -0.0220 
 12 C       -3.7180    -3.5480    -0.7280 C.3   1 <1>   0.1100 
 13 C       -2.4780    -5.6460    -0.5390 C.3   1 <1>   0.2530 
 14 N       -5.0270    -1.5050    -1.0630 N.pl3 1 <1>   0.8000 
 15 C       -1.2640    -6.3220     0.0820 C.ar  1 <1>  -0.1440 
 16 O       -4.9850    -0.6820    -1.9890 O.2   1 <1>  -0.5200 
 17 O       -6.1040    -1.9400    -0.6300 O.2   1 <1>  -0.5200 
 18 C       -0.4020    -7.0810    -0.6960 C.ar  1 <1>  -0.1500 
 19 C       -1.0060    -6.1810     1.4380 C.ar  1 <1>  -0.1500 
 20 C        0.7020    -7.6900    -0.1260 C.ar  1 <1>  -0.1500 
 21 C        0.0970    -6.7900     2.0100 C.ar  1 <1>  -0.1500 
 22 C        0.9520    -7.5440     1.2270 C.ar  1 <1>  -0.1500 
 23 H       -0.2850    -1.8430     1.4630 H     1 <1>   0.1500 
 24 H       -0.3730    -3.9780    -0.3910 H     1 <1>   0.0800 
 25 H       -1.2130    -3.6950    -1.8960 H     1 <1>   0.0800 
 26 H       -2.5200    -1.5340    -2.1760 H     1 <1>   0.0800 
 27 H       -2.4910    -0.3170    -0.9140 H     1 <1>   0.0800 
 28 H       -2.4060    -1.5370     2.7710 H     1 <1>   0.1500 
 29 H       -4.2100    -0.7200     1.2190 H     1 <1>   0.0800 
 30 H       -4.3840    -2.4140     1.5800 H     1 <1>   0.0800 
 31 H       -4.5430    -4.0160    -0.2170 H     1 <1>   0.0800 
 32 H       -3.8390    -3.7210    -1.7850 H     1 <1>   0.0800 
 33 H       -2.5010    -5.8290    -1.6000 H     1 <1>   0.0800 
 34 H       -3.3640    -6.0770    -0.1050 H     1 <1>   0.0800 
 35 H       -0.5840    -7.2030    -1.7490 H     1 <1>   0.1500 
 36 H       -1.6680    -5.5880     2.0470 H     1 <1>   0.1500 
 37 H        1.3680    -8.2770    -0.7340 H     1 <1>   0.1500 
 38 H        0.2900    -6.6750     3.0620 H     1 <1>   0.1500 
 39 H        1.8110    -8.0180     1.6710 H     1 <1>   0.1500 
@<TRIPOS>BOND
  1   1   2  2   
  2   2   3  2   
  3   2   4  1   
  4   4   5  1   
  5   4   6  1   
  6   4   7  1   
  7   5   8  2   
  8   5  23  1   
  9   6   9  1   
 10   6  24  1   
 11   6  25  1   
 12   7  10  1   
 13   7  26  1   
 14   7  27  1   
 15   8  11  1   
 16   8  28  1   
 17   9  12  1   
 18   9  13  1   
 19  10  11  1   
 20  10  12  1   
 21  10  14  1   
 22  11  29  1   
 23  11  30  1   
 24  12  31  1   
 25  12  32  1   
 26  13  15  1   
 27  13  33  1   
 28  13  34  1   
 29  14  16  2   
 30  14  17  2   
 31  15  18  ar  
 32  15  19  ar  
 33  18  20  ar  
 34  18  35  1   
 35  19  21  ar  
 36  19  36  1   
 37  20  22  ar  
 38  20  37  1   
 39  21  22  ar  
 40  21  38  1   
 41  22  39  1   
@<TRIPOS>SUBSTRUCTURE
  1 ****   6 GROUP 4 **** **** 0

# MOE 2024.06 (io_trps.svl 2023.06)
