@<TRIPOS>MOLECULE
NONAME
43 45 1 0 0 
SMALL
USER_CHARGES


@<TRIPOS>ATOM
  1 CL       1.0520     1.2260    -2.7960 Cl    1 <1>  -0.1770 
  2 C        0.7430     2.6370    -1.8180 C.ar  1 <1>   0.1770 
  3 C        0.6120     3.8700    -2.4260 C.ar  1 <1>  -0.1500 
  4 C        0.6330     2.5040    -0.4480 C.ar  1 <1>  -0.1500 
  5 C        0.3680     4.9870    -1.6430 C.ar  1 <1>  -0.1500 
  6 C        0.3880     3.6280     0.3230 C.ar  1 <1>  -0.1500 
  7 C        0.2550     4.8880    -0.2580 C.ar  1 <1>  -0.0090 
  8 S       -0.0380     6.3640     0.7560 S.o2  1 <1>   1.4470 
  9 O       -0.1730     6.0190     2.1530 O.2   1 <1>  -0.6500 
 10 O       -1.0140     7.2190     0.1230 O.2   1 <1>  -0.6500 
 11 N        1.4330     7.2120     0.6620 N.am  1 <1>  -0.8490 
 12 C        1.2440     8.6160     1.1000 C.3   1 <1>   0.1960 
 13 C        2.5090     6.5720     1.4490 C.3   1 <1>   0.1960 
 14 C        2.5660     9.4170     1.1950 C.3   1 <1>   0.3430 
 15 C        3.8680     7.3030     1.2920 C.3   1 <1>   0.3430 
 16 N        3.7270     8.6460     0.6260 N.4   1 <1>  -0.9590 
 17 C        4.9980     9.4210     0.5850 C.3   1 <1>   0.4860 
 18 C        4.7890    10.6730    -0.2470 C.ar  1 <1>  -0.1430 
 19 C        4.6860    10.5880    -1.6310 C.ar  1 <1>  -0.1500 
 20 C        4.7020    11.9140     0.3740 C.ar  1 <1>  -0.1500 
 21 C        4.4890    11.7310    -2.3870 C.ar  1 <1>  -0.1500 
 22 C        4.5050    13.0590    -0.3800 C.ar  1 <1>  -0.1500 
 23 C        4.3990    12.9560    -1.7530 C.ar  1 <1>   0.1770 
 24 CL       4.1480    14.3960    -2.7030 Cl    1 <1>  -0.1770 
 25 H        0.6950     3.9490    -3.4960 H     1 <1>   0.1500 
 26 H        0.7330     1.5320     0.0020 H     1 <1>   0.1500 
 27 H        0.2580     5.9500    -2.1140 H     1 <1>   0.1500 
 28 H        0.2940     3.5210     1.3920 H     1 <1>   0.1500 
 29 H        0.7520     8.6400     2.0590 H     1 <1>   0.0800 
 30 H        0.5930     9.1180     0.4020 H     1 <1>   0.0800 
 31 H        2.6300     5.5470     1.1410 H     1 <1>   0.0800 
 32 H        2.2410     6.5610     2.4940 H     1 <1>   0.0800 
 33 H        2.7570     9.6530     2.2290 H     1 <1>   0.0800 
 34 H        2.4430    10.3500     0.6680 H     1 <1>   0.0800 
 35 H        4.5280     6.6810     0.7090 H     1 <1>   0.0800 
 36 H        4.3110     7.4180     2.2680 H     1 <1>   0.0800 
 37 H        3.4440     8.4510    -0.3450 H     1 <1>   0.4500 
 38 H        5.7800     8.8270     0.1410 H     1 <1>   0.0800 
 39 H        5.3010     9.6910     1.5830 H     1 <1>   0.0800 
 40 H        4.7640     9.6410    -2.1390 H     1 <1>   0.1500 
 41 H        4.7910    12.0100     1.4440 H     1 <1>   0.1500 
 42 H        4.4090    11.6840    -3.4590 H     1 <1>   0.1500 
 43 H        4.4370    14.0280     0.0850 H     1 <1>   0.1500 
@<TRIPOS>BOND
  1   1   2  1   
  2   2   3  ar  
  3   2   4  ar  
  4   3   5  ar  
  5   3  25  1   
  6   4   6  ar  
  7   4  26  1   
  8   5   7  ar  
  9   5  27  1   
 10   6   7  ar  
 11   6  28  1   
 12   7   8  1   
 13   8   9  2   
 14   8  10  2   
 15   8  11  am  
 16  11  12  1   
 17  11  13  1   
 18  12  14  1   
 19  12  29  1   
 20  12  30  1   
 21  13  15  1   
 22  13  31  1   
 23  13  32  1   
 24  14  16  1   
 25  14  33  1   
 26  14  34  1   
 27  15  16  1   
 28  15  35  1   
 29  15  36  1   
 30  16  17  1   
 31  16  37  1   
 32  17  18  1   
 33  17  38  1   
 34  17  39  1   
 35  18  19  ar  
 36  18  20  ar  
 37  19  21  ar  
 38  19  40  1   
 39  20  22  ar  
 40  20  41  1   
 41  21  23  ar  
 42  21  42  1   
 43  22  23  ar  
 44  22  43  1   
 45  23  24  1   
@<TRIPOS>SUBSTRUCTURE
  1 ****  11 GROUP 4 **** **** 0

# MOE 2024.06 (io_trps.svl 2023.06)
