@<TRIPOS>MOLECULE
NONAME
38 39 1 0 0 
SMALL
USER_CHARGES


@<TRIPOS>ATOM
  1 O       -0.7550    -1.4730    -0.9930 O.2   1 <1>  -0.5700 
  2 C        0.2400    -2.0590    -1.3180 C.2   1 <1>   0.5690 
  3 N        0.3540    -2.5490    -2.5670 N.am  1 <1>  -0.8000 
  4 C        1.3540    -2.2410    -0.2910 C.3   1 <1>  -0.0190 
  5 C        2.7000    -1.6590    -0.7580 C.3   1 <1>  -0.1600 
  6 C        1.5300    -3.7130     0.1190 C.3   1 <1>  -0.1600 
  7 C        3.7780    -1.8380     0.3110 C.3   1 <1>   0.3430 
  8 C        2.6220    -3.8650     1.1780 C.3   1 <1>   0.3430 
  9 N        3.9000    -3.2830     0.6760 N.4   1 <1>  -0.9590 
 10 C        5.0070    -3.5010     1.6480 C.3   1 <1>   0.4860 
 11 C        6.3140    -3.1290     0.9780 C.ar  1 <1>  -0.1440 
 12 C        6.8620    -3.9550     0.0060 C.ar  1 <1>  -0.1500 
 13 C        6.9680    -1.9560     1.3270 C.ar  1 <1>  -0.1500 
 14 C        8.0460    -3.6100    -0.6240 C.ar  1 <1>  -0.1440 
 15 C        8.1500    -1.6090     0.6990 C.ar  1 <1>  -0.1500 
 16 C        8.6850    -2.4320    -0.2750 C.ar  1 <1>  -0.1500 
 17 C        8.6540    -4.5070    -1.6880 C.3   1 <1>  -0.0970 
 18 H       -0.4210    -2.4000    -3.2170 H     1 <1>   0.3700 
 19 H        1.1570    -3.0510    -2.9410 H     1 <1>   0.3700 
 20 H        1.0480    -1.6920     0.5850 H     1 <1>   0.0800 
 21 H        2.5800    -0.6080    -0.9600 H     1 <1>   0.0800 
 22 H        3.0220    -2.1280    -1.6710 H     1 <1>   0.0800 
 23 H        1.7710    -4.3180    -0.7380 H     1 <1>   0.0800 
 24 H        0.6010    -4.0800     0.5210 H     1 <1>   0.0800 
 25 H        3.5180    -1.2600     1.1840 H     1 <1>   0.0800 
 26 H        4.7190    -1.4700    -0.0690 H     1 <1>   0.0800 
 27 H        2.7540    -4.9100     1.4080 H     1 <1>   0.0800 
 28 H        2.3180    -3.3550     2.0780 H     1 <1>   0.0800 
 29 H        4.1770    -3.7790    -0.1790 H     1 <1>   0.4500 
 30 H        5.0460    -4.5380     1.9420 H     1 <1>   0.0800 
 31 H        4.8590    -2.9000     2.5290 H     1 <1>   0.0800 
 32 H        6.3790    -4.8770    -0.2670 H     1 <1>   0.1500 
 33 H        6.5750    -1.3020     2.0870 H     1 <1>   0.1500 
 34 H        8.6620    -0.7000     0.9670 H     1 <1>   0.1500 
 35 H        9.6060    -2.1540    -0.7590 H     1 <1>   0.1500 
 36 H        8.4930    -4.0810    -2.6620 H     1 <1>   0.0800 
 37 H        8.2190    -5.4890    -1.6630 H     1 <1>   0.0800 
 38 H        9.7130    -4.6040    -1.5260 H     1 <1>   0.0800 
@<TRIPOS>BOND
  1   1   2  2   
  2   2   3  am  
  3   2   4  1   
  4   3  18  1   
  5   3  19  1   
  6   4   5  1   
  7   4   6  1   
  8   4  20  1   
  9   5   7  1   
 10   5  21  1   
 11   5  22  1   
 12   6   8  1   
 13   6  23  1   
 14   6  24  1   
 15   7   9  1   
 16   7  25  1   
 17   7  26  1   
 18   8   9  1   
 19   8  27  1   
 20   8  28  1   
 21   9  10  1   
 22   9  29  1   
 23  10  11  1   
 24  10  30  1   
 25  10  31  1   
 26  11  12  ar  
 27  11  13  ar  
 28  12  14  ar  
 29  12  32  1   
 30  13  15  ar  
 31  13  33  1   
 32  14  16  ar  
 33  14  17  1   
 34  15  16  ar  
 35  15  34  1   
 36  16  35  1   
 37  17  36  1   
 38  17  37  1   
 39  17  38  1   
@<TRIPOS>SUBSTRUCTURE
  1 ****   9 GROUP 4 **** **** 0

# MOE 2024.06 (io_trps.svl 2023.06)
