@<TRIPOS>MOLECULE
NONAME
41 42 1 0 0 
SMALL
USER_CHARGES


@<TRIPOS>ATOM
  1 CL       0.4500    -0.4360    -1.5870 Cl    1 <1>  -0.1770 
  2 C       -0.5720    -1.6390    -0.8280 C.ar  1 <1>   0.1770 
  3 C       -0.0120    -2.7980    -0.2990 C.ar  1 <1>   0.0830 
  4 C       -1.9330    -1.4030    -0.7720 C.ar  1 <1>  -0.1500 
  5 O        1.3350    -2.9580    -0.3910 O.3   1 <1>  -0.3630 
  6 C       -0.8560    -3.7330     0.2980 C.ar  1 <1>  -0.1500 
  7 C       -2.7610    -2.3400    -0.1770 C.ar  1 <1>  -0.1500 
  8 C        1.9920    -4.0820     0.1340 C.3   1 <1>   0.1200 
  9 C       -2.2210    -3.5000     0.3560 C.ar  1 <1>  -0.1500 
 10 C        3.4820    -3.8920    -0.1500 C.3   1 <1>  -0.1600 
 11 C        4.3000    -5.0590     0.4000 C.3   1 <1>   0.3430 
 12 N        5.7320    -4.9180     0.0110 N.4   1 <1>  -0.9590 
 13 C        6.4250    -6.2340     0.1350 C.3   1 <1>   0.3430 
 14 C        6.4030    -3.8240     0.7760 C.3   1 <1>   0.3430 
 15 C        7.5530    -6.3230    -0.8920 C.3   1 <1>  -0.1600 
 16 C        7.7950    -3.5010     0.2310 C.3   1 <1>  -0.1600 
 17 C        8.9010    -5.7340    -0.4410 C.3   1 <1>  -0.1600 
 18 C        8.8420    -4.5740     0.5630 C.3   1 <1>  -0.1600 
 19 H       -2.3360    -0.4980    -1.1900 H     1 <1>   0.1500 
 20 H       -0.4780    -4.6430     0.7210 H     1 <1>   0.1500 
 21 H       -3.8230    -2.1660    -0.1280 H     1 <1>   0.1500 
 22 H        1.6070    -4.9590    -0.3580 H     1 <1>   0.0800 
 23 H        1.7950    -4.1240     1.1920 H     1 <1>   0.0800 
 24 H       -2.8700    -4.2250     0.8180 H     1 <1>   0.1500 
 25 H        3.7900    -2.9690     0.3090 H     1 <1>   0.0800 
 26 H        3.6160    -3.8240    -1.2150 H     1 <1>   0.0800 
 27 H        3.9060    -5.9750    -0.0110 H     1 <1>   0.0800 
 28 H        4.2090    -5.1040     1.4730 H     1 <1>   0.0800 
 29 H        5.7640    -4.6570    -0.9830 H     1 <1>   0.4500 
 30 H        5.7230    -7.0240    -0.0750 H     1 <1>   0.0800 
 31 H        6.8060    -6.3790     1.1330 H     1 <1>   0.0800 
 32 H        6.4780    -4.0950     1.8170 H     1 <1>   0.0800 
 33 H        5.8080    -2.9280     0.7130 H     1 <1>   0.0800 
 34 H        7.2430    -5.8630    -1.8140 H     1 <1>   0.0800 
 35 H        7.7180    -7.3640    -1.1140 H     1 <1>   0.0800 
 36 H        8.1100    -2.5890     0.7090 H     1 <1>   0.0800 
 37 H        7.7620    -3.3020    -0.8260 H     1 <1>   0.0800 
 38 H        9.4360    -5.4090    -1.3180 H     1 <1>   0.0800 
 39 H        9.4920    -6.5180     0.0020 H     1 <1>   0.0800 
 40 H        8.6710    -4.9570     1.5560 H     1 <1>   0.0800 
 41 H        9.8150    -4.1110     0.5780 H     1 <1>   0.0800 
@<TRIPOS>BOND
  1   1   2  1   
  2   2   3  ar  
  3   2   4  ar  
  4   3   5  1   
  5   3   6  ar  
  6   4   7  ar  
  7   4  19  1   
  8   5   8  1   
  9   6   9  ar  
 10   6  20  1   
 11   7   9  ar  
 12   7  21  1   
 13   8  10  1   
 14   8  22  1   
 15   8  23  1   
 16   9  24  1   
 17  10  11  1   
 18  10  25  1   
 19  10  26  1   
 20  11  12  1   
 21  11  27  1   
 22  11  28  1   
 23  12  13  1   
 24  12  14  1   
 25  12  29  1   
 26  13  15  1   
 27  13  30  1   
 28  13  31  1   
 29  14  16  1   
 30  14  32  1   
 31  14  33  1   
 32  15  17  1   
 33  15  34  1   
 34  15  35  1   
 35  16  18  1   
 36  16  36  1   
 37  16  37  1   
 38  17  18  1   
 39  17  38  1   
 40  17  39  1   
 41  18  40  1   
 42  18  41  1   
@<TRIPOS>SUBSTRUCTURE
  1 ****  10 GROUP 4 **** **** 0

# MOE 2024.06 (io_trps.svl 2023.06)
