@<TRIPOS>MOLECULE
NONAME
52 56 1 0 0 
SMALL
USER_CHARGES


@<TRIPOS>ATOM
  1 O       -2.3260     0.7020    -2.0900 O.co2 1 <1>  -0.9000 
  2 C       -2.0310     0.5220    -0.8890 C.2   1 <1>   1.0500 
  3 O       -0.8200     0.5500    -0.5840 O.co2 1 <1>  -0.9000 
  4 C       -3.0670     0.1420     0.0800 C.2   1 <1>  -0.2500 
  5 C       -3.1310    -1.1010     0.6380 C.2   1 <1>  -0.2760 
  6 C       -4.0770     1.1610     0.3870 C.2   1 <1>  -0.2500 
  7 C       -4.2440    -1.5920     1.5700 C.3   1 <1>   0.0580 
  8 C       -2.0880    -2.2020     0.4150 C.3   1 <1>   0.0580 
  9 C       -4.0410     1.8430     1.6750 C.2   1 <1>   1.0500 
 10 C       -5.0130     1.4260    -0.5700 C.2   1 <1>  -0.1040 
 11 C       -4.9110    -2.8330     0.9510 C.3   1 <1>  -0.1600 
 12 C       -3.6170    -1.9610     2.9240 C.3   1 <1>  -0.1600 
 13 C       -2.7750    -3.4370    -0.1940 C.3   1 <1>  -0.1600 
 14 C       -1.4740    -2.5670     1.7770 C.3   1 <1>  -0.1600 
 15 O       -3.4580     2.9360     1.8240 O.co2 1 <1>  -0.9000 
 16 O       -4.6700     1.4040     2.6640 O.co2 1 <1>  -0.9000 
 17 C       -6.1470     2.3060    -0.5600 C.2   1 <1>  -0.0460 
 18 C       -3.8740    -3.9530     0.7530 C.3   1 <1>  -0.0800 
 19 C       -2.5690    -3.0760     2.7350 C.3   1 <1>  -0.0800 
 20 C       -6.9970     2.5570    -1.6730 C.ar  1 <1>   0.0000 
 21 C       -6.6550     3.0550     0.4620 C.2   1 <1>  -0.3020 
 22 C       -3.2480    -4.3140     2.1160 C.3   1 <1>  -0.1600 
 23 C       -7.9860     3.4420    -1.2530 C.ar  1 <1>  -0.1520 
 24 C       -6.9970     2.1070    -2.9970 C.ar  1 <1>  -0.1500 
 25 N       -7.7530     3.7410     0.0670 N.pl3 1 <1>   0.0480 
 26 C       -8.9830     3.8750    -2.1330 C.ar  1 <1>  -0.1500 
 27 C       -7.9780     2.5340    -3.8640 C.ar  1 <1>  -0.1500 
 28 C       -8.5320     4.6540     0.9120 C.3   1 <1>   0.0160 
 29 C       -8.9730     3.4170    -3.4310 C.ar  1 <1>  -0.1500 
 30 H       -4.9970    -0.8420     1.7160 H     1 <1>   0.0800 
 31 H       -1.3050    -1.8780    -0.2470 H     1 <1>   0.0800 
 32 H       -4.8970     0.8940    -1.4960 H     1 <1>   0.1500 
 33 H       -5.3390    -2.5560     0.0040 H     1 <1>   0.0800 
 34 H       -5.7060    -3.1700     1.5910 H     1 <1>   0.0800 
 35 H       -3.1550    -1.0790     3.3340 H     1 <1>   0.0800 
 36 H       -4.3850    -2.2770     3.6050 H     1 <1>   0.0800 
 37 H       -3.2050    -3.1590    -1.1400 H     1 <1>   0.0800 
 38 H       -2.0450    -4.2050    -0.3710 H     1 <1>   0.0800 
 39 H       -1.0080    -1.6870     2.1860 H     1 <1>   0.0800 
 40 H       -0.7150    -3.3160     1.6440 H     1 <1>   0.0800 
 41 H       -4.3490    -4.8170     0.3240 H     1 <1>   0.0800 
 42 H       -2.1320    -3.3260     3.6850 H     1 <1>   0.0800 
 43 H       -6.2650     3.1200     1.4630 H     1 <1>   0.1500 
 44 H       -2.5230    -5.0980     1.9870 H     1 <1>   0.0800 
 45 H       -4.0120    -4.6770     2.7810 H     1 <1>   0.0800 
 46 H       -6.2190     1.4350    -3.3140 H     1 <1>   0.1500 
 47 H       -9.7400     4.5550    -1.7910 H     1 <1>   0.1500 
 48 H       -7.9820     2.1900    -4.8830 H     1 <1>   0.1500 
 49 H       -8.0860     4.6980     1.8900 H     1 <1>   0.0800 
 50 H       -9.5390     4.2910     0.9900 H     1 <1>   0.0800 
 51 H       -8.5260     5.6330     0.4710 H     1 <1>   0.0800 
 52 H       -9.7290     3.7360    -4.1250 H     1 <1>   0.1500 
@<TRIPOS>BOND
  1   1   2  ar  
  2   2   3  ar  
  3   2   4  1   
  4   4   5  2   
  5   4   6  1   
  6   5   7  1   
  7   5   8  1   
  8   6   9  1   
  9   6  10  2   
 10   7  11  1   
 11   7  12  1   
 12   7  30  1   
 13   8  13  1   
 14   8  14  1   
 15   8  31  1   
 16   9  15  ar  
 17   9  16  ar  
 18  10  17  1   
 19  10  32  1   
 20  11  18  1   
 21  11  33  1   
 22  11  34  1   
 23  12  19  1   
 24  12  35  1   
 25  12  36  1   
 26  13  18  1   
 27  13  37  1   
 28  13  38  1   
 29  14  19  1   
 30  14  39  1   
 31  14  40  1   
 32  17  20  1   
 33  17  21  2   
 34  18  22  1   
 35  18  41  1   
 36  19  22  1   
 37  19  42  1   
 38  20  23  ar  
 39  20  24  ar  
 40  21  25  1   
 41  21  43  1   
 42  22  44  1   
 43  22  45  1   
 44  23  25  1   
 45  23  26  ar  
 46  24  27  ar  
 47  24  46  1   
 48  25  28  1   
 49  26  29  ar  
 50  26  47  1   
 51  27  29  ar  
 52  27  48  1   
 53  28  49  1   
 54  28  50  1   
 55  28  51  1   
 56  29  52  1   
@<TRIPOS>SUBSTRUCTURE
  1 ****   6 GROUP 4 **** **** 0

# MOE 2024.06 (io_trps.svl 2023.06)
