@<TRIPOS>MOLECULE
NONAME
41 42 1 0 0 
SMALL
USER_CHARGES


@<TRIPOS>ATOM
  1 S       -0.1880    -0.6080     1.0770 S.3   1 <1>  -0.3320 
  2 C        1.4330    -1.0160     0.4130 C.ar  1 <1>   0.1020 
  3 C       -0.7240    -2.0480     2.1030 C.3   1 <1>  -0.0100 
  4 C        2.0220    -0.0870    -0.4200 C.ar  1 <1>  -0.1500 
  5 C        2.0760    -2.2060     0.7140 C.ar  1 <1>  -0.1500 
  6 C        3.2780    -0.3390    -0.9680 C.ar  1 <1>   0.0830 
  7 C        3.3220    -2.4520     0.1710 C.ar  1 <1>  -0.1500 
  8 O        3.8880     0.5460    -1.7960 O.3   1 <1>  -0.3630 
  9 C        3.9520    -1.5320    -0.6690 C.ar  1 <1>   0.0860 
 10 C        3.2280     1.6830    -2.3070 C.3   1 <1>   0.0400 
 11 C        5.2590    -1.8490    -1.2060 C.2   1 <1>   0.5440 
 12 O        5.3610    -2.8100    -1.9480 O.2   1 <1>  -0.5700 
 13 N        6.3980    -1.1380    -0.8710 N.am  1 <1>  -0.6600 
 14 C        6.4040    -0.0010     0.0900 C.3   1 <1>   0.1400 
 15 C        7.7140    -1.4250    -1.5090 C.3   1 <1>   0.1400 
 16 C        7.4640    -0.2340     1.1700 C.3   1 <1>  -0.1600 
 17 C        8.7740    -1.6680    -0.4320 C.3   1 <1>  -0.1600 
 18 C        8.8540    -0.4940     0.5590 C.3   1 <1>  -0.0190 
 19 C        9.9100    -0.7500     1.6330 C.2   1 <1>   0.5690 
 20 O        9.7040    -1.5290     2.5270 O.2   1 <1>  -0.5700 
 21 N       11.0870    -0.1010     1.5750 N.am  1 <1>  -0.8000 
 22 H       -1.6990    -1.8210     2.4940 H     1 <1>   0.0800 
 23 H       -0.0130    -2.1710     2.9010 H     1 <1>   0.0800 
 24 H       -0.7590    -2.9140     1.4680 H     1 <1>   0.0800 
 25 H        1.4840     0.8170    -0.6240 H     1 <1>   0.1500 
 26 H        1.6260    -2.9380     1.3560 H     1 <1>   0.1500 
 27 H        3.8300    -3.3760     0.3900 H     1 <1>   0.1500 
 28 H        3.8930     2.1730    -2.9960 H     1 <1>   0.0800 
 29 H        2.9900     2.3460    -1.4950 H     1 <1>   0.0800 
 30 H        2.3370     1.3680    -2.8230 H     1 <1>   0.0800 
 31 H        5.4450     0.1110     0.5620 H     1 <1>   0.0800 
 32 H        6.6170     0.9070    -0.4490 H     1 <1>   0.0800 
 33 H        7.9930    -0.5850    -2.1200 H     1 <1>   0.0800 
 34 H        7.6510    -2.2900    -2.1470 H     1 <1>   0.0800 
 35 H        7.1660    -1.0780     1.7680 H     1 <1>   0.0800 
 36 H        7.5080     0.6240     1.8170 H     1 <1>   0.0800 
 37 H        9.7300    -1.8140    -0.9030 H     1 <1>   0.0800 
 38 H        8.5300    -2.5740     0.0960 H     1 <1>   0.0800 
 39 H        9.1430     0.3850     0.0130 H     1 <1>   0.0800 
 40 H       11.7860    -0.2850     2.2960 H     1 <1>   0.3700 
 41 H       11.3460     0.5640     0.8480 H     1 <1>   0.3700 
@<TRIPOS>BOND
  1   1   2  1   
  2   1   3  1   
  3   2   4  ar  
  4   2   5  ar  
  5   3  22  1   
  6   3  23  1   
  7   3  24  1   
  8   4   6  ar  
  9   4  25  1   
 10   5   7  ar  
 11   5  26  1   
 12   6   8  1   
 13   6   9  ar  
 14   7   9  ar  
 15   7  27  1   
 16   8  10  1   
 17   9  11  1   
 18  10  28  1   
 19  10  29  1   
 20  10  30  1   
 21  11  12  2   
 22  11  13  am  
 23  13  14  1   
 24  13  15  1   
 25  14  16  1   
 26  14  31  1   
 27  14  32  1   
 28  15  17  1   
 29  15  33  1   
 30  15  34  1   
 31  16  18  1   
 32  16  35  1   
 33  16  36  1   
 34  17  18  1   
 35  17  37  1   
 36  17  38  1   
 37  18  19  1   
 38  18  39  1   
 39  19  20  2   
 40  19  21  am  
 41  21  40  1   
 42  21  41  1   
@<TRIPOS>SUBSTRUCTURE
  1 ****  13 GROUP 4 **** **** 0

# MOE 2024.06 (io_trps.svl 2023.06)
