@<TRIPOS>MOLECULE
NONAME
47 51 1 0 0 
SMALL
USER_CHARGES


@<TRIPOS>ATOM
  1 S        0.4320    -0.3020     1.0880 S.o2  1 <1>   1.4470 
  2 O       -0.3620     0.8120     1.5570 O.2   1 <1>  -0.6500 
  3 O        0.8110    -1.3450     2.0190 O.2   1 <1>  -0.6500 
  4 N       -0.4490    -1.0400    -0.1550 N.am  1 <1>  -0.8490 
  5 C        1.9030     0.3260     0.2310 C.ar  1 <1>  -0.0090 
  6 C       -1.8130    -1.3540     0.2310 C.3   1 <1>   0.1960 
  7 C        0.1120    -2.2880    -0.6450 C.3   1 <1>   0.1960 
  8 C        3.1810     0.0360     0.6930 C.ar  1 <1>  -0.1500 
  9 C        1.7690     1.1210    -0.9150 C.ar  1 <1>  -0.1500 
 10 C       -2.2970    -2.3350    -0.8310 C.3   1 <1>  -0.1600 
 11 C       -1.0220    -2.9190    -1.4400 C.3   1 <1>  -0.1600 
 12 C        4.2990     0.5240     0.0220 C.ar  1 <1>   0.0000 
 13 C        2.8710     1.6120    -1.5920 C.ar  1 <1>  -0.1500 
 14 C        4.1290     1.3020    -1.1080 C.ar  1 <1>   0.1400 
 15 C        5.7010     0.4270     0.2050 C.ar  1 <1>   0.0000 
 16 O        5.3100     1.6780    -1.6200 O.3   1 <1>  -0.2800 
 17 C        6.2600     1.1530    -0.8310 C.ar  1 <1>   0.1400 
 18 C        6.5390    -0.1890     1.1280 C.ar  1 <1>  -0.1500 
 19 C        7.6290     1.2840    -0.9820 C.ar  1 <1>  -0.1500 
 20 C        7.9080    -0.0620     0.9860 C.ar  1 <1>  -0.1500 
 21 C        8.4740     0.6710    -0.0690 C.ar  1 <1>   0.1170 
 22 N        9.8580     0.8240    -0.2360 N.am  1 <1>  -0.5470 
 23 C       10.9240     0.1520     0.2930 C.2   1 <1>   0.6300 
 24 O       10.8350    -0.7880     1.0430 O.2   1 <1>  -0.5700 
 25 C       12.3090     0.6240    -0.1230 C.3   1 <1>  -0.1000 
 26 C       13.2540     1.1980     0.8930 C.3   1 <1>  -0.2000 
 27 C       12.6740     2.0830    -0.1660 C.3   1 <1>  -0.2000 
 28 H       -2.4180    -0.4630     0.2670 H     1 <1>   0.0800 
 29 H       -1.8200    -1.8290     1.1990 H     1 <1>   0.0800 
 30 H        0.3720    -2.9330     0.1800 H     1 <1>   0.0800 
 31 H        0.9830    -2.1120    -1.2550 H     1 <1>   0.0800 
 32 H        3.3190    -0.5680     1.5730 H     1 <1>   0.1500 
 33 H        0.7780     1.3500    -1.2720 H     1 <1>   0.1500 
 34 H       -2.8630    -1.8090    -1.5800 H     1 <1>   0.0800 
 35 H       -2.9190    -3.0930    -0.3890 H     1 <1>   0.0800 
 36 H       -0.9920    -3.9920    -1.3690 H     1 <1>   0.0800 
 37 H       -0.9390    -2.6330    -2.4740 H     1 <1>   0.0800 
 38 H        2.7700     2.2220    -2.4720 H     1 <1>   0.1500 
 39 H        6.1180    -0.7550     1.9410 H     1 <1>   0.1500 
 40 H        8.0110     1.8560    -1.8060 H     1 <1>   0.1500 
 41 H        8.5470    -0.5360     1.7080 H     1 <1>   0.1500 
 42 H       10.1290     1.5540    -0.8910 H     1 <1>   0.3700 
 43 H       12.7380    -0.0290    -0.8610 H     1 <1>   0.1000 
 44 H       14.2930     0.9240     0.8380 H     1 <1>   0.1000 
 45 H       12.9080     1.2960     1.9080 H     1 <1>   0.1000 
 46 H       11.9640     2.8290     0.1470 H     1 <1>   0.1000 
 47 H       13.3220     2.4340    -0.9510 H     1 <1>   0.1000 
@<TRIPOS>BOND
  1   1   2  2   
  2   1   3  2   
  3   1   4  am  
  4   1   5  1   
  5   4   6  1   
  6   4   7  1   
  7   5   8  ar  
  8   5   9  ar  
  9   6  10  1   
 10   6  28  1   
 11   6  29  1   
 12   7  11  1   
 13   7  30  1   
 14   7  31  1   
 15   8  12  ar  
 16   8  32  1   
 17   9  13  ar  
 18   9  33  1   
 19  10  11  1   
 20  10  34  1   
 21  10  35  1   
 22  11  36  1   
 23  11  37  1   
 24  12  14  ar  
 25  12  15  1   
 26  13  14  ar  
 27  13  38  1   
 28  14  16  1   
 29  15  17  ar  
 30  15  18  ar  
 31  16  17  1   
 32  17  19  ar  
 33  18  20  ar  
 34  18  39  1   
 35  19  21  ar  
 36  19  40  1   
 37  20  21  ar  
 38  20  41  1   
 39  21  22  1   
 40  22  23  am  
 41  22  42  1   
 42  23  24  2   
 43  23  25  1   
 44  25  26  1   
 45  25  27  1   
 46  25  43  1   
 47  26  27  1   
 48  26  44  1   
 49  26  45  1   
 50  27  46  1   
 51  27  47  1   
@<TRIPOS>SUBSTRUCTURE
  1 ****  12 GROUP 4 **** **** 0

# MOE 2024.06 (io_trps.svl 2023.06)
