@<TRIPOS>MOLECULE
NONAME
30 30 1 0 0 
SMALL
USER_CHARGES


@<TRIPOS>ATOM
  1 S       -0.4410    -0.0180    -0.2580 S.3   1 <1>  -0.2660 
  2 C        0.5020     1.1000    -1.3140 C.1   1 <1>   0.5930 
  3 C       -2.1780     0.2830    -0.8010 C.3   1 <1>   0.0700 
  4 N        1.0640     1.8150    -1.9960 N.1   1 <1>  -0.5570 
  5 C       -3.0990    -0.6140     0.0260 C.3   1 <1>  -0.1600 
  6 C       -4.5590    -0.4140    -0.3750 C.3   1 <1>   0.1200 
  7 O       -5.3490    -1.2640     0.4190 O.3   1 <1>  -0.3630 
  8 C       -6.7020    -1.3100     0.2910 C.ar  1 <1>   0.0830 
  9 C       -7.4000    -2.1840     1.1200 C.ar  1 <1>  -0.1440 
 10 C       -7.4030    -0.5280    -0.6250 C.ar  1 <1>  -0.1500 
 11 C       -8.7800    -2.2650     1.0240 C.ar  1 <1>  -0.1500 
 12 C       -6.6610    -3.0490     2.1300 C.3   1 <1>  -0.0970 
 13 C       -8.7800    -0.6190    -0.7100 C.ar  1 <1>  -0.1500 
 14 C       -9.4760    -1.4880     0.1120 C.ar  1 <1>  -0.1430 
 15 C      -10.9880    -1.5880     0.0210 C.3   1 <1>  -0.0970 
 16 H       -2.2300     0.0500    -1.8500 H     1 <1>   0.0800 
 17 H       -2.3870     1.3270    -0.6390 H     1 <1>   0.0800 
 18 H       -2.9850    -0.3770     1.0700 H     1 <1>   0.0800 
 19 H       -2.8290    -1.6440    -0.1310 H     1 <1>   0.0800 
 20 H       -4.7140    -0.6780    -1.4070 H     1 <1>   0.0800 
 21 H       -4.8710     0.6010    -0.1950 H     1 <1>   0.0800 
 22 H       -6.8990     0.1560    -1.2790 H     1 <1>   0.1500 
 23 H       -9.3210    -2.9380     1.6650 H     1 <1>   0.1500 
 24 H       -7.3420    -3.6640     2.6890 H     1 <1>   0.0800 
 25 H       -5.9620    -3.6870     1.6190 H     1 <1>   0.0800 
 26 H       -6.1190    -2.4240     2.8160 H     1 <1>   0.0800 
 27 H       -9.3100    -0.0080    -1.4200 H     1 <1>   0.1500 
 28 H      -11.3080    -2.5960     0.2170 H     1 <1>   0.0800 
 29 H      -11.3270    -1.3100    -0.9600 H     1 <1>   0.0800 
 30 H      -11.4390    -0.9330     0.7450 H     1 <1>   0.0800 
@<TRIPOS>BOND
  1   1   2  1   
  2   1   3  1   
  3   2   4  3   
  4   3   5  1   
  5   3  16  1   
  6   3  17  1   
  7   5   6  1   
  8   5  18  1   
  9   5  19  1   
 10   6   7  1   
 11   6  20  1   
 12   6  21  1   
 13   7   8  1   
 14   8   9  ar  
 15   8  10  ar  
 16   9  11  ar  
 17   9  12  1   
 18  10  13  ar  
 19  10  22  1   
 20  11  14  ar  
 21  11  23  1   
 22  12  24  1   
 23  12  25  1   
 24  12  26  1   
 25  13  14  ar  
 26  13  27  1   
 27  14  15  1   
 28  15  28  1   
 29  15  29  1   
 30  15  30  1   
@<TRIPOS>SUBSTRUCTURE
  1 ****   7 GROUP 4 **** **** 0

# MOE 2024.06 (io_trps.svl 2023.06)
