@<TRIPOS>MOLECULE
NONAME
44 45 1 0 0 
SMALL
USER_CHARGES


@<TRIPOS>ATOM
  1 S       -0.0480    -0.5800    -1.3880 S.o2  1 <1>   1.4470 
  2 O       -0.4720     0.5610    -2.1710 O.2   1 <1>  -0.6500 
  3 O        0.1490    -1.8550    -2.0430 O.2   1 <1>  -0.6500 
  4 N       -1.2430    -0.8220    -0.2110 N.am  1 <1>  -0.8490 
  5 C        1.4190    -0.1690    -0.4030 C.ar  1 <1>  -0.0090 
  6 C       -1.6170     0.4330     0.4710 C.3   1 <1>   0.1960 
  7 C       -2.4390    -1.4550    -0.7960 C.3   1 <1>   0.1960 
  8 C        2.0170     1.0830    -0.4840 C.ar  1 <1>  -0.1500 
  9 C        1.9710    -1.0930     0.4720 C.ar  1 <1>  -0.1500 
 10 C       -2.6520     0.1910     1.5820 C.3   1 <1>   0.1400 
 11 C       -3.5120    -1.7520     0.2660 C.3   1 <1>   0.1400 
 12 C        3.1250     1.4150     0.2810 C.ar  1 <1>  -0.1440 
 13 C        3.0770    -0.7780     1.2410 C.ar  1 <1>  -0.1500 
 14 N       -3.8460    -0.5220     1.0420 N.am  1 <1>  -0.6600 
 15 C        3.6600     0.4750     1.1530 C.ar  1 <1>  -0.1430 
 16 C        3.7290     2.8060     0.1420 C.3   1 <1>  -0.0970 
 17 C       -5.1120    -0.0200     1.1680 C.2   1 <1>   0.7800 
 18 C        4.8760     0.7870     2.0130 C.3   1 <1>  -0.0960 
 19 O       -5.3490     1.0190     1.7560 O.2   1 <1>  -0.5700 
 20 O       -6.1100    -0.7080     0.6130 O.3   1 <1>  -0.4300 
 21 C       -7.4390    -0.2500     0.6990 C.3   1 <1>   0.1200 
 22 C       -8.3310    -1.2460    -0.0350 C.3   1 <1>  -0.2400 
 23 H       -2.0270     1.1340    -0.2380 H     1 <1>   0.0800 
 24 H       -0.7420     0.8800     0.9110 H     1 <1>   0.0800 
 25 H       -2.1620    -2.3840    -1.2660 H     1 <1>   0.0800 
 26 H       -2.8580    -0.8150    -1.5560 H     1 <1>   0.0800 
 27 H        1.6010     1.8100    -1.1620 H     1 <1>   0.1500 
 28 H        1.5270    -2.0710     0.5510 H     1 <1>   0.1500 
 29 H       -2.9390     1.1360     2.0110 H     1 <1>   0.0800 
 30 H       -2.2070    -0.4040     2.3590 H     1 <1>   0.0800 
 31 H       -3.1400    -2.5020     0.9410 H     1 <1>   0.0800 
 32 H       -4.3860    -2.1480    -0.2190 H     1 <1>   0.0800 
 33 H        3.4800    -1.5190     1.9080 H     1 <1>   0.1500 
 34 H        3.1920     3.3910    -0.5820 H     1 <1>   0.0800 
 35 H        4.7530     2.7320    -0.1780 H     1 <1>   0.0800 
 36 H        3.6930     3.3200     1.0850 H     1 <1>   0.0800 
 37 H        4.6690     1.6220     2.6580 H     1 <1>   0.0800 
 38 H        5.7180     1.0270     1.3890 H     1 <1>   0.0800 
 39 H        5.1420    -0.0550     2.6270 H     1 <1>   0.0800 
 40 H       -7.4940     0.7260     0.2470 H     1 <1>   0.0800 
 41 H       -7.7100    -0.1820     1.7400 H     1 <1>   0.0800 
 42 H       -8.0410    -1.3110    -1.0680 H     1 <1>   0.0800 
 43 H       -9.3540    -0.9200     0.0140 H     1 <1>   0.0800 
 44 H       -8.2580    -2.2160     0.4230 H     1 <1>   0.0800 
@<TRIPOS>BOND
  1   1   2  2   
  2   1   3  2   
  3   1   4  am  
  4   1   5  1   
  5   4   6  1   
  6   4   7  1   
  7   5   8  ar  
  8   5   9  ar  
  9   6  10  1   
 10   6  23  1   
 11   6  24  1   
 12   7  11  1   
 13   7  25  1   
 14   7  26  1   
 15   8  12  ar  
 16   8  27  1   
 17   9  13  ar  
 18   9  28  1   
 19  10  14  1   
 20  10  29  1   
 21  10  30  1   
 22  11  14  1   
 23  11  31  1   
 24  11  32  1   
 25  12  15  ar  
 26  12  16  1   
 27  13  15  ar  
 28  13  33  1   
 29  14  17  am  
 30  15  18  1   
 31  16  34  1   
 32  16  35  1   
 33  16  36  1   
 34  17  19  2   
 35  17  20  1   
 36  18  37  1   
 37  18  38  1   
 38  18  39  1   
 39  20  21  1   
 40  21  22  1   
 41  21  40  1   
 42  21  41  1   
 43  22  42  1   
 44  22  43  1   
 45  22  44  1   
@<TRIPOS>SUBSTRUCTURE
  1 ****   6 GROUP 4 **** **** 0

# MOE 2024.06 (io_trps.svl 2023.06)
