@<TRIPOS>MOLECULE
NONAME
48 50 1 0 0 
SMALL
USER_CHARGES


@<TRIPOS>ATOM
  1 O        5.3240    -2.7630     0.5680 O.2   1 <1>  -0.5700 
  2 C        6.1250    -2.4230    -0.2670 C.2   1 <1>   0.5690 
  3 N        6.5280    -1.1310    -0.3060 N.am  1 <1>  -0.7300 
  4 C        6.6870    -3.4830    -1.2430 C.3   1 <1>   0.4040 
  5 C        7.4760    -0.4460    -1.2140 C.3   1 <1>   0.2200 
  6 N        6.9350    -4.8760    -0.6730 N.4   1 <1>  -0.9590 
  7 C        8.8270    -0.1410    -0.4920 C.3   1 <1>   0.0000 
  8 C        6.7300     0.7730    -1.7660 C.3   1 <1>  -0.2400 
  9 C        5.6360    -5.5650    -0.3780 C.3   1 <1>   0.2630 
 10 C        7.7610    -4.8080     0.5750 C.3   1 <1>   0.2630 
 11 C        8.6510     0.7730     0.7510 C.3   1 <1>  -0.1600 
 12 C        9.8190     0.5540    -1.4610 C.3   1 <1>  -0.1600 
 13 C        9.4840    -1.4680    -0.0210 C.3   1 <1>  -0.1600 
 14 C       10.0040     1.0340     1.4400 C.3   1 <1>  -0.0800 
 15 C       11.1760     0.8160    -0.7820 C.3   1 <1>  -0.0800 
 16 C       10.8370    -1.2150     0.6650 C.3   1 <1>  -0.0800 
 17 C       10.9580     1.7200     0.4450 C.3   1 <1>  -0.1600 
 18 C       10.6180    -0.3040     1.8870 C.3   1 <1>  -0.1600 
 19 C       11.7860    -0.5200    -0.3260 C.3   1 <1>  -0.1600 
 20 H        6.1140    -0.5150     0.4010 H     1 <1>   0.3700 
 21 H        7.6160    -3.1030    -1.6290 H     1 <1>   0.0800 
 22 H        6.0020    -3.5570    -2.0700 H     1 <1>   0.0800 
 23 H        7.6920    -1.0870    -2.0500 H     1 <1>   0.0800 
 24 H        7.4410    -5.4320    -1.3780 H     1 <1>   0.4500 
 25 H        6.4920     1.4740    -0.9870 H     1 <1>   0.0800 
 26 H        5.8150     0.4610    -2.2370 H     1 <1>   0.0800 
 27 H        7.3180     1.2770    -2.5100 H     1 <1>   0.0800 
 28 H        5.0920    -5.0340     0.3870 H     1 <1>   0.0800 
 29 H        5.8160    -6.5700    -0.0310 H     1 <1>   0.0800 
 30 H        5.0240    -5.6120    -1.2630 H     1 <1>   0.0800 
 31 H        7.2410    -4.2490     1.3370 H     1 <1>   0.0800 
 32 H        8.7050    -4.3270     0.3770 H     1 <1>   0.0800 
 33 H        7.9540    -5.8000     0.9510 H     1 <1>   0.0800 
 34 H        7.9830     0.3180     1.4600 H     1 <1>   0.0800 
 35 H        8.2280     1.7190     0.4640 H     1 <1>   0.0800 
 36 H        9.4260     1.5000    -1.7870 H     1 <1>   0.0800 
 37 H        9.9730    -0.0540    -2.3350 H     1 <1>   0.0800 
 38 H        9.6360    -2.1200    -0.8620 H     1 <1>   0.0800 
 39 H        8.8430    -1.9660     0.6830 H     1 <1>   0.0800 
 40 H        9.8590     1.6700     2.2980 H     1 <1>   0.0800 
 41 H       11.8430     1.3020    -1.4740 H     1 <1>   0.0800 
 42 H       11.2700    -2.1480     0.9840 H     1 <1>   0.0800 
 43 H       11.9010     1.9180     0.9230 H     1 <1>   0.0800 
 44 H       10.5450     2.6640     0.1350 H     1 <1>   0.0800 
 45 H       11.5580    -0.1250     2.3800 H     1 <1>   0.0800 
 46 H        9.9670    -0.7860     2.5950 H     1 <1>   0.0800 
 47 H       12.7380    -0.3430     0.1440 H     1 <1>   0.0800 
 48 H       11.9580    -1.1530    -1.1790 H     1 <1>   0.0800 
@<TRIPOS>BOND
  1   1   2  2   
  2   2   3  am  
  3   2   4  1   
  4   3   5  1   
  5   3  20  1   
  6   4   6  1   
  7   4  21  1   
  8   4  22  1   
  9   5   7  1   
 10   5   8  1   
 11   5  23  1   
 12   6   9  1   
 13   6  10  1   
 14   6  24  1   
 15   7  11  1   
 16   7  12  1   
 17   7  13  1   
 18   8  25  1   
 19   8  26  1   
 20   8  27  1   
 21   9  28  1   
 22   9  29  1   
 23   9  30  1   
 24  10  31  1   
 25  10  32  1   
 26  10  33  1   
 27  11  14  1   
 28  11  34  1   
 29  11  35  1   
 30  12  15  1   
 31  12  36  1   
 32  12  37  1   
 33  13  16  1   
 34  13  38  1   
 35  13  39  1   
 36  14  17  1   
 37  14  18  1   
 38  14  40  1   
 39  15  17  1   
 40  15  19  1   
 41  15  41  1   
 42  16  18  1   
 43  16  19  1   
 44  16  42  1   
 45  17  43  1   
 46  17  44  1   
 47  18  45  1   
 48  18  46  1   
 49  19  47  1   
 50  19  48  1   
@<TRIPOS>SUBSTRUCTURE
  1 ****  13 GROUP 4 **** **** 0

# MOE 2024.06 (io_trps.svl 2023.06)
