@<TRIPOS>MOLECULE
NONAME
51 53 1 0 0 
SMALL
USER_CHARGES


@<TRIPOS>ATOM
  1 O       -9.0430     1.7990    -3.1030 O.3   1 <1>  -0.3680 
  2 C       -8.1180     2.3780    -2.3030 C.ar  1 <1>   0.0750 
  3 C       -9.1170     2.1070    -4.4790 C.3   1 <1>   0.0320 
  4 C       -8.2970     2.2360    -0.9380 C.ar  1 <1>  -0.1570 
  5 C       -7.0210     3.0880    -2.7790 C.ar  1 <1>  -0.1570 
  6 C       -7.3830     2.7730    -0.0500 C.ar  1 <1>  -0.1570 
  7 C       -6.1050     3.6230    -1.8900 C.ar  1 <1>  -0.1570 
  8 C       -6.2690     3.4530    -0.5200 C.ar  1 <1>  -0.1510 
  9 C       -5.2190     3.9470     0.4660 C.3   1 <1>   0.3380 
 10 O       -4.8660     5.2350     0.1140 O.3   1 <1>  -0.6840 
 11 C       -3.9610     3.0540     0.4230 C.3   1 <1>   0.3480 
 12 N       -4.2140     1.6490     0.8740 N.pl3 1 <1>  -0.7670 
 13 C       -4.6950     0.6200     0.1710 C.cat 1 <1>   1.0690 
 14 C       -3.7990     1.1450     2.1010 C.ar  1 <1>   0.3030 
 15 N       -5.1990     0.7040    -1.0370 N.pl3 1 <1>  -0.8390 
 16 N       -4.6110    -0.5170     0.8580 N.pl3 1 <1>  -0.7670 
 17 C       -4.0420    -0.2160     2.0870 C.ar  1 <1>   0.3030 
 18 C       -3.2340     1.7520     3.2190 C.ar  1 <1>  -0.1160 
 19 C       -5.0420    -1.8720     0.4520 C.3   1 <1>   0.3480 
 20 C       -3.7200    -1.0080     3.1840 C.ar  1 <1>  -0.1160 
 21 C       -2.9160     0.9680     4.3110 C.ar  1 <1>  -0.1570 
 22 C       -3.8670    -2.6020    -0.2000 C.3   1 <1>  -0.1670 
 23 C       -3.1560    -0.4070     4.2930 C.ar  1 <1>  -0.1570 
 24 C       -4.2680    -4.0110    -0.6540 C.3   1 <1>  -0.1670 
 25 C       -3.0840    -4.7310    -1.3030 C.3   1 <1>  -0.2460 
 26 H       -9.9840     1.6160    -4.8840 H     1 <1>   0.0720 
 27 H       -8.2320     1.7460    -4.9690 H     1 <1>   0.0720 
 28 H       -9.2150     3.1720    -4.5940 H     1 <1>   0.0720 
 29 H       -9.1610     1.7050    -0.5790 H     1 <1>   0.1430 
 30 H       -6.8690     3.2330    -3.8330 H     1 <1>   0.1430 
 31 H       -7.5470     2.6470     1.0080 H     1 <1>   0.1430 
 32 H       -5.2610     4.1720    -2.2770 H     1 <1>   0.1430 
 33 H       -5.6130     3.9850     1.4670 H     1 <1>   0.0720 
 34 H       -5.6770     5.7680    -0.0240 H     1 <1>   0.3950 
 35 H       -3.2040     3.4970     1.0450 H     1 <1>   0.0720 
 36 H       -3.5820     3.0340    -0.5850 H     1 <1>   0.0720 
 37 H       -5.5700    -0.0990    -1.5330 H     1 <1>   0.4450 
 38 H       -5.5010     1.6050    -1.4180 H     1 <1>   0.4450 
 39 H       -3.0470     2.8110     3.2360 H     1 <1>   0.1430 
 40 H       -5.8650    -1.8070    -0.2400 H     1 <1>   0.0720 
 41 H       -5.3820    -2.4180     1.3160 H     1 <1>   0.0720 
 42 H       -3.9040    -2.0670     3.1680 H     1 <1>   0.1430 
 43 H       -2.4760     1.4140     5.1890 H     1 <1>   0.1430 
 44 H       -3.0590    -2.6780     0.5070 H     1 <1>   0.0720 
 45 H       -3.5230    -2.0430    -1.0520 H     1 <1>   0.0720 
 46 H       -2.8970    -0.9980     5.1570 H     1 <1>   0.1430 
 47 H       -5.0750    -3.9560    -1.3650 H     1 <1>   0.0720 
 48 H       -4.6050    -4.5880     0.1910 H     1 <1>   0.0720 
 49 H       -2.7390    -4.1920    -2.1690 H     1 <1>   0.0720 
 50 H       -3.3800    -5.7180    -1.6150 H     1 <1>   0.0720 
 51 H       -2.2690    -4.8270    -0.6070 H     1 <1>   0.0720 
@<TRIPOS>BOND
  1   1   2  1   
  2   1   3  1   
  3   2   4  ar  
  4   2   5  ar  
  5   3  26  1   
  6   3  27  1   
  7   3  28  1   
  8   4   6  ar  
  9   4  29  1   
 10   5   7  ar  
 11   5  30  1   
 12   6   8  ar  
 13   6  31  1   
 14   7   8  ar  
 15   7  32  1   
 16   8   9  1   
 17   9  10  1   
 18   9  11  1   
 19   9  33  1   
 20  10  34  1   
 21  11  12  1   
 22  11  35  1   
 23  11  36  1   
 24  12  13  ar  
 25  12  14  1   
 26  13  15  ar  
 27  13  16  ar  
 28  14  17  ar  
 29  14  18  ar  
 30  15  37  1   
 31  15  38  1   
 32  16  17  1   
 33  16  19  1   
 34  17  20  ar  
 35  18  21  ar  
 36  18  39  1   
 37  19  22  1   
 38  19  40  1   
 39  19  41  1   
 40  20  23  ar  
 41  20  42  1   
 42  21  23  ar  
 43  21  43  1   
 44  22  24  1   
 45  22  44  1   
 46  22  45  1   
 47  23  46  1   
 48  24  25  1   
 49  24  47  1   
 50  24  48  1   
 51  25  49  1   
 52  25  50  1   
 53  25  51  1   
@<TRIPOS>SUBSTRUCTURE
  1 ****  13 GROUP 4 **** **** 0

# MOE 2024.06 (io_trps.svl 2023.06)
