@<TRIPOS>MOLECULE
NONAME
43 45 1 0 0 
SMALL
USER_CHARGES


@<TRIPOS>ATOM
  1 F       -0.0890    -2.5560     1.6570 F     1 <1>  -0.1900 
  2 C       -1.0610    -2.1770     0.8600 C.ar  1 <1>   0.1900 
  3 C       -0.9810    -2.4620    -0.5090 C.ar  1 <1>   0.1000 
  4 C       -2.1270    -1.5060     1.4260 C.ar  1 <1>  -0.1500 
  5 N        0.0820    -3.1390    -1.1230 N.pl3 1 <1>  -0.8380 
  6 C       -2.0400    -2.0350    -1.3000 C.ar  1 <1>  -0.1500 
  7 C       -3.1670    -1.0950     0.6090 C.ar  1 <1>  -0.1500 
  8 C        1.3710    -2.3960    -1.2770 C.3   1 <1>   0.2090 
  9 C        0.1930    -4.6100    -0.8790 C.3   1 <1>   0.2090 
 10 C       -3.1190    -1.3610    -0.7510 C.ar  1 <1>  -0.1500 
 11 C        2.4040    -2.7840    -0.1970 C.3   1 <1>   0.3430 
 12 C        1.2510    -4.9500     0.1930 C.3   1 <1>   0.3430 
 13 N        2.5760    -4.2780    -0.0590 N.4   1 <1>  -0.9590 
 14 C        3.5690    -4.6110     0.9960 C.3   1 <1>   0.4860 
 15 C        4.9130    -4.0480     0.5810 C.ar  1 <1>  -0.1430 
 16 C        5.6470    -4.6520    -0.4290 C.ar  1 <1>  -0.1500 
 17 C        5.4170    -2.9150     1.2040 C.ar  1 <1>  -0.1500 
 18 C        6.8630    -4.1190    -0.8190 C.ar  1 <1>  -0.1500 
 19 C        6.6330    -2.3860     0.8110 C.ar  1 <1>  -0.1500 
 20 C        7.3610    -2.9840    -0.2030 C.ar  1 <1>  -0.1430 
 21 C        8.6970    -2.4030    -0.6330 C.3   1 <1>  -0.0970 
 22 H       -2.1470    -1.3090     2.4830 H     1 <1>   0.1500 
 23 H       -2.0120    -2.2360    -2.3560 H     1 <1>   0.1500 
 24 H       -4.0100    -0.5700     1.0260 H     1 <1>   0.1500 
 25 H        1.1820    -1.3370    -1.2200 H     1 <1>   0.0800 
 26 H        1.7770    -2.5980    -2.2530 H     1 <1>   0.0800 
 27 H        0.4450    -5.0980    -1.8050 H     1 <1>   0.0800 
 28 H       -0.7640    -4.9910    -0.5650 H     1 <1>   0.0800 
 29 H       -3.9280    -1.0400    -1.3860 H     1 <1>   0.1500 
 30 H        2.0790    -2.3700     0.7420 H     1 <1>   0.0800 
 31 H        3.3490    -2.3270    -0.4440 H     1 <1>   0.0800 
 32 H        1.3810    -6.0190     0.2250 H     1 <1>   0.0800 
 33 H        0.8670    -4.6390     1.1500 H     1 <1>   0.0800 
 34 H        2.9560    -4.6140    -0.9510 H     1 <1>   0.4500 
 35 H        3.6520    -5.6800     1.1070 H     1 <1>   0.0800 
 36 H        3.2670    -4.1900     1.9410 H     1 <1>   0.0800 
 37 H        5.2930    -5.5410    -0.9220 H     1 <1>   0.1500 
 38 H        4.8760    -2.4310     2.0010 H     1 <1>   0.1500 
 39 H        7.4270    -4.5930    -1.6060 H     1 <1>   0.1500 
 40 H        7.0160    -1.5060     1.2990 H     1 <1>   0.1500 
 41 H        9.3500    -3.1800    -0.9880 H     1 <1>   0.0800 
 42 H        9.1780    -1.9110     0.1930 H     1 <1>   0.0800 
 43 H        8.5470    -1.6880    -1.4220 H     1 <1>   0.0800 
@<TRIPOS>BOND
  1   1   2  1   
  2   2   3  ar  
  3   2   4  ar  
  4   3   5  1   
  5   3   6  ar  
  6   4   7  ar  
  7   4  22  1   
  8   5   8  1   
  9   5   9  1   
 10   6  10  ar  
 11   6  23  1   
 12   7  10  ar  
 13   7  24  1   
 14   8  11  1   
 15   8  25  1   
 16   8  26  1   
 17   9  12  1   
 18   9  27  1   
 19   9  28  1   
 20  10  29  1   
 21  11  13  1   
 22  11  30  1   
 23  11  31  1   
 24  12  13  1   
 25  12  32  1   
 26  12  33  1   
 27  13  14  1   
 28  13  34  1   
 29  14  15  1   
 30  14  35  1   
 31  14  36  1   
 32  15  16  ar  
 33  15  17  ar  
 34  16  18  ar  
 35  16  37  1   
 36  17  19  ar  
 37  17  38  1   
 38  18  20  ar  
 39  18  39  1   
 40  19  20  ar  
 41  19  40  1   
 42  20  21  1   
 43  21  41  1   
 44  21  42  1   
 45  21  43  1   
@<TRIPOS>SUBSTRUCTURE
  1 ****  11 GROUP 4 **** **** 0

# MOE 2024.06 (io_trps.svl 2023.06)
