@<TRIPOS>MOLECULE
NONAME
51 53 1 0 0 
SMALL
USER_CHARGES


@<TRIPOS>ATOM
  1 O        0.0730    -0.8380    -1.9090 O.2   1 <1>  -0.5700 
  2 C        1.0290    -1.2230    -1.2520 C.2   1 <1>   0.5440 
  3 N        1.9030    -0.2800    -0.7480 N.am  1 <1>  -0.6600 
  4 C        1.1930    -2.6400    -0.9870 C.ar  1 <1>   0.0860 
  5 C        1.8820     1.1370    -1.2100 C.3   1 <1>   0.1400 
  6 C        2.7470    -0.5120     0.4590 C.3   1 <1>   0.1400 
  7 C        0.1280    -3.4040    -0.4810 C.ar  1 <1>   0.1170 
  8 C        2.4150    -3.2750    -1.2160 C.ar  1 <1>  -0.1500 
  9 C        1.3780     2.0390    -0.0780 C.3   1 <1>  -0.1600 
 10 C        2.2610     0.3810     1.6060 C.3   1 <1>  -0.1600 
 11 N       -1.1170    -2.7920    -0.3120 N.am  1 <1>  -0.5470 
 12 C        0.3280    -4.7490    -0.1860 C.ar  1 <1>  -0.1500 
 13 C        2.5980    -4.6130    -0.9260 C.ar  1 <1>  -0.1500 
 14 C        2.2130     1.8600     1.1980 C.3   1 <1>  -0.1600 
 15 C       -2.1200    -2.9430     0.6140 C.2   1 <1>   0.5440 
 16 C        1.5510    -5.3510    -0.4030 C.ar  1 <1>  -0.1500 
 17 O       -2.0820    -3.8670     1.4020 O.2   1 <1>  -0.5700 
 18 C       -3.2110    -1.9840     0.6370 C.ar  1 <1>   0.0860 
 19 C       -3.0840    -0.7060     0.0840 C.ar  1 <1>  -0.1500 
 20 C       -4.4380    -2.3060     1.2170 C.ar  1 <1>  -0.1500 
 21 C       -4.1350     0.2020     0.0830 C.ar  1 <1>   0.0820 
 22 C       -5.4930    -1.4130     1.2360 C.ar  1 <1>  -0.1500 
 23 O       -4.0220     1.4420    -0.4730 O.3   1 <1>  -0.3630 
 24 C       -5.3550    -0.1510     0.6670 C.ar  1 <1>   0.0820 
 25 C       -2.9110     1.8030    -1.2680 C.3   1 <1>   0.0400 
 26 O       -6.3660     0.7600     0.6530 O.3   1 <1>  -0.3630 
 27 C       -7.6270     0.4930     1.2230 C.3   1 <1>   0.0400 
 28 H        1.2500     1.2470    -2.0750 H     1 <1>   0.0800 
 29 H        2.8800     1.4260    -1.4910 H     1 <1>   0.0800 
 30 H        3.7710    -0.2770     0.2210 H     1 <1>   0.0800 
 31 H        2.7030    -1.5390     0.7740 H     1 <1>   0.0800 
 32 H        3.2300    -2.7030    -1.6250 H     1 <1>   0.1500 
 33 H        0.3500     1.7970     0.1240 H     1 <1>   0.0800 
 34 H        1.4180     3.0650    -0.3970 H     1 <1>   0.0800 
 35 H        2.9140     0.2600     2.4510 H     1 <1>   0.0800 
 36 H        1.2780     0.0550     1.9040 H     1 <1>   0.0800 
 37 H       -1.2300    -1.9800    -0.9320 H     1 <1>   0.3700 
 38 H       -0.4850    -5.3310     0.2100 H     1 <1>   0.1500 
 39 H        3.5500    -5.0840    -1.1050 H     1 <1>   0.1500 
 40 H        1.7870     2.4440     1.9960 H     1 <1>   0.0800 
 41 H        3.2140     2.2150     1.0220 H     1 <1>   0.0800 
 42 H        1.6880    -6.3940    -0.1700 H     1 <1>   0.1500 
 43 H       -2.1420    -0.4220    -0.3400 H     1 <1>   0.1500 
 44 H       -4.5610    -3.2800     1.6620 H     1 <1>   0.1500 
 45 H       -6.4120    -1.7190     1.6970 H     1 <1>   0.1500 
 46 H       -3.0970     2.7810    -1.6740 H     1 <1>   0.0800 
 47 H       -2.8040     1.0900    -2.0670 H     1 <1>   0.0800 
 48 H       -2.0310     1.8250    -0.6510 H     1 <1>   0.0800 
 49 H       -8.2430     1.3630     1.0860 H     1 <1>   0.0800 
 50 H       -7.5010     0.2960     2.2720 H     1 <1>   0.0800 
 51 H       -8.0660    -0.3490     0.7190 H     1 <1>   0.0800 
@<TRIPOS>BOND
  1   1   2  2   
  2   2   3  am  
  3   2   4  1   
  4   3   5  1   
  5   3   6  1   
  6   4   7  ar  
  7   4   8  ar  
  8   5   9  1   
  9   5  28  1   
 10   5  29  1   
 11   6  10  1   
 12   6  30  1   
 13   6  31  1   
 14   7  11  1   
 15   7  12  ar  
 16   8  13  ar  
 17   8  32  1   
 18   9  14  1   
 19   9  33  1   
 20   9  34  1   
 21  10  14  1   
 22  10  35  1   
 23  10  36  1   
 24  11  15  am  
 25  11  37  1   
 26  12  16  ar  
 27  12  38  1   
 28  13  16  ar  
 29  13  39  1   
 30  14  40  1   
 31  14  41  1   
 32  15  17  2   
 33  15  18  1   
 34  16  42  1   
 35  18  19  ar  
 36  18  20  ar  
 37  19  21  ar  
 38  19  43  1   
 39  20  22  ar  
 40  20  44  1   
 41  21  23  1   
 42  21  24  ar  
 43  22  24  ar  
 44  22  45  1   
 45  23  25  1   
 46  24  26  1   
 47  25  46  1   
 48  25  47  1   
 49  25  48  1   
 50  26  27  1   
 51  27  49  1   
 52  27  50  1   
 53  27  51  1   
@<TRIPOS>SUBSTRUCTURE
  1 ****  11 GROUP 4 **** **** 0

# MOE 2024.06 (io_trps.svl 2023.06)
