@<TRIPOS>MOLECULE
NONAME
46 48 1 0 0 
SMALL
USER_CHARGES


@<TRIPOS>ATOM
  1 CL      -1.5350     2.2400    -2.8180 Cl    1 <1>  -0.1770 
  2 C       -1.0600     2.3290    -1.1380 C.ar  1 <1>   0.1770 
  3 C       -1.9840     2.0330    -0.1460 C.ar  1 <1>  -0.1440 
  4 C        0.2330     2.7090    -0.8340 C.ar  1 <1>  -0.1500 
  5 C       -1.5870     2.1200     1.1810 C.ar  1 <1>  -0.1500 
  6 C       -3.3960     1.6220    -0.5100 C.3   1 <1>   0.4870 
  7 C        0.6170     2.7960     0.4930 C.ar  1 <1>  -0.1500 
  8 C       -0.2920     2.5020     1.4960 C.ar  1 <1>  -0.1500 
  9 N       -4.1090     2.7850    -1.1010 N.4   1 <1>  -0.9590 
 10 C       -4.2160     3.9460    -0.1410 C.3   1 <1>   0.3430 
 11 C       -5.4610     2.4030    -1.6460 C.3   1 <1>   0.3430 
 12 C       -4.9210     5.1680    -0.7640 C.3   1 <1>   0.2090 
 13 C       -6.1930     3.5920    -2.3040 C.3   1 <1>   0.2090 
 14 N       -6.2080     4.7890    -1.4150 N.pl3 1 <1>  -0.8380 
 15 C       -7.3890     5.0700    -0.7290 C.ar  1 <1>   0.1000 
 16 C       -8.2150     6.1190    -1.1310 C.ar  1 <1>  -0.1430 
 17 C       -7.7600     4.3030     0.3720 C.ar  1 <1>  -0.1500 
 18 C       -9.3820     6.3790    -0.4350 C.ar  1 <1>  -0.1500 
 19 C       -7.8470     6.9850    -2.3280 C.3   1 <1>  -0.0970 
 20 C       -8.9280     4.5630     1.0660 C.ar  1 <1>  -0.1430 
 21 C       -9.7380     5.6070     0.6570 C.ar  1 <1>  -0.1500 
 22 C       -9.3340     3.7270     2.2670 C.3   1 <1>  -0.0970 
 23 H        0.9310     2.9320    -1.6220 H     1 <1>   0.1500 
 24 H       -2.2690     1.8910     1.9840 H     1 <1>   0.1500 
 25 H       -3.9150     1.2740     0.3690 H     1 <1>   0.0800 
 26 H       -3.3550     0.8130    -1.2220 H     1 <1>   0.0800 
 27 H        1.6230     3.0900     0.7460 H     1 <1>   0.1500 
 28 H        0.0160     2.5680     2.5270 H     1 <1>   0.1500 
 29 H       -3.5350     3.1050    -1.8950 H     1 <1>   0.4500 
 30 H       -3.2340     4.2450     0.1880 H     1 <1>   0.0800 
 31 H       -4.7760     3.6460     0.7280 H     1 <1>   0.0800 
 32 H       -6.0810     2.0330    -0.8460 H     1 <1>   0.0800 
 33 H       -5.3570     1.6150    -2.3740 H     1 <1>   0.0800 
 34 H       -4.2790     5.6270    -1.4950 H     1 <1>   0.0800 
 35 H       -5.1120     5.9000     0.0040 H     1 <1>   0.0800 
 36 H       -7.2060     3.3050    -2.5330 H     1 <1>   0.0800 
 37 H       -5.7110     3.8490    -3.2310 H     1 <1>   0.0800 
 38 H       -7.1310     3.4970     0.6860 H     1 <1>   0.1500 
 39 H      -10.0260     7.1860    -0.7360 H     1 <1>   0.1500 
 40 H       -7.7770     6.3750    -3.2100 H     1 <1>   0.0800 
 41 H       -6.8980     7.4570    -2.1570 H     1 <1>   0.0800 
 42 H       -8.5850     7.7490    -2.4970 H     1 <1>   0.0800 
 43 H      -10.6500     5.8250     1.1860 H     1 <1>   0.1500 
 44 H       -8.6660     2.8980     2.4080 H     1 <1>   0.0800 
 45 H      -10.3290     3.3450     2.1260 H     1 <1>   0.0800 
 46 H       -9.3200     4.3350     3.1540 H     1 <1>   0.0800 
@<TRIPOS>BOND
  1   1   2  1   
  2   2   3  ar  
  3   2   4  ar  
  4   3   5  ar  
  5   3   6  1   
  6   4   7  ar  
  7   4  23  1   
  8   5   8  ar  
  9   5  24  1   
 10   6   9  1   
 11   6  25  1   
 12   6  26  1   
 13   7   8  ar  
 14   7  27  1   
 15   8  28  1   
 16   9  10  1   
 17   9  11  1   
 18   9  29  1   
 19  10  12  1   
 20  10  30  1   
 21  10  31  1   
 22  11  13  1   
 23  11  32  1   
 24  11  33  1   
 25  12  14  1   
 26  12  34  1   
 27  12  35  1   
 28  13  14  1   
 29  13  36  1   
 30  13  37  1   
 31  14  15  1   
 32  15  16  ar  
 33  15  17  ar  
 34  16  18  ar  
 35  16  19  1   
 36  17  20  ar  
 37  17  38  1   
 38  18  21  ar  
 39  18  39  1   
 40  19  40  1   
 41  19  41  1   
 42  19  42  1   
 43  20  21  ar  
 44  20  22  1   
 45  21  43  1   
 46  22  44  1   
 47  22  45  1   
 48  22  46  1   
@<TRIPOS>SUBSTRUCTURE
  1 ****  10 GROUP 4 **** **** 0

# MOE 2024.06 (io_trps.svl 2023.06)
