@<TRIPOS>MOLECULE
NONAME
54 56 1 0 0 
SMALL
USER_CHARGES


@<TRIPOS>ATOM
  1 O        0.3960     0.0460    -2.4420 O.2   1 <1>  -0.5700 
  2 C        0.4130     1.1620    -1.9820 C.2   1 <1>   0.5690 
  3 N       -0.6000     1.6900    -1.2310 N.am  1 <1>  -0.5470 
  4 C        1.6620     2.0280    -2.1990 C.3   1 <1>   0.1710 
  5 C       -1.7880     1.1430    -0.7160 C.ar  1 <1>   0.1170 
  6 N        2.7950     1.7800    -1.2520 N.3   1 <1>  -0.8100 
  7 C       -2.4140     1.8170     0.3390 C.ar  1 <1>   0.0820 
  8 C       -2.3680    -0.0200    -1.2100 C.ar  1 <1>  -0.1500 
  9 C        2.4030     1.9320     0.1720 C.3   1 <1>   0.1100 
 10 C        3.3970     0.4390    -1.4800 C.3   1 <1>   0.1100 
 11 O       -1.8150     2.9620     0.7910 O.3   1 <1>  -0.3630 
 12 C       -3.5940     1.3160     0.8820 C.ar  1 <1>  -0.1500 
 13 C       -3.5410    -0.5120    -0.6660 C.ar  1 <1>  -0.1500 
 14 C        3.6000     1.7250     1.1350 C.3   1 <1>   0.3430 
 15 C        4.5470     0.1210    -0.4950 C.3   1 <1>   0.3430 
 16 C       -2.4680     3.8000     1.7210 C.3   1 <1>   0.0400 
 17 C       -4.1530     0.1540     0.3800 C.ar  1 <1>  -0.1500 
 18 N        4.8310     1.2960     0.3960 N.4   1 <1>  -0.9590 
 19 C        6.0320     1.1250     1.2540 C.3   1 <1>   0.4860 
 20 C        7.2280     0.8180     0.3710 C.ar  1 <1>  -0.1430 
 21 C        7.8230    -0.4410     0.3570 C.ar  1 <1>  -0.1430 
 22 C        7.7270     1.8230    -0.4480 C.ar  1 <1>  -0.1500 
 23 C        8.8970    -0.6740    -0.4880 C.ar  1 <1>  -0.1500 
 24 C        7.3430    -1.5790     1.2510 C.3   1 <1>  -0.0970 
 25 C        8.7990     1.5790    -1.2860 C.ar  1 <1>  -0.1500 
 26 C        9.3820     0.3280    -1.3080 C.ar  1 <1>  -0.1500 
 27 H       -0.4570     2.6370    -0.8780 H     1 <1>   0.3700 
 28 H        1.3770     3.0630    -2.1340 H     1 <1>   0.0800 
 29 H        2.0060     1.8630    -3.2060 H     1 <1>   0.0800 
 30 H       -1.9130    -0.5480    -2.0270 H     1 <1>   0.1500 
 31 H        1.6370     1.2160     0.4220 H     1 <1>   0.0800 
 32 H        1.9930     2.9150     0.3320 H     1 <1>   0.0800 
 33 H        3.7780     0.3870    -2.4860 H     1 <1>   0.0800 
 34 H        2.6490    -0.3300    -1.3840 H     1 <1>   0.0800 
 35 H       -4.0930     1.8080     1.6950 H     1 <1>   0.1500 
 36 H       -3.9770    -1.4140    -1.0600 H     1 <1>   0.1500 
 37 H        3.3320     0.9850     1.8710 H     1 <1>   0.0800 
 38 H        3.7900     2.6500     1.6540 H     1 <1>   0.0800 
 39 H        5.4270    -0.1370    -1.0620 H     1 <1>   0.0800 
 40 H        4.2770    -0.7360     0.0980 H     1 <1>   0.0800 
 41 H       -1.8590     4.6720     1.8760 H     1 <1>   0.0800 
 42 H       -2.5870     3.2700     2.6500 H     1 <1>   0.0800 
 43 H       -3.4240     4.0910     1.3200 H     1 <1>   0.0800 
 44 H       -5.0650    -0.2330     0.8010 H     1 <1>   0.1500 
 45 H        5.0140     2.0520    -0.2780 H     1 <1>   0.4500 
 46 H        5.8740     0.3270     1.9580 H     1 <1>   0.0800 
 47 H        6.2240     2.0310     1.8060 H     1 <1>   0.0800 
 48 H        7.2930     2.8090    -0.4450 H     1 <1>   0.1500 
 49 H        9.3730    -1.6400    -0.5150 H     1 <1>   0.1500 
 50 H        7.4540    -1.3100     2.2860 H     1 <1>   0.0800 
 51 H        7.9240    -2.4690     1.0800 H     1 <1>   0.0800 
 52 H        6.3140    -1.8140     1.0510 H     1 <1>   0.0800 
 53 H        9.1830     2.3600    -1.9200 H     1 <1>   0.1500 
 54 H       10.2180     0.1340    -1.9590 H     1 <1>   0.1500 
@<TRIPOS>BOND
  1   1   2  2   
  2   2   3  am  
  3   2   4  1   
  4   3   5  1   
  5   3  27  1   
  6   4   6  1   
  7   4  28  1   
  8   4  29  1   
  9   5   7  ar  
 10   5   8  ar  
 11   6   9  1   
 12   6  10  1   
 13   7  11  1   
 14   7  12  ar  
 15   8  13  ar  
 16   8  30  1   
 17   9  14  1   
 18   9  31  1   
 19   9  32  1   
 20  10  15  1   
 21  10  33  1   
 22  10  34  1   
 23  11  16  1   
 24  12  17  ar  
 25  12  35  1   
 26  13  17  ar  
 27  13  36  1   
 28  14  18  1   
 29  14  37  1   
 30  14  38  1   
 31  15  18  1   
 32  15  39  1   
 33  15  40  1   
 34  16  41  1   
 35  16  42  1   
 36  16  43  1   
 37  17  44  1   
 38  18  19  1   
 39  18  45  1   
 40  19  20  1   
 41  19  46  1   
 42  19  47  1   
 43  20  21  ar  
 44  20  22  ar  
 45  21  23  ar  
 46  21  24  1   
 47  22  25  ar  
 48  22  48  1   
 49  23  26  ar  
 50  23  49  1   
 51  24  50  1   
 52  24  51  1   
 53  24  52  1   
 54  25  26  ar  
 55  25  53  1   
 56  26  54  1   
@<TRIPOS>SUBSTRUCTURE
  1 ****   9 GROUP 4 **** **** 0

# MOE 2024.06 (io_trps.svl 2023.06)
