@<TRIPOS>MOLECULE
NONAME
30 31 1 0 0 
SMALL
USER_CHARGES


@<TRIPOS>ATOM
  1 O        0.0920    -3.4830     2.8100 O.2   1 <1>  -0.5700 
  2 C        0.0710    -2.9370     1.7340 C.2   1 <1>   0.4230 
  3 C        1.0480    -3.2310     0.7030 C.ar  1 <1>   0.0860 
  4 C       -1.0270    -1.8890     1.5010 C.3   1 <1>   0.1710 
  5 C        1.3840    -2.3410    -0.3240 C.ar  1 <1>  -0.1500 
  6 C        1.7100    -4.4610     0.7080 C.ar  1 <1>  -0.1500 
  7 N       -2.2000    -2.3550     0.7130 N.3   1 <1>  -0.8100 
  8 C        2.3140    -2.6690    -1.2940 C.ar  1 <1>  -0.1500 
  9 C        2.6420    -4.7960    -0.2570 C.ar  1 <1>  -0.1500 
 10 C       -3.2920    -1.3630     0.7640 C.3   1 <1>   0.1100 
 11 C       -1.8860    -2.6840    -0.6940 C.3   1 <1>   0.1100 
 12 C        2.9450    -3.8990    -1.2640 C.ar  1 <1>  -0.1500 
 13 C       -4.5070    -1.8240    -0.0600 C.3   1 <1>   0.1200 
 14 C       -3.1520    -3.0940    -1.4680 C.3   1 <1>   0.1200 
 15 O       -4.1270    -2.0960    -1.3780 O.3   1 <1>  -0.5600 
 16 H       -0.6110    -1.0090     1.0490 H     1 <1>   0.0800 
 17 H       -1.3780    -1.5990     2.4760 H     1 <1>   0.0800 
 18 H        0.9240    -1.3730    -0.3770 H     1 <1>   0.1500 
 19 H        1.4850    -5.1680     1.4890 H     1 <1>   0.1500 
 20 H        2.5530    -1.9660    -2.0750 H     1 <1>   0.1500 
 21 H        3.1320    -5.7540    -0.2240 H     1 <1>   0.1500 
 22 H       -2.9510    -0.4170     0.3800 H     1 <1>   0.0800 
 23 H       -3.5990    -1.2220     1.7860 H     1 <1>   0.0800 
 24 H       -1.1920    -3.5050    -0.7280 H     1 <1>   0.0800 
 25 H       -1.4400    -1.8360    -1.1840 H     1 <1>   0.0800 
 26 H        3.6690    -4.1560    -2.0180 H     1 <1>   0.1500 
 27 H       -5.2560    -1.0520    -0.0860 H     1 <1>   0.0800 
 28 H       -4.9370    -2.7130     0.3680 H     1 <1>   0.0800 
 29 H       -3.5550    -4.0100    -1.0720 H     1 <1>   0.0800 
 30 H       -2.9230    -3.2370    -2.5090 H     1 <1>   0.0800 
@<TRIPOS>BOND
  1   1   2  2   
  2   2   3  1   
  3   2   4  1   
  4   3   5  ar  
  5   3   6  ar  
  6   4   7  1   
  7   4  16  1   
  8   4  17  1   
  9   5   8  ar  
 10   5  18  1   
 11   6   9  ar  
 12   6  19  1   
 13   7  10  1   
 14   7  11  1   
 15   8  12  ar  
 16   8  20  1   
 17   9  12  ar  
 18   9  21  1   
 19  10  13  1   
 20  10  22  1   
 21  10  23  1   
 22  11  14  1   
 23  11  24  1   
 24  11  25  1   
 25  12  26  1   
 26  13  15  1   
 27  13  27  1   
 28  13  28  1   
 29  14  15  1   
 30  14  29  1   
 31  14  30  1   
@<TRIPOS>SUBSTRUCTURE
  1 ****  11 GROUP 4 **** **** 0

# MOE 2024.06 (io_trps.svl 2023.06)
