@<TRIPOS>MOLECULE
NONAME
36 36 1 0 0 
SMALL
USER_CHARGES


@<TRIPOS>ATOM
  1 CL      -0.1350    -0.0410     0.4800 Cl    1 <1>  -0.1770 
  2 C        0.8090     1.4260     0.4990 C.ar  1 <1>   0.1770 
  3 C        0.1680     2.6440     0.3920 C.ar  1 <1>  -0.1500 
  4 C        2.1810     1.3460     0.6210 C.ar  1 <1>  -0.1500 
  5 C        0.8960     3.8300     0.4120 C.ar  1 <1>  -0.0090 
  6 C        2.9220     2.5130     0.6300 C.ar  1 <1>  -0.1500 
  7 S        0.0920     5.4500     0.2680 S.o2  1 <1>   1.4470 
  8 C        2.2840     3.7490     0.5220 C.ar  1 <1>   0.0830 
  9 O        0.1710     5.9360    -1.0910 O.2   1 <1>  -0.6500 
 10 O        0.4130     6.3180     1.3780 O.2   1 <1>  -0.6500 
 11 N       -1.5270     5.1220     0.5650 N.am  1 <1>  -0.9140 
 12 O        2.9690     4.9180     0.5120 O.3   1 <1>  -0.3620 
 13 C       -2.4250     6.0540    -0.0920 C.3   1 <1>   0.1960 
 14 C        4.3700     4.9830     0.6420 C.3   1 <1>   0.1200 
 15 C       -3.8500     5.7770     0.3830 C.3   1 <1>  -0.1600 
 16 C        4.7720     6.4530     0.6050 C.3   1 <1>  -0.2400 
 17 C       -4.8520     6.7230    -0.2910 C.3   1 <1>  -0.1600 
 18 C       -6.2800     6.4430     0.1850 C.3   1 <1>  -0.2400 
 19 H       -0.9030     2.6560     0.2910 H     1 <1>   0.1500 
 20 H        2.6560     0.3850     0.7030 H     1 <1>   0.1500 
 21 H        3.9900     2.4390     0.7200 H     1 <1>   0.1500 
 22 H       -1.6030     5.3050     1.5640 H     1 <1>   0.4200 
 23 H       -2.3650     5.9230    -1.1610 H     1 <1>   0.0800 
 24 H       -2.1440     7.0680     0.1470 H     1 <1>   0.0800 
 25 H        4.8150     4.4460    -0.1780 H     1 <1>   0.0800 
 26 H        4.6480     4.5360     1.5810 H     1 <1>   0.0800 
 27 H       -3.9040     5.9070     1.4490 H     1 <1>   0.0800 
 28 H       -4.1080     4.7590     0.1440 H     1 <1>   0.0800 
 29 H        4.4740     6.8940    -0.3300 H     1 <1>   0.0800 
 30 H        5.8380     6.5450     0.7050 H     1 <1>   0.0800 
 31 H        4.3020     6.9840     1.4140 H     1 <1>   0.0800 
 32 H       -4.8060     6.5990    -1.3600 H     1 <1>   0.0800 
 33 H       -4.5990     7.7450    -0.0630 H     1 <1>   0.0800 
 34 H       -6.5650     5.4320    -0.0530 H     1 <1>   0.0800 
 35 H       -6.9680     7.1130    -0.2990 H     1 <1>   0.0800 
 36 H       -6.3590     6.5840     1.2490 H     1 <1>   0.0800 
@<TRIPOS>BOND
  1   1   2  1   
  2   2   3  ar  
  3   2   4  ar  
  4   3   5  ar  
  5   3  19  1   
  6   4   6  ar  
  7   4  20  1   
  8   5   7  1   
  9   5   8  ar  
 10   6   8  ar  
 11   6  21  1   
 12   7   9  2   
 13   7  10  2   
 14   7  11  am  
 15   8  12  1   
 16  11  13  1   
 17  11  22  1   
 18  12  14  1   
 19  13  15  1   
 20  13  23  1   
 21  13  24  1   
 22  14  16  1   
 23  14  25  1   
 24  14  26  1   
 25  15  17  1   
 26  15  27  1   
 27  15  28  1   
 28  16  29  1   
 29  16  30  1   
 30  16  31  1   
 31  17  18  1   
 32  17  32  1   
 33  17  33  1   
 34  18  34  1   
 35  18  35  1   
 36  18  36  1   
@<TRIPOS>SUBSTRUCTURE
  1 ****   5 GROUP 4 **** **** 0

# MOE 2024.06 (io_trps.svl 2023.06)
