@<TRIPOS>MOLECULE
NONAME
56 58 1 0 0 
SMALL
USER_CHARGES


@<TRIPOS>ATOM
  1 O       -0.6760     0.8610     3.1240 O.2   1 <1>  -0.5700 
  2 C       -0.0720     0.1230     2.3830 C.2   1 <1>   0.5690 
  3 N       -0.5950    -0.4580     1.2630 N.am  1 <1>  -0.5470 
  4 C        1.3920    -0.2010     2.6860 C.3   1 <1>   0.1710 
  5 C       -1.8570    -0.4150     0.6490 C.ar  1 <1>   0.1170 
  6 N        2.1760    -0.6080     1.4820 N.3   1 <1>  -0.8100 
  7 C       -2.0080    -1.0240    -0.5910 C.ar  1 <1>  -0.1500 
  8 C       -2.9640     0.2040     1.2200 C.ar  1 <1>  -0.1500 
  9 C        2.4700     0.5680     0.6220 C.3   1 <1>   0.1100 
 10 C        3.4500    -1.2500     1.8790 C.3   1 <1>   0.1100 
 11 C       -3.2250    -1.0170    -1.2500 C.ar  1 <1>  -0.1500 
 12 C       -4.1830     0.2150     0.5670 C.ar  1 <1>  -0.1500 
 13 C        3.2830     0.2000    -0.6350 C.3   1 <1>   0.2090 
 14 C        4.2940    -1.6920     0.6670 C.3   1 <1>   0.2090 
 15 C       -4.3250    -0.3920    -0.6700 C.ar  1 <1>   0.0830 
 16 N        4.5080    -0.5840    -0.3070 N.pl3 1 <1>  -0.8380 
 17 O       -5.5570    -0.3350    -1.2420 O.3   1 <1>  -0.3620 
 18 C        5.7380     0.0780    -0.2960 C.ar  1 <1>   0.1000 
 19 C       -5.8040    -0.9320    -2.4930 C.3   1 <1>   0.1200 
 20 C        6.6900    -0.1500    -1.2960 C.ar  1 <1>  -0.1440 
 21 C        6.0260     0.9750     0.7250 C.ar  1 <1>  -0.1500 
 22 C       -7.2690    -0.6960    -2.8470 C.3   1 <1>  -0.2400 
 23 C        7.9120     0.5190    -1.2540 C.ar  1 <1>  -0.1430 
 24 C        6.3410    -1.1410    -2.4060 C.3   1 <1>  -0.0970 
 25 C        7.2330     1.6400     0.7640 C.ar  1 <1>  -0.1500 
 26 C        8.1720     1.4110    -0.2230 C.ar  1 <1>  -0.1500 
 27 C        8.9930     0.3100    -2.3050 C.3   1 <1>  -0.0970 
 28 H        0.1290    -0.9850     0.7640 H     1 <1>   0.3700 
 29 H        1.3910    -1.0060     3.3990 H     1 <1>   0.0800 
 30 H        1.8480     0.6540     3.1540 H     1 <1>   0.0800 
 31 H       -1.1660    -1.5090    -1.0480 H     1 <1>   0.1500 
 32 H       -2.8850     0.6810     2.1790 H     1 <1>   0.1500 
 33 H        3.0220     1.3020     1.1830 H     1 <1>   0.0800 
 34 H        1.5490     1.0280     0.3060 H     1 <1>   0.0800 
 35 H        3.2400    -2.1180     2.4800 H     1 <1>   0.0800 
 36 H        4.0330    -0.5700     2.4750 H     1 <1>   0.0800 
 37 H       -3.2970    -1.4990    -2.2060 H     1 <1>   0.1500 
 38 H       -5.0340     0.6960     1.0140 H     1 <1>   0.1500 
 39 H        3.5640     1.0990    -1.1550 H     1 <1>   0.0800 
 40 H        2.6660    -0.3830    -1.2950 H     1 <1>   0.0800 
 41 H        3.7940    -2.5010     0.1660 H     1 <1>   0.0800 
 42 H        5.2480    -2.0550     1.0080 H     1 <1>   0.0800 
 43 H       -5.5960    -1.9850    -2.4160 H     1 <1>   0.0800 
 44 H       -5.1580    -0.4740    -3.2230 H     1 <1>   0.0800 
 45 H        5.2980     1.1500     1.4910 H     1 <1>   0.1500 
 46 H       -7.9040    -1.1420    -2.1030 H     1 <1>   0.0800 
 47 H       -7.4900    -1.1410    -3.8000 H     1 <1>   0.0800 
 48 H       -7.4690     0.3590    -2.9050 H     1 <1>   0.0800 
 49 H        5.3950    -0.8750    -2.8400 H     1 <1>   0.0800 
 50 H        6.2570    -2.1270    -1.9870 H     1 <1>   0.0800 
 51 H        7.0670    -1.1670    -3.1940 H     1 <1>   0.0800 
 52 H        7.4440     2.3330     1.5580 H     1 <1>   0.1500 
 53 H        9.1110     1.9340    -0.1810 H     1 <1>   0.1500 
 54 H        9.2610    -0.7300    -2.3530 H     1 <1>   0.0800 
 55 H        9.8780     0.8730    -2.0700 H     1 <1>   0.0800 
 56 H        8.6360     0.6300    -3.2660 H     1 <1>   0.0800 
@<TRIPOS>BOND
  1   1   2  2   
  2   2   3  am  
  3   2   4  1   
  4   3   5  1   
  5   3  28  1   
  6   4   6  1   
  7   4  29  1   
  8   4  30  1   
  9   5   7  ar  
 10   5   8  ar  
 11   6   9  1   
 12   6  10  1   
 13   7  11  ar  
 14   7  31  1   
 15   8  12  ar  
 16   8  32  1   
 17   9  13  1   
 18   9  33  1   
 19   9  34  1   
 20  10  14  1   
 21  10  35  1   
 22  10  36  1   
 23  11  15  ar  
 24  11  37  1   
 25  12  15  ar  
 26  12  38  1   
 27  13  16  1   
 28  13  39  1   
 29  13  40  1   
 30  14  16  1   
 31  14  41  1   
 32  14  42  1   
 33  15  17  1   
 34  16  18  1   
 35  17  19  1   
 36  18  20  ar  
 37  18  21  ar  
 38  19  22  1   
 39  19  43  1   
 40  19  44  1   
 41  20  23  ar  
 42  20  24  1   
 43  21  25  ar  
 44  21  45  1   
 45  22  46  1   
 46  22  47  1   
 47  22  48  1   
 48  23  26  ar  
 49  23  27  1   
 50  24  49  1   
 51  24  50  1   
 52  24  51  1   
 53  25  26  ar  
 54  25  52  1   
 55  26  53  1   
 56  27  54  1   
 57  27  55  1   
 58  27  56  1   
@<TRIPOS>SUBSTRUCTURE
  1 ****   9 GROUP 4 **** **** 0

# MOE 2024.06 (io_trps.svl 2023.06)
