@<TRIPOS>MOLECULE
NONAME
46 46 1 0 0 
SMALL
USER_CHARGES


@<TRIPOS>ATOM
  1 O        0.5530     0.0390    -0.3490 O.3   1 <1>  -0.3630 
  2 C       -0.6360    -0.6150    -0.3170 C.ar  1 <1>   0.0830 
  3 C        1.7690    -0.6430    -0.1780 C.3   1 <1>   0.1200 
  4 C       -0.7650    -1.9860    -0.1180 C.ar  1 <1>  -0.1500 
  5 C       -1.7720     0.1530    -0.4960 C.ar  1 <1>  -0.1500 
  6 C        2.8910     0.3930    -0.2700 C.3   1 <1>  -0.1600 
  7 C       -2.0180    -2.5830    -0.0990 C.ar  1 <1>  -0.1440 
  8 C       -3.0220    -0.4360    -0.4780 C.ar  1 <1>  -0.1500 
  9 C        4.2780    -0.2440    -0.0960 C.3   1 <1>  -0.1600 
 10 C       -3.1560    -1.8020    -0.2800 C.ar  1 <1>  -0.1430 
 11 C       -2.1180    -4.0860     0.1210 C.3   1 <1>  -0.0970 
 12 C        5.3670     0.8220    -0.1940 C.3   1 <1>   0.3430 
 13 C       -4.5500    -2.4120    -0.2670 C.3   1 <1>  -0.0970 
 14 N        6.6950     0.1790    -0.0230 N.4   1 <1>  -0.9060 
 15 C        7.8670     1.0560    -0.0880 C.3   1 <1>   0.5030 
 16 C        7.7970     2.0970     1.0290 C.3   1 <1>  -0.2400 
 17 C        7.9370     1.7250    -1.4600 C.3   1 <1>  -0.2400 
 18 C        9.0840     0.1600     0.1150 C.3   1 <1>  -0.2400 
 19 H        1.8550    -1.3800    -0.9580 H     1 <1>   0.0800 
 20 H        1.7560    -1.1180     0.7890 H     1 <1>   0.0800 
 21 H        0.1000    -2.6020     0.0230 H     1 <1>   0.1500 
 22 H       -1.6720     1.2110    -0.6500 H     1 <1>   0.1500 
 23 H        2.7320     1.1340     0.4950 H     1 <1>   0.0800 
 24 H        2.8300     0.8750    -1.2310 H     1 <1>   0.0800 
 25 H       -3.8920     0.1800    -0.6190 H     1 <1>   0.1500 
 26 H        4.4200    -0.9840    -0.8650 H     1 <1>   0.0800 
 27 H        4.3220    -0.7240     0.8670 H     1 <1>   0.0800 
 28 H       -1.1460    -4.5280     0.2420 H     1 <1>   0.0800 
 29 H       -2.5960    -4.5500    -0.7230 H     1 <1>   0.0800 
 30 H       -2.6930    -4.2900     1.0070 H     1 <1>   0.0800 
 31 H        5.2120     1.5650     0.5720 H     1 <1>   0.0800 
 32 H        5.3090     1.3060    -1.1560 H     1 <1>   0.0800 
 33 H       -4.6400    -3.1440    -1.0490 H     1 <1>   0.0800 
 34 H       -5.3020    -1.6590    -0.4220 H     1 <1>   0.0800 
 35 H       -4.7370    -2.8840     0.6810 H     1 <1>   0.0800 
 36 H        6.8150    -0.5420    -0.7400 H     1 <1>   0.4500 
 37 H        6.7230    -0.3000     0.8830 H     1 <1>   0.4500 
 38 H        7.6970     1.6280     1.9920 H     1 <1>   0.0800 
 39 H        6.9840     2.7840     0.8820 H     1 <1>   0.0800 
 40 H        8.7030     2.6770     1.0400 H     1 <1>   0.0800 
 41 H        7.9370     0.9940    -2.2490 H     1 <1>   0.0800 
 42 H        7.1250     2.4120    -1.6090 H     1 <1>   0.0800 
 43 H        8.8490     2.2910    -1.5390 H     1 <1>   0.0800 
 44 H        9.0550    -0.3260     1.0750 H     1 <1>   0.0800 
 45 H        9.9830     0.7500     0.0780 H     1 <1>   0.0800 
 46 H        9.1530    -0.5850    -0.6580 H     1 <1>   0.0800 
@<TRIPOS>BOND
  1   1   2  1   
  2   1   3  1   
  3   2   4  ar  
  4   2   5  ar  
  5   3   6  1   
  6   3  19  1   
  7   3  20  1   
  8   4   7  ar  
  9   4  21  1   
 10   5   8  ar  
 11   5  22  1   
 12   6   9  1   
 13   6  23  1   
 14   6  24  1   
 15   7  10  ar  
 16   7  11  1   
 17   8  10  ar  
 18   8  25  1   
 19   9  12  1   
 20   9  26  1   
 21   9  27  1   
 22  10  13  1   
 23  11  28  1   
 24  11  29  1   
 25  11  30  1   
 26  12  14  1   
 27  12  31  1   
 28  12  32  1   
 29  13  33  1   
 30  13  34  1   
 31  13  35  1   
 32  14  15  1   
 33  14  36  1   
 34  14  37  1   
 35  15  16  1   
 36  15  17  1   
 37  15  18  1   
 38  16  38  1   
 39  16  39  1   
 40  16  40  1   
 41  17  41  1   
 42  17  42  1   
 43  17  43  1   
 44  18  44  1   
 45  18  45  1   
 46  18  46  1   
@<TRIPOS>SUBSTRUCTURE
  1 ****   3 GROUP 4 **** **** 0

# MOE 2024.06 (io_trps.svl 2023.06)
