@<TRIPOS>MOLECULE
NONAME
36 37 1 0 0 
SMALL
USER_CHARGES


@<TRIPOS>ATOM
  1 O       -0.5820     2.8010     1.7710 O.2   1 <1>  -0.5700 
  2 C       -0.3540     2.6060     0.6000 C.2   1 <1>   0.5690 
  3 N       -1.1100     1.7940    -0.1870 N.am  1 <1>  -0.7300 
  4 C        0.8480     3.3130    -0.0460 C.3   1 <1>   0.2610 
  5 C       -2.3590     1.0570     0.1000 C.3   1 <1>   0.3640 
  6 O        0.9260     3.0910    -1.4320 O.3   1 <1>  -0.5600 
  7 C        2.1980     2.8320     0.4740 C.3   1 <1>  -0.1600 
  8 C       -3.5610     1.9750    -0.1110 C.ar  1 <1>  -0.1440 
  9 C       -2.3810     0.3700     1.4780 C.3   1 <1>  -0.1600 
 10 C        2.2190     3.3470    -1.8800 C.3   1 <1>   0.1200 
 11 C        3.1420     3.1060    -0.6880 C.3   1 <1>  -0.1600 
 12 C       -3.7710     3.0840     0.6970 C.ar  1 <1>  -0.1500 
 13 C       -4.4690     1.7050    -1.1270 C.ar  1 <1>  -0.1500 
 14 C       -1.2350    -0.6330     1.6830 C.3   1 <1>  -0.2400 
 15 C       -4.8650     3.9070     0.4970 C.ar  1 <1>  -0.1500 
 16 C       -5.5650     2.5260    -1.3290 C.ar  1 <1>  -0.1500 
 17 C       -5.7640     3.6280    -0.5170 C.ar  1 <1>  -0.1500 
 18 H       -0.8580     1.8210    -1.1780 H     1 <1>   0.3700 
 19 H        0.7510     4.3740     0.1040 H     1 <1>   0.0800 
 20 H       -2.4210     0.2680    -0.6290 H     1 <1>   0.0800 
 21 H        2.1460     1.7760     0.6740 H     1 <1>   0.0800 
 22 H        2.4790     3.3480     1.3750 H     1 <1>   0.0800 
 23 H       -3.3150    -0.1550     1.5690 H     1 <1>   0.0800 
 24 H       -2.3640     1.1080     2.2590 H     1 <1>   0.0800 
 25 H        2.2630     4.3720    -2.2080 H     1 <1>   0.0800 
 26 H        2.4340     2.6870    -2.7030 H     1 <1>   0.0800 
 27 H        3.7960     2.2700    -0.8680 H     1 <1>   0.0800 
 28 H        3.7390     3.9830    -0.5070 H     1 <1>   0.0800 
 29 H       -3.0780     3.3130     1.4890 H     1 <1>   0.1500 
 30 H       -4.3290     0.8530    -1.7690 H     1 <1>   0.1500 
 31 H       -1.2450    -1.3840     0.9140 H     1 <1>   0.0800 
 32 H       -1.3380    -1.1150     2.6390 H     1 <1>   0.0800 
 33 H       -0.2850    -0.1270     1.6630 H     1 <1>   0.0800 
 34 H       -5.0140     4.7630     1.1310 H     1 <1>   0.1500 
 35 H       -6.2620     2.3090    -2.1190 H     1 <1>   0.1500 
 36 H       -6.6150     4.2680    -0.6730 H     1 <1>   0.1500 
@<TRIPOS>BOND
  1   1   2  2   
  2   2   3  am  
  3   2   4  1   
  4   3   5  1   
  5   3  18  1   
  6   4   6  1   
  7   4   7  1   
  8   4  19  1   
  9   5   8  1   
 10   5   9  1   
 11   5  20  1   
 12   6  10  1   
 13   7  11  1   
 14   7  21  1   
 15   7  22  1   
 16   8  12  ar  
 17   8  13  ar  
 18   9  14  1   
 19   9  23  1   
 20   9  24  1   
 21  10  11  1   
 22  10  25  1   
 23  10  26  1   
 24  11  27  1   
 25  11  28  1   
 26  12  15  ar  
 27  12  29  1   
 28  13  16  ar  
 29  13  30  1   
 30  14  31  1   
 31  14  32  1   
 32  14  33  1   
 33  15  17  ar  
 34  15  34  1   
 35  16  17  ar  
 36  16  35  1   
 37  17  36  1   
@<TRIPOS>SUBSTRUCTURE
  1 ****   3 GROUP 4 **** **** 0

# MOE 2024.06 (io_trps.svl 2023.06)
