@<TRIPOS>MOLECULE
NONAME
34 35 1 0 0 
SMALL
USER_CHARGES


@<TRIPOS>ATOM
  1 S       -0.2960    -0.0850     0.3680 S.3   1 <1>  -0.0800 
  2 C        0.9790     0.3710    -0.7040 C.2   1 <1>   0.4340 
  3 C       -1.2370     1.1440    -0.4090 C.2   1 <1>   0.1980 
  4 S        2.5420    -0.4930    -0.5940 S.3   1 <1>  -0.2860 
  5 N        0.6810     1.3130    -1.5040 N.2   1 <1>  -0.3380 
  6 N       -0.6050     1.7570    -1.3290 N.2   1 <1>  -0.3380 
  7 C       -2.6580     1.3580     0.0640 C.3   1 <1>  -0.0600 
  8 C        2.3270    -1.7540     0.7580 C.3   1 <1>   0.1310 
  9 C        3.6020    -2.5520     0.9780 C.2   1 <1>   0.5690 
 10 O        3.7480    -3.0870     2.0480 O.2   1 <1>  -0.5700 
 11 N        4.5160    -2.6280    -0.0350 N.am  1 <1>  -0.5470 
 12 C        5.7930    -3.2100    -0.0310 C.ar  1 <1>   0.1170 
 13 C        6.9070    -2.3880    -0.2180 C.ar  1 <1>  -0.1430 
 14 C        5.9750    -4.5880     0.1240 C.ar  1 <1>  -0.1430 
 15 C        8.1780    -2.9380    -0.2380 C.ar  1 <1>  -0.1500 
 16 C        6.7570    -0.8800    -0.3910 C.3   1 <1>  -0.0970 
 17 C        7.2550    -5.1180     0.1050 C.ar  1 <1>  -0.1500 
 18 C        4.8030    -5.5440     0.3100 C.3   1 <1>  -0.0970 
 19 C        8.3530    -4.2990    -0.0760 C.ar  1 <1>  -0.1500 
 20 H       -2.6610     1.6300     1.1030 H     1 <1>   0.0800 
 21 H       -3.2270     0.4570    -0.0700 H     1 <1>   0.0800 
 22 H       -3.1150     2.1470    -0.5050 H     1 <1>   0.0800 
 23 H        1.5270    -2.4090     0.4700 H     1 <1>   0.0800 
 24 H        2.0700    -1.2240     1.6570 H     1 <1>   0.0800 
 25 H        4.3340    -2.0170    -0.8310 H     1 <1>   0.3700 
 26 H        9.0420    -2.3130    -0.3780 H     1 <1>   0.1500 
 27 H        6.2170    -0.6630    -1.2950 H     1 <1>   0.0800 
 28 H        7.7160    -0.4000    -0.4460 H     1 <1>   0.0800 
 29 H        6.2220    -0.4670     0.4460 H     1 <1>   0.0800 
 30 H        7.4050    -6.1750     0.2320 H     1 <1>   0.1500 
 31 H        4.4700    -5.5140     1.3310 H     1 <1>   0.0800 
 32 H        5.0900    -6.5530     0.0750 H     1 <1>   0.0800 
 33 H        3.9870    -5.2710    -0.3330 H     1 <1>   0.0800 
 34 H        9.3430    -4.7210    -0.0890 H     1 <1>   0.1500 
@<TRIPOS>BOND
  1   1   2  1   
  2   1   3  1   
  3   2   4  1   
  4   2   5  2   
  5   3   6  2   
  6   3   7  1   
  7   4   8  1   
  8   5   6  1   
  9   7  20  1   
 10   7  21  1   
 11   7  22  1   
 12   8   9  1   
 13   8  23  1   
 14   8  24  1   
 15   9  10  2   
 16   9  11  am  
 17  11  12  1   
 18  11  25  1   
 19  12  13  ar  
 20  12  14  ar  
 21  13  15  ar  
 22  13  16  1   
 23  14  17  ar  
 24  14  18  1   
 25  15  19  ar  
 26  15  26  1   
 27  16  27  1   
 28  16  28  1   
 29  16  29  1   
 30  17  19  ar  
 31  17  30  1   
 32  18  31  1   
 33  18  32  1   
 34  18  33  1   
 35  19  34  1   
@<TRIPOS>SUBSTRUCTURE
  1 ****   9 GROUP 4 **** **** 0

# MOE 2024.06 (io_trps.svl 2023.06)
