@<TRIPOS>MOLECULE
Structure529
39 40 1 0 0 
SMALL
USER_CHARGES


@<TRIPOS>ATOM
  1 CL      -1.2610    -1.1060     2.4990 Cl    1 <1>  -0.1770 
  2 C       -1.6690    -1.9060     1.0100 C.ar  1 <1>   0.7970 
  3 N       -2.9570    -2.0790     0.7990 N.ar  1 <1>  -0.6200 
  4 N       -0.6390    -2.2490     0.2550 N.ar  1 <1>  -0.6200 
  5 C       -3.2650    -2.6800    -0.3310 C.ar  1 <1>   0.4100 
  6 C       -0.9690    -2.8580    -0.8640 C.ar  1 <1>   0.1600 
  7 N       -4.6020    -2.8840    -0.6040 N.pl3 1 <1>  -0.8380 
  8 C       -2.2730    -3.0990    -1.2020 C.ar  1 <1>  -0.1500 
  9 C       -5.6720    -2.5380     0.3750 C.3   1 <1>   0.2090 
 10 C       -5.1620    -2.9260    -1.9740 C.3   1 <1>   0.2090 
 11 C       -6.9720    -2.5000    -0.4300 C.3   1 <1>   0.2200 
 12 C       -6.5290    -2.2620    -1.8680 C.3   1 <1>  -0.1600 
 13 N       -7.8760    -1.4170     0.0090 N.am  1 <1>  -0.7300 
 14 C       -9.1110    -1.5520     0.5310 C.2   1 <1>   0.7800 
 15 O       -9.7340    -0.5720     0.8750 O.2   1 <1>  -0.5700 
 16 O       -9.6000    -2.7870     0.6450 O.3   1 <1>  -0.4300 
 17 C      -10.8650    -3.1560     1.1490 C.3   1 <1>   0.2800 
 18 C      -10.9920    -2.7450     2.6210 C.3   1 <1>  -0.2400 
 19 C      -10.9070    -4.6820     1.0470 C.3   1 <1>  -0.2400 
 20 C      -11.9770    -2.5610     0.2770 C.3   1 <1>  -0.2400 
 21 H       -0.1720    -3.1700    -1.5190 H     1 <1>   0.1500 
 22 H       -2.5230    -3.6050    -2.1110 H     1 <1>   0.1500 
 23 H       -5.4720    -1.5720     0.8060 H     1 <1>   0.0800 
 24 H       -5.7200    -3.2800     1.1520 H     1 <1>   0.0800 
 25 H       -5.2670    -3.9540    -2.2770 H     1 <1>   0.0800 
 26 H       -4.5330    -2.4030    -2.6740 H     1 <1>   0.0800 
 27 H       -7.4550    -3.4590    -0.3510 H     1 <1>   0.0800 
 28 H       -7.2240    -2.6770    -2.5750 H     1 <1>   0.0800 
 29 H       -6.4100    -1.2100    -2.0550 H     1 <1>   0.0800 
 30 H       -7.5240    -0.4630    -0.0510 H     1 <1>   0.3700 
 31 H      -11.0330    -1.6760     2.7230 H     1 <1>   0.0800 
 32 H      -10.1600    -3.1220     3.1880 H     1 <1>   0.0800 
 33 H      -11.8980    -3.1450     3.0370 H     1 <1>   0.0800 
 34 H      -10.1190    -5.1160     1.6350 H     1 <1>   0.0800 
 35 H      -10.7920    -4.9900     0.0230 H     1 <1>   0.0800 
 36 H      -11.8470    -5.0550     1.4100 H     1 <1>   0.0800 
 37 H      -11.8170    -2.8110    -0.7560 H     1 <1>   0.0800 
 38 H      -12.0210    -1.4930     0.3800 H     1 <1>   0.0800 
 39 H      -12.9300    -2.9550     0.5800 H     1 <1>   0.0800 
@<TRIPOS>BOND
  1   1   2  1   
  2   2   3  ar  
  3   2   4  ar  
  4   3   5  ar  
  5   4   6  ar  
  6   5   7  1   
  7   5   8  ar  
  8   6   8  ar  
  9   6  21  1   
 10   7   9  1   
 11   7  10  1   
 12   8  22  1   
 13   9  11  1   
 14   9  23  1   
 15   9  24  1   
 16  10  12  1   
 17  10  25  1   
 18  10  26  1   
 19  11  12  1   
 20  11  13  1   
 21  11  27  1   
 22  12  28  1   
 23  12  29  1   
 24  13  14  am  
 25  13  30  1   
 26  14  15  2   
 27  14  16  1   
 28  16  17  1   
 29  17  18  1   
 30  17  19  1   
 31  17  20  1   
 32  18  31  1   
 33  18  32  1   
 34  18  33  1   
 35  19  34  1   
 36  19  35  1   
 37  19  36  1   
 38  20  37  1   
 39  20  38  1   
 40  20  39  1   
@<TRIPOS>SUBSTRUCTURE
  1 ****   9 GROUP 4 **** **** 0

# MOE 2024.06 (io_trps.svl 2023.06)
