@<TRIPOS>MOLECULE
NONAME
50 51 1 0 0 
SMALL
USER_CHARGES


@<TRIPOS>ATOM
  1 O        2.4220    -1.8270     2.1960 O.2   1 <1>  -0.5700 
  2 C        2.9130    -1.9440     1.1030 C.2   1 <1>   0.5690 
  3 N        3.8310    -1.0470     0.6840 N.am  1 <1>  -0.7300 
  4 C        2.4630    -3.1210     0.2340 C.3   1 <1>  -0.0190 
  5 C        4.6030    -0.9740    -0.5660 C.3   1 <1>   0.2840 
  6 C        0.9460    -3.0440    -0.0310 C.3   1 <1>  -0.1600 
  7 C        2.8220    -4.4580     0.9140 C.3   1 <1>  -0.1600 
  8 C        5.5980     0.1620    -0.4370 C.ar  1 <1>  -0.1440 
  9 C        0.4170    -4.2850    -0.7440 C.3   1 <1>   0.3430 
 10 C        2.2390    -5.6630     0.1790 C.3   1 <1>   0.3430 
 11 C        5.2860     1.4260    -0.9120 C.ar  1 <1>  -0.1500 
 12 C        6.8290    -0.0510     0.1640 C.ar  1 <1>  -0.1500 
 13 N        0.7660    -5.4950     0.0520 N.4   1 <1>  -0.9590 
 14 C        6.1950     2.4620    -0.7910 C.ar  1 <1>  -0.1500 
 15 C        7.7370     0.9860     0.2840 C.ar  1 <1>  -0.1500 
 16 C        0.1190    -6.7200    -0.4980 C.3   1 <1>   0.3430 
 17 C        7.4250     2.2480    -0.1920 C.ar  1 <1>  -0.1430 
 18 C       -1.1110    -7.1140     0.3370 C.3   1 <1>  -0.0800 
 19 C        8.4230     3.3850    -0.0620 C.3   1 <1>  -0.0970 
 20 C       -1.7330    -8.3920    -0.2400 C.3   1 <1>  -0.2400 
 21 C       -2.1870    -6.0150     0.4040 C.3   1 <1>  -0.2400 
 22 H        4.0620    -0.2980     1.3450 H     1 <1>   0.3700 
 23 H        2.9680    -3.0800    -0.7120 H     1 <1>   0.0800 
 24 H        3.9400    -0.7930    -1.3940 H     1 <1>   0.0800 
 25 H        5.1260    -1.9010    -0.7300 H     1 <1>   0.0800 
 26 H        0.7330    -2.1750    -0.6290 H     1 <1>   0.0800 
 27 H        0.4140    -2.9250     0.8980 H     1 <1>   0.0800 
 28 H        2.4600    -4.4620     1.9290 H     1 <1>   0.0800 
 29 H        3.8930    -4.5560     0.9610 H     1 <1>   0.0800 
 30 H        0.8530    -4.3550    -1.7280 H     1 <1>   0.0800 
 31 H       -0.6540    -4.2070    -0.8520 H     1 <1>   0.0800 
 32 H        2.4630    -6.5610     0.7320 H     1 <1>   0.0800 
 33 H        2.6850    -5.7450    -0.8000 H     1 <1>   0.0800 
 34 H        4.3330     1.6140    -1.3760 H     1 <1>   0.1500 
 35 H        7.0880    -1.0240     0.5460 H     1 <1>   0.1500 
 36 H        0.3910    -5.3550     1.0020 H     1 <1>   0.4500 
 37 H        5.9400     3.4380    -1.1660 H     1 <1>   0.1500 
 38 H        8.6890     0.8060     0.7510 H     1 <1>   0.1500 
 39 H        0.8170    -7.5410    -0.4810 H     1 <1>   0.0800 
 40 H       -0.1740    -6.5580    -1.5230 H     1 <1>   0.0800 
 41 H       -0.7850    -7.3390     1.3390 H     1 <1>   0.0800 
 42 H        7.9100     4.3260     0.0280 H     1 <1>   0.0800 
 43 H        9.0550     3.4150    -0.9310 H     1 <1>   0.0800 
 44 H        9.0360     3.2490     0.8100 H     1 <1>   0.0800 
 45 H       -2.0930    -8.2300    -1.2410 H     1 <1>   0.0800 
 46 H       -2.5620    -8.7120     0.3680 H     1 <1>   0.0800 
 47 H       -1.0120    -9.1920    -0.2600 H     1 <1>   0.0800 
 48 H       -2.5170    -5.7400    -0.5830 H     1 <1>   0.0800 
 49 H       -3.0430    -6.3720     0.9520 H     1 <1>   0.0800 
 50 H       -1.8260    -5.1390     0.9110 H     1 <1>   0.0800 
@<TRIPOS>BOND
  1   1   2  2   
  2   2   3  am  
  3   2   4  1   
  4   3   5  1   
  5   3  22  1   
  6   4   6  1   
  7   4   7  1   
  8   4  23  1   
  9   5   8  1   
 10   5  24  1   
 11   5  25  1   
 12   6   9  1   
 13   6  26  1   
 14   6  27  1   
 15   7  10  1   
 16   7  28  1   
 17   7  29  1   
 18   8  11  ar  
 19   8  12  ar  
 20   9  13  1   
 21   9  30  1   
 22   9  31  1   
 23  10  13  1   
 24  10  32  1   
 25  10  33  1   
 26  11  14  ar  
 27  11  34  1   
 28  12  15  ar  
 29  12  35  1   
 30  13  16  1   
 31  13  36  1   
 32  14  17  ar  
 33  14  37  1   
 34  15  17  ar  
 35  15  38  1   
 36  16  18  1   
 37  16  39  1   
 38  16  40  1   
 39  17  19  1   
 40  18  20  1   
 41  18  21  1   
 42  18  41  1   
 43  19  42  1   
 44  19  43  1   
 45  19  44  1   
 46  20  45  1   
 47  20  46  1   
 48  20  47  1   
 49  21  48  1   
 50  21  49  1   
 51  21  50  1   
@<TRIPOS>SUBSTRUCTURE
  1 ****   4 GROUP 4 **** **** 0

# MOE 2024.06 (io_trps.svl 2023.06)
