@<TRIPOS>MOLECULE
NONAME
29 30 1 0 0 
SMALL
USER_CHARGES


@<TRIPOS>ATOM
  1 BR       0.4580     0.2020     0.8110 Br    1 <1>  -0.1110 
  2 C       -1.1610     1.1990     0.4990 C.ar  1 <1>   0.1110 
  3 C       -1.2340     2.1650    -0.4950 C.ar  1 <1>  -0.0090 
  4 C       -2.2230     0.9030     1.3320 C.ar  1 <1>  -0.1500 
  5 S        0.1690     2.5680    -1.5640 S.o2  1 <1>   1.4470 
  6 C       -2.4400     2.8460    -0.6120 C.ar  1 <1>  -0.1500 
  7 C       -3.4040     1.6000     1.1840 C.ar  1 <1>  -0.1500 
  8 O       -0.1820     3.6100    -2.5070 O.2   1 <1>  -0.6500 
  9 O        0.7910     1.3710    -2.0880 O.2   1 <1>  -0.6500 
 10 N        1.2760     3.2710    -0.4910 N.am  1 <1>  -0.8490 
 11 C       -3.5410     2.5950     0.2140 C.ar  1 <1>  -0.1790 
 12 C        2.5780     3.4920    -1.0870 C.3   1 <1>   0.1960 
 13 C        0.8620     4.5590     0.0400 C.3   1 <1>   0.1960 
 14 C       -4.7820     3.3480     0.0750 C.2   1 <1>   0.9790 
 15 C        3.2720     4.4660    -0.1410 C.3   1 <1>  -0.1600 
 16 C        2.1380     5.1440     0.6310 C.3   1 <1>  -0.1600 
 17 O       -5.7780     3.0580     0.7600 O.co2 1 <1>  -0.9000 
 18 O       -4.8540     4.2980    -0.7230 O.co2 1 <1>  -0.9000 
 19 H       -2.1270     0.1430     2.0850 H     1 <1>   0.1500 
 20 H       -2.5460     3.6110    -1.3670 H     1 <1>   0.1500 
 21 H       -4.2460     1.3870     1.8240 H     1 <1>   0.1500 
 22 H        2.4640     3.9440    -2.0600 H     1 <1>   0.0800 
 23 H        3.1180     2.5640    -1.1830 H     1 <1>   0.0800 
 24 H        0.0880     4.4460     0.7820 H     1 <1>   0.0800 
 25 H        0.5080     5.1990    -0.7530 H     1 <1>   0.0800 
 26 H        3.8640     5.1730    -0.6940 H     1 <1>   0.0800 
 27 H        3.9110     3.9230     0.5330 H     1 <1>   0.0800 
 28 H        2.1970     4.8910     1.6750 H     1 <1>   0.0800 
 29 H        2.1550     6.2140     0.5260 H     1 <1>   0.0800 
@<TRIPOS>BOND
  1   1   2  1   
  2   2   3  ar  
  3   2   4  ar  
  4   3   5  1   
  5   3   6  ar  
  6   4   7  ar  
  7   4  19  1   
  8   5   8  2   
  9   5   9  2   
 10   5  10  am  
 11   6  11  ar  
 12   6  20  1   
 13   7  11  ar  
 14   7  21  1   
 15  10  12  1   
 16  10  13  1   
 17  11  14  1   
 18  12  15  1   
 19  12  22  1   
 20  12  23  1   
 21  13  16  1   
 22  13  24  1   
 23  13  25  1   
 24  14  17  ar  
 25  14  18  ar  
 26  15  16  1   
 27  15  26  1   
 28  15  27  1   
 29  16  28  1   
 30  16  29  1   
@<TRIPOS>SUBSTRUCTURE
  1 ****   3 GROUP 4 **** **** 0

# MOE 2024.06 (io_trps.svl 2023.06)
