@<TRIPOS>MOLECULE
NONAME
31 32 1 0 0 
SMALL
USER_CHARGES


@<TRIPOS>ATOM
  1 F        0.1090    -0.5200     0.9850 F     1 <1>  -0.1900 
  2 C        0.0790    -1.7570     0.5700 C.ar  1 <1>   0.1900 
  3 C        0.5850    -2.0530    -0.6800 C.ar  1 <1>  -0.1500 
  4 C       -0.4590    -2.7250     1.3960 C.ar  1 <1>  -0.1500 
  5 C        0.5560    -3.3680    -1.1130 C.ar  1 <1>  -0.1500 
  6 C       -0.4820    -4.0360     0.9520 C.ar  1 <1>  -0.1500 
  7 C        0.0310    -4.3640    -0.2970 C.ar  1 <1>  -0.1430 
  8 C        0.0210    -5.8120    -0.7640 C.3   1 <1>  -0.0160 
  9 C        1.0790    -6.6380    -0.0110 C.3   1 <1>  -0.0800 
 10 C        2.4530    -5.9510    -0.0720 C.3   1 <1>   0.3430 
 11 C        1.1510    -8.0710    -0.5680 C.3   1 <1>  -0.1600 
 12 N        3.4810    -6.7800     0.6220 N.4   1 <1>  -0.9060 
 13 C        2.2720    -8.8680     0.1150 C.3   1 <1>  -0.1600 
 14 C        3.6170    -8.1420     0.0380 C.3   1 <1>   0.3430 
 15 H        0.9860    -1.2680    -1.2960 H     1 <1>   0.1500 
 16 H       -0.8520    -2.4510     2.3590 H     1 <1>   0.1500 
 17 H        0.9400    -3.6030    -2.0920 H     1 <1>   0.1500 
 18 H       -0.9080    -4.7960     1.5860 H     1 <1>   0.1500 
 19 H        0.2030    -5.8510    -1.8250 H     1 <1>   0.0800 
 20 H       -0.9570    -6.2310    -0.5940 H     1 <1>   0.0800 
 21 H        0.7780    -6.6850     1.0210 H     1 <1>   0.0800 
 22 H        2.3890    -4.9790     0.3930 H     1 <1>   0.0800 
 23 H        2.7340    -5.8100    -1.1040 H     1 <1>   0.0800 
 24 H        1.3340    -8.0430    -1.6300 H     1 <1>   0.0800 
 25 H        0.2090    -8.5720    -0.4140 H     1 <1>   0.0800 
 26 H        3.2160    -6.8680     1.6100 H     1 <1>   0.4500 
 27 H        4.3870    -6.2960     0.5970 H     1 <1>   0.4500 
 28 H        2.3650    -9.8290    -0.3630 H     1 <1>   0.0800 
 29 H        2.0200    -9.0490     1.1460 H     1 <1>   0.0800 
 30 H        4.3650    -8.7050     0.5760 H     1 <1>   0.0800 
 31 H        3.9260    -8.0680    -0.9930 H     1 <1>   0.0800 
@<TRIPOS>BOND
  1   1   2  1   
  2   2   3  ar  
  3   2   4  ar  
  4   3   5  ar  
  5   3  15  1   
  6   4   6  ar  
  7   4  16  1   
  8   5   7  ar  
  9   5  17  1   
 10   6   7  ar  
 11   6  18  1   
 12   7   8  1   
 13   8   9  1   
 14   8  19  1   
 15   8  20  1   
 16   9  10  1   
 17   9  11  1   
 18   9  21  1   
 19  10  12  1   
 20  10  22  1   
 21  10  23  1   
 22  11  13  1   
 23  11  24  1   
 24  11  25  1   
 25  12  14  1   
 26  12  26  1   
 27  12  27  1   
 28  13  14  1   
 29  13  28  1   
 30  13  29  1   
 31  14  30  1   
 32  14  31  1   
@<TRIPOS>SUBSTRUCTURE
  1 ****   7 GROUP 4 **** **** 0

# MOE 2024.06 (io_trps.svl 2023.06)
