@<TRIPOS>MOLECULE
NONAME
41 43 1 0 0 
SMALL
USER_CHARGES


@<TRIPOS>ATOM
  1 S        0.1980     1.7640     0.1300 S.3   1 <1>  -0.0800 
  2 C        1.7770     1.0210    -0.0690 C.2   1 <1>  -0.1400 
  3 C       -0.0080     1.9040    -1.6060 C.2   1 <1>  -0.1100 
  4 C        2.0770     0.9040    -1.3780 C.2   1 <1>  -0.1500 
  5 C        2.5170     0.6420     1.2070 C.3   1 <1>   0.0810 
  6 C        1.0620     1.4080    -2.2520 C.2   1 <1>  -0.1500 
  7 C        4.0230     0.5470     1.0260 C.2   1 <1>   0.5690 
  8 O        4.6050    -0.3810     1.5310 O.2   1 <1>  -0.5700 
  9 N        4.6460     1.5430     0.3210 N.am  1 <1>  -0.5470 
 10 C        5.9860     1.7450    -0.0300 C.ar  1 <1>   0.1170 
 11 C        6.3730     3.0010    -0.4820 C.ar  1 <1>  -0.1500 
 12 C        6.9560     0.7480     0.0280 C.ar  1 <1>  -0.1500 
 13 C        7.6800     3.2550    -0.8500 C.ar  1 <1>  -0.1500 
 14 C        8.2620     1.0040    -0.3410 C.ar  1 <1>  -0.1500 
 15 C        8.6610     2.2670    -0.7790 C.ar  1 <1>   0.0860 
 16 C       10.0300     2.5470    -1.1620 C.2   1 <1>   0.5440 
 17 O       10.2510     3.0250    -2.2600 O.2   1 <1>  -0.5700 
 18 N       11.0950     2.3000    -0.3210 N.am  1 <1>  -0.6600 
 19 C       12.5090     2.3940    -0.7940 C.3   1 <1>   0.1400 
 20 C       10.9890     2.0850     1.1530 C.3   1 <1>   0.1400 
 21 C       13.3430     1.2280    -0.2370 C.3   1 <1>   0.1200 
 22 C       11.9030     0.9300     1.5950 C.3   1 <1>   0.1200 
 23 O       13.2160     1.1420     1.1560 O.3   1 <1>  -0.5600 
 24 H       -0.9220     2.3460    -1.9620 H     1 <1>   0.1500 
 25 H        2.9780     0.4730    -1.7840 H     1 <1>   0.1500 
 26 H        2.1420    -0.3000     1.5640 H     1 <1>   0.0800 
 27 H        2.3250     1.3790     1.9640 H     1 <1>   0.0800 
 28 H        1.1850     1.3720    -3.3210 H     1 <1>   0.1500 
 29 H        4.0040     2.2540    -0.0330 H     1 <1>   0.3700 
 30 H        5.6460     3.7910    -0.5480 H     1 <1>   0.1500 
 31 H        6.6930    -0.2410     0.3560 H     1 <1>   0.1500 
 32 H        7.9620     4.2320    -1.2040 H     1 <1>   0.1500 
 33 H        8.9920     0.2150    -0.2970 H     1 <1>   0.1500 
 34 H       12.9310     3.3270    -0.4650 H     1 <1>   0.0800 
 35 H       12.5480     2.3730    -1.8700 H     1 <1>   0.0800 
 36 H        9.9770     1.8750     1.4450 H     1 <1>   0.0800 
 37 H       11.2960     2.9840     1.6590 H     1 <1>   0.0800 
 38 H       14.3840     1.3770    -0.4640 H     1 <1>   0.0800 
 39 H       13.0230     0.2970    -0.6710 H     1 <1>   0.0800 
 40 H       11.5530    -0.0060     1.1960 H     1 <1>   0.0800 
 41 H       11.9240     0.8630     2.6680 H     1 <1>   0.0800 
@<TRIPOS>BOND
  1   1   2  1   
  2   1   3  1   
  3   2   4  2   
  4   2   5  1   
  5   3   6  2   
  6   3  24  1   
  7   4   6  1   
  8   4  25  1   
  9   5   7  1   
 10   5  26  1   
 11   5  27  1   
 12   6  28  1   
 13   7   8  2   
 14   7   9  am  
 15   9  10  1   
 16   9  29  1   
 17  10  11  ar  
 18  10  12  ar  
 19  11  13  ar  
 20  11  30  1   
 21  12  14  ar  
 22  12  31  1   
 23  13  15  ar  
 24  13  32  1   
 25  14  15  ar  
 26  14  33  1   
 27  15  16  1   
 28  16  17  2   
 29  16  18  am  
 30  18  19  1   
 31  18  20  1   
 32  19  21  1   
 33  19  34  1   
 34  19  35  1   
 35  20  22  1   
 36  20  36  1   
 37  20  37  1   
 38  21  23  1   
 39  21  38  1   
 40  21  39  1   
 41  22  23  1   
 42  22  40  1   
 43  22  41  1   
@<TRIPOS>SUBSTRUCTURE
  1 ****  12 GROUP 4 **** **** 0

# MOE 2024.06 (io_trps.svl 2023.06)
