@<TRIPOS>MOLECULE
NONAME
52 54 1 0 0 
SMALL
USER_CHARGES


@<TRIPOS>ATOM
  1 O       -0.4090     0.6730     1.0050 O.2   1 <1>  -0.5700 
  2 C       -0.4910     1.9120     0.9510 C.2   1 <1>   0.6160 
  3 N        0.5570     2.7870     0.8420 N.am  1 <1>  -0.1570 
  4 C       -1.6970     2.6460     1.0050 C.2   1 <1>   0.1230 
  5 N       -0.0150     4.1010     0.8710 N.pl3 1 <1>  -0.4890 
  6 C        1.7100     2.5040     0.0810 C.ar  1 <1>   0.1170 
  7 N       -2.9680     1.9940     1.0850 N.am  1 <1>  -0.5390 
  8 C       -1.3670     3.9700     0.9870 C.2   1 <1>  -0.0380 
  9 C        0.7980     5.2380     1.3720 C.3   1 <1>   0.1290 
 10 C        2.6140     1.5390     0.5130 C.ar  1 <1>  -0.1500 
 11 C        1.9750     3.1740    -1.1110 C.ar  1 <1>  -0.1500 
 12 C       -4.0830     2.2610     0.3490 C.2   1 <1>   0.5690 
 13 C       -2.2690     5.1870     1.1120 C.3   1 <1>  -0.1020 
 14 C        3.7540     1.2570    -0.2160 C.ar  1 <1>  -0.1500 
 15 C        3.1150     2.8950    -1.8430 C.ar  1 <1>  -0.1500 
 16 O       -4.1860     3.2280    -0.3710 O.2   1 <1>  -0.5700 
 17 C       -5.2860     1.3020     0.4020 C.3   1 <1>   0.4040 
 18 C        4.0070     1.9370    -1.3950 C.ar  1 <1>  -0.1500 
 19 N       -6.5670     1.9370    -0.0850 N.4   1 <1>  -0.9590 
 20 C       -7.1030     2.9590     0.8580 C.3   1 <1>   0.3430 
 21 C       -7.6020     0.9470    -0.5180 C.3   1 <1>   0.3430 
 22 C       -8.1030     3.8600     0.1090 C.3   1 <1>  -0.0800 
 23 C       -8.9930     1.5940    -0.6260 C.3   1 <1>  -0.1600 
 24 C       -8.9230     3.0930    -0.9540 C.3   1 <1>  -0.1600 
 25 C       -7.3840     5.0540    -0.5370 C.3   1 <1>  -0.2400 
 26 H       -2.8810     1.0740     1.5280 H     1 <1>   0.3700 
 27 H        0.7880     5.2410     2.4470 H     1 <1>   0.0800 
 28 H        0.3950     6.1640     1.0050 H     1 <1>   0.0800 
 29 H        1.8130     5.1400     1.0300 H     1 <1>   0.0800 
 30 H        2.4140     1.0060     1.4260 H     1 <1>   0.1500 
 31 H        1.2800     3.9150    -1.4640 H     1 <1>   0.1500 
 32 H       -1.9190     5.8320     1.8960 H     1 <1>   0.0800 
 33 H       -3.2750     4.8960     1.3460 H     1 <1>   0.0800 
 34 H       -2.2720     5.7300     0.1840 H     1 <1>   0.0800 
 35 H        4.4440     0.5070     0.1320 H     1 <1>   0.1500 
 36 H        3.3070     3.4210    -2.7620 H     1 <1>   0.1500 
 37 H       -5.4140     0.9500     1.4110 H     1 <1>   0.0800 
 38 H       -5.0500     0.4570    -0.2220 H     1 <1>   0.0800 
 39 H        4.8940     1.7180    -1.9640 H     1 <1>   0.1500 
 40 H       -6.2910     2.4940    -0.9130 H     1 <1>   0.4500 
 41 H       -6.3060     3.5670     1.2550 H     1 <1>   0.0800 
 42 H       -7.6020     2.4670     1.6770 H     1 <1>   0.0800 
 43 H       -7.6520     0.1280     0.1810 H     1 <1>   0.0800 
 44 H       -7.3230     0.5470    -1.4800 H     1 <1>   0.0800 
 45 H       -8.7840     4.2520     0.8460 H     1 <1>   0.0800 
 46 H       -9.5150     1.4580     0.3060 H     1 <1>   0.0800 
 47 H       -9.5620     1.0790    -1.3800 H     1 <1>   0.0800 
 48 H       -8.4730     3.2070    -1.9260 H     1 <1>   0.0800 
 49 H       -9.9160     3.5060    -1.0130 H     1 <1>   0.0800 
 50 H       -6.6610     4.7300    -1.2660 H     1 <1>   0.0800 
 51 H       -6.8730     5.6360     0.2100 H     1 <1>   0.0800 
 52 H       -8.0960     5.6970    -1.0270 H     1 <1>   0.0800 
@<TRIPOS>BOND
  1   1   2  2   
  2   2   3  am  
  3   2   4  1   
  4   3   5  1   
  5   3   6  1   
  6   4   7  1   
  7   4   8  2   
  8   5   8  1   
  9   5   9  1   
 10   6  10  ar  
 11   6  11  ar  
 12   7  12  am  
 13   7  26  1   
 14   8  13  1   
 15   9  27  1   
 16   9  28  1   
 17   9  29  1   
 18  10  14  ar  
 19  10  30  1   
 20  11  15  ar  
 21  11  31  1   
 22  12  16  2   
 23  12  17  1   
 24  13  32  1   
 25  13  33  1   
 26  13  34  1   
 27  14  18  ar  
 28  14  35  1   
 29  15  18  ar  
 30  15  36  1   
 31  17  19  1   
 32  17  37  1   
 33  17  38  1   
 34  18  39  1   
 35  19  20  1   
 36  19  21  1   
 37  19  40  1   
 38  20  22  1   
 39  20  41  1   
 40  20  42  1   
 41  21  23  1   
 42  21  43  1   
 43  21  44  1   
 44  22  24  1   
 45  22  25  1   
 46  22  45  1   
 47  23  24  1   
 48  23  46  1   
 49  23  47  1   
 50  24  48  1   
 51  24  49  1   
 52  25  50  1   
 53  25  51  1   
 54  25  52  1   
@<TRIPOS>SUBSTRUCTURE
  1 ****   4 GROUP 4 **** **** 0

# MOE 2024.06 (io_trps.svl 2023.06)
