@<TRIPOS>MOLECULE
NONAME
54 57 1 0 0 
SMALL
USER_CHARGES


@<TRIPOS>ATOM
  1 O       -0.2330    -1.4110    -1.6650 O.2   1 <1>  -0.5700 
  2 C       -0.4080    -1.9850    -0.6150 C.2   1 <1>   0.5690 
  3 N       -1.6670    -2.1630    -0.1010 N.am  1 <1>  -0.6600 
  4 C        0.8090    -2.5210     0.1370 C.3   1 <1>  -0.0990 
  5 C       -2.0120    -2.9460     1.1320 C.3   1 <1>   0.1400 
  6 C       -2.8790    -1.6380    -0.8110 C.3   1 <1>   0.1400 
  7 C        2.1700    -2.1530    -0.4810 C.3   1 <1>  -0.2400 
  8 C       -3.0260    -4.0610     0.8210 C.3   1 <1>   0.2090 
  9 C       -3.8740    -2.7690    -1.1180 C.3   1 <1>   0.2090 
 10 N       -4.2320    -3.5140     0.1280 N.pl3 1 <1>  -0.8380 
 11 C       -5.3960    -4.2650     0.1260 C.ar  1 <1>   0.4100 
 12 N       -5.2180    -5.5660    -0.0230 N.ar  1 <1>  -0.6200 
 13 C       -6.6520    -3.6600     0.2700 C.ar  1 <1>   0.0730 
 14 C       -6.3010    -6.3330    -0.0430 C.ar  1 <1>   0.3100 
 15 C       -6.7280    -2.2420     0.4500 C.1   1 <1>   0.4840 
 16 C       -7.7870    -4.4600     0.2440 C.ar  1 <1>  -0.1440 
 17 C       -6.0700    -7.7500    -0.2210 C.ar  1 <1>   0.0000 
 18 C       -7.5970    -5.8260     0.0930 C.ar  1 <1>  -0.1440 
 19 N       -6.8290    -1.1100     0.5670 N.1   1 <1>  -0.5570 
 20 C       -9.1830    -3.8460     0.3960 C.3   1 <1>  -0.0170 
 21 C       -6.1380    -8.3350    -1.4840 C.ar  1 <1>  -0.1500 
 22 C       -5.7830    -8.5730     0.8650 C.ar  1 <1>  -0.1500 
 23 C       -8.7880    -6.7920     0.0580 C.3   1 <1>  -0.0170 
 24 C      -10.3060    -4.7960    -0.0270 C.3   1 <1>  -0.1600 
 25 C       -5.9400    -9.6930    -1.6540 C.ar  1 <1>  -0.1500 
 26 C       -5.5850    -9.9320     0.7010 C.ar  1 <1>  -0.1500 
 27 C      -10.0860    -6.1770     0.5880 C.3   1 <1>  -0.1600 
 28 C       -5.6650   -10.4940    -0.5600 C.ar  1 <1>  -0.1500 
 29 H        0.7310    -3.5910     0.1790 H     1 <1>   0.0800 
 30 H        0.7790    -2.1380     1.1400 H     1 <1>   0.0800 
 31 H       -2.4450    -2.2790     1.8570 H     1 <1>   0.0800 
 32 H       -1.1380    -3.3870     1.5710 H     1 <1>   0.0800 
 33 H       -2.6020    -1.1550    -1.7320 H     1 <1>   0.0800 
 34 H       -3.3630    -0.9050    -0.1890 H     1 <1>   0.0800 
 35 H        2.2410    -2.5460    -1.4800 H     1 <1>   0.0800 
 36 H        2.9720    -2.5590     0.1090 H     1 <1>   0.0800 
 37 H        2.2790    -1.0840    -0.5270 H     1 <1>   0.0800 
 38 H       -3.3270    -4.5400     1.7370 H     1 <1>   0.0800 
 39 H       -2.5630    -4.8050     0.1960 H     1 <1>   0.0800 
 40 H       -3.4300    -3.4490    -1.8250 H     1 <1>   0.0800 
 41 H       -4.7580    -2.3520    -1.5680 H     1 <1>   0.0800 
 42 H       -9.2660    -2.9480    -0.1910 H     1 <1>   0.0800 
 43 H       -9.3250    -3.5770     1.4290 H     1 <1>   0.0800 
 44 H       -6.3440    -7.7120    -2.3360 H     1 <1>   0.1500 
 45 H       -5.7150    -8.1360     1.8460 H     1 <1>   0.1500 
 46 H       -8.5730    -7.6710     0.6400 H     1 <1>   0.0800 
 47 H       -8.9390    -7.1040    -0.9610 H     1 <1>   0.0800 
 48 H      -10.3220    -4.8790    -1.1010 H     1 <1>   0.0800 
 49 H      -11.2540    -4.3980     0.2910 H     1 <1>   0.0800 
 50 H       -5.9970   -10.1280    -2.6370 H     1 <1>   0.1500 
 51 H       -5.3660   -10.5520     1.5530 H     1 <1>   0.1500 
 52 H      -10.0300    -6.0890     1.6600 H     1 <1>   0.0800 
 53 H      -10.9130    -6.8230     0.3490 H     1 <1>   0.0800 
 54 H       -5.5110   -11.5510    -0.6910 H     1 <1>   0.1500 
@<TRIPOS>BOND
  1   1   2  2   
  2   2   3  am  
  3   2   4  1   
  4   3   5  1   
  5   3   6  1   
  6   4   7  1   
  7   4  29  1   
  8   4  30  1   
  9   5   8  1   
 10   5  31  1   
 11   5  32  1   
 12   6   9  1   
 13   6  33  1   
 14   6  34  1   
 15   7  35  1   
 16   7  36  1   
 17   7  37  1   
 18   8  10  1   
 19   8  38  1   
 20   8  39  1   
 21   9  10  1   
 22   9  40  1   
 23   9  41  1   
 24  10  11  1   
 25  11  12  ar  
 26  11  13  ar  
 27  12  14  ar  
 28  13  15  1   
 29  13  16  ar  
 30  14  17  1   
 31  14  18  ar  
 32  15  19  3   
 33  16  18  ar  
 34  16  20  1   
 35  17  21  ar  
 36  17  22  ar  
 37  18  23  1   
 38  20  24  1   
 39  20  42  1   
 40  20  43  1   
 41  21  25  ar  
 42  21  44  1   
 43  22  26  ar  
 44  22  45  1   
 45  23  27  1   
 46  23  46  1   
 47  23  47  1   
 48  24  27  1   
 49  24  48  1   
 50  24  49  1   
 51  25  28  ar  
 52  25  50  1   
 53  26  28  ar  
 54  26  51  1   
 55  27  52  1   
 56  27  53  1   
 57  28  54  1   
@<TRIPOS>SUBSTRUCTURE
  1 ****  11 GROUP 4 **** **** 0

# MOE 2024.06 (io_trps.svl 2023.06)
