@<TRIPOS>MOLECULE
NONAME
39 41 1 0 0 
SMALL
USER_CHARGES


@<TRIPOS>ATOM
  1 S       -0.2900     0.0410    -0.0010 S.3   1 <1>  -0.2860 
  2 C        1.3640     0.4120     0.5840 C.2   1 <1>   0.2420 
  3 C       -1.1790    -0.4160     1.5700 C.3   1 <1>   0.1310 
  4 N        1.7030     0.3740     1.8230 N.2   1 <1>  -0.3380 
  5 N        2.3560     0.7550    -0.2290 N.pl3 1 <1>   0.0480 
  6 C       -2.6450    -0.7360     1.3180 C.2   1 <1>   0.5690 
  7 N        2.9910     0.7120     1.8560 N.2   1 <1>  -0.3380 
  8 C        3.3770     0.9380     0.6290 C.2   1 <1>   0.1330 
  9 C        2.3470     0.9070    -1.6980 C.3   1 <1>   0.0160 
 10 O       -3.2470    -1.3530     2.1640 O.2   1 <1>  -0.5700 
 11 N       -3.2360    -0.3150     0.1660 N.am  1 <1>  -0.5790 
 12 C        4.7000     1.3280     0.2130 C.ar  1 <1>   0.0530 
 13 C       -4.6360    -0.5380    -0.2180 C.3   1 <1>   0.0490 
 14 C        5.6830     0.3880    -0.1130 C.ar  1 <1>  -0.1430 
 15 C        5.0160     2.6800     0.1080 C.ar  1 <1>  -0.1500 
 16 C       -4.9360    -0.7830    -1.6580 C.3   1 <1>  -0.2000 
 17 C       -5.3200     0.5180    -1.0200 C.3   1 <1>  -0.2000 
 18 C        6.9300     0.8080    -0.5480 C.ar  1 <1>  -0.1500 
 19 C        5.3970    -1.1030     0.0140 C.3   1 <1>  -0.0970 
 20 C        6.2610     3.0950    -0.3240 C.ar  1 <1>  -0.1500 
 21 C        7.2200     2.1560    -0.6570 C.ar  1 <1>  -0.1500 
 22 H       -1.0900     0.4160     2.2430 H     1 <1>   0.0800 
 23 H       -0.6760    -1.2710     1.9820 H     1 <1>   0.0800 
 24 H        1.9690     1.8800    -1.9510 H     1 <1>   0.0800 
 25 H        1.7180     0.1520    -2.1350 H     1 <1>   0.0800 
 26 H        3.3460     0.8000    -2.0820 H     1 <1>   0.0800 
 27 H       -2.6640     0.1720    -0.5260 H     1 <1>   0.3700 
 28 H       -5.2040    -1.0720     0.5290 H     1 <1>   0.1000 
 29 H        4.2740     3.4110     0.3750 H     1 <1>   0.1500 
 30 H       -5.7200    -1.4770    -1.9090 H     1 <1>   0.1000 
 31 H       -4.1240    -0.8040    -2.3630 H     1 <1>   0.1000 
 32 H       -4.7760     1.4100    -1.2770 H     1 <1>   0.1000 
 33 H       -6.3630     0.7070    -0.8380 H     1 <1>   0.1000 
 34 H        7.6880     0.0870    -0.8020 H     1 <1>   0.1500 
 35 H        5.0560    -1.3260     1.0110 H     1 <1>   0.0800 
 36 H        6.2810    -1.6840    -0.1760 H     1 <1>   0.0800 
 37 H        4.6370    -1.3970    -0.6850 H     1 <1>   0.0800 
 38 H        6.4860     4.1440    -0.3990 H     1 <1>   0.1500 
 39 H        8.1920     2.4730    -0.9940 H     1 <1>   0.1500 
@<TRIPOS>BOND
  1   1   2  1   
  2   1   3  1   
  3   2   4  2   
  4   2   5  1   
  5   3   6  1   
  6   3  22  1   
  7   3  23  1   
  8   4   7  1   
  9   5   8  1   
 10   5   9  1   
 11   6  10  2   
 12   6  11  am  
 13   7   8  2   
 14   8  12  1   
 15   9  24  1   
 16   9  25  1   
 17   9  26  1   
 18  11  13  1   
 19  11  27  1   
 20  12  14  ar  
 21  12  15  ar  
 22  13  16  1   
 23  13  17  1   
 24  13  28  1   
 25  14  18  ar  
 26  14  19  1   
 27  15  20  ar  
 28  15  29  1   
 29  16  17  1   
 30  16  30  1   
 31  16  31  1   
 32  17  32  1   
 33  17  33  1   
 34  18  21  ar  
 35  18  34  1   
 36  19  35  1   
 37  19  36  1   
 38  19  37  1   
 39  20  21  ar  
 40  20  38  1   
 41  21  39  1   
@<TRIPOS>SUBSTRUCTURE
  1 ****   2 GROUP 4 **** **** 0

# MOE 2024.06 (io_trps.svl 2023.06)
