@<TRIPOS>MOLECULE
NONAME
32 32 1 0 0 
SMALL
USER_CHARGES


@<TRIPOS>ATOM
  1 CL       0.1050     0.2320    -1.7400 Cl    1 <1>  -0.1770 
  2 C        0.7950     1.5610    -0.8310 C.ar  1 <1>   0.1770 
  3 C        0.0000     2.6190    -0.4030 C.ar  1 <1>   0.0820 
  4 C        2.1480     1.5350    -0.5590 C.ar  1 <1>  -0.1500 
  5 O       -1.3290     2.6720    -0.6550 O.3   1 <1>  -0.3630 
  6 C        0.5800     3.6710     0.2860 C.ar  1 <1>  -0.1500 
  7 C        2.7400     2.5790     0.1450 C.ar  1 <1>   0.1170 
  8 C       -2.1500     1.8620     0.1580 C.3   1 <1>   0.0400 
  9 C        1.9440     3.6550     0.5620 C.ar  1 <1>   0.0830 
 10 N        4.1130     2.6220     0.4600 N.am  1 <1>  -0.5470 
 11 O        2.5720     4.6650     1.2370 O.3   1 <1>  -0.3630 
 12 C        5.1430     1.7470     0.2630 C.2   1 <1>   0.5690 
 13 C        1.8600     5.8060     1.6710 C.3   1 <1>   0.0400 
 14 O        5.0120     0.6620    -0.2460 O.2   1 <1>  -0.5700 
 15 C        6.5220     2.1690     0.7000 C.3   1 <1>  -0.0380 
 16 C        7.4480     2.3400    -0.4840 C.2   1 <1>   0.4480 
 17 O        8.6000     2.0430    -0.3980 O.2   1 <1>  -0.5700 
 18 C        6.9060     2.9500    -1.7620 C.3   1 <1>  -0.1790 
 19 H        2.7230     0.6980    -0.9060 H     1 <1>   0.1500 
 20 H       -0.0570     4.4790     0.5880 H     1 <1>   0.1500 
 21 H       -3.1730     2.0300    -0.1270 H     1 <1>   0.0800 
 22 H       -2.0040     2.1390     1.1870 H     1 <1>   0.0800 
 23 H       -1.8940     0.8290     0.0070 H     1 <1>   0.0800 
 24 H        4.3410     3.4870     0.9560 H     1 <1>   0.3700 
 25 H        2.5510     6.4670     2.1630 H     1 <1>   0.0800 
 26 H        1.0940     5.5000     2.3620 H     1 <1>   0.0800 
 27 H        1.4320     6.2990     0.8150 H     1 <1>   0.0800 
 28 H        6.9240     1.4120     1.3480 H     1 <1>   0.0800 
 29 H        6.4810     3.0910     1.2460 H     1 <1>   0.0800 
 30 H        7.7210     3.1690    -2.4280 H     1 <1>   0.0800 
 31 H        6.2450     2.2570    -2.2490 H     1 <1>   0.0800 
 32 H        6.3790     3.8610    -1.5490 H     1 <1>   0.0800 
@<TRIPOS>BOND
  1   1   2  1   
  2   2   3  ar  
  3   2   4  ar  
  4   3   5  1   
  5   3   6  ar  
  6   4   7  ar  
  7   4  19  1   
  8   5   8  1   
  9   6   9  ar  
 10   6  20  1   
 11   7   9  ar  
 12   7  10  1   
 13   8  21  1   
 14   8  22  1   
 15   8  23  1   
 16   9  11  1   
 17  10  12  am  
 18  10  24  1   
 19  11  13  1   
 20  12  14  2   
 21  12  15  1   
 22  13  25  1   
 23  13  26  1   
 24  13  27  1   
 25  15  16  1   
 26  15  28  1   
 27  15  29  1   
 28  16  17  2   
 29  16  18  1   
 30  18  30  1   
 31  18  31  1   
 32  18  32  1   
@<TRIPOS>SUBSTRUCTURE
  1 ****   7 GROUP 4 **** **** 0

# MOE 2024.06 (io_trps.svl 2023.06)
