@<TRIPOS>MOLECULE
NONAME
46 48 1 0 0 
SMALL
USER_CHARGES


@<TRIPOS>ATOM
  1 S        0.1740    -0.4680     0.5580 S.3   1 <1>  -0.3710 
  2 C       -1.2390     0.5420     0.1240 C.2   1 <1>   0.6510 
  3 C        1.5210     0.8090     0.6910 C.3   1 <1>   0.1310 
  4 N       -1.0180     1.7980     0.0230 N.2   1 <1>  -0.6210 
  5 N       -2.4450    -0.1090    -0.0680 N.am  1 <1>  -0.2370 
  6 C        2.9130     0.2470     0.9690 C.2   1 <1>   0.5690 
  7 C       -2.0670     2.6010    -0.3060 C.2   1 <1>   0.0210 
  8 C       -3.5280     0.7040    -0.3960 C.2   1 <1>   0.6160 
  9 C       -2.5860    -1.5060     0.0490 C.ar  1 <1>   0.1170 
 10 O        3.0390    -0.9230     1.2560 O.2   1 <1>  -0.5700 
 11 N        4.0050     1.0830     0.8950 N.am  1 <1>  -0.6600 
 12 O       -1.8390     3.8060    -0.4050 O.3   1 <1>  -0.8500 
 13 C       -3.3220     2.0660    -0.5140 C.2   1 <1>  -0.1360 
 14 O       -4.6460     0.1850    -0.5730 O.2   1 <1>  -0.5700 
 15 C       -3.1560    -2.0660     1.1860 C.ar  1 <1>  -0.1500 
 16 C       -2.1540    -2.3490    -0.9690 C.ar  1 <1>  -0.1500 
 17 C        5.3910     0.5650     1.0620 C.3   1 <1>   0.1400 
 18 C        3.9400     2.5480     0.6160 C.3   1 <1>   0.1400 
 19 C       -3.2820    -3.4380     1.3060 C.ar  1 <1>  -0.1500 
 20 C       -2.2760    -3.7220    -0.8530 C.ar  1 <1>  -0.1500 
 21 C        6.2050     0.8600    -0.2030 C.3   1 <1>  -0.1600 
 22 C        4.7290     2.8580    -0.6600 C.3   1 <1>  -0.1600 
 23 C       -2.8410    -4.2750     0.2940 C.ar  1 <1>   0.0820 
 24 C        6.1770     2.3530    -0.5640 C.3   1 <1>  -0.1600 
 25 O       -2.9940    -5.6100     0.4940 O.3   1 <1>  -0.3630 
 26 C       -2.5050    -6.5440    -0.4430 C.3   1 <1>   0.0400 
 27 H        1.2290     1.4800     1.4780 H     1 <1>   0.0800 
 28 H        1.5240     1.3340    -0.2460 H     1 <1>   0.0800 
 29 H       -4.1310     2.7170    -0.7690 H     1 <1>   0.1500 
 30 H       -3.5010    -1.4210     1.9740 H     1 <1>   0.1500 
 31 H       -1.7160    -1.9190    -1.8520 H     1 <1>   0.1500 
 32 H        5.3840    -0.4960     1.2460 H     1 <1>   0.0800 
 33 H        5.8440     1.0460     1.9120 H     1 <1>   0.0800 
 34 H        4.3730     3.0780     1.4460 H     1 <1>   0.0800 
 35 H        2.9270     2.8910     0.5030 H     1 <1>   0.0800 
 36 H       -3.7220    -3.8690     2.1870 H     1 <1>   0.1500 
 37 H       -1.9260    -4.3380    -1.6580 H     1 <1>   0.1500 
 38 H        5.7960     0.2830    -1.0140 H     1 <1>   0.0800 
 39 H        7.2210     0.5420    -0.0540 H     1 <1>   0.0800 
 40 H        4.7270     3.9210    -0.8290 H     1 <1>   0.0800 
 41 H        4.2350     2.3940    -1.4950 H     1 <1>   0.0800 
 42 H        6.6800     2.5100    -1.5030 H     1 <1>   0.0800 
 43 H        6.7000     2.9120     0.1930 H     1 <1>   0.0800 
 44 H       -2.7080    -7.5300    -0.0670 H     1 <1>   0.0800 
 45 H       -1.4440    -6.4050    -0.5520 H     1 <1>   0.0800 
 46 H       -3.0130    -6.3970    -1.3790 H     1 <1>   0.0800 
@<TRIPOS>BOND
  1   1   2  1   
  2   1   3  1   
  3   2   4  2   
  4   2   5  1   
  5   3   6  1   
  6   3  27  1   
  7   3  28  1   
  8   4   7  1   
  9   5   8  am  
 10   5   9  1   
 11   6  10  2   
 12   6  11  am  
 13   7  12  1   
 14   7  13  2   
 15   8  13  1   
 16   8  14  2   
 17   9  15  ar  
 18   9  16  ar  
 19  11  17  1   
 20  11  18  1   
 21  13  29  1   
 22  15  19  ar  
 23  15  30  1   
 24  16  20  ar  
 25  16  31  1   
 26  17  21  1   
 27  17  32  1   
 28  17  33  1   
 29  18  22  1   
 30  18  34  1   
 31  18  35  1   
 32  19  23  ar  
 33  19  36  1   
 34  20  23  ar  
 35  20  37  1   
 36  21  24  1   
 37  21  38  1   
 38  21  39  1   
 39  22  24  1   
 40  22  40  1   
 41  22  41  1   
 42  23  25  1   
 43  24  42  1   
 44  24  43  1   
 45  25  26  1   
 46  26  44  1   
 47  26  45  1   
 48  26  46  1   
@<TRIPOS>SUBSTRUCTURE
  1 ****   1 GROUP 4 **** **** 0

# MOE 2024.06 (io_trps.svl 2023.06)
