@<TRIPOS>MOLECULE
NONAME
45 48 1 0 0 
SMALL
USER_CHARGES


@<TRIPOS>ATOM
  1 O       -1.2320     1.1840    -1.1560 O.3   1 <1>  -0.5600 
  2 C       -1.1420     1.7850     0.0940 C.3   1 <1>   0.2000 
  3 C        0.0330     1.0720    -1.7200 C.3   1 <1>   0.1200 
  4 C        0.1470     1.2250     0.6780 C.3   1 <1>  -0.1600 
  5 C       -2.3910     1.4780     0.9370 C.3   1 <1>   0.1200 
  6 C        1.0170     1.0160    -0.5530 C.3   1 <1>  -0.1600 
  7 O       -3.5590     2.0090     0.3300 O.3   1 <1>  -0.3630 
  8 C       -3.8610     3.3220     0.3490 C.ar  1 <1>   0.3920 
  9 N       -3.1190     4.1410     1.0610 N.ar  1 <1>  -0.3100 
 10 C       -4.9750     3.7370    -0.4070 C.ar  1 <1>   0.0000 
 11 N       -3.3970     5.4380     1.0880 N.ar  1 <1>  -0.3100 
 12 C       -5.2780     5.1040    -0.3630 C.ar  1 <1>   0.0000 
 13 C       -5.7850     2.8790    -1.1840 C.ar  1 <1>  -0.1500 
 14 C       -4.4180     5.9210     0.4100 C.ar  1 <1>   0.3100 
 15 C       -6.4060     5.5660    -1.0800 C.ar  1 <1>  -0.1500 
 16 C       -6.8630     3.3540    -1.8760 C.ar  1 <1>  -0.1500 
 17 C       -4.6440     7.3440     0.4740 C.ar  1 <1>   0.0000 
 18 C       -7.1800     4.7150    -1.8200 C.ar  1 <1>  -0.1500 
 19 C       -5.1560     7.9380     1.6260 C.ar  1 <1>  -0.1500 
 20 C       -4.3590     8.1710    -0.6120 C.ar  1 <1>  -0.1500 
 21 C       -5.3870     9.2990     1.6850 C.ar  1 <1>  -0.1500 
 22 C       -4.5870     9.5330    -0.5600 C.ar  1 <1>  -0.1500 
 23 C       -5.1070    10.1090     0.5960 C.ar  1 <1>   0.0820 
 24 O       -5.3620    11.4310     0.7330 O.3   1 <1>  -0.3630 
 25 C       -5.0790    12.3490    -0.2990 C.3   1 <1>   0.0400 
 26 H       -1.0400     2.8470    -0.0580 H     1 <1>   0.0800 
 27 H        0.2030     1.9390    -2.3360 H     1 <1>   0.0800 
 28 H        0.0610     0.1800    -2.3220 H     1 <1>   0.0800 
 29 H       -0.0470     0.2810     1.1560 H     1 <1>   0.0800 
 30 H        0.5890     1.9020     1.3870 H     1 <1>   0.0800 
 31 H       -2.2980     1.8860     1.9270 H     1 <1>   0.0800 
 32 H       -2.5210     0.4140     1.0150 H     1 <1>   0.0800 
 33 H        1.7430     1.8040    -0.6550 H     1 <1>   0.0800 
 34 H        1.5270     0.0700    -0.5210 H     1 <1>   0.0800 
 35 H       -5.5360     1.8320    -1.2240 H     1 <1>   0.1500 
 36 H       -6.6610     6.6100    -1.0410 H     1 <1>   0.1500 
 37 H       -7.4770     2.6950    -2.4660 H     1 <1>   0.1500 
 38 H       -8.0350     5.0760    -2.3650 H     1 <1>   0.1500 
 39 H       -5.3720     7.3220     2.4820 H     1 <1>   0.1500 
 40 H       -3.9520     7.7330    -1.5080 H     1 <1>   0.1500 
 41 H       -5.7830     9.7470     2.5790 H     1 <1>   0.1500 
 42 H       -4.3540    10.1300    -1.4200 H     1 <1>   0.1500 
 43 H       -5.3520    13.3310     0.0430 H     1 <1>   0.0800 
 44 H       -5.6600    12.0900    -1.1660 H     1 <1>   0.0800 
 45 H       -4.0260    12.3170    -0.5150 H     1 <1>   0.0800 
@<TRIPOS>BOND
  1   1   2  1   
  2   1   3  1   
  3   2   4  1   
  4   2   5  1   
  5   2  26  1   
  6   3   6  1   
  7   3  27  1   
  8   3  28  1   
  9   4   6  1   
 10   4  29  1   
 11   4  30  1   
 12   5   7  1   
 13   5  31  1   
 14   5  32  1   
 15   6  33  1   
 16   6  34  1   
 17   7   8  1   
 18   8   9  ar  
 19   8  10  ar  
 20   9  11  ar  
 21  10  12  ar  
 22  10  13  ar  
 23  11  14  ar  
 24  12  14  ar  
 25  12  15  ar  
 26  13  16  ar  
 27  13  35  1   
 28  14  17  1   
 29  15  18  ar  
 30  15  36  1   
 31  16  18  ar  
 32  16  37  1   
 33  17  19  ar  
 34  17  20  ar  
 35  18  38  1   
 36  19  21  ar  
 37  19  39  1   
 38  20  22  ar  
 39  20  40  1   
 40  21  23  ar  
 41  21  41  1   
 42  22  23  ar  
 43  22  42  1   
 44  23  24  1   
 45  24  25  1   
 46  25  43  1   
 47  25  44  1   
 48  25  45  1   
@<TRIPOS>SUBSTRUCTURE
  1 ****  14 GROUP 4 **** **** 0

# MOE 2024.06 (io_trps.svl 2023.06)
