@<TRIPOS>MOLECULE
NONAME
51 53 1 0 0 
SMALL
USER_CHARGES


@<TRIPOS>ATOM
  1 O       -1.1070     1.4600     0.7660 O.3   1 <1>  -0.3630 
  2 C       -1.1700     1.9440    -0.5040 C.ar  1 <1>   0.0820 
  3 C        0.1180     1.3820     1.4620 C.3   1 <1>   0.0400 
  4 C       -2.3520     1.7560    -1.2180 C.ar  1 <1>  -0.1440 
  5 C       -0.1070     2.6180    -1.1020 C.ar  1 <1>  -0.1500 
  6 C       -2.4580     2.2480    -2.5100 C.ar  1 <1>  -0.1500 
  7 C       -3.5380     1.0180    -0.6100 C.3   1 <1>   0.2540 
  8 C       -0.2240     3.1020    -2.3920 C.ar  1 <1>  -0.1500 
  9 C       -1.3990     2.9180    -3.0970 C.ar  1 <1>  -0.1500 
 10 N       -4.5980     1.9670    -0.2110 N.3   1 <1>  -0.8100 
 11 C       -5.7980     1.2540     0.2830 C.3   1 <1>   0.1100 
 12 C       -4.1040     2.9250     0.8140 C.3   1 <1>   0.1100 
 13 C       -6.9320     2.2290     0.6890 C.3   1 <1>   0.3430 
 14 C       -5.2110     3.8800     1.3200 C.3   1 <1>   0.3430 
 15 N       -6.4870     3.6590     0.5680 N.4   1 <1>  -0.9590 
 16 C       -7.5410     4.6500     0.8690 C.3   1 <1>   0.4810 
 17 C       -8.6960     4.3980    -0.0700 C.2   1 <1>  -0.2880 
 18 C       -9.9160     3.9790     0.3100 C.2   1 <1>  -0.1780 
 19 C      -11.0680     3.7030    -0.5220 C.ar  1 <1>   0.0280 
 20 C      -12.2630     3.2900     0.0640 C.ar  1 <1>  -0.1500 
 21 C      -11.0420     3.8270    -1.9110 C.ar  1 <1>  -0.1500 
 22 C      -13.3820     3.0100    -0.6990 C.ar  1 <1>  -0.1500 
 23 C      -12.1570     3.5480    -2.6790 C.ar  1 <1>  -0.1500 
 24 C      -13.3310     3.1380    -2.0750 C.ar  1 <1>  -0.1500 
 25 H       -0.0550     0.8730     2.3930 H     1 <1>   0.0800 
 26 H        0.4780     2.3780     1.6520 H     1 <1>   0.0800 
 27 H        0.8220     0.8260     0.8680 H     1 <1>   0.0800 
 28 H        0.8170     2.7810    -0.5800 H     1 <1>   0.1500 
 29 H       -3.3700     2.1100    -3.0630 H     1 <1>   0.1500 
 30 H       -3.2270     0.4290     0.2370 H     1 <1>   0.0800 
 31 H       -3.9280     0.3390    -1.3490 H     1 <1>   0.0800 
 32 H        0.6000     3.6220    -2.8500 H     1 <1>   0.1500 
 33 H       -1.4900     3.2950    -4.1010 H     1 <1>   0.1500 
 34 H       -6.1670     0.5960    -0.4870 H     1 <1>   0.0800 
 35 H       -5.5380     0.6430     1.1310 H     1 <1>   0.0800 
 36 H       -3.6860     2.3890     1.6490 H     1 <1>   0.0800 
 37 H       -3.3140     3.5230     0.3930 H     1 <1>   0.0800 
 38 H       -7.2360     2.0180     1.7000 H     1 <1>   0.0800 
 39 H       -7.7820     2.0550     0.0500 H     1 <1>   0.0800 
 40 H       -4.8750     4.8960     1.1930 H     1 <1>   0.0800 
 41 H       -5.3680     3.7120     2.3720 H     1 <1>   0.0800 
 42 H       -6.2080     3.7390    -0.4210 H     1 <1>   0.4500 
 43 H       -7.8670     4.5440     1.8910 H     1 <1>   0.0800 
 44 H       -7.1670     5.6520     0.7280 H     1 <1>   0.0800 
 45 H       -8.4370     4.5940    -1.0950 H     1 <1>   0.1500 
 46 H      -10.1130     3.8140     1.3560 H     1 <1>   0.1500 
 47 H      -12.3270     3.1850     1.1310 H     1 <1>   0.1500 
 48 H      -10.1480     4.1450    -2.4100 H     1 <1>   0.1500 
 49 H      -14.2940     2.6920    -0.2240 H     1 <1>   0.1500 
 50 H      -12.1150     3.6500    -3.7500 H     1 <1>   0.1500 
 51 H      -14.2000     2.9210    -2.6710 H     1 <1>   0.1500 
@<TRIPOS>BOND
  1   1   2  1   
  2   1   3  1   
  3   2   4  ar  
  4   2   5  ar  
  5   3  25  1   
  6   3  26  1   
  7   3  27  1   
  8   4   6  ar  
  9   4   7  1   
 10   5   8  ar  
 11   5  28  1   
 12   6   9  ar  
 13   6  29  1   
 14   7  10  1   
 15   7  30  1   
 16   7  31  1   
 17   8   9  ar  
 18   8  32  1   
 19   9  33  1   
 20  10  11  1   
 21  10  12  1   
 22  11  13  1   
 23  11  34  1   
 24  11  35  1   
 25  12  14  1   
 26  12  36  1   
 27  12  37  1   
 28  13  15  1   
 29  13  38  1   
 30  13  39  1   
 31  14  15  1   
 32  14  40  1   
 33  14  41  1   
 34  15  16  1   
 35  15  42  1   
 36  16  17  1   
 37  16  43  1   
 38  16  44  1   
 39  17  18  2   
 40  17  45  1   
 41  18  19  1   
 42  18  46  1   
 43  19  20  ar  
 44  19  21  ar  
 45  20  22  ar  
 46  20  47  1   
 47  21  23  ar  
 48  21  48  1   
 49  22  24  ar  
 50  22  49  1   
 51  23  24  ar  
 52  23  50  1   
 53  24  51  1   
@<TRIPOS>SUBSTRUCTURE
  1 ****  15 GROUP 4 **** **** 0

# MOE 2024.06 (io_trps.svl 2023.06)
