@<TRIPOS>MOLECULE
NONAME
42 43 1 0 0 
SMALL
USER_CHARGES


@<TRIPOS>ATOM
  1 BR       0.7950     3.8060     0.9390 Br    1 <1>  -0.1110 
  2 C        2.5480     3.1020     0.5520 C.ar  1 <1>   0.1110 
  3 C        3.3110     3.7160    -0.4230 C.ar  1 <1>  -0.1500 
  4 C        2.9930     2.0020     1.2560 C.ar  1 <1>  -0.1500 
  5 C        4.5730     3.2180    -0.7050 C.ar  1 <1>  -0.1440 
  6 C        4.2530     1.5090     0.9710 C.ar  1 <1>  -0.1500 
  7 C        5.0540     2.1100     0.0030 C.ar  1 <1>   0.1000 
  8 C        5.4140     3.8890    -1.7840 C.3   1 <1>  -0.0960 
  9 N        6.3210     1.6010    -0.2510 N.pl3 1 <1>  -0.8690 
 10 C        7.3190     1.7070     0.8310 C.3   1 <1>   0.3530 
 11 C        8.2540     2.8510     0.4870 C.ar  1 <1>  -0.1430 
 12 C        7.9880     4.1300     0.9490 C.ar  1 <1>  -0.1500 
 13 C        9.3710     2.6370    -0.3050 C.ar  1 <1>  -0.1500 
 14 C        8.8290     5.1820     0.6310 C.ar  1 <1>   0.0830 
 15 C       10.2270     3.6760    -0.6360 C.ar  1 <1>   0.0830 
 16 O        8.4970     6.4060     1.1120 O.3   1 <1>  -0.3630 
 17 C        9.9720     4.9640    -0.1440 C.ar  1 <1>   0.0830 
 18 O       11.2810     3.3350    -1.4290 O.3   1 <1>  -0.3630 
 19 C        8.0960     7.3660     0.1600 C.3   1 <1>   0.0400 
 20 O       10.8300     5.9920    -0.3890 O.3   1 <1>  -0.3630 
 21 C       11.7370     4.2230    -2.4260 C.3   1 <1>   0.0400 
 22 C       11.6690     6.3400     0.6890 C.3   1 <1>   0.0400 
 23 H        2.9150     4.5670    -0.9460 H     1 <1>   0.1500 
 24 H        2.3700     1.5440     2.0030 H     1 <1>   0.1500 
 25 H        4.6250     0.6470     1.4930 H     1 <1>   0.1500 
 26 H        4.8860     4.7130    -2.2270 H     1 <1>   0.0800 
 27 H        5.6470     3.1810    -2.5590 H     1 <1>   0.0800 
 28 H        6.3300     4.2610    -1.3620 H     1 <1>   0.0800 
 29 H        6.7320     2.0130    -1.0940 H     1 <1>   0.4000 
 30 H        7.8670     0.7830     0.9030 H     1 <1>   0.0800 
 31 H        6.8360     1.8910     1.7760 H     1 <1>   0.0800 
 32 H        7.1190     4.3220     1.5530 H     1 <1>   0.1500 
 33 H        9.5890     1.6530    -0.6820 H     1 <1>   0.1500 
 34 H        7.7700     8.2440     0.6860 H     1 <1>   0.0800 
 35 H        7.2870     6.9610    -0.4210 H     1 <1>   0.0800 
 36 H        8.9290     7.6080    -0.4740 H     1 <1>   0.0800 
 37 H       10.8920     4.7180    -2.8720 H     1 <1>   0.0800 
 38 H       12.4040     4.9370    -1.9780 H     1 <1>   0.0800 
 39 H       12.2630     3.6510    -3.1680 H     1 <1>   0.0800 
 40 H       12.2440     5.4760     0.9720 H     1 <1>   0.0800 
 41 H       12.3220     7.1310     0.3670 H     1 <1>   0.0800 
 42 H       11.0640     6.6740     1.5130 H     1 <1>   0.0800 
@<TRIPOS>BOND
  1   1   2  1   
  2   2   3  ar  
  3   2   4  ar  
  4   3   5  ar  
  5   3  23  1   
  6   4   6  ar  
  7   4  24  1   
  8   5   7  ar  
  9   5   8  1   
 10   6   7  ar  
 11   6  25  1   
 12   7   9  1   
 13   8  26  1   
 14   8  27  1   
 15   8  28  1   
 16   9  10  1   
 17   9  29  1   
 18  10  11  1   
 19  10  30  1   
 20  10  31  1   
 21  11  12  ar  
 22  11  13  ar  
 23  12  14  ar  
 24  12  32  1   
 25  13  15  ar  
 26  13  33  1   
 27  14  16  1   
 28  14  17  ar  
 29  15  17  ar  
 30  15  18  1   
 31  16  19  1   
 32  17  20  1   
 33  18  21  1   
 34  19  34  1   
 35  19  35  1   
 36  19  36  1   
 37  20  22  1   
 38  21  37  1   
 39  21  38  1   
 40  21  39  1   
 41  22  40  1   
 42  22  41  1   
 43  22  42  1   
@<TRIPOS>SUBSTRUCTURE
  1 ****  12 GROUP 4 **** **** 0

# MOE 2024.06 (io_trps.svl 2023.06)
