@<TRIPOS>MOLECULE
NONAME
48 49 1 0 0 
SMALL
USER_CHARGES


@<TRIPOS>ATOM
  1 O       -0.5680    -0.6760     0.8990 O.3   1 <1>  -0.3630 
  2 C       -1.7370    -1.2150     0.4720 C.ar  1 <1>   0.0830 
  3 C       -0.1540    -0.7900     2.2420 C.3   1 <1>   0.0400 
  4 C       -2.0320    -1.0760    -0.8740 C.ar  1 <1>  -0.1500 
  5 C       -2.6310    -1.8860     1.3000 C.ar  1 <1>  -0.1500 
  6 C       -3.2050    -1.5920    -1.3940 C.ar  1 <1>  -0.1500 
  7 C       -3.8050    -2.4010     0.7790 C.ar  1 <1>  -0.1500 
  8 C       -4.1030    -2.2530    -0.5680 C.ar  1 <1>  -0.1430 
  9 C       -5.4020    -2.8040    -1.1300 C.3   1 <1>  -0.0170 
 10 C       -6.5850    -1.8960    -0.7570 C.3   1 <1>   0.4230 
 11 N       -7.8530    -2.5460    -1.1650 N.4   1 <1>  -0.9060 
 12 C       -6.4980    -0.5280    -1.4380 C.3   1 <1>  -0.2400 
 13 C       -9.0510    -1.9590    -0.4970 C.3   1 <1>   0.3430 
 14 C      -10.3240    -2.6830    -0.9300 C.3   1 <1>  -0.0170 
 15 C      -11.4990    -2.0500    -0.2110 C.ar  1 <1>  -0.1430 
 16 C      -11.8840    -2.5140     1.0380 C.ar  1 <1>  -0.1500 
 17 C      -12.1890    -0.9940    -0.7890 C.ar  1 <1>  -0.1500 
 18 C      -12.9420    -1.9220     1.7030 C.ar  1 <1>  -0.1500 
 19 C      -13.2480    -0.4010    -0.1230 C.ar  1 <1>  -0.1500 
 20 C      -13.6280    -0.8630     1.1330 C.ar  1 <1>   0.0830 
 21 O      -14.6490    -0.3390     1.8550 O.3   1 <1>  -0.3620 
 22 C      -15.4370     0.7170     1.3530 C.3   1 <1>   0.0400 
 23 H        0.8000    -0.3040     2.3380 H     1 <1>   0.0800 
 24 H       -0.0590    -1.8320     2.4910 H     1 <1>   0.0800 
 25 H       -0.8760    -0.3050     2.8730 H     1 <1>   0.0800 
 26 H       -1.3320    -0.5610    -1.5080 H     1 <1>   0.1500 
 27 H       -2.4270    -2.0150     2.3460 H     1 <1>   0.1500 
 28 H       -3.4030    -1.4700    -2.4450 H     1 <1>   0.1500 
 29 H       -4.4770    -2.9210     1.4390 H     1 <1>   0.1500 
 30 H       -5.5490    -3.7870    -0.7180 H     1 <1>   0.0800 
 31 H       -5.3230    -2.8960    -2.1990 H     1 <1>   0.0800 
 32 H       -6.5780    -1.7600     0.3130 H     1 <1>   0.0800 
 33 H       -7.8020    -3.5460    -0.9410 H     1 <1>   0.4500 
 34 H       -7.9470    -2.4650    -2.1840 H     1 <1>   0.4500 
 35 H       -6.4750    -0.6250    -2.5090 H     1 <1>   0.0800 
 36 H       -5.5930    -0.0300    -1.1340 H     1 <1>   0.0800 
 37 H       -7.3140     0.1090    -1.1500 H     1 <1>   0.0800 
 38 H       -9.1430    -0.9140    -0.7470 H     1 <1>   0.0800 
 39 H       -8.9510    -2.0360     0.5740 H     1 <1>   0.0800 
 40 H      -10.2720    -3.7260    -0.6740 H     1 <1>   0.0800 
 41 H      -10.4660    -2.5930    -1.9930 H     1 <1>   0.0800 
 42 H      -11.3750    -3.3380     1.5070 H     1 <1>   0.1500 
 43 H      -11.9160    -0.6220    -1.7610 H     1 <1>   0.1500 
 44 H      -13.2470    -2.2760     2.6720 H     1 <1>   0.1500 
 45 H      -13.7640     0.4140    -0.5940 H     1 <1>   0.1500 
 46 H      -16.1860     0.9530     2.0880 H     1 <1>   0.0800 
 47 H      -15.9090     0.3980     0.4410 H     1 <1>   0.0800 
 48 H      -14.8090     1.5730     1.1850 H     1 <1>   0.0800 
@<TRIPOS>BOND
  1   1   2  1   
  2   1   3  1   
  3   2   4  ar  
  4   2   5  ar  
  5   3  23  1   
  6   3  24  1   
  7   3  25  1   
  8   4   6  ar  
  9   4  26  1   
 10   5   7  ar  
 11   5  27  1   
 12   6   8  ar  
 13   6  28  1   
 14   7   8  ar  
 15   7  29  1   
 16   8   9  1   
 17   9  10  1   
 18   9  30  1   
 19   9  31  1   
 20  10  11  1   
 21  10  12  1   
 22  10  32  1   
 23  11  13  1   
 24  11  33  1   
 25  11  34  1   
 26  12  35  1   
 27  12  36  1   
 28  12  37  1   
 29  13  14  1   
 30  13  38  1   
 31  13  39  1   
 32  14  15  1   
 33  14  40  1   
 34  14  41  1   
 35  15  16  ar  
 36  15  17  ar  
 37  16  18  ar  
 38  16  42  1   
 39  17  19  ar  
 40  17  43  1   
 41  18  20  ar  
 42  18  44  1   
 43  19  20  ar  
 44  19  45  1   
 45  20  21  1   
 46  21  22  1   
 47  22  46  1   
 48  22  47  1   
 49  22  48  1   
@<TRIPOS>SUBSTRUCTURE
  1 ****  10 GROUP 4 **** **** 0

# MOE 2024.06 (io_trps.svl 2023.06)
