@<TRIPOS>MOLECULE
NONAME
29 29 1 0 0 
SMALL
USER_CHARGES


@<TRIPOS>ATOM
  1 S       -0.1210    -0.0230     0.7650 S.o2  1 <1>   1.3330 
  2 O        0.0210    -1.4550     0.6580 O.2   1 <1>  -0.6500 
  3 O       -0.7430     0.5730     1.9210 O.2   1 <1>  -0.6500 
  4 N        1.4940     0.5870     0.6250 N.am  1 <1>  -0.5780 
  5 C       -0.8770     0.5910    -0.7240 C.3   1 <1>  -0.1350 
  6 N        1.8980     1.9080     0.4830 N.2   1 <1>  -0.4300 
  7 C        3.1130     2.2800     0.5620 C.2   1 <1>   0.3280 
  8 C        3.5330     3.7470     0.3970 C.3   1 <1>  -0.0190 
  9 C        4.3080     1.3610     0.8250 C.3   1 <1>  -0.0990 
 10 C        4.5890     3.8750    -0.7160 C.3   1 <1>  -0.1600 
 11 C        2.3610     4.7030     0.1120 C.3   1 <1>  -0.2400 
 12 C        5.3590     1.4960    -0.2860 C.3   1 <1>  -0.1600 
 13 C        5.7940     2.9570    -0.4630 C.3   1 <1>  -0.1600 
 14 H        2.1700    -0.1570     0.7880 H     1 <1>   0.4200 
 15 H       -0.3420     0.2380    -1.5840 H     1 <1>   0.0800 
 16 H       -0.8620     1.6630    -0.7250 H     1 <1>   0.0800 
 17 H       -1.8940     0.2580    -0.7860 H     1 <1>   0.0800 
 18 H        3.9830     4.0570     1.3250 H     1 <1>   0.0800 
 19 H        4.7470     1.6370     1.7670 H     1 <1>   0.0800 
 20 H        4.0130     0.3320     0.8990 H     1 <1>   0.0800 
 21 H        4.1410     3.6170    -1.6610 H     1 <1>   0.0800 
 22 H        4.9290     4.8950    -0.7800 H     1 <1>   0.0800 
 23 H        1.8730     4.4370    -0.8100 H     1 <1>   0.0800 
 24 H        2.7090     5.7180     0.0390 H     1 <1>   0.0800 
 25 H        1.6380     4.6500     0.9070 H     1 <1>   0.0800 
 26 H        6.2160     0.8900    -0.0510 H     1 <1>   0.0800 
 27 H        4.9420     1.1350    -1.2120 H     1 <1>   0.0800 
 28 H        6.4790     3.0290    -1.2910 H     1 <1>   0.0800 
 29 H        6.3140     3.2850     0.4210 H     1 <1>   0.0800 
@<TRIPOS>BOND
  1   1   2  2   
  2   1   3  2   
  3   1   4  am  
  4   1   5  1   
  5   4   6  1   
  6   4  14  1   
  7   5  15  1   
  8   5  16  1   
  9   5  17  1   
 10   6   7  2   
 11   7   8  1   
 12   7   9  1   
 13   8  10  1   
 14   8  11  1   
 15   8  18  1   
 16   9  12  1   
 17   9  19  1   
 18   9  20  1   
 19  10  13  1   
 20  10  21  1   
 21  10  22  1   
 22  11  23  1   
 23  11  24  1   
 24  11  25  1   
 25  12  13  1   
 26  12  26  1   
 27  12  27  1   
 28  13  28  1   
 29  13  29  1   
@<TRIPOS>SUBSTRUCTURE
  1 ****   6 GROUP 4 **** **** 0

# MOE 2024.06 (io_trps.svl 2023.06)
