@<TRIPOS>MOLECULE
NONAME
36 37 1 0 0 
SMALL
USER_CHARGES


@<TRIPOS>ATOM
  1 S        0.1560     0.2520    -0.6130 S.3   1 <1>  -0.0800 
  2 C        0.8770     0.2190     0.9590 C.2   1 <1>   0.4340 
  3 C       -1.3350     0.6010     0.2050 C.2   1 <1>   0.4620 
  4 S        2.6360    -0.1180     1.0820 S.3   1 <1>  -0.2860 
  5 N        0.0710     0.4430     1.9140 N.2   1 <1>  -0.3380 
  6 N       -1.2110     0.6650     1.4820 N.2   1 <1>  -0.3380 
  7 N       -2.4640     0.7710    -0.5370 N.pl3 1 <1>  -0.8840 
  8 C        3.2280    -0.3560    -0.6670 C.3   1 <1>   0.1310 
  9 C        4.7200    -0.6520    -0.7330 C.2   1 <1>   0.5690 
 10 O        5.2070    -0.7900    -1.8280 O.2   1 <1>  -0.5700 
 11 N        5.4450    -0.7500     0.4160 N.am  1 <1>  -0.7300 
 12 C        6.8900    -1.0310     0.5680 C.3   1 <1>   0.2200 
 13 C        7.6950     0.1560     0.0240 C.3   1 <1>  -0.1600 
 14 C        7.2270    -2.3950    -0.0530 C.3   1 <1>  -0.1600 
 15 C        9.2220     0.0050     0.1380 C.3   1 <1>  -0.1600 
 16 C        8.5770    -2.9440     0.4370 C.3   1 <1>  -0.1600 
 17 C        9.7820    -1.0160    -0.8620 C.3   1 <1>  -0.1600 
 18 C        9.7990    -2.4710    -0.3670 C.3   1 <1>  -0.1600 
 19 H       -3.3520     0.9780    -0.0750 H     1 <1>   0.4000 
 20 H       -2.4740     0.7040    -1.5560 H     1 <1>   0.4000 
 21 H        3.0150     0.5470    -1.2070 H     1 <1>   0.0800 
 22 H        2.6780    -1.1780    -1.0860 H     1 <1>   0.0800 
 23 H        4.9490    -0.6050     1.2990 H     1 <1>   0.3700 
 24 H        7.0850    -1.0980     1.6250 H     1 <1>   0.0800 
 25 H        7.4050     1.0330     0.5750 H     1 <1>   0.0800 
 26 H        7.4390     0.3230    -1.0070 H     1 <1>   0.0800 
 27 H        7.2140    -2.3390    -1.1270 H     1 <1>   0.0800 
 28 H        6.4650    -3.0920     0.2480 H     1 <1>   0.0800 
 29 H        9.5120    -0.2450     1.1440 H     1 <1>   0.0800 
 30 H        9.6580     0.9620    -0.0910 H     1 <1>   0.0800 
 31 H        8.5490    -4.0190     0.3840 H     1 <1>   0.0800 
 32 H        8.7120    -2.6910     1.4740 H     1 <1>   0.0800 
 33 H       10.7950    -0.7410    -1.1020 H     1 <1>   0.0800 
 34 H        9.2240    -0.9590    -1.7820 H     1 <1>   0.0800 
 35 H        9.9090    -3.1070    -1.2280 H     1 <1>   0.0800 
 36 H       10.6730    -2.6180     0.2430 H     1 <1>   0.0800 
@<TRIPOS>BOND
  1   1   2  1   
  2   1   3  1   
  3   2   4  1   
  4   2   5  2   
  5   3   6  2   
  6   3   7  1   
  7   4   8  1   
  8   5   6  1   
  9   7  19  1   
 10   7  20  1   
 11   8   9  1   
 12   8  21  1   
 13   8  22  1   
 14   9  10  2   
 15   9  11  am  
 16  11  12  1   
 17  11  23  1   
 18  12  13  1   
 19  12  14  1   
 20  12  24  1   
 21  13  15  1   
 22  13  25  1   
 23  13  26  1   
 24  14  16  1   
 25  14  27  1   
 26  14  28  1   
 27  15  17  1   
 28  15  29  1   
 29  15  30  1   
 30  16  18  1   
 31  16  31  1   
 32  16  32  1   
 33  17  18  1   
 34  17  33  1   
 35  17  34  1   
 36  18  35  1   
 37  18  36  1   
@<TRIPOS>SUBSTRUCTURE
  1 ****   9 GROUP 4 **** **** 0

# MOE 2024.06 (io_trps.svl 2023.06)
