@<TRIPOS>MOLECULE
NONAME
42 44 1 0 0 
SMALL
USER_CHARGES


@<TRIPOS>ATOM
  1 S      -15.0510     1.8720     0.5010 S.3   1 <1>  -0.0800 
  2 C      -13.2920     1.8060     0.3950 C.ar  1 <1>   0.2970 
  3 C      -15.0690     3.5730     0.0250 C.2   1 <1>  -0.1400 
  4 N      -12.5910     0.7220     0.6500 N.ar  1 <1>  -0.5670 
  5 C      -12.7910     3.0270     0.0180 C.ar  1 <1>   0.0000 
  6 C      -13.8170     4.0170    -0.1880 C.2   1 <1>  -0.1500 
  7 C      -16.4250     4.2410    -0.0670 C.3   1 <1>  -0.0600 
  8 C      -11.2940     0.9180     0.5040 C.ar  1 <1>   0.4700 
  9 C      -11.4030     3.0850    -0.0950 C.ar  1 <1>   0.4100 
 10 N      -10.6530     2.0250     0.1500 N.ar  1 <1>  -0.6200 
 11 N      -10.7710     4.2480    -0.4580 N.pl3 1 <1>  -0.8690 
 12 C       -9.3110     4.4000    -0.6810 C.3   1 <1>   0.2090 
 13 C       -8.6260     4.7990     0.6260 C.3   1 <1>  -0.0170 
 14 C       -7.1380     5.0140     0.3990 C.ar  1 <1>  -0.1430 
 15 C       -6.2730     3.9310     0.3860 C.ar  1 <1>  -0.1500 
 16 C       -6.6360     6.2890     0.1970 C.ar  1 <1>  -0.1500 
 17 C       -4.9090     4.1110     0.1720 C.ar  1 <1>   0.0830 
 18 C       -5.2820     6.4830    -0.0160 C.ar  1 <1>  -0.1500 
 19 O       -4.0270     3.0690     0.1510 O.3   1 <1>  -0.3630 
 20 C       -4.4080     5.4000    -0.0310 C.ar  1 <1>   0.0830 
 21 C       -4.4430     1.7400     0.3680 C.3   1 <1>   0.0400 
 22 O       -3.0660     5.5450    -0.2380 O.3   1 <1>  -0.3630 
 23 C       -2.4760     6.8100    -0.4290 C.3   1 <1>   0.0400 
 24 H      -13.5570     5.0150    -0.4870 H     1 <1>   0.1500 
 25 H      -16.9170     4.2060     0.8880 H     1 <1>   0.0800 
 26 H      -17.0350     3.7340    -0.7920 H     1 <1>   0.0800 
 27 H      -16.3150     5.2690    -0.3640 H     1 <1>   0.0800 
 28 H      -10.6700     0.0620     0.6980 H     1 <1>   0.1500 
 29 H      -11.3350     5.0830    -0.6190 H     1 <1>   0.4000 
 30 H       -9.1400     5.1550    -1.4290 H     1 <1>   0.0800 
 31 H       -8.8950     3.4740    -1.0410 H     1 <1>   0.0800 
 32 H       -8.7700     4.0190     1.3530 H     1 <1>   0.0800 
 33 H       -9.0720     5.7000     1.0060 H     1 <1>   0.0800 
 34 H       -6.6820     2.9520     0.5440 H     1 <1>   0.1500 
 35 H       -7.2960     7.1390     0.2050 H     1 <1>   0.1500 
 36 H       -4.9310     7.4850    -0.1680 H     1 <1>   0.1500 
 37 H       -3.5750     1.1080     0.3110 H     1 <1>   0.0800 
 38 H       -5.1460     1.4650    -0.3990 H     1 <1>   0.0800 
 39 H       -4.8850     1.6680     1.3450 H     1 <1>   0.0800 
 40 H       -1.4190     6.6660    -0.5600 H     1 <1>   0.0800 
 41 H       -2.6570     7.4140     0.4420 H     1 <1>   0.0800 
 42 H       -2.8950     7.2610    -1.3100 H     1 <1>   0.0800 
@<TRIPOS>BOND
  1   1   2  1   
  2   1   3  1   
  3   2   4  ar  
  4   2   5  ar  
  5   3   6  2   
  6   3   7  1   
  7   4   8  ar  
  8   5   6  1   
  9   5   9  ar  
 10   6  24  1   
 11   7  25  1   
 12   7  26  1   
 13   7  27  1   
 14   8  10  ar  
 15   8  28  1   
 16   9  10  ar  
 17   9  11  1   
 18  11  12  1   
 19  11  29  1   
 20  12  13  1   
 21  12  30  1   
 22  12  31  1   
 23  13  14  1   
 24  13  32  1   
 25  13  33  1   
 26  14  15  ar  
 27  14  16  ar  
 28  15  17  ar  
 29  15  34  1   
 30  16  18  ar  
 31  16  35  1   
 32  17  19  1   
 33  17  20  ar  
 34  18  20  ar  
 35  18  36  1   
 36  19  21  1   
 37  20  22  1   
 38  21  37  1   
 39  21  38  1   
 40  21  39  1   
 41  22  23  1   
 42  23  40  1   
 43  23  41  1   
 44  23  42  1   
@<TRIPOS>SUBSTRUCTURE
  1 ****  12 GROUP 4 **** **** 0

# MOE 2024.06 (io_trps.svl 2023.06)
