@<TRIPOS>MOLECULE
NONAME
41 42 1 0 0 
SMALL
USER_CHARGES


@<TRIPOS>ATOM
  1 O       -0.0830    -0.7770     1.1210 O.2   1 <1>  -0.5700 
  2 C       -0.1550    -1.5080     0.1600 C.2   1 <1>   0.5690 
  3 N       -1.3210    -1.7380    -0.5200 N.am  1 <1>  -0.5470 
  4 C        1.1450    -2.1940    -0.2940 C.3   1 <1>   0.4040 
  5 C       -2.5890    -1.2190    -0.2190 C.ar  1 <1>   0.1170 
  6 N        2.3890    -1.5550     0.2820 N.4   1 <1>  -0.9590 
  7 C       -3.5900    -2.0820     0.2320 C.ar  1 <1>  -0.1430 
  8 C       -2.8790     0.1380    -0.3890 C.ar  1 <1>  -0.1430 
  9 C        2.6560    -0.1950    -0.2420 C.3   1 <1>   0.3430 
 10 C        3.6400    -2.3300     0.1310 C.3   1 <1>   0.3430 
 11 C       -4.8530    -1.5880     0.5110 C.ar  1 <1>  -0.1500 
 12 C       -3.3280    -3.5690     0.4410 C.3   1 <1>  -0.0970 
 13 C       -4.1480     0.6100    -0.0990 C.ar  1 <1>  -0.1500 
 14 C       -1.8410     1.1340    -0.8910 C.3   1 <1>  -0.0970 
 15 C        4.1060     0.0700     0.1400 C.3   1 <1>  -0.1600 
 16 C        4.7460    -1.3060     0.3550 C.3   1 <1>  -0.1600 
 17 C       -5.1400    -0.2450     0.3480 C.ar  1 <1>  -0.1430 
 18 C       -6.5260     0.2880     0.6630 C.3   1 <1>  -0.0970 
 19 H       -1.3440    -2.4470    -1.2520 H     1 <1>   0.3700 
 20 H        1.1920    -2.1740    -1.3680 H     1 <1>   0.0800 
 21 H        1.0970    -3.2210     0.0230 H     1 <1>   0.0800 
 22 H        2.1960    -1.4190     1.2900 H     1 <1>   0.4500 
 23 H        1.9870     0.5350     0.1900 H     1 <1>   0.0800 
 24 H        2.5580    -0.1860    -1.3150 H     1 <1>   0.0800 
 25 H        3.7120    -2.7210    -0.8720 H     1 <1>   0.0800 
 26 H        3.6980    -3.1410     0.8400 H     1 <1>   0.0800 
 27 H       -5.6250    -2.2490     0.8630 H     1 <1>   0.1500 
 28 H       -2.5100    -3.7060     1.1240 H     1 <1>   0.0800 
 29 H       -3.0940    -4.0400    -0.4960 H     1 <1>   0.0800 
 30 H       -4.1920    -4.0570     0.8550 H     1 <1>   0.0800 
 31 H       -4.3740     1.6540    -0.2200 H     1 <1>   0.1500 
 32 H       -1.3040     0.7280    -1.7280 H     1 <1>   0.0800 
 33 H       -1.1510     1.3660    -0.1010 H     1 <1>   0.0800 
 34 H       -2.3110     2.0470    -1.2090 H     1 <1>   0.0800 
 35 H        4.1390     0.6450     1.0500 H     1 <1>   0.0800 
 36 H        4.6040     0.6290    -0.6340 H     1 <1>   0.0800 
 37 H        5.5590    -1.4790    -0.3280 H     1 <1>   0.0800 
 38 H        5.1230    -1.3910     1.3600 H     1 <1>   0.0800 
 39 H       -7.2680    -0.4720     0.4990 H     1 <1>   0.0800 
 40 H       -6.7580     1.1290     0.0340 H     1 <1>   0.0800 
 41 H       -6.5700     0.6010     1.6910 H     1 <1>   0.0800 
@<TRIPOS>BOND
  1   1   2  2   
  2   2   3  am  
  3   2   4  1   
  4   3   5  1   
  5   3  19  1   
  6   4   6  1   
  7   4  20  1   
  8   4  21  1   
  9   5   7  ar  
 10   5   8  ar  
 11   6   9  1   
 12   6  10  1   
 13   6  22  1   
 14   7  11  ar  
 15   7  12  1   
 16   8  13  ar  
 17   8  14  1   
 18   9  15  1   
 19   9  23  1   
 20   9  24  1   
 21  10  16  1   
 22  10  25  1   
 23  10  26  1   
 24  11  17  ar  
 25  11  27  1   
 26  12  28  1   
 27  12  29  1   
 28  12  30  1   
 29  13  17  ar  
 30  13  31  1   
 31  14  32  1   
 32  14  33  1   
 33  14  34  1   
 34  15  16  1   
 35  15  35  1   
 36  15  36  1   
 37  16  37  1   
 38  16  38  1   
 39  17  18  1   
 40  18  39  1   
 41  18  40  1   
 42  18  41  1   
@<TRIPOS>SUBSTRUCTURE
  1 ****   2 GROUP 4 **** **** 0

# MOE 2024.06 (io_trps.svl 2023.06)
