@<TRIPOS>MOLECULE
NONAME
31 32 1 0 0 
SMALL
USER_CHARGES


@<TRIPOS>ATOM
  1 F       -0.0940     0.6440     1.0190 F     1 <1>  -0.3400 
  2 C        0.7630     1.6560     0.9790 C.3   1 <1>   0.9600 
  3 F        1.5520     1.4940     2.0330 F     1 <1>  -0.3400 
  4 O        1.5710     1.4680    -0.1380 O.3   1 <1>  -0.5600 
  5 C        0.0880     3.0470     0.9600 C.3   1 <1>   0.6800 
  6 C        1.5440     2.6490    -0.8910 C.3   1 <1>   0.6200 
  7 F       -0.0170     3.6320     2.1630 F     1 <1>  -0.3400 
  8 F       -1.1700     3.0000     0.4990 F     1 <1>  -0.3400 
  9 C        1.0110     3.7810     0.0040 C.3   1 <1>   0.6800 
 10 F        0.5980     2.3850    -1.7990 F     1 <1>  -0.3400 
 11 C        2.8740     2.9810    -1.6310 C.3   1 <1>   0.7410 
 12 F        1.9890     4.4160     0.6520 F     1 <1>  -0.3400 
 13 F        0.4020     4.7530    -0.6830 F     1 <1>  -0.3400 
 14 F        2.7390     4.1210    -2.3190 F     1 <1>  -0.3400 
 15 F        3.1070     2.0790    -2.5900 F     1 <1>  -0.3400 
 16 C        4.1320     3.0840    -0.7450 C.2   1 <1>   0.5690 
 17 O        4.1080     2.6450     0.3900 O.2   1 <1>  -0.5700 
 18 N        5.2600     3.6900    -1.2280 N.am  1 <1>  -0.4300 
 19 N        6.5760     3.6720    -0.5660 N.am  1 <1>  -0.4300 
 20 C        7.5880     2.7890    -0.8360 C.2   1 <1>   0.7150 
 21 O        7.4850     2.0800    -1.8260 O.2   1 <1>  -0.5700 
 22 C        8.7450     2.7360     0.0320 C.2   1 <1>   0.0550 
 23 O        9.8760     2.1560    -0.3630 O.3   1 <1>  -0.2800 
 24 C        8.9320     3.2130     1.2970 C.2   1 <1>  -0.1500 
 25 C       10.7640     2.2490     0.6000 C.2   1 <1>  -0.0100 
 26 C       10.2420     2.8960     1.6620 C.2   1 <1>  -0.1500 
 27 H        5.2630     4.0350    -2.1990 H     1 <1>   0.3700 
 28 H        6.6970     4.3110     0.2240 H     1 <1>   0.3700 
 29 H        8.2320     3.7280     1.9300 H     1 <1>   0.1500 
 30 H       11.7430     1.8270     0.4480 H     1 <1>   0.1500 
 31 H       10.7110     3.1290     2.6010 H     1 <1>   0.1500 
@<TRIPOS>BOND
  1   1   2  1   
  2   2   3  1   
  3   2   4  1   
  4   2   5  1   
  5   4   6  1   
  6   5   7  1   
  7   5   8  1   
  8   5   9  1   
  9   6   9  1   
 10   6  10  1   
 11   6  11  1   
 12   9  12  1   
 13   9  13  1   
 14  11  14  1   
 15  11  15  1   
 16  11  16  1   
 17  16  17  2   
 18  16  18  am  
 19  18  19  1   
 20  18  27  1   
 21  19  20  am  
 22  19  28  1   
 23  20  21  2   
 24  20  22  1   
 25  22  23  1   
 26  22  24  2   
 27  23  25  1   
 28  24  26  1   
 29  24  29  1   
 30  25  26  2   
 31  25  30  1   
 32  26  31  1   
@<TRIPOS>SUBSTRUCTURE
  1 ****  17 GROUP 4 **** **** 0

# MOE 2024.06 (io_trps.svl 2023.06)
