@<TRIPOS>MOLECULE
NONAME
38 38 1 0 0 
SMALL
USER_CHARGES


@<TRIPOS>ATOM
  1 S        0.1890    -0.6100    -1.0410 S.3   1 <1>  -0.4600 
  2 C        0.4050    -0.8230     0.7450 C.3   1 <1>   0.1500 
  3 C        0.2480     1.1850    -1.2910 C.3   1 <1>   0.0700 
  4 C        1.6250    -1.7290     0.9800 C.3   1 <1>  -0.1600 
  5 C       -0.8850    -1.4510     1.2670 C.3   1 <1>  -0.2400 
  6 C       -1.0620     1.7850    -0.7850 C.3   1 <1>  -0.2400 
  7 C        2.9750    -1.1530     0.4910 C.3   1 <1>  -0.0800 
  8 C        4.0970    -2.2190     0.6090 C.3   1 <1>   0.0420 
  9 C        3.3710     0.1380     1.2360 C.3   1 <1>  -0.0990 
 10 C        5.4800    -1.6120     0.7420 C.2   1 <1>   0.4480 
 11 C        4.1130    -3.1390    -0.5900 C.2   1 <1>   0.6590 
 12 C        4.6700     0.7150     0.6920 C.2   1 <1>   0.4480 
 13 O        6.3430    -2.1680     1.3510 O.2   1 <1>  -0.5700 
 14 C        5.6980    -0.2460     0.1380 C.3   1 <1>  -0.0380 
 15 O        4.5670    -2.7840    -1.6480 O.2   1 <1>  -0.5700 
 16 O        3.5710    -4.3380    -0.4170 O.3   1 <1>  -0.4300 
 17 O        4.8600     1.8920     0.6910 O.2   1 <1>  -0.5700 
 18 C        3.4910    -5.2740    -1.4720 C.3   1 <1>   0.0400 
 19 H        0.5420     0.1510     1.1790 H     1 <1>   0.0800 
 20 H        0.3680     1.3490    -2.3480 H     1 <1>   0.0800 
 21 H        1.1020     1.5670    -0.7610 H     1 <1>   0.0800 
 22 H        1.4380    -2.6650     0.4800 H     1 <1>   0.0800 
 23 H        1.6940    -1.9390     2.0330 H     1 <1>   0.0800 
 24 H       -1.0560    -2.4030     0.7960 H     1 <1>   0.0800 
 25 H       -1.7200    -0.8080     1.0550 H     1 <1>   0.0800 
 26 H       -0.8260    -1.5950     2.3310 H     1 <1>   0.0800 
 27 H       -1.8950     1.3370    -1.2980 H     1 <1>   0.0800 
 28 H       -1.0740     2.8440    -0.9740 H     1 <1>   0.0800 
 29 H       -1.1720     1.6250     0.2710 H     1 <1>   0.0800 
 30 H        2.8790    -0.8970    -0.5530 H     1 <1>   0.0800 
 31 H        3.9360    -2.8160     1.4890 H     1 <1>   0.0800 
 32 H        3.4930    -0.0590     2.2870 H     1 <1>   0.0800 
 33 H        2.6110     0.8890     1.1260 H     1 <1>   0.0800 
 34 H        5.6010    -0.3010    -0.9300 H     1 <1>   0.0800 
 35 H        6.6850     0.1070     0.3760 H     1 <1>   0.0800 
 36 H        3.0190    -6.1670    -1.1020 H     1 <1>   0.0800 
 37 H        4.4870    -5.4960    -1.8170 H     1 <1>   0.0800 
 38 H        2.9070    -4.8500    -2.2710 H     1 <1>   0.0800 
@<TRIPOS>BOND
  1   1   2  1   
  2   1   3  1   
  3   2   4  1   
  4   2   5  1   
  5   2  19  1   
  6   3   6  1   
  7   3  20  1   
  8   3  21  1   
  9   4   7  1   
 10   4  22  1   
 11   4  23  1   
 12   5  24  1   
 13   5  25  1   
 14   5  26  1   
 15   6  27  1   
 16   6  28  1   
 17   6  29  1   
 18   7   8  1   
 19   7   9  1   
 20   7  30  1   
 21   8  10  1   
 22   8  11  1   
 23   8  31  1   
 24   9  12  1   
 25   9  32  1   
 26   9  33  1   
 27  10  13  2   
 28  10  14  1   
 29  11  15  2   
 30  11  16  1   
 31  12  14  1   
 32  12  17  2   
 33  14  34  1   
 34  14  35  1   
 35  16  18  1   
 36  18  36  1   
 37  18  37  1   
 38  18  38  1   
@<TRIPOS>SUBSTRUCTURE
  1 ****   7 GROUP 4 **** **** 0

# MOE 2024.06 (io_trps.svl 2023.06)
