@<TRIPOS>MOLECULE
NONAME
50 52 1 0 0 
SMALL
USER_CHARGES


@<TRIPOS>ATOM
  1 O        0.6420    -0.0250    -0.7730 O.3   1 <1>  -0.3630 
  2 C       -0.0460    -1.0110    -0.1240 C.ar  1 <1>   0.0830 
  3 C       -0.0250     0.8880    -1.6230 C.3   1 <1>   0.0400 
  4 C       -1.3460    -0.8710     0.3910 C.ar  1 <1>   0.0830 
  5 C        0.6310    -2.2160     0.0290 C.ar  1 <1>  -0.1440 
  6 O       -1.9790     0.3340     0.3040 O.3   1 <1>  -0.3620 
  7 C       -1.9500    -1.9650     1.0040 C.ar  1 <1>  -0.1500 
  8 C        0.0120    -3.2930     0.6440 C.ar  1 <1>  -0.1500 
  9 C        2.0520    -2.3510    -0.4790 C.3   1 <1>   0.4860 
 10 C       -3.2750     0.5460     0.8240 C.3   1 <1>   0.0400 
 11 C       -1.2760    -3.1670     1.1260 C.ar  1 <1>  -0.1500 
 12 N        2.9870    -2.2020     0.6720 N.4   1 <1>  -0.9590 
 13 C        2.9780    -0.7890     1.2040 C.3   1 <1>   0.3430 
 14 C        4.3870    -2.6240     0.3230 C.3   1 <1>   0.3430 
 15 C        3.7230     0.2010     0.2850 C.3   1 <1>   0.1100 
 16 C        5.1020    -1.6110    -0.5990 C.3   1 <1>   0.1100 
 17 N        5.1000    -0.2590    -0.0130 N.3   1 <1>  -0.8100 
 18 C        5.8320     0.7010    -0.8630 C.3   1 <1>   0.2530 
 19 C        5.9620     2.0460    -0.1650 C.ar  1 <1>  -0.1430 
 20 C        6.6190     2.1740     1.0430 C.ar  1 <1>  -0.1500 
 21 C        5.4280     3.2050    -0.6940 C.ar  1 <1>  -0.1500 
 22 C        6.7040     3.4160     1.6490 C.ar  1 <1>   0.1600 
 23 C        5.5680     4.3990    -0.0050 C.ar  1 <1>   0.1600 
 24 N        6.1900     4.5300     1.1540 N.ar  1 <1>  -0.6200 
 25 H       -0.8120     0.3740    -2.1480 H     1 <1>   0.0800 
 26 H        0.6870     1.2830    -2.3240 H     1 <1>   0.0800 
 27 H       -0.4280     1.6880    -1.0290 H     1 <1>   0.0800 
 28 H       -2.9460    -1.9080     1.4000 H     1 <1>   0.1500 
 29 H        0.5160    -4.2390     0.7530 H     1 <1>   0.1500 
 30 H        2.2550    -1.6020    -1.2270 H     1 <1>   0.0800 
 31 H        2.1710    -3.3220    -0.9300 H     1 <1>   0.0800 
 32 H       -3.9650    -0.1100     0.3240 H     1 <1>   0.0800 
 33 H       -3.5470     1.5690     0.6370 H     1 <1>   0.0800 
 34 H       -3.2630     0.3610     1.8830 H     1 <1>   0.0800 
 35 H       -1.7610    -4.0050     1.5990 H     1 <1>   0.1500 
 36 H        2.6230    -2.8060     1.4170 H     1 <1>   0.4500 
 37 H        3.4610    -0.7690     2.1670 H     1 <1>   0.0800 
 38 H        1.9650    -0.4490     1.3430 H     1 <1>   0.0800 
 39 H        4.3740    -3.5920    -0.1500 H     1 <1>   0.0800 
 40 H        4.9670    -2.7090     1.2270 H     1 <1>   0.0800 
 41 H        3.7590     1.1520     0.7900 H     1 <1>   0.0800 
 42 H        3.1740     0.3410    -0.6290 H     1 <1>   0.0800 
 43 H        4.6290    -1.5960    -1.5660 H     1 <1>   0.0800 
 44 H        6.1210    -1.9340    -0.7350 H     1 <1>   0.0800 
 45 H        5.3250     0.8210    -1.8050 H     1 <1>   0.0800 
 46 H        6.8220     0.3240    -1.0590 H     1 <1>   0.0800 
 47 H        7.0600     1.3150     1.5150 H     1 <1>   0.1500 
 48 H        4.9040     3.1960    -1.6320 H     1 <1>   0.1500 
 49 H        7.2210     3.4970     2.5900 H     1 <1>   0.1500 
 50 H        5.1470     5.2940    -0.4310 H     1 <1>   0.1500 
@<TRIPOS>BOND
  1   1   2  1   
  2   1   3  1   
  3   2   4  ar  
  4   2   5  ar  
  5   3  25  1   
  6   3  26  1   
  7   3  27  1   
  8   4   6  1   
  9   4   7  ar  
 10   5   8  ar  
 11   5   9  1   
 12   6  10  1   
 13   7  11  ar  
 14   7  28  1   
 15   8  11  ar  
 16   8  29  1   
 17   9  12  1   
 18   9  30  1   
 19   9  31  1   
 20  10  32  1   
 21  10  33  1   
 22  10  34  1   
 23  11  35  1   
 24  12  13  1   
 25  12  14  1   
 26  12  36  1   
 27  13  15  1   
 28  13  37  1   
 29  13  38  1   
 30  14  16  1   
 31  14  39  1   
 32  14  40  1   
 33  15  17  1   
 34  15  41  1   
 35  15  42  1   
 36  16  17  1   
 37  16  43  1   
 38  16  44  1   
 39  17  18  1   
 40  18  19  1   
 41  18  45  1   
 42  18  46  1   
 43  19  20  ar  
 44  19  21  ar  
 45  20  22  ar  
 46  20  47  1   
 47  21  23  ar  
 48  21  48  1   
 49  22  24  ar  
 50  22  49  1   
 51  23  24  ar  
 52  23  50  1   
@<TRIPOS>SUBSTRUCTURE
  1 ****  15 GROUP 4 **** **** 0

# MOE 2024.06 (io_trps.svl 2023.06)
