@<TRIPOS>MOLECULE
NONAME
51 53 1 0 0 
SMALL
USER_CHARGES


@<TRIPOS>ATOM
  1 F       -1.7040     0.8110     2.0210 F     1 <1>  -0.3400 
  2 C       -1.8310     0.5920     0.7190 C.3   1 <1>   1.1640 
  3 F       -0.6270     0.7790     0.1910 F     1 <1>  -0.3400 
  4 F       -2.0960    -0.7020     0.5830 F     1 <1>  -0.3400 
  5 C       -2.9080     1.4850     0.0880 C.ar  1 <1>  -0.1440 
  6 C       -4.2430     1.0940     0.1020 C.ar  1 <1>  -0.1500 
  7 C       -2.5770     2.7040    -0.4970 C.ar  1 <1>  -0.1500 
  8 C       -5.2390     1.8890    -0.4490 C.ar  1 <1>   0.1000 
  9 C       -3.5580     3.5040    -1.0560 C.ar  1 <1>  -0.1500 
 10 N       -6.5650     1.4490    -0.4140 N.pl3 1 <1>  -0.6000 
 11 C       -4.8780     3.0970    -1.0330 C.ar  1 <1>  -0.1500 
 12 C       -7.7280     2.1240    -0.1760 C.ar  1 <1>   0.7200 
 13 N       -8.8030     1.4020    -0.2970 N.ar  1 <1>  -0.6200 
 14 N       -7.6710     3.3800     0.1600 N.ar  1 <1>  -0.6200 
 15 C       -9.9110     2.0560    -0.0560 C.ar  1 <1>   0.7200 
 16 C       -8.8340     3.9310     0.3790 C.ar  1 <1>   0.7200 
 17 N       -9.9850     3.3150     0.2870 N.ar  1 <1>  -0.6200 
 18 N      -11.0970     1.3610    -0.1760 N.pl3 1 <1>  -0.8380 
 19 N       -8.8430     5.2690     0.7280 N.pl3 1 <1>  -0.8380 
 20 C      -11.1850     0.0040    -0.8030 C.3   1 <1>   0.2090 
 21 C      -12.4340     2.0100     0.0080 C.3   1 <1>   0.2090 
 22 C      -10.1020     6.0590     0.7860 C.3   1 <1>   0.2090 
 23 C       -7.6270     5.9390     1.2670 C.3   1 <1>   0.2090 
 24 C      -12.2770    -0.8480    -0.1320 C.3   1 <1>   0.1200 
 25 C      -13.4490     1.0310     0.6240 C.3   1 <1>   0.1200 
 26 C      -10.5140     6.4710    -0.6250 C.3   1 <1>  -0.2400 
 27 C       -6.9640     6.7570     0.1640 C.3   1 <1>  -0.2400 
 28 O      -13.5000    -0.1670    -0.0990 O.3   1 <1>  -0.5600 
 29 H       -4.5270     0.1610     0.5560 H     1 <1>   0.1500 
 30 H       -1.5530     3.0420    -0.5230 H     1 <1>   0.1500 
 31 H       -3.2960     4.4440    -1.5090 H     1 <1>   0.1500 
 32 H       -6.7320     0.4510    -0.4960 H     1 <1>   0.4000 
 33 H       -5.6370     3.7210    -1.4710 H     1 <1>   0.1500 
 34 H      -10.2500    -0.5210    -0.7230 H     1 <1>   0.0800 
 35 H      -11.4150     0.1130    -1.8480 H     1 <1>   0.0800 
 36 H      -12.7980     2.3440    -0.9480 H     1 <1>   0.0800 
 37 H      -12.3590     2.8680     0.6530 H     1 <1>   0.0800 
 38 H       -9.9590     6.9380     1.3900 H     1 <1>   0.0800 
 39 H      -10.8830     5.4730     1.2410 H     1 <1>   0.0800 
 40 H       -6.9300     5.2080     1.6420 H     1 <1>   0.0800 
 41 H       -7.8940     6.5770     2.0910 H     1 <1>   0.0800 
 42 H      -11.9920    -1.0930     0.8760 H     1 <1>   0.0800 
 43 H      -12.4240    -1.7600    -0.6820 H     1 <1>   0.0800 
 44 H      -14.4320     1.4640     0.6140 H     1 <1>   0.0800 
 45 H      -13.1800     0.8080     1.6420 H     1 <1>   0.0800 
 46 H       -9.7430     7.0610    -1.0840 H     1 <1>   0.0800 
 47 H      -11.4150     7.0530    -0.5840 H     1 <1>   0.0800 
 48 H      -10.6970     5.5990    -1.2250 H     1 <1>   0.0800 
 49 H       -6.7330     6.1220    -0.6720 H     1 <1>   0.0800 
 50 H       -6.0500     7.1850     0.5330 H     1 <1>   0.0800 
 51 H       -7.6100     7.5530    -0.1550 H     1 <1>   0.0800 
@<TRIPOS>BOND
  1   1   2  1   
  2   2   3  1   
  3   2   4  1   
  4   2   5  1   
  5   5   6  ar  
  6   5   7  ar  
  7   6   8  ar  
  8   6  29  1   
  9   7   9  ar  
 10   7  30  1   
 11   8  10  1   
 12   8  11  ar  
 13   9  11  ar  
 14   9  31  1   
 15  10  12  1   
 16  10  32  1   
 17  11  33  1   
 18  12  13  ar  
 19  12  14  ar  
 20  13  15  ar  
 21  14  16  ar  
 22  15  17  ar  
 23  15  18  1   
 24  16  17  ar  
 25  16  19  1   
 26  18  20  1   
 27  18  21  1   
 28  19  22  1   
 29  19  23  1   
 30  20  24  1   
 31  20  34  1   
 32  20  35  1   
 33  21  25  1   
 34  21  36  1   
 35  21  37  1   
 36  22  26  1   
 37  22  38  1   
 38  22  39  1   
 39  23  27  1   
 40  23  40  1   
 41  23  41  1   
 42  24  28  1   
 43  24  42  1   
 44  24  43  1   
 45  25  28  1   
 46  25  44  1   
 47  25  45  1   
 48  26  46  1   
 49  26  47  1   
 50  26  48  1   
 51  27  49  1   
 52  27  50  1   
 53  27  51  1   
@<TRIPOS>SUBSTRUCTURE
  1 ****  12 GROUP 4 **** **** 0

# MOE 2024.06 (io_trps.svl 2023.06)
