@<TRIPOS>MOLECULE
NONAME
44 44 1 0 0 
SMALL
USER_CHARGES


@<TRIPOS>ATOM
  1 O       -0.4460     0.1900     0.0380 O.2   1 <1>  -0.5700 
  2 C       -0.9550    -0.9030    -0.1290 C.2   1 <1>   0.6900 
  3 N       -2.3050    -1.0170    -0.3590 N.am  1 <1>  -0.6600 
  4 N       -0.2090    -2.0450    -0.0610 N.am  1 <1>  -0.5470 
  5 C       -2.9180    -2.2070    -1.0080 C.3   1 <1>   0.1400 
  6 C       -3.1960     0.1660    -0.1930 C.3   1 <1>   0.1400 
  7 C        1.1730    -2.2470     0.0710 C.ar  1 <1>   0.1170 
  8 C       -3.5300    -3.1280     0.0510 C.3   1 <1>  -0.1600 
  9 C       -3.5610     0.3420     1.2840 C.3   1 <1>  -0.1600 
 10 C        1.6260    -3.4290     0.6420 C.ar  1 <1>  -0.1500 
 11 C        2.1090    -1.3190    -0.3680 C.ar  1 <1>  -0.1500 
 12 C       -4.0280    -4.4370    -0.5700 C.3   1 <1>  -0.2400 
 13 C       -4.4970     1.5380     1.4880 C.3   1 <1>  -0.2400 
 14 C        2.9860    -3.6860     0.7810 C.ar  1 <1>   0.0830 
 15 C        3.4650    -1.5590    -0.2390 C.ar  1 <1>  -0.1500 
 16 O        3.4600    -4.8370     1.3420 O.3   1 <1>  -0.3620 
 17 C        3.9170    -2.7430     0.3350 C.ar  1 <1>   0.0830 
 18 C        2.6040    -5.7660     1.9690 C.3   1 <1>   0.0400 
 19 O        5.2460    -3.0280     0.4860 O.3   1 <1>  -0.3630 
 20 C        6.2400    -2.0920     0.1330 C.3   1 <1>   0.0400 
 21 H       -0.7880    -2.8730     0.0120 H     1 <1>   0.3700 
 22 H       -2.1710    -2.7390    -1.5730 H     1 <1>   0.0800 
 23 H       -3.6780    -1.8930    -1.7040 H     1 <1>   0.0800 
 24 H       -4.0900     0.0440    -0.7780 H     1 <1>   0.0800 
 25 H       -2.6890     1.0490    -0.5470 H     1 <1>   0.0800 
 26 H       -4.3580    -2.6280     0.5210 H     1 <1>   0.0800 
 27 H       -2.7970    -3.3530     0.8060 H     1 <1>   0.0800 
 28 H       -2.6600     0.5000     1.8520 H     1 <1>   0.0800 
 29 H       -4.0420    -0.5480     1.6470 H     1 <1>   0.0800 
 30 H        0.8980    -4.1390     0.9760 H     1 <1>   0.1500 
 31 H        1.7780    -0.4000    -0.8180 H     1 <1>   0.1500 
 32 H       -4.7800    -4.2390    -1.3150 H     1 <1>   0.0800 
 33 H       -4.4610    -5.0630     0.1900 H     1 <1>   0.0800 
 34 H       -3.2170    -4.9730    -1.0310 H     1 <1>   0.0800 
 35 H       -4.0240     2.4440     1.1510 H     1 <1>   0.0800 
 36 H       -4.7320     1.6450     2.5330 H     1 <1>   0.0800 
 37 H       -5.4140     1.4000     0.9430 H     1 <1>   0.0800 
 38 H        4.1470    -0.8110    -0.5930 H     1 <1>   0.1500 
 39 H        3.2130    -6.5430     2.3930 H     1 <1>   0.0800 
 40 H        1.9420    -6.1830     1.2320 H     1 <1>   0.0800 
 41 H        2.0570    -5.2650     2.7480 H     1 <1>   0.0800 
 42 H        7.1970    -2.5210     0.3680 H     1 <1>   0.0800 
 43 H        6.0910    -1.1930     0.7040 H     1 <1>   0.0800 
 44 H        6.1760    -1.8980    -0.9230 H     1 <1>   0.0800 
@<TRIPOS>BOND
  1   1   2  2   
  2   2   3  am  
  3   2   4  am  
  4   3   5  1   
  5   3   6  1   
  6   4   7  1   
  7   4  21  1   
  8   5   8  1   
  9   5  22  1   
 10   5  23  1   
 11   6   9  1   
 12   6  24  1   
 13   6  25  1   
 14   7  10  ar  
 15   7  11  ar  
 16   8  12  1   
 17   8  26  1   
 18   8  27  1   
 19   9  13  1   
 20   9  28  1   
 21   9  29  1   
 22  10  14  ar  
 23  10  30  1   
 24  11  15  ar  
 25  11  31  1   
 26  12  32  1   
 27  12  33  1   
 28  12  34  1   
 29  13  35  1   
 30  13  36  1   
 31  13  37  1   
 32  14  16  1   
 33  14  17  ar  
 34  15  17  ar  
 35  15  38  1   
 36  16  18  1   
 37  17  19  1   
 38  18  39  1   
 39  18  40  1   
 40  18  41  1   
 41  19  20  1   
 42  20  42  1   
 43  20  43  1   
 44  20  44  1   
@<TRIPOS>SUBSTRUCTURE
  1 ****   4 GROUP 4 **** **** 0

# MOE 2024.06 (io_trps.svl 2023.06)
