@<TRIPOS>MOLECULE
NONAME
51 53 1 0 0 
SMALL
USER_CHARGES


@<TRIPOS>ATOM
  1 O       -0.9760    -0.3150    -2.5860 O.2   1 <1>  -0.5700 
  2 C       -0.3620     0.5160    -1.9630 C.2   1 <1>   0.5690 
  3 N       -0.8430     1.1750    -0.8690 N.am  1 <1>  -0.5470 
  4 C        1.0750     0.8350    -2.3820 C.3   1 <1>   0.1710 
  5 C       -2.0370     1.0890    -0.1330 C.ar  1 <1>   0.1170 
  6 N        2.0130     1.0570    -1.2350 N.3   1 <1>  -0.8100 
  7 C       -2.0840     1.6960     1.1280 C.ar  1 <1>   0.0820 
  8 C       -3.1690     0.4380    -0.6080 C.ar  1 <1>  -0.1500 
  9 C        3.3240     1.5420    -1.7100 C.3   1 <1>   0.1100 
 10 C        2.1580    -0.1690    -0.4160 C.3   1 <1>   0.1100 
 11 O       -0.9540     2.3360     1.5620 O.3   1 <1>  -0.3630 
 12 C       -3.2480     1.6320     1.8870 C.ar  1 <1>  -0.1500 
 13 C       -4.3250     0.3800     0.1510 C.ar  1 <1>  -0.1500 
 14 C        4.2910     1.7940    -0.5340 C.3   1 <1>   0.3430 
 15 C        3.1030     0.0600     0.7810 C.3   1 <1>   0.3430 
 16 C       -1.0140     3.2280     2.6550 C.3   1 <1>   0.0400 
 17 C       -4.3650     0.9760     1.3980 C.ar  1 <1>  -0.1500 
 18 N        4.4420     0.5730     0.3350 N.4   1 <1>  -0.9590 
 19 C        5.3540     0.8250     1.4820 C.3   1 <1>   0.4860 
 20 C        6.7300     1.1390     0.9320 C.ar  1 <1>  -0.1430 
 21 C        7.5190     0.1290     0.3980 C.ar  1 <1>  -0.1500 
 22 C        7.2090     2.4420     0.9500 C.ar  1 <1>  -0.1500 
 23 C        8.7650     0.4220    -0.1270 C.ar  1 <1>  -0.1500 
 24 C        8.4560     2.7320     0.4250 C.ar  1 <1>  -0.1500 
 25 C        9.2320     1.7240    -0.1150 C.ar  1 <1>  -0.1500 
 26 H       -0.1520     1.7830    -0.4220 H     1 <1>   0.3700 
 27 H        1.0380     1.7220    -2.9900 H     1 <1>   0.0800 
 28 H        1.4350     0.0290    -2.9990 H     1 <1>   0.0800 
 29 H       -3.1590    -0.0280    -1.5760 H     1 <1>   0.1500 
 30 H        3.1880     2.4660    -2.2460 H     1 <1>   0.0800 
 31 H        3.7610     0.8280    -2.3880 H     1 <1>   0.0800 
 32 H        2.5310    -0.9780    -1.0220 H     1 <1>   0.0800 
 33 H        1.1970    -0.4670    -0.0310 H     1 <1>   0.0800 
 34 H       -3.3100     2.0800     2.8600 H     1 <1>   0.1500 
 35 H       -5.1920    -0.1300    -0.2330 H     1 <1>   0.1500 
 36 H        3.9060     2.6120     0.0510 H     1 <1>   0.0800 
 37 H        5.2520     2.0880    -0.9250 H     1 <1>   0.0800 
 38 H        3.2220    -0.8670     1.3190 H     1 <1>   0.0800 
 39 H        2.6400     0.7730     1.4430 H     1 <1>   0.0800 
 40 H       -0.0620     3.7190     2.7430 H     1 <1>   0.0800 
 41 H       -1.2210     2.6710     3.5520 H     1 <1>   0.0800 
 42 H       -1.7840     3.9570     2.4710 H     1 <1>   0.0800 
 43 H       -5.2650     0.9280     1.9870 H     1 <1>   0.1500 
 44 H        4.8890    -0.1440    -0.2460 H     1 <1>   0.4500 
 45 H        5.4130    -0.0490     2.1110 H     1 <1>   0.0800 
 46 H        4.9930     1.6510     2.0730 H     1 <1>   0.0800 
 47 H        7.1820    -0.8940     0.3850 H     1 <1>   0.1500 
 48 H        6.6270     3.2440     1.3720 H     1 <1>   0.1500 
 49 H        9.3780    -0.3610    -0.5420 H     1 <1>   0.1500 
 50 H        8.8290     3.7430     0.4390 H     1 <1>   0.1500 
 51 H       10.2030     1.9510    -0.5230 H     1 <1>   0.1500 
@<TRIPOS>BOND
  1   1   2  2   
  2   2   3  am  
  3   2   4  1   
  4   3   5  1   
  5   3  26  1   
  6   4   6  1   
  7   4  27  1   
  8   4  28  1   
  9   5   7  ar  
 10   5   8  ar  
 11   6   9  1   
 12   6  10  1   
 13   7  11  1   
 14   7  12  ar  
 15   8  13  ar  
 16   8  29  1   
 17   9  14  1   
 18   9  30  1   
 19   9  31  1   
 20  10  15  1   
 21  10  32  1   
 22  10  33  1   
 23  11  16  1   
 24  12  17  ar  
 25  12  34  1   
 26  13  17  ar  
 27  13  35  1   
 28  14  18  1   
 29  14  36  1   
 30  14  37  1   
 31  15  18  1   
 32  15  38  1   
 33  15  39  1   
 34  16  40  1   
 35  16  41  1   
 36  16  42  1   
 37  17  43  1   
 38  18  19  1   
 39  18  44  1   
 40  19  20  1   
 41  19  45  1   
 42  19  46  1   
 43  20  21  ar  
 44  20  22  ar  
 45  21  23  ar  
 46  21  47  1   
 47  22  24  ar  
 48  22  48  1   
 49  23  25  ar  
 50  23  49  1   
 51  24  25  ar  
 52  24  50  1   
 53  25  51  1   
@<TRIPOS>SUBSTRUCTURE
  1 ****   6 GROUP 4 **** **** 0

# MOE 2024.06 (io_trps.svl 2023.06)
