@<TRIPOS>MOLECULE
NONAME
39 39 1 0 0 
SMALL
USER_CHARGES


@<TRIPOS>ATOM
  1 F        0.1220     0.2640    -0.4250 F     1 <1>  -0.3400 
  2 C        1.4290     0.5070    -0.4170 C.3   1 <1>   1.0200 
  3 F        1.9970    -0.6900    -0.2970 F     1 <1>  -0.3400 
  4 F        1.7330     0.9150    -1.6450 F     1 <1>  -0.3400 
  5 C        1.8640     1.4850     0.7120 C.3   1 <1>   0.4240 
  6 O        1.6140     0.9150     2.0120 O.3   1 <1>  -0.6800 
  7 C        3.3970     1.7390     0.6200 C.ar  1 <1>  -0.1440 
  8 C        0.9920     2.7670     0.5460 C.3   1 <1>   1.0200 
  9 C        4.2900     0.9240     1.3140 C.ar  1 <1>  -0.1500 
 10 C        3.9390     2.7500    -0.1740 C.ar  1 <1>  -0.1500 
 11 F        1.4270     3.7780     1.2910 F     1 <1>  -0.3400 
 12 F       -0.2660     2.5750     0.9380 F     1 <1>  -0.3400 
 13 F        0.9080     3.2530    -0.6880 F     1 <1>  -0.3400 
 14 C        5.6560     1.1180     1.2300 C.ar  1 <1>  -0.1500 
 15 C        5.3060     2.9420    -0.2550 C.ar  1 <1>  -0.1500 
 16 C        6.1870     2.1330     0.4480 C.ar  1 <1>   0.1170 
 17 N        7.5740     2.3420     0.3710 N.am  1 <1>  -0.4770 
 18 C        8.4690     1.3620    -0.0110 C.2   1 <1>   0.7800 
 19 C        8.0760     3.6950     0.7330 C.3   1 <1>   0.0600 
 20 O        8.1330     0.2270    -0.2900 O.2   1 <1>  -0.5700 
 21 O        9.7600     1.7040    -0.0720 O.3   1 <1>  -0.4300 
 22 C       10.7660     0.7870    -0.4320 C.3   1 <1>   0.2000 
 23 C       11.1810     0.0070     0.8150 C.3   1 <1>  -0.2400 
 24 C       11.9310     1.5960    -0.9960 C.3   1 <1>  -0.2400 
 25 H        0.6540     0.7740     2.1600 H     1 <1>   0.4000 
 26 H        3.9370     0.1150     1.9310 H     1 <1>   0.1500 
 27 H        3.3230     3.4120    -0.7570 H     1 <1>   0.1500 
 28 H        6.3230     0.4710     1.7730 H     1 <1>   0.1500 
 29 H        5.6980     3.7250    -0.8780 H     1 <1>   0.1500 
 30 H        7.2970     4.2690     1.2040 H     1 <1>   0.0800 
 31 H        8.4070     4.2050    -0.1540 H     1 <1>   0.0800 
 32 H        8.9000     3.6070     1.4190 H     1 <1>   0.0800 
 33 H       10.3840     0.1230    -1.1920 H     1 <1>   0.0800 
 34 H       11.5260     0.6770     1.5820 H     1 <1>   0.0800 
 35 H       11.9730    -0.6770     0.5720 H     1 <1>   0.0800 
 36 H       10.3490    -0.5650     1.1870 H     1 <1>   0.0800 
 37 H       12.3050     2.2820    -0.2570 H     1 <1>   0.0800 
 38 H       11.6090     2.1440    -1.8630 H     1 <1>   0.0800 
 39 H       12.7270     0.9360    -1.2880 H     1 <1>   0.0800 
@<TRIPOS>BOND
  1   1   2  1   
  2   2   3  1   
  3   2   4  1   
  4   2   5  1   
  5   5   6  1   
  6   5   7  1   
  7   5   8  1   
  8   6  25  1   
  9   7   9  ar  
 10   7  10  ar  
 11   8  11  1   
 12   8  12  1   
 13   8  13  1   
 14   9  14  ar  
 15   9  26  1   
 16  10  15  ar  
 17  10  27  1   
 18  14  16  ar  
 19  14  28  1   
 20  15  16  ar  
 21  15  29  1   
 22  16  17  1   
 23  17  18  am  
 24  17  19  1   
 25  18  20  2   
 26  18  21  1   
 27  19  30  1   
 28  19  31  1   
 29  19  32  1   
 30  21  22  1   
 31  22  23  1   
 32  22  24  1   
 33  22  33  1   
 34  23  34  1   
 35  23  35  1   
 36  23  36  1   
 37  24  37  1   
 38  24  38  1   
 39  24  39  1   
@<TRIPOS>SUBSTRUCTURE
  1 ****  14 GROUP 4 **** **** 0

# MOE 2024.06 (io_trps.svl 2023.06)
