@<TRIPOS>MOLECULE
NONAME
47 49 1 0 0 
SMALL
USER_CHARGES


@<TRIPOS>ATOM
  1 O        1.7560    -0.1770    -1.6520 O.3   1 <1>  -0.5600 
  2 C        2.5010     0.8540    -1.0580 C.3   1 <1>   0.1200 
  3 C        0.8600    -0.8150    -0.7830 C.3   1 <1>   0.1200 
  4 C        3.2700     0.3520     0.1860 C.3   1 <1>   0.3430 
  5 C        1.6070    -1.4690     0.4040 C.3   1 <1>   0.3430 
  6 N        3.0670    -1.1230     0.3930 N.4   1 <1>  -0.9590 
  7 C        3.8270    -1.6760     1.5440 C.3   1 <1>   0.4860 
  8 C        5.3020    -1.4010     1.3230 C.ar  1 <1>  -0.1440 
  9 C        6.0040    -2.0960     0.3480 C.ar  1 <1>  -0.1500 
 10 C        5.9600    -0.4450     2.0850 C.ar  1 <1>  -0.1500 
 11 C        7.3440    -1.8330     0.1230 C.ar  1 <1>   0.0820 
 12 C        7.2970    -0.1690     1.8530 C.ar  1 <1>  -0.1500 
 13 O        7.9720    -2.5710    -0.8220 O.3   1 <1>  -0.3630 
 14 C        7.9930    -0.8400     0.8630 C.ar  1 <1>   0.0820 
 15 C        8.8690    -3.5490    -0.3410 C.3   1 <1>   0.0400 
 16 O        9.2850    -0.4760     0.6690 O.3   1 <1>  -0.3630 
 17 C        9.7090    -0.1830    -0.6490 C.3   1 <1>   0.2630 
 18 C       10.8580     0.8120    -0.5950 C.ar  1 <1>  -0.1440 
 19 C       10.8010     1.9890    -1.3280 C.ar  1 <1>  -0.1500 
 20 C       11.9780     0.5500     0.1800 C.ar  1 <1>  -0.1500 
 21 C       11.8510     2.8910    -1.2870 C.ar  1 <1>  -0.1500 
 22 C       13.0280     1.4510     0.2220 C.ar  1 <1>  -0.1500 
 23 C       12.9650     2.6220    -0.5120 C.ar  1 <1>  -0.1500 
 24 H        1.8320     1.6560    -0.7960 H     1 <1>   0.0800 
 25 H        3.1930     1.2220    -1.7960 H     1 <1>   0.0800 
 26 H        0.3310    -1.5640    -1.3470 H     1 <1>   0.0800 
 27 H        0.1450    -0.0900    -0.4330 H     1 <1>   0.0800 
 28 H        2.9300     0.8970     1.0510 H     1 <1>   0.0800 
 29 H        4.3180     0.5690     0.0580 H     1 <1>   0.0800 
 30 H        1.4820    -2.5380     0.3470 H     1 <1>   0.0800 
 31 H        1.1530    -1.1380     1.3240 H     1 <1>   0.0800 
 32 H        3.4450    -1.5460    -0.4670 H     1 <1>   0.4500 
 33 H        3.6700    -2.7400     1.6170 H     1 <1>   0.0800 
 34 H        3.5010    -1.2170     2.4630 H     1 <1>   0.0800 
 35 H        5.5320    -2.8570    -0.2490 H     1 <1>   0.1500 
 36 H        5.4490     0.0970     2.8630 H     1 <1>   0.1500 
 37 H        7.8130     0.5750     2.4360 H     1 <1>   0.1500 
 38 H        9.3070    -4.0500    -1.1860 H     1 <1>   0.0800 
 39 H        8.3250    -4.2530     0.2630 H     1 <1>   0.0800 
 40 H        9.6370    -3.0730     0.2430 H     1 <1>   0.0800 
 41 H        8.8760     0.2250    -1.1950 H     1 <1>   0.0800 
 42 H       10.0320    -1.0950    -1.1150 H     1 <1>   0.0800 
 43 H        9.9410     2.2110    -1.9340 H     1 <1>   0.1500 
 44 H       12.0310    -0.3570     0.7570 H     1 <1>   0.1500 
 45 H       11.8000     3.8020    -1.8570 H     1 <1>   0.1500 
 46 H       13.8920     1.2400     0.8270 H     1 <1>   0.1500 
 47 H       13.7810     3.3230    -0.4800 H     1 <1>   0.1500 
@<TRIPOS>BOND
  1   1   2  1   
  2   1   3  1   
  3   2   4  1   
  4   2  24  1   
  5   2  25  1   
  6   3   5  1   
  7   3  26  1   
  8   3  27  1   
  9   4   6  1   
 10   4  28  1   
 11   4  29  1   
 12   5   6  1   
 13   5  30  1   
 14   5  31  1   
 15   6   7  1   
 16   6  32  1   
 17   7   8  1   
 18   7  33  1   
 19   7  34  1   
 20   8   9  ar  
 21   8  10  ar  
 22   9  11  ar  
 23   9  35  1   
 24  10  12  ar  
 25  10  36  1   
 26  11  13  1   
 27  11  14  ar  
 28  12  14  ar  
 29  12  37  1   
 30  13  15  1   
 31  14  16  1   
 32  15  38  1   
 33  15  39  1   
 34  15  40  1   
 35  16  17  1   
 36  17  18  1   
 37  17  41  1   
 38  17  42  1   
 39  18  19  ar  
 40  18  20  ar  
 41  19  21  ar  
 42  19  43  1   
 43  20  22  ar  
 44  20  44  1   
 45  21  23  ar  
 46  21  45  1   
 47  22  23  ar  
 48  22  46  1   
 49  23  47  1   
@<TRIPOS>SUBSTRUCTURE
  1 ****  14 GROUP 4 **** **** 0

# MOE 2024.06 (io_trps.svl 2023.06)
