@<TRIPOS>MOLECULE
NONAME
27 27 1 0 0 
SMALL
USER_CHARGES


@<TRIPOS>ATOM
  1 BR      -0.3740    -0.1660    -0.3850 Br    1 <1>  -0.1110 
  2 C       -0.2070     1.7470    -0.2350 C.ar  1 <1>   0.1110 
  3 C        1.0110     2.3330    -0.5150 C.ar  1 <1>  -0.1500 
  4 C       -1.3100     2.4820     0.1480 C.ar  1 <1>  -0.1500 
  5 C        1.1410     3.7110    -0.4080 C.ar  1 <1>  -0.1440 
  6 C       -1.1840     3.8560     0.2510 C.ar  1 <1>  -0.1500 
  7 C        0.0360     4.4770    -0.0280 C.ar  1 <1>   0.0830 
  8 C        2.4810     4.3680    -0.7200 C.3   1 <1>   0.2140 
  9 O        0.2000     5.8250     0.0480 O.3   1 <1>  -0.3630 
 10 S        3.7950     3.5440     0.2320 S.3   1 <1>  -0.4600 
 11 C       -0.8400     6.6780     0.4750 C.3   1 <1>   0.0400 
 12 C        5.2600     4.5510    -0.1160 C.3   1 <1>   0.0700 
 13 C        6.4300     3.9570     0.6650 C.3   1 <1>   0.0400 
 14 C        7.6700     4.7360     0.4070 C.1   1 <1>   0.3570 
 15 N        8.6080     5.3420     0.1960 N.1   1 <1>  -0.5570 
 16 H        1.8420     1.7160    -0.8070 H     1 <1>   0.1500 
 17 H       -2.2420     1.9890     0.3590 H     1 <1>   0.1500 
 18 H       -2.0460     4.4230     0.5470 H     1 <1>   0.1500 
 19 H        2.5030     5.4060    -0.4430 H     1 <1>   0.0800 
 20 H        2.7230     4.2650    -1.7620 H     1 <1>   0.0800 
 21 H       -0.4670     7.6860     0.4760 H     1 <1>   0.0800 
 22 H       -1.1360     6.3980     1.4700 H     1 <1>   0.0800 
 23 H       -1.6640     6.5950    -0.2120 H     1 <1>   0.0800 
 24 H        5.0440     5.5580     0.1980 H     1 <1>   0.0800 
 25 H        5.4320     4.5190    -1.1780 H     1 <1>   0.0800 
 26 H        6.5910     2.9380     0.3640 H     1 <1>   0.0800 
 27 H        6.2170     3.9800     1.7180 H     1 <1>   0.0800 
@<TRIPOS>BOND
  1   1   2  1   
  2   2   3  ar  
  3   2   4  ar  
  4   3   5  ar  
  5   3  16  1   
  6   4   6  ar  
  7   4  17  1   
  8   5   7  ar  
  9   5   8  1   
 10   6   7  ar  
 11   6  18  1   
 12   7   9  1   
 13   8  10  1   
 14   8  19  1   
 15   8  20  1   
 16   9  11  1   
 17  10  12  1   
 18  11  21  1   
 19  11  22  1   
 20  11  23  1   
 21  12  13  1   
 22  12  24  1   
 23  12  25  1   
 24  13  14  1   
 25  13  26  1   
 26  13  27  1   
 27  14  15  3   
@<TRIPOS>SUBSTRUCTURE
  1 ****   8 GROUP 4 **** **** 0

# MOE 2024.06 (io_trps.svl 2023.06)
