@<TRIPOS>MOLECULE
NONAME
32 32 1 0 0 
SMALL
USER_CHARGES


@<TRIPOS>ATOM
  1 O        1.1110     3.0590     1.7360 O.2   1 <1>  -0.5700 
  2 C        0.3190     2.6200     0.9360 C.2   1 <1>   0.5690 
  3 N        0.6880     1.7550    -0.0460 N.am  1 <1>  -0.7300 
  4 C       -1.1370     3.0600     1.0420 C.3   1 <1>   0.1810 
  5 C        2.0370     1.2390    -0.2830 C.3   1 <1>   0.2200 
  6 O       -1.9430     2.4590     0.0350 O.3   1 <1>  -0.3630 
  7 C        2.4720     1.6640    -1.6810 C.3   1 <1>  -0.2400 
  8 C        1.9960    -0.2800    -0.1510 C.3   1 <1>  -0.2400 
  9 C       -3.2720     2.7190    -0.0450 C.ar  1 <1>   0.0820 
 10 C       -3.9720     2.0840    -1.0590 C.ar  1 <1>  -0.1500 
 11 C       -3.9480     3.5710     0.8240 C.ar  1 <1>  -0.1500 
 12 C       -5.3320     2.2880    -1.2180 C.ar  1 <1>  -0.1440 
 13 C       -5.3080     3.7760     0.6690 C.ar  1 <1>  -0.1500 
 14 C       -5.9970     3.1370    -0.3480 C.ar  1 <1>  -0.1500 
 15 C       -6.0940     1.5890    -2.3290 C.3   1 <1>  -0.0970 
 16 H       -0.0390     1.4280    -0.6860 H     1 <1>   0.3700 
 17 H       -1.1910     4.1260     0.9290 H     1 <1>   0.0800 
 18 H       -1.5210     2.7700     2.0020 H     1 <1>   0.0800 
 19 H        2.7180     1.6470     0.4480 H     1 <1>   0.0800 
 20 H        1.8070     1.2670    -2.4260 H     1 <1>   0.0800 
 21 H        3.4650     1.3040    -1.8790 H     1 <1>   0.0800 
 22 H        2.4830     2.7370    -1.7480 H     1 <1>   0.0800 
 23 H        1.3220    -0.7090    -0.8710 H     1 <1>   0.0800 
 24 H        1.6790    -0.5500     0.8400 H     1 <1>   0.0800 
 25 H        2.9770    -0.6870    -0.3130 H     1 <1>   0.0800 
 26 H       -3.4390     1.4270    -1.7220 H     1 <1>   0.1500 
 27 H       -3.4430     4.0810     1.6220 H     1 <1>   0.1500 
 28 H       -5.8330     4.4340     1.3390 H     1 <1>   0.1500 
 29 H       -7.0540     3.3030    -0.4580 H     1 <1>   0.1500 
 30 H       -5.4240     1.2760    -3.1100 H     1 <1>   0.0800 
 31 H       -6.8240     2.2540    -2.7550 H     1 <1>   0.0800 
 32 H       -6.5970     0.7240    -1.9370 H     1 <1>   0.0800 
@<TRIPOS>BOND
  1   1   2  2   
  2   2   3  am  
  3   2   4  1   
  4   3   5  1   
  5   3  16  1   
  6   4   6  1   
  7   4  17  1   
  8   4  18  1   
  9   5   7  1   
 10   5   8  1   
 11   5  19  1   
 12   6   9  1   
 13   7  20  1   
 14   7  21  1   
 15   7  22  1   
 16   8  23  1   
 17   8  24  1   
 18   8  25  1   
 19   9  10  ar  
 20   9  11  ar  
 21  10  12  ar  
 22  10  26  1   
 23  11  13  ar  
 24  11  27  1   
 25  12  14  ar  
 26  12  15  1   
 27  13  14  ar  
 28  13  28  1   
 29  14  29  1   
 30  15  30  1   
 31  15  31  1   
 32  15  32  1   
@<TRIPOS>SUBSTRUCTURE
  1 ****   6 GROUP 4 **** **** 0

# MOE 2024.06 (io_trps.svl 2023.06)
