@<TRIPOS>MOLECULE
NONAME
53 55 1 0 0 
SMALL
USER_CHARGES


@<TRIPOS>ATOM
  1 S        0.5220    -0.6840    -1.0890 S.o2  1 <1>   1.4470 
  2 O       -0.2870     0.2270    -1.8700 O.2   1 <1>  -0.6500 
  3 O        1.0310    -1.8770    -1.7330 O.2   1 <1>  -0.6500 
  4 N       -0.4230    -1.2150     0.2140 N.am  1 <1>  -0.8490 
  5 C        1.8850     0.2260    -0.2870 C.ar  1 <1>  -0.0090 
  6 C        0.2600    -2.2470     1.0040 C.3   1 <1>   0.1960 
  7 C       -1.7340    -1.6880    -0.2400 C.3   1 <1>   0.1960 
  8 C        1.7050     1.4310     0.3990 C.ar  1 <1>  -0.1440 
  9 C        3.1690    -0.3040    -0.3340 C.ar  1 <1>  -0.1500 
 10 C       -0.5560    -2.5810     2.2560 C.3   1 <1>  -0.1600 
 11 C       -2.6270    -2.0150     0.9620 C.3   1 <1>  -0.1600 
 12 C        2.7860     2.0570     1.0000 C.ar  1 <1>  -0.1500 
 13 C        0.3360     2.0920     0.5160 C.3   1 <1>  -0.0970 
 14 C        4.2710     0.3070     0.2580 C.ar  1 <1>   0.0860 
 15 C       -1.9710    -3.0450     1.8890 C.3   1 <1>  -0.1600 
 16 C        4.0490     1.5040     0.9330 C.ar  1 <1>  -0.1500 
 17 C        5.5880    -0.2950     0.1700 C.2   1 <1>   0.5440 
 18 O        5.7120    -1.5000     0.2370 O.2   1 <1>  -0.5700 
 19 N        6.6920     0.5050     0.0030 N.am  1 <1>  -0.5470 
 20 C        8.0380     0.1300    -0.0950 C.ar  1 <1>   0.1170 
 21 C        8.5420    -0.6040    -1.1700 C.ar  1 <1>  -0.1430 
 22 C        8.9090     0.5370     0.9080 C.ar  1 <1>  -0.1500 
 23 C        9.8920    -0.9180    -1.2120 C.ar  1 <1>  -0.1500 
 24 C        7.6470    -1.0740    -2.3100 C.3   1 <1>  -0.0970 
 25 C       10.2530     0.2210     0.8560 C.ar  1 <1>  -0.1500 
 26 C       10.7530    -0.5110    -0.2060 C.ar  1 <1>  -0.1430 
 27 C       12.2270    -0.8660    -0.2730 C.3   1 <1>  -0.0970 
 28 H        1.2310    -1.8930     1.3080 H     1 <1>   0.0800 
 29 H        0.3980    -3.1360     0.4100 H     1 <1>   0.0800 
 30 H       -1.6120    -2.5610    -0.8620 H     1 <1>   0.0800 
 31 H       -2.2150    -0.9230    -0.8270 H     1 <1>   0.0800 
 32 H        3.3330    -1.2350    -0.8520 H     1 <1>   0.1500 
 33 H       -0.6090    -1.7060     2.8790 H     1 <1>   0.0800 
 34 H       -0.0560    -3.3530     2.8130 H     1 <1>   0.0800 
 35 H       -3.5710    -2.3930     0.6110 H     1 <1>   0.0800 
 36 H       -2.8180    -1.1060     1.5050 H     1 <1>   0.0800 
 37 H        2.6470     2.9840     1.5300 H     1 <1>   0.1500 
 38 H       -0.0050     2.4130    -0.4520 H     1 <1>   0.0800 
 39 H        0.3720     2.9530     1.1590 H     1 <1>   0.0800 
 40 H       -0.3820     1.4050     0.9270 H     1 <1>   0.0800 
 41 H       -2.5620    -3.1690     2.7800 H     1 <1>   0.0800 
 42 H       -1.9170    -3.9950     1.3850 H     1 <1>   0.0800 
 43 H        4.8660     2.0030     1.4230 H     1 <1>   0.1500 
 44 H        6.5200     1.5060    -0.0430 H     1 <1>   0.3700 
 45 H        8.5300     1.0990     1.7410 H     1 <1>   0.1500 
 46 H       10.2800    -1.4890    -2.0370 H     1 <1>   0.1500 
 47 H        6.9660    -0.2960    -2.6000 H     1 <1>   0.0800 
 48 H        7.0810    -1.9320    -1.9940 H     1 <1>   0.0800 
 49 H        8.2300    -1.3480    -3.1700 H     1 <1>   0.0800 
 50 H       10.9080     0.5460     1.6460 H     1 <1>   0.1500 
 51 H       12.7450    -0.1520    -0.8870 H     1 <1>   0.0800 
 52 H       12.3550    -1.8470    -0.6950 H     1 <1>   0.0800 
 53 H       12.6630    -0.8610     0.7100 H     1 <1>   0.0800 
@<TRIPOS>BOND
  1   1   2  2   
  2   1   3  2   
  3   1   4  am  
  4   1   5  1   
  5   4   6  1   
  6   4   7  1   
  7   5   8  ar  
  8   5   9  ar  
  9   6  10  1   
 10   6  28  1   
 11   6  29  1   
 12   7  11  1   
 13   7  30  1   
 14   7  31  1   
 15   8  12  ar  
 16   8  13  1   
 17   9  14  ar  
 18   9  32  1   
 19  10  15  1   
 20  10  33  1   
 21  10  34  1   
 22  11  15  1   
 23  11  35  1   
 24  11  36  1   
 25  12  16  ar  
 26  12  37  1   
 27  13  38  1   
 28  13  39  1   
 29  13  40  1   
 30  14  16  ar  
 31  14  17  1   
 32  15  41  1   
 33  15  42  1   
 34  16  43  1   
 35  17  18  2   
 36  17  19  am  
 37  19  20  1   
 38  19  44  1   
 39  20  21  ar  
 40  20  22  ar  
 41  21  23  ar  
 42  21  24  1   
 43  22  25  ar  
 44  22  45  1   
 45  23  26  ar  
 46  23  46  1   
 47  24  47  1   
 48  24  48  1   
 49  24  49  1   
 50  25  26  ar  
 51  25  50  1   
 52  26  27  1   
 53  27  51  1   
 54  27  52  1   
 55  27  53  1   
@<TRIPOS>SUBSTRUCTURE
  1 ****  14 GROUP 4 **** **** 0

# MOE 2024.06 (io_trps.svl 2023.06)
