@<TRIPOS>MOLECULE
NONAME
44 46 1 0 0 
SMALL
USER_CHARGES


@<TRIPOS>ATOM
  1 O        4.0760     1.6830    -2.1150 O.co2 1 <1>  -0.9000 
  2 C        4.1070     0.5050    -1.7520 C.2   1 <1>   0.9060 
  3 O        4.9900    -0.2700    -2.1440 O.co2 1 <1>  -0.9000 
  4 C        3.0560     0.0230    -0.7580 C.3   1 <1>  -0.1860 
  5 C        3.4160     0.1770     0.7600 C.3   1 <1>  -0.0190 
  6 C        2.5040    -1.4020    -1.0330 C.3   1 <1>  -0.0800 
  7 C        4.8730     0.4600     1.1640 C.2   1 <1>   0.5690 
  8 C        2.8640    -1.0430     1.5450 C.3   1 <1>  -0.0800 
  9 C        3.4610    -2.4700    -0.4570 C.3   1 <1>  -0.1600 
 10 C        1.1640    -1.5310    -0.2780 C.3   1 <1>  -0.1600 
 11 O        5.0630     1.0910     2.1800 O.2   1 <1>  -0.5700 
 12 N        5.9140    -0.0050     0.4300 N.am  1 <1>  -0.7300 
 13 C        3.5870    -2.3230     1.0750 C.3   1 <1>  -0.1600 
 14 C        1.3620    -1.2120     1.2220 C.3   1 <1>  -0.1600 
 15 C        7.3120     0.4400     0.5520 C.3   1 <1>   0.1400 
 16 C        7.5950     1.4910    -0.5230 C.3   1 <1>  -0.0170 
 17 C        9.0470     1.9410    -0.4500 C.ar  1 <1>  -0.1430 
 18 C        9.9910     1.4090    -1.3130 C.ar  1 <1>  -0.1500 
 19 C        9.4370     2.8850     0.4870 C.ar  1 <1>  -0.1500 
 20 C       11.3130     1.8140    -1.2400 C.ar  1 <1>  -0.1500 
 21 C       10.7580     3.2920     0.5630 C.ar  1 <1>  -0.1500 
 22 C       11.6970     2.7550    -0.3010 C.ar  1 <1>  -0.1500 
 23 H        2.2360     0.6930    -0.9380 H     1 <1>   0.0800 
 24 H        2.8760     1.0420     1.1020 H     1 <1>   0.0800 
 25 H        2.3630    -1.5510    -2.0900 H     1 <1>   0.0800 
 26 H        3.0050    -0.8980     2.6030 H     1 <1>   0.0800 
 27 H        4.4310    -2.3710    -0.9110 H     1 <1>   0.0800 
 28 H        3.0950    -3.4530    -0.6980 H     1 <1>   0.0800 
 29 H        0.7860    -2.5320    -0.3920 H     1 <1>   0.0800 
 30 H        0.4390    -0.8580    -0.7020 H     1 <1>   0.0800 
 31 H        5.6800    -0.3560    -0.5230 H     1 <1>   0.3700 
 32 H        3.1510    -3.1790     1.5590 H     1 <1>   0.0800 
 33 H        4.6260    -2.2900     1.3520 H     1 <1>   0.0800 
 34 H        0.8390    -0.3050     1.4720 H     1 <1>   0.0800 
 35 H        0.9470    -2.0060     1.8190 H     1 <1>   0.0800 
 36 H        7.9640    -0.4040     0.4190 H     1 <1>   0.0800 
 37 H        7.4810     0.8580     1.5290 H     1 <1>   0.0800 
 38 H        6.9420     2.3340    -0.3780 H     1 <1>   0.0800 
 39 H        7.3820     1.0770    -1.4940 H     1 <1>   0.0800 
 40 H        9.6940     0.6780    -2.0450 H     1 <1>   0.1500 
 41 H        8.7080     3.3040     1.1600 H     1 <1>   0.1500 
 42 H       12.0390     1.3960    -1.9150 H     1 <1>   0.1500 
 43 H       11.0530     4.0240     1.2930 H     1 <1>   0.1500 
 44 H       12.7240     3.0710    -0.2440 H     1 <1>   0.1500 
@<TRIPOS>BOND
  1   1   2  ar  
  2   2   3  ar  
  3   2   4  1   
  4   4   5  1   
  5   4   6  1   
  6   4  23  1   
  7   5   7  1   
  8   5   8  1   
  9   5  24  1   
 10   6   9  1   
 11   6  10  1   
 12   6  25  1   
 13   7  11  2   
 14   7  12  am  
 15   8  13  1   
 16   8  14  1   
 17   8  26  1   
 18   9  13  1   
 19   9  27  1   
 20   9  28  1   
 21  10  14  1   
 22  10  29  1   
 23  10  30  1   
 24  12  15  1   
 25  12  31  1   
 26  13  32  1   
 27  13  33  1   
 28  14  34  1   
 29  14  35  1   
 30  15  16  1   
 31  15  36  1   
 32  15  37  1   
 33  16  17  1   
 34  16  38  1   
 35  16  39  1   
 36  17  18  ar  
 37  17  19  ar  
 38  18  20  ar  
 39  18  40  1   
 40  19  21  ar  
 41  19  41  1   
 42  20  22  ar  
 43  20  42  1   
 44  21  22  ar  
 45  21  43  1   
 46  22  44  1   
@<TRIPOS>SUBSTRUCTURE
  1 ****  12 GROUP 4 **** **** 0

# MOE 2024.06 (io_trps.svl 2023.06)
