@<TRIPOS>MOLECULE
NONAME
46 47 1 0 0 
SMALL
USER_CHARGES


@<TRIPOS>ATOM
  1 S        0.0010    -0.4690     1.2570 S.o2  1 <1>   1.4470 
  2 O       -0.3800     0.5390     2.2240 O.2   1 <1>  -0.6500 
  3 O        0.2820    -1.8120     1.7140 O.2   1 <1>  -0.6500 
  4 N        1.4030     0.1070     0.4950 N.am  1 <1>  -0.8490 
  5 C       -1.2110    -0.5360    -0.0920 C.ar  1 <1>  -0.0090 
  6 C        2.5890    -0.1170     1.3260 C.3   1 <1>   0.1960 
  7 C        1.2750     1.5140     0.1030 C.3   1 <1>   0.1960 
  8 C       -0.8960    -1.1360    -1.3060 C.ar  1 <1>  -0.1500 
  9 C       -2.4840     0.0050     0.0540 C.ar  1 <1>  -0.1500 
 10 C        3.8570     0.2770     0.5640 C.3   1 <1>  -0.1600 
 11 C        2.4950     1.9500    -0.7110 C.3   1 <1>  -0.1600 
 12 C       -1.8130    -1.1900    -2.3420 C.ar  1 <1>  -0.1500 
 13 C       -3.4080    -0.0440    -0.9760 C.ar  1 <1>  -0.1500 
 14 C        3.7940     1.7350     0.0830 C.3   1 <1>  -0.0190 
 15 C       -3.0710    -0.6420    -2.1770 C.ar  1 <1>  -0.1500 
 16 C        5.0340     2.1040    -0.7290 C.2   1 <1>   0.5690 
 17 O        5.1800     1.6480    -1.8380 O.2   1 <1>  -0.5700 
 18 N        5.9510     2.9340    -0.1660 N.am  1 <1>  -0.7300 
 19 C        7.2370     3.3270    -0.7900 C.3   1 <1>   0.1400 
 20 C        8.4160     2.9600     0.1260 C.3   1 <1>  -0.0800 
 21 C        9.7310     3.4570    -0.4870 C.3   1 <1>  -0.2400 
 22 C        8.5040     1.4450     0.3690 C.3   1 <1>  -0.2400 
 23 H        2.6580    -1.1610     1.5860 H     1 <1>   0.0800 
 24 H        2.5080     0.4510     2.2380 H     1 <1>   0.0800 
 25 H        1.1790     2.1350     0.9800 H     1 <1>   0.0800 
 26 H        0.3920     1.6460    -0.5000 H     1 <1>   0.0800 
 27 H        0.0840    -1.5660    -1.4400 H     1 <1>   0.1500 
 28 H       -2.7560     0.4710     0.9860 H     1 <1>   0.1500 
 29 H        3.9700    -0.3800    -0.2820 H     1 <1>   0.0800 
 30 H        4.7130     0.1400     1.2000 H     1 <1>   0.0800 
 31 H        2.3990     2.9890    -0.9740 H     1 <1>   0.0800 
 32 H        2.5240     1.3820    -1.6250 H     1 <1>   0.0800 
 33 H       -1.5460    -1.6590    -3.2740 H     1 <1>   0.1500 
 34 H       -4.3880     0.3810    -0.8430 H     1 <1>   0.1500 
 35 H        3.7600     2.3710     0.9490 H     1 <1>   0.0800 
 36 H       -3.7870    -0.6820    -2.9800 H     1 <1>   0.1500 
 37 H        5.8040     3.2870     0.7790 H     1 <1>   0.3700 
 38 H        7.2270     4.3880    -0.9680 H     1 <1>   0.0800 
 39 H        7.3500     2.8320    -1.7420 H     1 <1>   0.0800 
 40 H        8.2830     3.4590     1.0710 H     1 <1>   0.0800 
 41 H        9.9090     2.9830    -1.4370 H     1 <1>   0.0800 
 42 H       10.5570     3.2340     0.1660 H     1 <1>   0.0800 
 43 H        9.6980     4.5220    -0.6360 H     1 <1>   0.0800 
 44 H        8.6070     0.9210    -0.5640 H     1 <1>   0.0800 
 45 H        7.6200     1.0860     0.8630 H     1 <1>   0.0800 
 46 H        9.3520     1.2130     0.9900 H     1 <1>   0.0800 
@<TRIPOS>BOND
  1   1   2  2   
  2   1   3  2   
  3   1   4  am  
  4   1   5  1   
  5   4   6  1   
  6   4   7  1   
  7   5   8  ar  
  8   5   9  ar  
  9   6  10  1   
 10   6  23  1   
 11   6  24  1   
 12   7  11  1   
 13   7  25  1   
 14   7  26  1   
 15   8  12  ar  
 16   8  27  1   
 17   9  13  ar  
 18   9  28  1   
 19  10  14  1   
 20  10  29  1   
 21  10  30  1   
 22  11  14  1   
 23  11  31  1   
 24  11  32  1   
 25  12  15  ar  
 26  12  33  1   
 27  13  15  ar  
 28  13  34  1   
 29  14  16  1   
 30  14  35  1   
 31  15  36  1   
 32  16  17  2   
 33  16  18  am  
 34  18  19  1   
 35  18  37  1   
 36  19  20  1   
 37  19  38  1   
 38  19  39  1   
 39  20  21  1   
 40  20  22  1   
 41  20  40  1   
 42  21  41  1   
 43  21  42  1   
 44  21  43  1   
 45  22  44  1   
 46  22  45  1   
 47  22  46  1   
@<TRIPOS>SUBSTRUCTURE
  1 ****  11 GROUP 4 **** **** 0

# MOE 2024.06 (io_trps.svl 2023.06)
