@<TRIPOS>MOLECULE
NONAME
57 60 1 0 0 
SMALL
USER_CHARGES


@<TRIPOS>ATOM
  1 N      -13.3610     3.1150     0.3530 N.pl3 1 <1>  -0.7030 
  2 C      -12.5360     4.1390     0.1060 C.cat 1 <1>   1.0690 
  3 C      -14.5180     3.6540     0.8960 C.ar  1 <1>   0.3040 
  4 N      -13.0780     5.2960     0.4500 N.pl3 1 <1>  -0.6320 
  5 N      -11.3060     4.2880    -0.4130 N.pl3 1 <1>  -0.5710 
  6 C      -14.3450     5.0300     0.9600 C.ar  1 <1>   0.3040 
  7 C      -15.6980     3.0680     1.3350 C.ar  1 <1>  -0.1150 
  8 C      -12.1640     6.2730     0.1270 C.2   1 <1>   0.2230 
  9 C      -11.0700     5.6800    -0.4080 C.2   1 <1>   0.1590 
 10 C      -10.5010     3.1600    -0.9590 C.3   1 <1>   0.1620 
 11 C      -15.3420     5.8540     1.4620 C.ar  1 <1>  -0.1150 
 12 C      -16.6930     3.8860     1.8370 C.ar  1 <1>  -0.1560 
 13 C       -9.8190     6.4620    -0.8860 C.3   1 <1>   0.1320 
 14 C       -9.3890     2.7520     0.0160 C.3   1 <1>  -0.1660 
 15 C      -16.5170     5.2710     1.9000 C.ar  1 <1>  -0.1560 
 16 C       -9.0500     5.7920    -2.0370 C.3   1 <1>  -0.2460 
 17 C       -8.8630     6.6750     0.2980 C.3   1 <1>  -0.2460 
 18 C      -10.2380     7.8540    -1.3970 C.3   1 <1>  -0.2460 
 19 C       -8.4600     1.7100    -0.6170 C.3   1 <1>   0.3380 
 20 N       -7.3840     1.3180     0.3310 N.4   1 <1>  -0.9600 
 21 C       -6.3430     2.3800     0.4970 C.3   1 <1>   0.3380 
 22 C       -6.7530     0.0350    -0.1000 C.3   1 <1>   0.3380 
 23 C       -5.3540     1.9640     1.5860 C.3   1 <1>  -0.1660 
 24 C       -5.7750    -0.4440     0.9730 C.3   1 <1>  -0.1660 
 25 C       -4.7030     0.6110     1.2730 C.3   1 <1>  -0.1660 
 26 H      -13.1960     2.1310     0.1570 H     1 <1>   0.4460 
 27 H      -15.8320     2.0010     1.2860 H     1 <1>   0.1440 
 28 H      -12.3690     7.3160     0.3070 H     1 <1>   0.1440 
 29 H      -10.0970     3.4340    -1.9170 H     1 <1>   0.0730 
 30 H      -11.1450     2.3130    -1.1310 H     1 <1>   0.0730 
 31 H      -15.1980     6.9190     1.5070 H     1 <1>   0.1440 
 32 H      -17.6200     3.4590     2.1850 H     1 <1>   0.1440 
 33 H       -9.8310     2.3430     0.9070 H     1 <1>   0.0730 
 34 H       -8.8170     3.6200     0.2760 H     1 <1>   0.0730 
 35 H      -17.3100     5.8850     2.2960 H     1 <1>   0.1440 
 36 H       -9.7190     5.5340    -2.8390 H     1 <1>   0.0730 
 37 H       -8.5260     4.9180    -1.7060 H     1 <1>   0.0730 
 38 H       -8.3070     6.4630    -2.4340 H     1 <1>   0.0730 
 39 H       -8.5170     5.7450     0.7000 H     1 <1>   0.0730 
 40 H       -9.3540     7.2170     1.0880 H     1 <1>   0.0730 
 41 H       -8.0040     7.2470    -0.0110 H     1 <1>   0.0730 
 42 H      -10.9540     7.7660    -2.1960 H     1 <1>   0.0730 
 43 H       -9.3870     8.3930    -1.7770 H     1 <1>   0.0730 
 44 H      -10.6640     8.4560    -0.6150 H     1 <1>   0.0730 
 45 H       -8.0200     2.1030    -1.5200 H     1 <1>   0.0730 
 46 H       -9.0390     0.8380    -0.8780 H     1 <1>   0.0730 
 47 H       -7.7860     1.1430     1.2600 H     1 <1>   0.4460 
 48 H       -6.8020     3.3140     0.7770 H     1 <1>   0.0730 
 49 H       -5.8160     2.5230    -0.4320 H     1 <1>   0.0730 
 50 H       -6.2250     0.1810    -1.0290 H     1 <1>   0.0730 
 51 H       -7.5100    -0.7180    -0.2530 H     1 <1>   0.0730 
 52 H       -5.8620     1.9160     2.5340 H     1 <1>   0.0730 
 53 H       -4.5870     2.7140     1.6700 H     1 <1>   0.0730 
 54 H       -5.2970    -1.3470     0.6350 H     1 <1>   0.0730 
 55 H       -6.3160    -0.6840     1.8720 H     1 <1>   0.0730 
 56 H       -4.0980     0.2940     2.1060 H     1 <1>   0.0730 
 57 H       -4.0550     0.7160     0.4180 H     1 <1>   0.0730 
@<TRIPOS>BOND
  1   1   2  ar  
  2   1   3  1   
  3   1  26  1   
  4   2   4  ar  
  5   2   5  ar  
  6   3   6  ar  
  7   3   7  ar  
  8   4   6  1   
  9   4   8  1   
 10   5   9  1   
 11   5  10  1   
 12   6  11  ar  
 13   7  12  ar  
 14   7  27  1   
 15   8   9  2   
 16   8  28  1   
 17   9  13  1   
 18  10  14  1   
 19  10  29  1   
 20  10  30  1   
 21  11  15  ar  
 22  11  31  1   
 23  12  15  ar  
 24  12  32  1   
 25  13  16  1   
 26  13  17  1   
 27  13  18  1   
 28  14  19  1   
 29  14  33  1   
 30  14  34  1   
 31  15  35  1   
 32  16  36  1   
 33  16  37  1   
 34  16  38  1   
 35  17  39  1   
 36  17  40  1   
 37  17  41  1   
 38  18  42  1   
 39  18  43  1   
 40  18  44  1   
 41  19  20  1   
 42  19  45  1   
 43  19  46  1   
 44  20  21  1   
 45  20  22  1   
 46  20  47  1   
 47  21  23  1   
 48  21  48  1   
 49  21  49  1   
 50  22  24  1   
 51  22  50  1   
 52  22  51  1   
 53  23  25  1   
 54  23  52  1   
 55  23  53  1   
 56  24  25  1   
 57  24  54  1   
 58  24  55  1   
 59  25  56  1   
 60  25  57  1   
@<TRIPOS>SUBSTRUCTURE
  1 ****   5 GROUP 4 **** **** 0

# MOE 2024.06 (io_trps.svl 2023.06)
