@<TRIPOS>MOLECULE
NONAME
48 49 1 0 0 
SMALL
USER_CHARGES


@<TRIPOS>ATOM
  1 O       -0.1760     0.5190     1.1650 O.2   1 <1>  -0.5700 
  2 C       -0.1110     1.3190     0.2520 C.2   1 <1>   0.6900 
  3 N       -1.2180     1.8200    -0.3550 N.am  1 <1>  -0.5470 
  4 N        1.0970     1.7420    -0.1920 N.am  1 <1>  -0.7300 
  5 C       -2.5270     1.3140    -0.3070 C.ar  1 <1>   0.1170 
  6 C        2.3620     1.2360     0.3530 C.3   1 <1>   0.2200 
  7 C       -2.8420     0.0010    -0.6760 C.ar  1 <1>   0.0830 
  8 C       -3.5540     2.1530     0.1010 C.ar  1 <1>  -0.1500 
  9 C        3.4620     2.2770     0.1670 C.3   1 <1>  -0.1600 
 10 C        2.7270    -0.0700    -0.3500 C.3   1 <1>  -0.1600 
 11 O       -1.8660    -0.8400    -1.1110 O.3   1 <1>  -0.3630 
 12 C       -4.1550    -0.4440    -0.6330 C.ar  1 <1>  -0.1500 
 13 C       -4.8660     1.7120     0.1510 C.ar  1 <1>   0.0830 
 14 C        4.7950     1.7260     0.6690 C.3   1 <1>   0.3430 
 15 C        4.0640    -0.5880     0.1660 C.3   1 <1>   0.3430 
 16 C       -1.6310    -1.9760    -0.3090 C.3   1 <1>   0.0400 
 17 C       -5.1670     0.4040    -0.2180 C.ar  1 <1>  -0.1500 
 18 O       -5.7950     2.6130     0.5670 O.3   1 <1>  -0.3630 
 19 N        5.1230     0.4470    -0.0370 N.4   1 <1>  -0.9590 
 20 C       -7.1490     2.2460     0.7110 C.3   1 <1>   0.0400 
 21 C        6.4470    -0.0920     0.3730 C.3   1 <1>   0.3430 
 22 C        7.5590     0.7680    -0.2170 C.3   1 <1>  -0.2400 
 23 H       -1.1080     2.7270    -0.7930 H     1 <1>   0.3700 
 24 H        1.1290     2.1830    -1.1090 H     1 <1>   0.3700 
 25 H        2.2330     1.0460     1.4080 H     1 <1>   0.0800 
 26 H       -3.3390     3.1630     0.3930 H     1 <1>   0.1500 
 27 H        3.2140     3.1580     0.7330 H     1 <1>   0.0800 
 28 H        3.5540     2.5530    -0.8680 H     1 <1>   0.0800 
 29 H        2.7750     0.0710    -1.4150 H     1 <1>   0.0800 
 30 H        1.9680    -0.8050    -0.1420 H     1 <1>   0.0800 
 31 H       -4.3880    -1.4490    -0.9320 H     1 <1>   0.1500 
 32 H        4.7330     1.5500     1.7310 H     1 <1>   0.0800 
 33 H        5.5680     2.4570     0.4940 H     1 <1>   0.0800 
 34 H        4.3240    -1.4920    -0.3620 H     1 <1>   0.0800 
 35 H        3.9770    -0.8210     1.2150 H     1 <1>   0.0800 
 36 H       -0.7330    -2.4520    -0.6570 H     1 <1>   0.0800 
 37 H       -2.4620    -2.6500    -0.3970 H     1 <1>   0.0800 
 38 H       -1.5070    -1.6610     0.7130 H     1 <1>   0.0800 
 39 H       -6.1740     0.0320    -0.1940 H     1 <1>   0.1500 
 40 H        5.1710     0.6470    -1.0450 H     1 <1>   0.4500 
 41 H       -7.6890     3.1030     1.0720 H     1 <1>   0.0800 
 42 H       -7.2190     1.4430     1.4230 H     1 <1>   0.0800 
 43 H       -7.5340     1.9480    -0.2480 H     1 <1>   0.0800 
 44 H        6.5580    -1.1000     0.0040 H     1 <1>   0.0800 
 45 H        6.5260    -0.1170     1.4480 H     1 <1>   0.0800 
 46 H        7.4810     0.8160    -1.2890 H     1 <1>   0.0800 
 47 H        8.5090     0.3230     0.0230 H     1 <1>   0.0800 
 48 H        7.5540     1.7610     0.1940 H     1 <1>   0.0800 
@<TRIPOS>BOND
  1   1   2  2   
  2   2   3  am  
  3   2   4  am  
  4   3   5  1   
  5   3  23  1   
  6   4   6  1   
  7   4  24  1   
  8   5   7  ar  
  9   5   8  ar  
 10   6   9  1   
 11   6  10  1   
 12   6  25  1   
 13   7  11  1   
 14   7  12  ar  
 15   8  13  ar  
 16   8  26  1   
 17   9  14  1   
 18   9  27  1   
 19   9  28  1   
 20  10  15  1   
 21  10  29  1   
 22  10  30  1   
 23  11  16  1   
 24  12  17  ar  
 25  12  31  1   
 26  13  17  ar  
 27  13  18  1   
 28  14  19  1   
 29  14  32  1   
 30  14  33  1   
 31  15  19  1   
 32  15  34  1   
 33  15  35  1   
 34  16  36  1   
 35  16  37  1   
 36  16  38  1   
 37  17  39  1   
 38  18  20  1   
 39  19  21  1   
 40  19  40  1   
 41  20  41  1   
 42  20  42  1   
 43  20  43  1   
 44  21  22  1   
 45  21  44  1   
 46  21  45  1   
 47  22  46  1   
 48  22  47  1   
 49  22  48  1   
@<TRIPOS>SUBSTRUCTURE
  1 ****   2 GROUP 4 **** **** 0

# MOE 2024.06 (io_trps.svl 2023.06)
