@<TRIPOS>MOLECULE
NONAME
43 45 1 0 0 
SMALL
USER_CHARGES


@<TRIPOS>ATOM
  1 O       -0.2560    -0.3030     1.2080 O.2   1 <1>  -0.5700 
  2 C       -0.7190    -1.2390     0.5890 C.2   1 <1>   0.5440 
  3 N        0.1110    -2.1190    -0.0640 N.am  1 <1>  -0.5470 
  4 C       -2.1530    -1.4110     0.5080 C.ar  1 <1>   0.0860 
  5 C        1.5130    -2.2370    -0.0610 C.ar  1 <1>   0.1170 
  6 C       -2.9990    -0.3050     0.5860 C.ar  1 <1>   0.1600 
  7 C       -2.7580    -2.6550     0.3520 C.ar  1 <1>  -0.1500 
  8 C        2.1380    -2.8150    -1.1610 C.ar  1 <1>  -0.1500 
  9 C        2.3040    -1.8230     1.0050 C.ar  1 <1>  -0.1500 
 10 N       -4.3210    -0.3310     0.5050 N.ar  1 <1>  -0.6200 
 11 C       -4.1330    -2.7030     0.2690 C.ar  1 <1>  -0.1500 
 12 C        3.5110    -2.9690    -1.1940 C.ar  1 <1>  -0.1500 
 13 C        3.6780    -1.9770     0.9700 C.ar  1 <1>  -0.1500 
 14 C       -4.8590    -1.5280     0.3490 C.ar  1 <1>   0.1600 
 15 C        4.2990    -2.5540    -0.1320 C.ar  1 <1>   0.1000 
 16 N        5.6830    -2.7160    -0.1980 N.pl3 1 <1>  -0.8380 
 17 C        6.3300    -3.6040     0.8120 C.3   1 <1>   0.2890 
 18 C        6.4100    -1.4360    -0.4090 C.3   1 <1>   0.2090 
 19 C        7.7790    -3.8890     0.3850 C.3   1 <1>  -0.1600 
 20 C        5.5630    -4.9220     0.9380 C.3   1 <1>  -0.2400 
 21 C        7.8460    -1.7130    -0.8590 C.3   1 <1>  -0.1600 
 22 C        8.5820    -2.6040     0.1480 C.3   1 <1>  -0.1600 
 23 H       -0.3540    -2.7360    -0.7250 H     1 <1>   0.3700 
 24 H       -2.5440     0.6630     0.7220 H     1 <1>   0.1500 
 25 H       -2.1760    -3.5590     0.3060 H     1 <1>   0.1500 
 26 H        1.5530    -3.1430    -1.9990 H     1 <1>   0.1500 
 27 H        1.8480    -1.3780     1.8710 H     1 <1>   0.1500 
 28 H       -4.6440    -3.6420     0.1480 H     1 <1>   0.1500 
 29 H        3.9960    -3.4140    -2.0440 H     1 <1>   0.1500 
 30 H        4.2760    -1.6490     1.7980 H     1 <1>   0.1500 
 31 H       -5.9340    -1.5750     0.2830 H     1 <1>   0.1500 
 32 H        6.3350    -3.1030     1.7660 H     1 <1>   0.0800 
 33 H        6.4150    -0.8720     0.5070 H     1 <1>   0.0800 
 34 H        5.9010    -0.8570    -1.1610 H     1 <1>   0.0800 
 35 H        7.7630    -4.4690    -0.5210 H     1 <1>   0.0800 
 36 H        8.2650    -4.4770     1.1430 H     1 <1>   0.0800 
 37 H        5.4730    -5.3890    -0.0260 H     1 <1>   0.0800 
 38 H        4.5830    -4.7510     1.3410 H     1 <1>   0.0800 
 39 H        6.0820    -5.5900     1.6000 H     1 <1>   0.0800 
 40 H        8.3690    -0.7800    -0.9710 H     1 <1>   0.0800 
 41 H        7.8170    -2.1940    -1.8210 H     1 <1>   0.0800 
 42 H        9.5610    -2.8470    -0.2250 H     1 <1>   0.0800 
 43 H        8.6960    -2.0750     1.0790 H     1 <1>   0.0800 
@<TRIPOS>BOND
  1   1   2  2   
  2   2   3  am  
  3   2   4  1   
  4   3   5  1   
  5   3  23  1   
  6   4   6  ar  
  7   4   7  ar  
  8   5   8  ar  
  9   5   9  ar  
 10   6  10  ar  
 11   6  24  1   
 12   7  11  ar  
 13   7  25  1   
 14   8  12  ar  
 15   8  26  1   
 16   9  13  ar  
 17   9  27  1   
 18  10  14  ar  
 19  11  14  ar  
 20  11  28  1   
 21  12  15  ar  
 22  12  29  1   
 23  13  15  ar  
 24  13  30  1   
 25  14  31  1   
 26  15  16  1   
 27  16  17  1   
 28  16  18  1   
 29  17  19  1   
 30  17  20  1   
 31  17  32  1   
 32  18  21  1   
 33  18  33  1   
 34  18  34  1   
 35  19  22  1   
 36  19  35  1   
 37  19  36  1   
 38  20  37  1   
 39  20  38  1   
 40  20  39  1   
 41  21  22  1   
 42  21  40  1   
 43  21  41  1   
 44  22  42  1   
 45  22  43  1   
@<TRIPOS>SUBSTRUCTURE
  1 ****   5 GROUP 4 **** **** 0

# MOE 2024.06 (io_trps.svl 2023.06)
