@<TRIPOS>MOLECULE
NONAME
39 41 1 0 0 
SMALL
USER_CHARGES


@<TRIPOS>ATOM
  1 S        0.2010    -0.2890    -0.9450 S.3   1 <1>  -0.4600 
  2 C        1.7880     0.5830    -0.8860 C.3   1 <1>   0.0700 
  3 C        0.7040    -2.0240    -1.0740 C.3   1 <1>   0.0700 
  4 C        2.6520    -0.0280     0.2240 C.3   1 <1>   0.3430 
  5 C        1.6900    -2.3440     0.0580 C.3   1 <1>   0.3430 
  6 N        2.9300    -1.4940     0.0030 N.4   1 <1>  -0.9590 
  7 C        3.9540    -1.9910     0.9660 C.3   1 <1>   0.4860 
  8 C        5.2590    -1.2660     0.7000 C.ar  1 <1>  -0.1440 
  9 C        5.7120    -0.2960     1.5830 C.ar  1 <1>  -0.1500 
 10 C        6.0110    -1.5580    -0.4280 C.ar  1 <1>  -0.1500 
 11 C        6.8920     0.3800     1.3280 C.ar  1 <1>  -0.1500 
 12 C        7.1880    -0.8760    -0.6750 C.ar  1 <1>  -0.1500 
 13 C        7.6490     0.1060     0.1950 C.ar  1 <1>   0.0000 
 14 C        8.8800     0.8170    -0.0690 C.ar  1 <1>   0.0000 
 15 C        8.8940     2.2030    -0.1990 C.ar  1 <1>  -0.1500 
 16 C       10.0860     0.1350    -0.2010 C.ar  1 <1>  -0.1500 
 17 C       10.0710     2.8850    -0.4520 C.ar  1 <1>  -0.1500 
 18 C       11.2660     0.8110    -0.4550 C.ar  1 <1>  -0.1500 
 19 C       11.2600     2.1890    -0.5810 C.ar  1 <1>  -0.1500 
 20 H        1.5700     1.6170    -0.6840 H     1 <1>   0.0800 
 21 H        2.2520     0.4960    -1.8530 H     1 <1>   0.0800 
 22 H        1.1420    -2.1700    -2.0450 H     1 <1>   0.0800 
 23 H       -0.1900    -2.6160    -0.9890 H     1 <1>   0.0800 
 24 H        2.1530     0.1100     1.1690 H     1 <1>   0.0800 
 25 H        3.5830     0.5160     0.2590 H     1 <1>   0.0800 
 26 H        1.9620    -3.3840    -0.0130 H     1 <1>   0.0800 
 27 H        1.1900    -2.1960     1.0020 H     1 <1>   0.0800 
 28 H        3.3520    -1.5800    -0.9300 H     1 <1>   0.4500 
 29 H        4.1070    -3.0500     0.8350 H     1 <1>   0.0800 
 30 H        3.6320    -1.8150     1.9790 H     1 <1>   0.0800 
 31 H        5.1620    -0.0550     2.4770 H     1 <1>   0.1500 
 32 H        5.7000    -2.3170    -1.1260 H     1 <1>   0.1500 
 33 H        7.2430     1.1280     2.0180 H     1 <1>   0.1500 
 34 H        7.7680    -1.1030    -1.5540 H     1 <1>   0.1500 
 35 H        7.9750     2.7510    -0.1030 H     1 <1>   0.1500 
 36 H       10.1000    -0.9360    -0.0990 H     1 <1>   0.1500 
 37 H       10.0640     3.9560    -0.5500 H     1 <1>   0.1500 
 38 H       12.1890     0.2670    -0.5530 H     1 <1>   0.1500 
 39 H       12.1760     2.7170    -0.7780 H     1 <1>   0.1500 
@<TRIPOS>BOND
  1   1   2  1   
  2   1   3  1   
  3   2   4  1   
  4   2  20  1   
  5   2  21  1   
  6   3   5  1   
  7   3  22  1   
  8   3  23  1   
  9   4   6  1   
 10   4  24  1   
 11   4  25  1   
 12   5   6  1   
 13   5  26  1   
 14   5  27  1   
 15   6   7  1   
 16   6  28  1   
 17   7   8  1   
 18   7  29  1   
 19   7  30  1   
 20   8   9  ar  
 21   8  10  ar  
 22   9  11  ar  
 23   9  31  1   
 24  10  12  ar  
 25  10  32  1   
 26  11  13  ar  
 27  11  33  1   
 28  12  13  ar  
 29  12  34  1   
 30  13  14  1   
 31  14  15  ar  
 32  14  16  ar  
 33  15  17  ar  
 34  15  35  1   
 35  16  18  ar  
 36  16  36  1   
 37  17  19  ar  
 38  17  37  1   
 39  18  19  ar  
 40  18  38  1   
 41  19  39  1   
@<TRIPOS>SUBSTRUCTURE
  1 ****  10 GROUP 4 **** **** 0

# MOE 2024.06 (io_trps.svl 2023.06)
