@<TRIPOS>MOLECULE
NONAME
40 41 1 0 0 
SMALL
USER_CHARGES


@<TRIPOS>ATOM
  1 O       -1.7650    -0.0920    -1.5750 O.3   1 <1>  -0.3630 
  2 C       -2.1920     0.7030    -0.5530 C.ar  1 <1>   0.0830 
  3 C       -0.4110    -0.1660    -1.9670 C.3   1 <1>   0.0400 
  4 C       -1.5280     1.8230    -0.0240 C.ar  1 <1>   0.0830 
  5 C       -3.4140     0.3240    -0.0260 C.ar  1 <1>  -0.1500 
  6 O       -0.3380     2.2300    -0.5540 O.3   1 <1>  -0.3630 
  7 C       -2.1170     2.5120     1.0350 C.ar  1 <1>  -0.1500 
  8 C       -4.0030     1.0270     1.0130 C.ar  1 <1>  -0.1430 
  9 C        0.3960     3.3190    -0.0370 C.3   1 <1>   0.0400 
 10 C       -3.3400     2.1190     1.5490 C.ar  1 <1>  -0.1500 
 11 C       -5.3610     0.6070     1.5380 C.3   1 <1>   0.4860 
 12 N       -6.3720     0.8890     0.4810 N.4   1 <1>  -0.9590 
 13 C       -6.4700     2.3540     0.1950 C.3   1 <1>   0.3430 
 14 C       -7.6900     0.2710     0.8070 C.3   1 <1>   0.3430 
 15 C       -7.4250     2.5920    -0.9710 C.3   1 <1>  -0.1600 
 16 C       -8.6600     0.4790    -0.3530 C.3   1 <1>  -0.1600 
 17 C       -8.7840     1.9660    -0.6750 C.3   1 <1>   0.2000 
 18 O       -9.5860     2.1100    -1.7790 O.3   1 <1>  -0.6800 
 19 H       -0.2920    -1.0220    -2.6050 H     1 <1>   0.0800 
 20 H        0.2040    -0.2720    -1.0900 H     1 <1>   0.0800 
 21 H       -0.1560     0.7270    -2.5080 H     1 <1>   0.0800 
 22 H       -3.8890    -0.5410    -0.4520 H     1 <1>   0.1500 
 23 H       -1.6380     3.3660     1.4770 H     1 <1>   0.1500 
 24 H        1.2980     3.4160    -0.6130 H     1 <1>   0.0800 
 25 H        0.6410     3.1210     0.9920 H     1 <1>   0.0800 
 26 H       -0.1920     4.2150    -0.1310 H     1 <1>   0.0800 
 27 H       -3.7620     2.6780     2.3670 H     1 <1>   0.1500 
 28 H       -5.5960     1.1490     2.4390 H     1 <1>   0.0800 
 29 H       -5.3410    -0.4470     1.7640 H     1 <1>   0.0800 
 30 H       -6.0090     0.4500    -0.3750 H     1 <1>   0.4500 
 31 H       -5.4980     2.7500    -0.0560 H     1 <1>   0.0800 
 32 H       -6.8310     2.8740     1.0680 H     1 <1>   0.0800 
 33 H       -8.0960     0.7240     1.6980 H     1 <1>   0.0800 
 34 H       -7.5710    -0.7860     0.9880 H     1 <1>   0.0800 
 35 H       -6.9990     2.1770    -1.8680 H     1 <1>   0.0800 
 36 H       -7.5440     3.6520    -1.1130 H     1 <1>   0.0800 
 37 H       -9.6270     0.0960    -0.0740 H     1 <1>   0.0800 
 38 H       -8.3130    -0.0680    -1.2110 H     1 <1>   0.0800 
 39 H       -9.2650     2.4850     0.1390 H     1 <1>   0.0800 
 40 H       -9.2000     1.6890    -2.5710 H     1 <1>   0.4000 
@<TRIPOS>BOND
  1   1   2  1   
  2   1   3  1   
  3   2   4  ar  
  4   2   5  ar  
  5   3  19  1   
  6   3  20  1   
  7   3  21  1   
  8   4   6  1   
  9   4   7  ar  
 10   5   8  ar  
 11   5  22  1   
 12   6   9  1   
 13   7  10  ar  
 14   7  23  1   
 15   8  10  ar  
 16   8  11  1   
 17   9  24  1   
 18   9  25  1   
 19   9  26  1   
 20  10  27  1   
 21  11  12  1   
 22  11  28  1   
 23  11  29  1   
 24  12  13  1   
 25  12  14  1   
 26  12  30  1   
 27  13  15  1   
 28  13  31  1   
 29  13  32  1   
 30  14  16  1   
 31  14  33  1   
 32  14  34  1   
 33  15  17  1   
 34  15  35  1   
 35  15  36  1   
 36  16  17  1   
 37  16  37  1   
 38  16  38  1   
 39  17  18  1   
 40  17  39  1   
 41  18  40  1   
@<TRIPOS>SUBSTRUCTURE
  1 ****   8 GROUP 4 **** **** 0

# MOE 2024.06 (io_trps.svl 2023.06)
