@<TRIPOS>MOLECULE
NONAME
31 31 1 0 0 
SMALL
USER_CHARGES


@<TRIPOS>ATOM
  1 BR       0.1430     0.5440    -0.8540 Br    1 <1>  -0.1110 
  2 C        1.9800     0.3620    -0.3140 C.ar  1 <1>   0.1110 
  3 C        2.7230    -0.6850    -0.8220 C.ar  1 <1>  -0.1500 
  4 C        2.5090     1.2820     0.5700 C.ar  1 <1>  -0.1500 
  5 C        4.0450    -0.8110    -0.4320 C.ar  1 <1>  -0.1500 
  6 C        3.8320     1.1480     0.9540 C.ar  1 <1>  -0.1500 
  7 C        4.6040     0.1040     0.4540 C.ar  1 <1>  -0.1430 
  8 C        6.0530    -0.0310     0.8670 C.3   1 <1>   0.4870 
  9 N        6.8310     0.8460    -0.0240 N.4   1 <1>  -0.9060 
 10 C        8.2890     0.8600     0.2070 C.3   1 <1>   0.4230 
 11 C        8.8260     2.2610    -0.1680 C.3   1 <1>   0.1200 
 12 C        8.9440    -0.2730    -0.5950 C.3   1 <1>  -0.1600 
 13 O        7.8750     3.2340     0.1630 O.3   1 <1>  -0.6800 
 14 C       10.4520    -0.3930    -0.3280 C.3   1 <1>  -0.2400 
 15 H        2.2710    -1.3820    -1.5060 H     1 <1>   0.1500 
 16 H        1.8950     2.0820     0.9450 H     1 <1>   0.1500 
 17 H        4.6240    -1.6310    -0.8260 H     1 <1>   0.1500 
 18 H        4.2450     1.8640     1.6470 H     1 <1>   0.1500 
 19 H        6.3710    -1.0560     0.7610 H     1 <1>   0.0800 
 20 H        6.1740     0.2700     1.8950 H     1 <1>   0.0800 
 21 H        6.5420     1.8280     0.1340 H     1 <1>   0.4500 
 22 H        6.6030     0.6520    -1.0020 H     1 <1>   0.4500 
 23 H        8.4840     0.7070     1.2570 H     1 <1>   0.0800 
 24 H        9.0180     2.3270    -1.2260 H     1 <1>   0.0800 
 25 H        9.7380     2.4690     0.3660 H     1 <1>   0.0800 
 26 H        8.7920    -0.1140    -1.6490 H     1 <1>   0.0800 
 27 H        8.4880    -1.2110    -0.3270 H     1 <1>   0.0800 
 28 H        8.2310     4.1390     0.0090 H     1 <1>   0.4000 
 29 H       10.9810     0.4860    -0.6550 H     1 <1>   0.0800 
 30 H       10.8510    -1.2360    -0.8680 H     1 <1>   0.0800 
 31 H       10.6470    -0.5470     0.7190 H     1 <1>   0.0800 
@<TRIPOS>BOND
  1   1   2  1   
  2   2   3  ar  
  3   2   4  ar  
  4   3   5  ar  
  5   3  15  1   
  6   4   6  ar  
  7   4  16  1   
  8   5   7  ar  
  9   5  17  1   
 10   6   7  ar  
 11   6  18  1   
 12   7   8  1   
 13   8   9  1   
 14   8  19  1   
 15   8  20  1   
 16   9  10  1   
 17   9  21  1   
 18   9  22  1   
 19  10  11  1   
 20  10  12  1   
 21  10  23  1   
 22  11  13  1   
 23  11  24  1   
 24  11  25  1   
 25  12  14  1   
 26  12  26  1   
 27  12  27  1   
 28  13  28  1   
 29  14  29  1   
 30  14  30  1   
 31  14  31  1   
@<TRIPOS>SUBSTRUCTURE
  1 ****   7 GROUP 4 **** **** 0

# MOE 2024.06 (io_trps.svl 2023.06)
