@<TRIPOS>MOLECULE
NONAME
56 58 1 0 0 
SMALL
USER_CHARGES


@<TRIPOS>ATOM
  1 O        0.3320    -0.0100    -2.1800 O.2   1 <1>  -0.5700 
  2 C        0.7720    -1.0430    -1.7070 C.2   1 <1>   0.5440 
  3 N        1.9310    -0.9740    -0.9510 N.am  1 <1>  -0.6600 
  4 C        0.0740    -2.2920    -1.9180 C.ar  1 <1>   0.0860 
  5 C        2.5220     0.3530    -0.6190 C.3   1 <1>   0.1400 
  6 C        2.3260    -2.0340     0.0260 C.3   1 <1>   0.1400 
  7 C       -1.2630    -2.4850    -1.5260 C.ar  1 <1>   0.1170 
  8 C        0.7390    -3.3510    -2.5410 C.ar  1 <1>  -0.1500 
  9 C        2.0300     0.7760     0.7750 C.3   1 <1>   0.3430 
 10 C        1.9450    -1.6250     1.4650 C.3   1 <1>   0.3430 
 11 N       -2.0620    -1.4860    -0.9610 N.am  1 <1>  -0.5470 
 12 C       -1.8650    -3.7200    -1.7430 C.ar  1 <1>  -0.1500 
 13 C        0.1270    -4.5700    -2.7490 C.ar  1 <1>  -0.1500 
 14 N        2.4020    -0.2320     1.8370 N.4   1 <1>  -0.9590 
 15 C       -1.8470    -0.6040     0.0640 C.2   1 <1>   0.5690 
 16 C       -1.1820    -4.7570    -2.3440 C.ar  1 <1>  -0.1500 
 17 C        1.7920     0.1610     3.1400 C.3   1 <1>   0.2630 
 18 O       -0.8960    -0.6760     0.8130 O.2   1 <1>  -0.5700 
 19 C       -2.8830     0.5110     0.2790 C.3   1 <1>   0.2610 
 20 O       -4.1490     0.1480    -0.2570 O.3   1 <1>  -0.3630 
 21 C       -2.4650     1.8100    -0.4160 C.3   1 <1>  -0.2400 
 22 C       -4.8830    -0.8800     0.2400 C.ar  1 <1>   0.0820 
 23 C       -5.9880    -1.2660    -0.5000 C.ar  1 <1>  -0.1500 
 24 C       -4.5780    -1.5590     1.4170 C.ar  1 <1>  -0.1500 
 25 C       -6.7760    -2.3240    -0.0840 C.ar  1 <1>  -0.1500 
 26 C       -5.3690    -2.6170     1.8290 C.ar  1 <1>  -0.1500 
 27 C       -6.4680    -3.0080     1.0810 C.ar  1 <1>  -0.1430 
 28 C       -7.3330    -4.1680     1.5390 C.3   1 <1>  -0.0970 
 29 H        2.2320     1.0950    -1.3440 H     1 <1>   0.0800 
 30 H        3.5960     0.2890    -0.6350 H     1 <1>   0.0800 
 31 H        3.3880    -2.1940    -0.0370 H     1 <1>   0.0800 
 32 H        1.8470    -2.9690    -0.2010 H     1 <1>   0.0800 
 33 H        1.7530    -3.2060    -2.8710 H     1 <1>   0.1500 
 34 H        0.9570     0.8760     0.7300 H     1 <1>   0.0800 
 35 H        2.4440     1.7390     1.0200 H     1 <1>   0.0800 
 36 H        2.3630    -2.3390     2.1530 H     1 <1>   0.0800 
 37 H        0.8760    -1.6880     1.5560 H     1 <1>   0.0800 
 38 H       -2.9950    -1.3890    -1.3730 H     1 <1>   0.3700 
 39 H       -2.8870    -3.8700    -1.4370 H     1 <1>   0.1500 
 40 H        0.6600    -5.3740    -3.2300 H     1 <1>   0.1500 
 41 H        3.4270    -0.2410     1.9220 H     1 <1>   0.4500 
 42 H       -1.6650    -5.7070    -2.5030 H     1 <1>   0.1500 
 43 H        0.7160     0.1650     3.0560 H     1 <1>   0.0800 
 44 H        2.1200     1.1460     3.4280 H     1 <1>   0.0800 
 45 H        2.0740    -0.5360     3.9130 H     1 <1>   0.0800 
 46 H       -3.0080     0.6960     1.3300 H     1 <1>   0.0800 
 47 H       -2.3410     1.6440    -1.4720 H     1 <1>   0.0800 
 48 H       -1.5280     2.1540    -0.0160 H     1 <1>   0.0800 
 49 H       -3.2070     2.5720    -0.2560 H     1 <1>   0.0800 
 50 H       -6.2300    -0.7350    -1.4030 H     1 <1>   0.1500 
 51 H       -3.7390    -1.2860     2.0270 H     1 <1>   0.1500 
 52 H       -7.6320    -2.6120    -0.6700 H     1 <1>   0.1500 
 53 H       -5.1270    -3.1380     2.7390 H     1 <1>   0.1500 
 54 H       -8.1170    -3.8060     2.1790 H     1 <1>   0.0800 
 55 H       -6.7440    -4.8850     2.0830 H     1 <1>   0.0800 
 56 H       -7.7750    -4.6650     0.6950 H     1 <1>   0.0800 
@<TRIPOS>BOND
  1   1   2  2   
  2   2   3  am  
  3   2   4  1   
  4   3   5  1   
  5   3   6  1   
  6   4   7  ar  
  7   4   8  ar  
  8   5   9  1   
  9   5  29  1   
 10   5  30  1   
 11   6  10  1   
 12   6  31  1   
 13   6  32  1   
 14   7  11  1   
 15   7  12  ar  
 16   8  13  ar  
 17   8  33  1   
 18   9  14  1   
 19   9  34  1   
 20   9  35  1   
 21  10  14  1   
 22  10  36  1   
 23  10  37  1   
 24  11  15  am  
 25  11  38  1   
 26  12  16  ar  
 27  12  39  1   
 28  13  16  ar  
 29  13  40  1   
 30  14  17  1   
 31  14  41  1   
 32  15  18  2   
 33  15  19  1   
 34  16  42  1   
 35  17  43  1   
 36  17  44  1   
 37  17  45  1   
 38  19  20  1   
 39  19  21  1   
 40  19  46  1   
 41  20  22  1   
 42  21  47  1   
 43  21  48  1   
 44  21  49  1   
 45  22  23  ar  
 46  22  24  ar  
 47  23  25  ar  
 48  23  50  1   
 49  24  26  ar  
 50  24  51  1   
 51  25  27  ar  
 52  25  52  1   
 53  26  27  ar  
 54  26  53  1   
 55  27  28  1   
 56  28  54  1   
 57  28  55  1   
 58  28  56  1   
@<TRIPOS>SUBSTRUCTURE
  1 ****  11 GROUP 4 **** **** 0

# MOE 2024.06 (io_trps.svl 2023.06)
