@<TRIPOS>MOLECULE
NONAME
38 40 1 0 0 
SMALL
USER_CHARGES


@<TRIPOS>ATOM
  1 S        6.0200     2.0990    -1.0580 S.3   1 <1>  -0.0800 
  2 C        5.1380     3.5580    -0.6310 C.ar  1 <1>   0.2970 
  3 C        4.8080     1.0730    -0.2920 C.2   1 <1>  -0.1400 
  4 N        5.5700     4.7580    -0.9520 N.ar  1 <1>  -0.5670 
  5 C        3.9860     3.2500     0.0530 C.ar  1 <1>   0.0000 
  6 C        3.8170     1.8190     0.2400 C.2   1 <1>  -0.1810 
  7 C        5.0950    -0.4150    -0.3670 C.3   1 <1>  -0.0600 
  8 C        4.7640     5.7130    -0.5410 C.ar  1 <1>   0.4770 
  9 C        3.2290     4.3700     0.4190 C.ar  1 <1>   0.4100 
 10 C        2.6160     1.2520     0.9820 C.3   1 <1>  -0.0590 
 11 N        3.6230     5.5940     0.1190 N.ar  1 <1>  -0.6200 
 12 C        5.1810     7.1290    -0.8590 C.3   1 <1>  -0.0960 
 13 N        2.0380     4.2590     1.0910 N.pl3 1 <1>  -0.8690 
 14 C        1.1260     5.3950     1.4220 C.3   1 <1>   0.2090 
 15 C        0.3530     5.8870     0.1870 C.3   1 <1>   0.2000 
 16 O       -0.6450     6.7740     0.5790 O.3   1 <1>  -0.5600 
 17 C       -0.4010     4.8050    -0.5770 C.3   1 <1>  -0.1600 
 18 C       -1.6020     6.8830    -0.4250 C.3   1 <1>   0.1200 
 19 C       -1.5570     5.5690    -1.2030 C.3   1 <1>  -0.1600 
 20 H        5.1640    -0.7190    -1.3960 H     1 <1>   0.0800 
 21 H        4.3220    -0.9890     0.1070 H     1 <1>   0.0800 
 22 H        6.0290    -0.6290     0.1190 H     1 <1>   0.0800 
 23 H        2.6720     0.1830     1.0580 H     1 <1>   0.0800 
 24 H        1.7110     1.5020     0.4590 H     1 <1>   0.0800 
 25 H        2.5800     1.6540     1.9790 H     1 <1>   0.0800 
 26 H        6.1190     7.1390    -1.3840 H     1 <1>   0.0800 
 27 H        5.2840     7.6840     0.0540 H     1 <1>   0.0800 
 28 H        4.4310     7.5920    -1.4720 H     1 <1>   0.0800 
 29 H        1.6430     3.3280     1.2120 H     1 <1>   0.4000 
 30 H        1.7030     6.2110     1.8220 H     1 <1>   0.0800 
 31 H        0.4260     5.0730     2.1730 H     1 <1>   0.0800 
 32 H        1.0190     6.4180    -0.4710 H     1 <1>   0.0800 
 33 H       -0.7730     4.0670     0.1110 H     1 <1>   0.0800 
 34 H        0.2290     4.3290    -1.3070 H     1 <1>   0.0800 
 35 H       -1.3370     7.7180    -1.0510 H     1 <1>   0.0800 
 36 H       -2.5610     7.0540     0.0340 H     1 <1>   0.0800 
 37 H       -2.4840     5.0310    -1.1100 H     1 <1>   0.0800 
 38 H       -1.3710     5.7710    -2.2430 H     1 <1>   0.0800 
@<TRIPOS>BOND
  1   1   2  1   
  2   1   3  1   
  3   2   4  ar  
  4   2   5  ar  
  5   3   6  2   
  6   3   7  1   
  7   4   8  ar  
  8   5   6  1   
  9   5   9  ar  
 10   6  10  1   
 11   7  20  1   
 12   7  21  1   
 13   7  22  1   
 14   8  11  ar  
 15   8  12  1   
 16   9  11  ar  
 17   9  13  1   
 18  10  23  1   
 19  10  24  1   
 20  10  25  1   
 21  12  26  1   
 22  12  27  1   
 23  12  28  1   
 24  13  14  1   
 25  13  29  1   
 26  14  15  1   
 27  14  30  1   
 28  14  31  1   
 29  15  16  1   
 30  15  17  1   
 31  15  32  1   
 32  16  18  1   
 33  17  19  1   
 34  17  33  1   
 35  17  34  1   
 36  18  19  1   
 37  18  35  1   
 38  18  36  1   
 39  19  37  1   
 40  19  38  1   
@<TRIPOS>SUBSTRUCTURE
  1 ****   9 GROUP 4 **** **** 0

# MOE 2024.06 (io_trps.svl 2023.06)
