@<TRIPOS>MOLECULE
NONAME
42 43 1 0 0 
SMALL
USER_CHARGES


@<TRIPOS>ATOM
  1 CL      -0.4910    -0.8580     0.0030 Cl    1 <1>  -0.1770 
  2 C       -1.3950     0.6430     0.0460 C.ar  1 <1>   0.1770 
  3 C       -0.8860     1.8490    -0.4460 C.ar  1 <1>   0.0830 
  4 C       -2.6710     0.5790     0.5780 C.ar  1 <1>  -0.1500 
  5 O        0.3540     2.0270    -0.9730 O.3   1 <1>  -0.3630 
  6 C       -1.6960     2.9740    -0.4110 C.ar  1 <1>  -0.1500 
  7 C       -3.4620     1.7140     0.6170 C.ar  1 <1>  -0.1500 
  8 C        1.4810     1.4370    -0.3680 C.3   1 <1>   0.1200 
  9 C       -2.9740     2.9110     0.1180 C.ar  1 <1>  -0.1500 
 10 C        2.6870     2.3350    -0.6490 C.3   1 <1>  -0.1600 
 11 C        3.9710     1.7620    -0.0340 C.3   1 <1>  -0.1600 
 12 C        5.1730     2.6690    -0.3300 C.3   1 <1>  -0.1600 
 13 C        6.4540     2.0940     0.2800 C.3   1 <1>   0.3430 
 14 N        7.6320     2.9190    -0.1070 N.4   1 <1>  -0.9590 
 15 C        8.9140     2.1910     0.1990 C.3   1 <1>   0.3430 
 16 C        7.6360     4.2720     0.5590 C.3   1 <1>   0.3430 
 17 C       10.1480     3.0660    -0.0930 C.3   1 <1>   0.1200 
 18 C        8.9280     5.0530     0.2530 C.3   1 <1>   0.1200 
 19 O       10.0480     4.2850     0.5840 O.3   1 <1>  -0.5600 
 20 H       -3.0430    -0.3570     0.9540 H     1 <1>   0.1500 
 21 H       -1.3180     3.9030    -0.8000 H     1 <1>   0.1500 
 22 H       -4.4560     1.6670     1.0290 H     1 <1>   0.1500 
 23 H        1.6250     0.4640    -0.8030 H     1 <1>   0.0800 
 24 H        1.3030     1.3510     0.6910 H     1 <1>   0.0800 
 25 H       -3.5900     3.7940     0.1410 H     1 <1>   0.1500 
 26 H        2.4910     3.3110    -0.2390 H     1 <1>   0.0800 
 27 H        2.8050     2.4270    -1.7150 H     1 <1>   0.0800 
 28 H        4.1460     0.7790    -0.4400 H     1 <1>   0.0800 
 29 H        3.8390     1.6650     1.0320 H     1 <1>   0.0800 
 30 H        4.9730     3.6440     0.0780 H     1 <1>   0.0800 
 31 H        5.2870     2.7540    -1.3970 H     1 <1>   0.0800 
 32 H        6.5850     1.0870    -0.0830 H     1 <1>   0.0800 
 33 H        6.3640     2.0550     1.3540 H     1 <1>   0.0800 
 34 H        7.5990     3.0710    -1.1230 H     1 <1>   0.4500 
 35 H        8.9740     1.2870    -0.3830 H     1 <1>   0.0800 
 36 H        8.9370     1.9160     1.2410 H     1 <1>   0.0800 
 37 H        7.5590     4.1520     1.6280 H     1 <1>   0.0800 
 38 H        6.7890     4.8500     0.2300 H     1 <1>   0.0800 
 39 H       10.2500     3.2600    -1.1470 H     1 <1>   0.0800 
 40 H       11.0420     2.5740     0.2520 H     1 <1>   0.0800 
 41 H        8.9650     5.9540     0.8420 H     1 <1>   0.0800 
 42 H        8.9860     5.3220    -0.7880 H     1 <1>   0.0800 
@<TRIPOS>BOND
  1   1   2  1   
  2   2   3  ar  
  3   2   4  ar  
  4   3   5  1   
  5   3   6  ar  
  6   4   7  ar  
  7   4  20  1   
  8   5   8  1   
  9   6   9  ar  
 10   6  21  1   
 11   7   9  ar  
 12   7  22  1   
 13   8  10  1   
 14   8  23  1   
 15   8  24  1   
 16   9  25  1   
 17  10  11  1   
 18  10  26  1   
 19  10  27  1   
 20  11  12  1   
 21  11  28  1   
 22  11  29  1   
 23  12  13  1   
 24  12  30  1   
 25  12  31  1   
 26  13  14  1   
 27  13  32  1   
 28  13  33  1   
 29  14  15  1   
 30  14  16  1   
 31  14  34  1   
 32  15  17  1   
 33  15  35  1   
 34  15  36  1   
 35  16  18  1   
 36  16  37  1   
 37  16  38  1   
 38  17  19  1   
 39  17  39  1   
 40  17  40  1   
 41  18  19  1   
 42  18  41  1   
 43  18  42  1   
@<TRIPOS>SUBSTRUCTURE
  1 ****  10 GROUP 4 **** **** 0

# MOE 2024.06 (io_trps.svl 2023.06)
