@<TRIPOS>MOLECULE
NONAME
47 49 1 0 0 
SMALL
USER_CHARGES


@<TRIPOS>ATOM
  1 CL      -0.9840    -2.8360    -2.1850 Cl    1 <1>  -0.1770 
  2 C       -1.9010    -2.4640    -0.7390 C.ar  1 <1>   0.1770 
  3 C       -1.3500    -2.6720     0.5310 C.ar  1 <1>   0.1000 
  4 C       -3.1760    -1.9600    -0.9050 C.ar  1 <1>  -0.1500 
  5 N       -0.0690    -3.1780     0.7690 N.pl3 1 <1>  -0.8380 
  6 C       -2.1370    -2.3500     1.6300 C.ar  1 <1>  -0.1500 
  7 C       -3.9400    -1.6480     0.2070 C.ar  1 <1>  -0.1500 
  8 C        0.2070    -4.6380     0.5970 C.3   1 <1>   0.2090 
  9 C        1.1180    -2.2750     0.6710 C.3   1 <1>   0.2090 
 10 C       -3.4170    -1.8440     1.4750 C.ar  1 <1>  -0.1500 
 11 C        1.2430    -4.9330    -0.5080 C.3   1 <1>   0.1960 
 12 C        2.0850    -2.6870    -0.4560 C.3   1 <1>   0.1960 
 13 N        2.4600    -4.1120    -0.3800 N.am  1 <1>  -0.8490 
 14 S        3.6150    -4.5390    -1.5430 S.o2  1 <1>   1.4470 
 15 O        3.1990    -3.9380    -2.7920 O.2   1 <1>  -0.6500 
 16 O        3.7800    -5.9740    -1.4690 O.2   1 <1>  -0.6500 
 17 C        5.1270    -3.7310    -0.9500 C.ar  1 <1>  -0.0090 
 18 C        5.4540    -3.7210     0.3990 C.ar  1 <1>  -0.1500 
 19 C        6.0040    -3.1100    -1.8290 C.ar  1 <1>  -0.1500 
 20 C        6.6000    -3.1090     0.8760 C.ar  1 <1>   0.0830 
 21 C        7.1550    -2.4870    -1.3780 C.ar  1 <1>  -0.1500 
 22 O        6.7680    -3.1900     2.2260 O.3   1 <1>  -0.3630 
 23 C        7.4690    -2.4680    -0.0220 C.ar  1 <1>   0.0830 
 24 C        8.0530    -3.2570     2.8030 C.3   1 <1>   0.0400 
 25 O        8.5820    -1.8290     0.4410 O.3   1 <1>  -0.3630 
 26 C        9.4580    -1.1230    -0.4110 C.3   1 <1>   0.0400 
 27 H       -3.5660    -1.8140    -1.8960 H     1 <1>   0.1500 
 28 H       -1.7310    -2.5030     2.6130 H     1 <1>   0.1500 
 29 H       -4.9350    -1.2540     0.0880 H     1 <1>   0.1500 
 30 H       -0.7100    -5.1530     0.3690 H     1 <1>   0.0800 
 31 H        0.5790    -5.0270     1.5280 H     1 <1>   0.0800 
 32 H        1.6460    -2.2980     1.6070 H     1 <1>   0.0800 
 33 H        0.7870    -1.2640     0.5030 H     1 <1>   0.0800 
 34 H       -4.0060    -1.6030     2.3420 H     1 <1>   0.1500 
 35 H        0.7920    -4.7690    -1.4720 H     1 <1>   0.0800 
 36 H        1.5040    -5.9760    -0.4480 H     1 <1>   0.0800 
 37 H        2.9680    -2.0760    -0.3820 H     1 <1>   0.0800 
 38 H        1.6230    -2.4760    -1.4060 H     1 <1>   0.0800 
 39 H        4.7990    -4.2040     1.1040 H     1 <1>   0.1500 
 40 H        5.7800    -3.1120    -2.8830 H     1 <1>   0.1500 
 41 H        7.7900    -2.0210    -2.1070 H     1 <1>   0.1500 
 42 H        7.9550    -3.6690     3.7910 H     1 <1>   0.0800 
 43 H        8.4590    -2.2640     2.8640 H     1 <1>   0.0800 
 44 H        8.6780    -3.8900     2.1990 H     1 <1>   0.0800 
 45 H       10.2380    -0.6960     0.1940 H     1 <1>   0.0800 
 46 H        8.9110    -0.3400    -0.9050 H     1 <1>   0.0800 
 47 H        9.8830    -1.8090    -1.1220 H     1 <1>   0.0800 
@<TRIPOS>BOND
  1   1   2  1   
  2   2   3  ar  
  3   2   4  ar  
  4   3   5  1   
  5   3   6  ar  
  6   4   7  ar  
  7   4  27  1   
  8   5   8  1   
  9   5   9  1   
 10   6  10  ar  
 11   6  28  1   
 12   7  10  ar  
 13   7  29  1   
 14   8  11  1   
 15   8  30  1   
 16   8  31  1   
 17   9  12  1   
 18   9  32  1   
 19   9  33  1   
 20  10  34  1   
 21  11  13  1   
 22  11  35  1   
 23  11  36  1   
 24  12  13  1   
 25  12  37  1   
 26  12  38  1   
 27  13  14  am  
 28  14  15  2   
 29  14  16  2   
 30  14  17  1   
 31  17  18  ar  
 32  17  19  ar  
 33  18  20  ar  
 34  18  39  1   
 35  19  21  ar  
 36  19  40  1   
 37  20  22  1   
 38  20  23  ar  
 39  21  23  ar  
 40  21  41  1   
 41  22  24  1   
 42  23  25  1   
 43  24  42  1   
 44  24  43  1   
 45  24  44  1   
 46  25  26  1   
 47  26  45  1   
 48  26  46  1   
 49  26  47  1   
@<TRIPOS>SUBSTRUCTURE
  1 ****  12 GROUP 4 **** **** 0

# MOE 2024.06 (io_trps.svl 2023.06)
