@<TRIPOS>MOLECULE
NONAME
40 41 1 0 0 
SMALL
USER_CHARGES


@<TRIPOS>ATOM
  1 O        0.0720     0.3150     0.0010 O.2   1 <1>  -0.5700 
  2 C        0.6750     1.3390    -0.2530 C.2   1 <1>   0.5690 
  3 N        1.9910     1.2880    -0.6560 N.am  1 <1>  -0.6600 
  4 C       -0.0840     2.6810    -0.1480 C.3   1 <1>   0.2610 
  5 C        2.7620     0.0080    -0.6780 C.3   1 <1>   0.1400 
  6 C        2.8580     2.4730    -0.9400 C.3   1 <1>   0.1400 
  7 O        0.4570     3.5000     0.8620 O.3   1 <1>  -0.6800 
  8 C       -1.6000     2.4950     0.1000 C.3   1 <1>   0.2610 
  9 C        4.0120     0.1210     0.2100 C.3   1 <1>   0.1200 
 10 C        4.0940     2.4550    -0.0270 C.3   1 <1>   0.1200 
 11 O       -2.1420     1.6760    -0.9100 O.3   1 <1>  -0.6800 
 12 C       -2.3600     3.8380     0.2040 C.2   1 <1>   0.5690 
 13 O        4.7770     1.2390    -0.1500 O.3   1 <1>  -0.5600 
 14 O       -1.7570     4.8610    -0.0500 O.2   1 <1>  -0.5700 
 15 N       -3.6760     3.8880     0.6070 N.am  1 <1>  -0.6600 
 16 C       -4.5430     2.7030     0.8910 C.3   1 <1>   0.1400 
 17 C       -4.4460     5.1690     0.6290 C.3   1 <1>   0.1400 
 18 C       -5.7790     2.7210    -0.0230 C.3   1 <1>   0.1200 
 19 C       -5.6970     5.0550    -0.2600 C.3   1 <1>   0.1200 
 20 O       -6.4620     3.9380     0.1000 O.3   1 <1>  -0.5600 
 21 H        0.0390     3.2100    -1.0760 H     1 <1>   0.0800 
 22 H        3.0610    -0.2090    -1.6880 H     1 <1>   0.0800 
 23 H        2.1560    -0.8110    -0.3310 H     1 <1>   0.0800 
 24 H        2.3290     3.3960    -0.7960 H     1 <1>   0.0800 
 25 H        3.1810     2.4360    -1.9660 H     1 <1>   0.0800 
 26 H       -0.0180     4.3650     0.8390 H     1 <1>   0.4000 
 27 H       -1.7230     1.9660     1.0270 H     1 <1>   0.0800 
 28 H        4.6300    -0.7510     0.0950 H     1 <1>   0.0800 
 29 H        3.7310     0.2130     1.2450 H     1 <1>   0.0800 
 30 H        3.8060     2.5910     1.0010 H     1 <1>   0.0800 
 31 H        4.7730     3.2420    -0.3040 H     1 <1>   0.0800 
 32 H       -1.6670     0.8120    -0.8880 H     1 <1>   0.4000 
 33 H       -4.8660     2.7400     1.9170 H     1 <1>   0.0800 
 34 H       -4.0140     1.7800     0.7470 H     1 <1>   0.0800 
 35 H       -3.8410     5.9870     0.2810 H     1 <1>   0.0800 
 36 H       -4.7460     5.3850     1.6390 H     1 <1>   0.0800 
 37 H       -6.4570     1.9340     0.2540 H     1 <1>   0.0800 
 38 H       -5.4900     2.5860    -1.0510 H     1 <1>   0.0800 
 39 H       -5.4160     4.9630    -1.2950 H     1 <1>   0.0800 
 40 H       -6.3150     5.9280    -0.1450 H     1 <1>   0.0800 
@<TRIPOS>BOND
  1   1   2  2   
  2   2   3  am  
  3   2   4  1   
  4   3   5  1   
  5   3   6  1   
  6   4   7  1   
  7   4   8  1   
  8   4  21  1   
  9   5   9  1   
 10   5  22  1   
 11   5  23  1   
 12   6  10  1   
 13   6  24  1   
 14   6  25  1   
 15   7  26  1   
 16   8  11  1   
 17   8  12  1   
 18   8  27  1   
 19   9  13  1   
 20   9  28  1   
 21   9  29  1   
 22  10  13  1   
 23  10  30  1   
 24  10  31  1   
 25  11  32  1   
 26  12  14  2   
 27  12  15  am  
 28  15  16  1   
 29  15  17  1   
 30  16  18  1   
 31  16  33  1   
 32  16  34  1   
 33  17  19  1   
 34  17  35  1   
 35  17  36  1   
 36  18  20  1   
 37  18  37  1   
 38  18  38  1   
 39  19  20  1   
 40  19  39  1   
 41  19  40  1   
@<TRIPOS>SUBSTRUCTURE
  1 ****   8 GROUP 4 **** **** 0

# MOE 2024.06 (io_trps.svl 2023.06)
