@<TRIPOS>MOLECULE
NONAME
58 61 1 0 0 
SMALL
USER_CHARGES


@<TRIPOS>ATOM
  1 O       -2.6970    -2.3530    -1.5820 O.3   1 <1>  -0.5640 
  2 C       -3.7190    -1.5940    -2.1580 C.3   1 <1>   0.1140 
  3 C       -2.7300    -2.3920    -0.1870 C.3   1 <1>   0.1140 
  4 C       -5.0960    -2.1240    -1.7180 C.3   1 <1>   0.1040 
  5 C       -4.0830    -2.9430     0.3030 C.3   1 <1>   0.1040 
  6 N       -5.2130    -2.1520    -0.2430 N.3   1 <1>  -0.8120 
  7 C       -6.5230    -2.7080     0.1650 C.3   1 <1>   0.1040 
  8 C       -6.9590    -2.2440     1.5710 C.3   1 <1>   0.3490 
  9 N       -7.3870    -0.8140     1.6060 N.pl3 1 <1>  -0.7670 
 10 C       -6.6290     0.2740     1.4710 C.cat 1 <1>   1.0690 
 11 C       -8.6710    -0.3800     1.9130 C.ar  1 <1>   0.3040 
 12 N       -5.3720     0.2590     1.1340 N.pl3 1 <1>  -0.8390 
 13 N       -7.3230     1.3880     1.7070 N.pl3 1 <1>  -0.7670 
 14 C       -8.6300     1.0030     1.9760 C.ar  1 <1>   0.3040 
 15 C       -9.8610    -1.0640     2.1400 C.ar  1 <1>  -0.1150 
 16 C       -6.7980     2.7830     1.8110 C.3   1 <1>   0.3490 
 17 C       -9.7780     1.7340     2.2670 C.ar  1 <1>  -0.1150 
 18 C      -11.0010    -0.3390     2.4300 C.ar  1 <1>  -0.1560 
 19 C       -6.4150     3.3980     0.4480 C.3   1 <1>   0.1940 
 20 C      -10.9590     1.0540     2.4930 C.ar  1 <1>  -0.1560 
 21 O       -5.3100     2.7400    -0.0940 O.3   1 <1>  -0.6830 
 22 C       -6.0680     4.8880     0.5630 C.3   1 <1>   0.1140 
 23 O       -5.5500     5.3260    -0.6760 O.3   1 <1>  -0.3670 
 24 C       -5.1530     6.6100    -0.8590 C.ar  1 <1>   0.0760 
 25 C       -4.6800     6.9410    -2.1190 C.ar  1 <1>  -0.1560 
 26 C       -5.1980     7.5850     0.1340 C.ar  1 <1>  -0.1560 
 27 C       -4.2550     8.2290    -2.3930 C.ar  1 <1>  -0.1560 
 28 C       -4.7710     8.8730    -0.1420 C.ar  1 <1>  -0.1560 
 29 C       -4.3010     9.1960    -1.4030 C.ar  1 <1>  -0.1560 
 30 H       -3.6170    -1.6660    -3.2270 H     1 <1>   0.0730 
 31 H       -3.5930    -0.5660    -1.8660 H     1 <1>   0.0730 
 32 H       -2.5580    -1.3990     0.1890 H     1 <1>   0.0730 
 33 H       -1.9280    -3.0300     0.1400 H     1 <1>   0.0730 
 34 H       -5.2300    -3.1150    -2.1200 H     1 <1>   0.0730 
 35 H       -5.8610    -1.4900    -2.1310 H     1 <1>   0.0730 
 36 H       -4.0980    -2.9180     1.3780 H     1 <1>   0.0730 
 37 H       -4.1650    -3.9710    -0.0100 H     1 <1>   0.0730 
 38 H       -6.4750    -3.7840     0.1430 H     1 <1>   0.0730 
 39 H       -7.2850    -2.4070    -0.5330 H     1 <1>   0.0730 
 40 H       -6.1560    -2.3980     2.2700 H     1 <1>   0.0730 
 41 H       -7.7780    -2.8640     1.8890 H     1 <1>   0.0730 
 42 H       -4.9630     1.1240     0.7660 H     1 <1>   0.4460 
 43 H       -5.0210    -0.6010     0.6860 H     1 <1>   0.4460 
 44 H       -9.8990    -2.1370     2.0900 H     1 <1>   0.1440 
 45 H       -5.9380     2.7950     2.4600 H     1 <1>   0.0730 
 46 H       -7.5480     3.4030     2.2690 H     1 <1>   0.0730 
 47 H       -9.7520     2.8060     2.3130 H     1 <1>   0.1440 
 48 H      -11.9350    -0.8470     2.6100 H     1 <1>   0.1440 
 49 H       -7.2370     3.2890    -0.2380 H     1 <1>   0.0730 
 50 H      -11.8630     1.5970     2.7200 H     1 <1>   0.1440 
 51 H       -4.9550     3.3140    -0.8160 H     1 <1>   0.3950 
 52 H       -5.3180     5.0480     1.3190 H     1 <1>   0.0730 
 53 H       -6.9460     5.4680     0.7880 H     1 <1>   0.0730 
 54 H       -4.6470     6.1890    -2.8860 H     1 <1>   0.1440 
 55 H       -5.5560     7.3690     1.1220 H     1 <1>   0.1440 
 56 H       -3.8890     8.4800    -3.3730 H     1 <1>   0.1440 
 57 H       -4.8050     9.6280     0.6250 H     1 <1>   0.1440 
 58 H       -3.9700    10.1980    -1.6140 H     1 <1>   0.1440 
@<TRIPOS>BOND
  1   1   2  1   
  2   1   3  1   
  3   2   4  1   
  4   2  30  1   
  5   2  31  1   
  6   3   5  1   
  7   3  32  1   
  8   3  33  1   
  9   4   6  1   
 10   4  34  1   
 11   4  35  1   
 12   5   6  1   
 13   5  36  1   
 14   5  37  1   
 15   6   7  1   
 16   7   8  1   
 17   7  38  1   
 18   7  39  1   
 19   8   9  1   
 20   8  40  1   
 21   8  41  1   
 22   9  10  ar  
 23   9  11  1   
 24  10  12  ar  
 25  10  13  ar  
 26  11  14  ar  
 27  11  15  ar  
 28  12  42  1   
 29  12  43  1   
 30  13  14  1   
 31  13  16  1   
 32  14  17  ar  
 33  15  18  ar  
 34  15  44  1   
 35  16  19  1   
 36  16  45  1   
 37  16  46  1   
 38  17  20  ar  
 39  17  47  1   
 40  18  20  ar  
 41  18  48  1   
 42  19  21  1   
 43  19  22  1   
 44  19  49  1   
 45  20  50  1   
 46  21  51  1   
 47  22  23  1   
 48  22  52  1   
 49  22  53  1   
 50  23  24  1   
 51  24  25  ar  
 52  24  26  ar  
 53  25  27  ar  
 54  25  54  1   
 55  26  28  ar  
 56  26  55  1   
 57  27  29  ar  
 58  27  56  1   
 59  28  29  ar  
 60  28  57  1   
 61  29  58  1   
@<TRIPOS>SUBSTRUCTURE
  1 ****  21 GROUP 4 **** **** 0

# MOE 2024.06 (io_trps.svl 2023.06)
