@<TRIPOS>MOLECULE
NONAME
36 36 1 0 0 
SMALL
USER_CHARGES


@<TRIPOS>ATOM
  1 O        0.1140     0.7560     1.8610 O.2   1 <1>  -0.5700 
  2 C       -0.7220     1.3430     1.2130 C.2   1 <1>   0.5690 
  3 N       -0.3720     2.2200     0.2370 N.am  1 <1>  -0.7300 
  4 C       -2.2080     1.0910     1.5150 C.3   1 <1>   0.2610 
  5 C        0.9980     2.5310    -0.1840 C.3   1 <1>   0.2780 
  6 O       -3.0080     1.5260     0.4200 O.3   1 <1>  -0.3620 
  7 C       -2.6640     1.8450     2.7740 C.3   1 <1>  -0.2400 
  8 C        0.9830     2.6810    -1.6890 C.2   1 <1>  -0.2880 
  9 C       -4.2640     1.0640     0.1870 C.ar  1 <1>   0.0820 
 10 C        1.2620     3.8030    -2.3610 C.2   1 <1>  -0.3000 
 11 C       -4.8960     0.0840     0.9480 C.ar  1 <1>  -0.1500 
 12 C       -4.9360     1.6240    -0.8870 C.ar  1 <1>  -0.1500 
 13 C       -6.1810    -0.3200     0.6300 C.ar  1 <1>  -0.1500 
 14 C       -6.2210     1.2170    -1.2020 C.ar  1 <1>  -0.1500 
 15 C       -6.8510     0.2420    -0.4460 C.ar  1 <1>  -0.1440 
 16 C       -8.2620    -0.2040    -0.7900 C.3   1 <1>  -0.0170 
 17 C       -9.2910     0.6480    -0.0440 C.3   1 <1>  -0.2400 
 18 H       -1.1120     2.6560    -0.3180 H     1 <1>   0.3700 
 19 H       -2.3320     0.0310     1.6320 H     1 <1>   0.0800 
 20 H        1.6690     1.7400     0.1090 H     1 <1>   0.0800 
 21 H        1.3150     3.4470     0.2850 H     1 <1>   0.0800 
 22 H       -2.5240     2.9030     2.6400 H     1 <1>   0.0800 
 23 H       -2.0750     1.5280     3.6150 H     1 <1>   0.0800 
 24 H       -3.6980     1.6470     2.9880 H     1 <1>   0.0800 
 25 H        0.7170     1.7600    -2.1820 H     1 <1>   0.1500 
 26 H        1.2440     3.8780    -3.4350 H     1 <1>   0.1500 
 27 H        1.5310     4.7370    -1.8990 H     1 <1>   0.1500 
 28 H       -4.4140    -0.3760     1.7890 H     1 <1>   0.1500 
 29 H       -4.4500     2.3800    -1.4750 H     1 <1>   0.1500 
 30 H       -6.6620    -1.0760     1.2250 H     1 <1>   0.1500 
 31 H       -6.7290     1.6650    -2.0380 H     1 <1>   0.1500 
 32 H       -8.3910    -1.2390    -0.5260 H     1 <1>   0.0800 
 33 H       -8.4220    -0.1170    -1.8510 H     1 <1>   0.0800 
 34 H       -9.1510     0.5530     1.0180 H     1 <1>   0.0800 
 35 H      -10.2870     0.3290    -0.2930 H     1 <1>   0.0800 
 36 H       -9.1800     1.6840    -0.3150 H     1 <1>   0.0800 
@<TRIPOS>BOND
  1   1   2  2   
  2   2   3  am  
  3   2   4  1   
  4   3   5  1   
  5   3  18  1   
  6   4   6  1   
  7   4   7  1   
  8   4  19  1   
  9   5   8  1   
 10   5  20  1   
 11   5  21  1   
 12   6   9  1   
 13   7  22  1   
 14   7  23  1   
 15   7  24  1   
 16   8  10  2   
 17   8  25  1   
 18   9  11  ar  
 19   9  12  ar  
 20  10  26  1   
 21  10  27  1   
 22  11  13  ar  
 23  11  28  1   
 24  12  14  ar  
 25  12  29  1   
 26  13  15  ar  
 27  13  30  1   
 28  14  15  ar  
 29  14  31  1   
 30  15  16  1   
 31  16  17  1   
 32  16  32  1   
 33  16  33  1   
 34  17  34  1   
 35  17  35  1   
 36  17  36  1   
@<TRIPOS>SUBSTRUCTURE
  1 ****   6 GROUP 4 **** **** 0

# MOE 2024.06 (io_trps.svl 2023.06)
