@<TRIPOS>MOLECULE
NONAME
47 49 1 0 0 
SMALL
USER_CHARGES


@<TRIPOS>ATOM
  1 CL       0.4980    -1.4730     2.6040 Cl    1 <1>  -0.1770 
  2 C        1.9580    -1.9710     1.7830 C.ar  1 <1>   0.1770 
  3 C        2.2190    -1.4940     0.5120 C.ar  1 <1>  -0.1500 
  4 C        2.8310    -2.8360     2.4180 C.ar  1 <1>  -0.1500 
  5 C        3.3770    -1.8920    -0.1320 C.ar  1 <1>  -0.1500 
  6 C        3.9860    -3.2290     1.7650 C.ar  1 <1>  -0.1500 
  7 C        4.2700    -2.7610     0.4850 C.ar  1 <1>   0.1000 
  8 N        5.4240    -3.1440    -0.1880 N.pl3 1 <1>  -0.8380 
  9 C        5.4720    -4.5600    -0.6610 C.3   1 <1>   0.2090 
 10 C        6.7140    -2.6370     0.3690 C.3   1 <1>   0.2090 
 11 C        6.6350    -4.7720    -1.6540 C.3   1 <1>   0.3430 
 12 C        7.8690    -2.8580    -0.6290 C.3   1 <1>   0.3430 
 13 N        7.9480    -4.2880    -1.1040 N.4   1 <1>  -0.9590 
 14 C        9.0840    -4.5120    -2.0300 C.3   1 <1>   0.4860 
 15 C       10.3710    -4.2510    -1.2710 C.ar  1 <1>  -0.1430 
 16 C       10.6730    -4.9850    -0.1260 C.ar  1 <1>   0.0830 
 17 C       11.2450    -3.2710    -1.7180 C.ar  1 <1>  -0.1500 
 18 O        9.7720    -5.9310     0.2660 O.3   1 <1>  -0.3630 
 19 C       11.8550    -4.7210     0.5620 C.ar  1 <1>  -0.1500 
 20 C       12.4150    -3.0160    -1.0270 C.ar  1 <1>  -0.1500 
 21 C        9.9860    -6.7860     1.3740 C.3   1 <1>   0.1200 
 22 C       12.7190    -3.7400     0.1110 C.ar  1 <1>  -0.1500 
 23 C        9.5450    -6.0710     2.6520 C.3   1 <1>  -0.2400 
 24 H        1.5240    -0.8220     0.0410 H     1 <1>   0.1500 
 25 H        2.6020    -3.1920     3.4070 H     1 <1>   0.1500 
 26 H        3.5980    -1.5310    -1.1200 H     1 <1>   0.1500 
 27 H        4.6690    -3.9010     2.2510 H     1 <1>   0.1500 
 28 H        4.5400    -4.8010    -1.1450 H     1 <1>   0.0800 
 29 H        5.5870    -5.2190     0.1810 H     1 <1>   0.0800 
 30 H        6.9330    -3.1400     1.2950 H     1 <1>   0.0800 
 31 H        6.6200    -1.5850     0.5780 H     1 <1>   0.0800 
 32 H        6.4030    -4.2330    -2.5580 H     1 <1>   0.0800 
 33 H        6.7010    -5.8190    -1.8980 H     1 <1>   0.0800 
 34 H        8.7970    -2.5750    -0.1580 H     1 <1>   0.0800 
 35 H        7.7130    -2.2060    -1.4720 H     1 <1>   0.0800 
 36 H        8.1970    -4.8640    -0.2820 H     1 <1>   0.4500 
 37 H        9.0110    -3.8580    -2.8830 H     1 <1>   0.0800 
 38 H        9.0850    -5.5340    -2.3730 H     1 <1>   0.0800 
 39 H       11.0320    -2.6970    -2.6040 H     1 <1>   0.1500 
 40 H       12.1270    -5.2610     1.4490 H     1 <1>   0.1500 
 41 H       13.0960    -2.2560    -1.3750 H     1 <1>   0.1500 
 42 H       11.0170    -7.0900     1.4050 H     1 <1>   0.0800 
 43 H        9.3830    -7.6650     1.2220 H     1 <1>   0.0800 
 44 H       13.6330    -3.5400     0.6450 H     1 <1>   0.1500 
 45 H       10.1220    -5.1780     2.8130 H     1 <1>   0.0800 
 46 H        9.6940    -6.7220     3.4950 H     1 <1>   0.0800 
 47 H        8.5010    -5.8210     2.6010 H     1 <1>   0.0800 
@<TRIPOS>BOND
  1   1   2  1   
  2   2   3  ar  
  3   2   4  ar  
  4   3   5  ar  
  5   3  24  1   
  6   4   6  ar  
  7   4  25  1   
  8   5   7  ar  
  9   5  26  1   
 10   6   7  ar  
 11   6  27  1   
 12   7   8  1   
 13   8   9  1   
 14   8  10  1   
 15   9  11  1   
 16   9  28  1   
 17   9  29  1   
 18  10  12  1   
 19  10  30  1   
 20  10  31  1   
 21  11  13  1   
 22  11  32  1   
 23  11  33  1   
 24  12  13  1   
 25  12  34  1   
 26  12  35  1   
 27  13  14  1   
 28  13  36  1   
 29  14  15  1   
 30  14  37  1   
 31  14  38  1   
 32  15  16  ar  
 33  15  17  ar  
 34  16  18  1   
 35  16  19  ar  
 36  17  20  ar  
 37  17  39  1   
 38  18  21  1   
 39  19  22  ar  
 40  19  40  1   
 41  20  22  ar  
 42  20  41  1   
 43  21  23  1   
 44  21  42  1   
 45  21  43  1   
 46  22  44  1   
 47  23  45  1   
 48  23  46  1   
 49  23  47  1   
@<TRIPOS>SUBSTRUCTURE
  1 ****  10 GROUP 4 **** **** 0

# MOE 2024.06 (io_trps.svl 2023.06)
