@<TRIPOS>MOLECULE
NONAME
44 45 1 0 0 
SMALL
USER_CHARGES


@<TRIPOS>ATOM
  1 O        0.4720    -0.0930    -0.2390 O.3   1 <1>  -0.5600 
  2 C        1.6060    -0.6030     0.3680 C.3   1 <1>   0.1200 
  3 C       -0.7300    -0.5870     0.2670 C.3   1 <1>   0.0400 
  4 C        2.8000     0.0530    -0.3320 C.3   1 <1>   0.3430 
  5 N        4.1110    -0.3720     0.2600 N.4   1 <1>  -0.9060 
  6 C        5.2940     0.2090    -0.4240 C.3   1 <1>   0.4230 
  7 C        6.5510    -0.5110     0.0680 C.3   1 <1>  -0.1600 
  8 C        5.3990     1.7130    -0.1460 C.3   1 <1>  -0.1600 
  9 C        7.8130     0.0940    -0.5480 C.3   1 <1>   0.3430 
 10 C        6.6730     2.3050    -0.7560 C.3   1 <1>   0.3430 
 11 N        7.8650     1.5590    -0.2660 N.4   1 <1>  -0.9590 
 12 C        9.1300     2.1590    -0.7980 C.3   1 <1>   0.4860 
 13 C       10.2920     1.5310    -0.0580 C.ar  1 <1>  -0.1440 
 14 C       10.5590     1.8850     1.2580 C.ar  1 <1>  -0.1500 
 15 C       11.0940     0.5880    -0.6880 C.ar  1 <1>  -0.1500 
 16 C       11.6030     1.2880     1.9410 C.ar  1 <1>  -0.1500 
 17 C       12.1370    -0.0070    -0.0020 C.ar  1 <1>  -0.1500 
 18 C       12.3900     0.3400     1.3130 C.ar  1 <1>  -0.1500 
 19 H        1.6110    -1.6710     0.2350 H     1 <1>   0.0800 
 20 H        1.5740    -0.3450     1.4130 H     1 <1>   0.0800 
 21 H       -1.5370    -0.1250    -0.2740 H     1 <1>   0.0800 
 22 H       -0.8110    -0.3380     1.3120 H     1 <1>   0.0800 
 23 H       -0.7700    -1.6540     0.1280 H     1 <1>   0.0800 
 24 H        2.6880     1.1210    -0.2500 H     1 <1>   0.0800 
 25 H        2.7660    -0.2140    -1.3770 H     1 <1>   0.0800 
 26 H        4.1590    -1.3990     0.2100 H     1 <1>   0.4500 
 27 H        4.1200    -0.1320     1.2600 H     1 <1>   0.4500 
 28 H        5.2010     0.0520    -1.4890 H     1 <1>   0.0800 
 29 H        6.5090    -1.5490    -0.2110 H     1 <1>   0.0800 
 30 H        6.6300    -0.4540     1.1400 H     1 <1>   0.0800 
 31 H        5.4010     1.9060     0.9130 H     1 <1>   0.0800 
 32 H        4.5600     2.2290    -0.5780 H     1 <1>   0.0800 
 33 H        7.8200    -0.0740    -1.6140 H     1 <1>   0.0800 
 34 H        8.6820    -0.3930    -0.1300 H     1 <1>   0.0800 
 35 H        6.7530     3.3470    -0.4840 H     1 <1>   0.0800 
 36 H        6.6240     2.2450    -1.8320 H     1 <1>   0.0800 
 37 H        7.9520     1.6740     0.7550 H     1 <1>   0.4500 
 38 H        9.1410     3.2250    -0.6310 H     1 <1>   0.0800 
 39 H        9.2230     1.9770    -1.8570 H     1 <1>   0.0800 
 40 H        9.9720     2.6300     1.7690 H     1 <1>   0.1500 
 41 H       10.9260     0.3060    -1.7140 H     1 <1>   0.1500 
 42 H       11.8120     1.5610     2.9620 H     1 <1>   0.1500 
 43 H       12.7610    -0.7390    -0.4890 H     1 <1>   0.1500 
 44 H       13.2040    -0.1230     1.8450 H     1 <1>   0.1500 
@<TRIPOS>BOND
  1   1   2  1   
  2   1   3  1   
  3   2   4  1   
  4   2  19  1   
  5   2  20  1   
  6   3  21  1   
  7   3  22  1   
  8   3  23  1   
  9   4   5  1   
 10   4  24  1   
 11   4  25  1   
 12   5   6  1   
 13   5  26  1   
 14   5  27  1   
 15   6   7  1   
 16   6   8  1   
 17   6  28  1   
 18   7   9  1   
 19   7  29  1   
 20   7  30  1   
 21   8  10  1   
 22   8  31  1   
 23   8  32  1   
 24   9  11  1   
 25   9  33  1   
 26   9  34  1   
 27  10  11  1   
 28  10  35  1   
 29  10  36  1   
 30  11  12  1   
 31  11  37  1   
 32  12  13  1   
 33  12  38  1   
 34  12  39  1   
 35  13  14  ar  
 36  13  15  ar  
 37  14  16  ar  
 38  14  40  1   
 39  15  17  ar  
 40  15  41  1   
 41  16  18  ar  
 42  16  42  1   
 43  17  18  ar  
 44  17  43  1   
 45  18  44  1   
@<TRIPOS>SUBSTRUCTURE
  1 ****   9 GROUP 4 **** **** 0

# MOE 2024.06 (io_trps.svl 2023.06)
