@<TRIPOS>MOLECULE
NONAME
27 28 1 0 0 
SMALL
USER_CHARGES


@<TRIPOS>ATOM
  1 S        0.1700     0.3580     0.9210 S.o2  1 <1>   1.4470 
  2 O        0.1880    -1.0820     0.8000 O.2   1 <1>  -0.6500 
  3 O        0.6220     0.9510     2.1620 O.2   1 <1>  -0.6500 
  4 N        1.1530     0.9900    -0.3060 N.am  1 <1>  -0.8490 
  5 C       -1.4750     0.9930     0.5290 C.ar  1 <1>  -0.0090 
  6 C        1.5020     2.3930    -0.1640 C.3   1 <1>   0.1960 
  7 C        2.4130     0.2840    -0.4440 C.3   1 <1>   0.1960 
  8 C       -2.1180     0.6510    -0.6540 C.ar  1 <1>   0.1900 
  9 C       -2.1540     1.8500     1.3910 C.ar  1 <1>  -0.1500 
 10 C        2.6430     2.5910    -1.1530 C.3   1 <1>  -0.1600 
 11 C        3.2810     1.2080    -1.2920 C.3   1 <1>  -0.1600 
 12 F       -1.5260    -0.1470    -1.5010 F     1 <1>  -0.1900 
 13 C       -3.3760     1.1170    -1.0030 C.ar  1 <1>  -0.1500 
 14 C       -3.4090     2.3180     1.0460 C.ar  1 <1>   0.1900 
 15 C       -4.0380     1.9690    -0.1360 C.ar  1 <1>  -0.1500 
 16 F       -4.0250     3.1220     1.8680 F     1 <1>  -0.1900 
 17 H        1.8590     2.5940     0.8340 H     1 <1>   0.0800 
 18 H        0.6630     3.0300    -0.3850 H     1 <1>   0.0800 
 19 H        2.2660    -0.6760    -0.9130 H     1 <1>   0.0800 
 20 H        2.8620     0.1440     0.5260 H     1 <1>   0.0800 
 21 H       -1.7120     2.1530     2.3250 H     1 <1>   0.1500 
 22 H        3.3400     3.3280    -0.7970 H     1 <1>   0.0800 
 23 H        2.2440     2.9110    -2.1000 H     1 <1>   0.0800 
 24 H        3.2600     0.8870    -2.3180 H     1 <1>   0.0800 
 25 H        4.2980     1.1960    -0.9410 H     1 <1>   0.0800 
 26 H       -3.8230     0.8150    -1.9340 H     1 <1>   0.1500 
 27 H       -5.0160     2.3550    -0.3650 H     1 <1>   0.1500 
@<TRIPOS>BOND
  1   1   2  2   
  2   1   3  2   
  3   1   4  am  
  4   1   5  1   
  5   4   6  1   
  6   4   7  1   
  7   5   8  ar  
  8   5   9  ar  
  9   6  10  1   
 10   6  17  1   
 11   6  18  1   
 12   7  11  1   
 13   7  19  1   
 14   7  20  1   
 15   8  12  1   
 16   8  13  ar  
 17   9  14  ar  
 18   9  21  1   
 19  10  11  1   
 20  10  22  1   
 21  10  23  1   
 22  11  24  1   
 23  11  25  1   
 24  13  15  ar  
 25  13  26  1   
 26  14  15  ar  
 27  14  16  1   
 28  15  27  1   
@<TRIPOS>SUBSTRUCTURE
  1 ****   5 GROUP 4 **** **** 0

# MOE 2024.06 (io_trps.svl 2023.06)
