@<TRIPOS>MOLECULE
NONAME
31 31 1 0 0 
SMALL
USER_CHARGES


@<TRIPOS>ATOM
  1 O       -0.8750     0.6490    -1.3120 O.co2 1 <1>  -0.9000 
  2 C       -0.7090     1.1800    -0.2050 C.2   1 <1>   0.9060 
  3 O       -0.9540     0.5550     0.8400 O.co2 1 <1>  -0.9000 
  4 C       -0.1840     2.6180    -0.1260 C.3   1 <1>  -0.1860 
  5 C        1.3170     2.6880     0.3070 C.3   1 <1>  -0.1860 
  6 C       -1.0740     3.4740     0.8050 C.3   1 <1>  -0.0170 
  7 C        1.8650     4.1150     0.4500 C.2   1 <1>   0.9060 
  8 C        2.2080     1.8620    -0.6460 C.3   1 <1>  -0.2400 
  9 C       -2.4670     3.7290     0.2370 C.ar  1 <1>  -0.1440 
 10 O        2.3340     4.4670     1.5420 O.co2 1 <1>  -0.9000 
 11 O        1.8450     4.8910    -0.5160 O.co2 1 <1>  -0.9000 
 12 C       -3.4710     2.7860     0.3790 C.ar  1 <1>  -0.1500 
 13 C       -2.7410     4.9140    -0.4250 C.ar  1 <1>  -0.1500 
 14 C       -4.7420     3.0190    -0.1230 C.ar  1 <1>  -0.1440 
 15 C       -4.0090     5.1590    -0.9260 C.ar  1 <1>  -0.1500 
 16 C       -5.0090     4.2130    -0.7730 C.ar  1 <1>  -0.1500 
 17 C       -5.8100     1.9550     0.0390 C.3   1 <1>  -0.0970 
 18 H       -0.2550     3.0330    -1.1140 H     1 <1>   0.0800 
 19 H        1.3880     2.2400     1.2810 H     1 <1>   0.0800 
 20 H       -0.6120     4.4280     0.9830 H     1 <1>   0.0800 
 21 H       -1.1570     2.9860     1.7610 H     1 <1>   0.0800 
 22 H        2.1270     2.2530    -1.6450 H     1 <1>   0.0800 
 23 H        1.9090     0.8290    -0.6510 H     1 <1>   0.0800 
 24 H        3.2330     1.9260    -0.3310 H     1 <1>   0.0800 
 25 H       -3.2440     1.8570     0.8780 H     1 <1>   0.1500 
 26 H       -1.9570     5.6410    -0.5520 H     1 <1>   0.1500 
 27 H       -4.2100     6.0820    -1.4370 H     1 <1>   0.1500 
 28 H       -5.9890     4.4070    -1.1660 H     1 <1>   0.1500 
 29 H       -5.3870     0.9870    -0.1670 H     1 <1>   0.0800 
 30 H       -6.6250     2.1240    -0.6410 H     1 <1>   0.0800 
 31 H       -6.1820     1.9650     1.0470 H     1 <1>   0.0800 
@<TRIPOS>BOND
  1   1   2  ar  
  2   2   3  ar  
  3   2   4  1   
  4   4   5  1   
  5   4   6  1   
  6   4  18  1   
  7   5   7  1   
  8   5   8  1   
  9   5  19  1   
 10   6   9  1   
 11   6  20  1   
 12   6  21  1   
 13   7  10  ar  
 14   7  11  ar  
 15   8  22  1   
 16   8  23  1   
 17   8  24  1   
 18   9  12  ar  
 19   9  13  ar  
 20  12  14  ar  
 21  12  25  1   
 22  13  15  ar  
 23  13  26  1   
 24  14  16  ar  
 25  14  17  1   
 26  15  16  ar  
 27  15  27  1   
 28  16  28  1   
 29  17  29  1   
 30  17  30  1   
 31  17  31  1   
@<TRIPOS>SUBSTRUCTURE
  1 ****   6 GROUP 4 **** **** 0

# MOE 2024.06 (io_trps.svl 2023.06)
