@<TRIPOS>MOLECULE
NONAME
30 30 1 0 0 
SMALL
USER_CHARGES


@<TRIPOS>ATOM
  1 S        0.9960    -0.9310    -0.5790 S.o2  1 <1>   1.4470 
  2 O        1.4290     0.4490    -0.6370 O.2   1 <1>  -0.6500 
  3 O        1.4010    -1.8590    -1.6060 O.2   1 <1>  -0.6500 
  4 N        1.6220    -1.5840     0.8310 N.am  1 <1>  -0.9140 
  5 C       -0.7970    -1.0150    -0.3150 C.ar  1 <1>  -0.0090 
  6 C        2.9070    -1.0050     1.2310 C.3   1 <1>   0.3370 
  7 C       -1.4140    -0.1930     0.6270 C.ar  1 <1>  -0.1500 
  8 C       -1.5910    -1.9080    -1.0350 C.ar  1 <1>  -0.1500 
  9 C        4.0480    -1.2050     0.1960 C.2   1 <1>   0.5690 
 10 C        3.2430    -1.6040     2.6000 C.3   1 <1>  -0.2400 
 11 C       -2.7800    -0.2510     0.8490 C.ar  1 <1>  -0.1500 
 12 C       -2.9580    -1.9810    -0.8270 C.ar  1 <1>  -0.1500 
 13 O        4.7340    -2.2000     0.2500 O.2   1 <1>  -0.5700 
 14 N        4.2340    -0.2630    -0.7710 N.am  1 <1>  -0.7300 
 15 C       -3.5290    -1.1480     0.1140 C.ar  1 <1>   0.1900 
 16 C        5.2260    -0.3480    -1.8710 C.3   1 <1>   0.0600 
 17 F       -4.8160    -1.2110     0.3160 F     1 <1>  -0.1900 
 18 H        1.8320    -2.5480     0.5690 H     1 <1>   0.4200 
 19 H        2.7820     0.0550     1.3760 H     1 <1>   0.0800 
 20 H       -0.8140     0.5010     1.1930 H     1 <1>   0.1500 
 21 H       -1.1330    -2.5530    -1.7670 H     1 <1>   0.1500 
 22 H        3.3680    -2.6700     2.5250 H     1 <1>   0.0800 
 23 H        2.4620    -1.3840     3.3060 H     1 <1>   0.0800 
 24 H        4.1620    -1.1820     2.9630 H     1 <1>   0.0800 
 25 H       -3.2570     0.3830     1.5750 H     1 <1>   0.1500 
 26 H       -3.5720    -2.6680    -1.3820 H     1 <1>   0.1500 
 27 H        3.5140     0.4660    -0.8810 H     1 <1>   0.3700 
 28 H        5.9180    -1.1530    -1.6910 H     1 <1>   0.0800 
 29 H        5.7750     0.5750    -1.9390 H     1 <1>   0.0800 
 30 H        4.7170    -0.5290    -2.8020 H     1 <1>   0.0800 
@<TRIPOS>BOND
  1   1   2  2   
  2   1   3  2   
  3   1   4  am  
  4   1   5  1   
  5   4   6  1   
  6   4  18  1   
  7   5   7  ar  
  8   5   8  ar  
  9   6   9  1   
 10   6  10  1   
 11   6  19  1   
 12   7  11  ar  
 13   7  20  1   
 14   8  12  ar  
 15   8  21  1   
 16   9  13  2   
 17   9  14  am  
 18  10  22  1   
 19  10  23  1   
 20  10  24  1   
 21  11  15  ar  
 22  11  25  1   
 23  12  15  ar  
 24  12  26  1   
 25  14  16  1   
 26  14  27  1   
 27  15  17  1   
 28  16  28  1   
 29  16  29  1   
 30  16  30  1   
@<TRIPOS>SUBSTRUCTURE
  1 ****   1 GROUP 4 **** **** 0

# MOE 2024.06 (io_trps.svl 2023.06)
