@<TRIPOS>MOLECULE
NONAME
49 51 1 0 0 
SMALL
USER_CHARGES


@<TRIPOS>ATOM
  1 O        0.8880    -0.9800    -0.0620 O.2   1 <1>  -0.5700 
  2 C        1.5640    -1.9740     0.1040 C.2   1 <1>   0.5690 
  3 N        2.9380    -1.8970     0.0420 N.am  1 <1>  -0.6600 
  4 C        0.8500    -3.3190     0.4070 C.3   1 <1>   0.2610 
  5 C        3.6410    -0.6190    -0.2840 C.3   1 <1>   0.1400 
  6 C        3.8710    -3.0550     0.1940 C.3   1 <1>   0.1400 
  7 O        1.1570    -4.2920    -0.5580 O.3   1 <1>  -0.5600 
  8 C       -0.6790    -3.2840     0.3730 C.3   1 <1>  -0.1600 
  9 C        4.7910    -0.3520     0.7020 C.3   1 <1>   0.1100 
 10 C        5.0190    -2.7180     1.1610 C.3   1 <1>   0.1100 
 11 C        0.2900    -4.1710    -1.6410 C.3   1 <1>   0.1200 
 12 C       -1.0050    -3.5850    -1.0830 C.3   1 <1>  -0.1600 
 13 N        5.7360    -1.4870     0.7570 N.3   1 <1>  -0.8100 
 14 C        6.8650    -1.1920     1.6920 C.3   1 <1>   0.1710 
 15 C        8.0460    -2.1630     1.5870 C.2   1 <1>   0.5690 
 16 O        8.7720    -2.3260     2.5400 O.2   1 <1>  -0.5700 
 17 N        8.2270    -2.8150     0.4140 N.am  1 <1>  -0.7300 
 18 C        9.2440    -3.8300     0.1130 C.3   1 <1>   0.2200 
 19 C        9.8430    -3.5290    -1.2550 C.3   1 <1>  -0.1600 
 20 C        8.5500    -5.1690    -0.0970 C.3   1 <1>  -0.1600 
 21 C        8.8500    -4.0920    -2.2780 C.3   1 <1>  -0.1600 
 22 C        8.0090    -5.1350    -1.5310 C.3   1 <1>  -0.1600 
 23 H        1.1900    -3.6760     1.3610 H     1 <1>   0.0800 
 24 H        2.9550     0.2090    -0.2540 H     1 <1>   0.0800 
 25 H        4.0380    -0.6830    -1.2820 H     1 <1>   0.0800 
 26 H        4.2820    -3.3000    -0.7700 H     1 <1>   0.0800 
 27 H        3.3570    -3.9240     0.5610 H     1 <1>   0.0800 
 28 H       -1.0860    -2.3450     0.7070 H     1 <1>   0.0800 
 29 H       -1.0570    -4.0680     1.0030 H     1 <1>   0.0800 
 30 H        4.3780    -0.1670     1.6790 H     1 <1>   0.0800 
 31 H        5.3140     0.5340     0.3850 H     1 <1>   0.0800 
 32 H        5.7040    -3.5480     1.1800 H     1 <1>   0.0800 
 33 H        4.6160    -2.6000     2.1530 H     1 <1>   0.0800 
 34 H        0.1460    -5.1440    -2.0770 H     1 <1>   0.0800 
 35 H        0.7400    -3.5050    -2.3580 H     1 <1>   0.0800 
 36 H       -1.2510    -2.6830    -1.6160 H     1 <1>   0.0800 
 37 H       -1.8200    -4.2810    -1.1720 H     1 <1>   0.0800 
 38 H        6.5090    -1.1920     2.7070 H     1 <1>   0.0800 
 39 H        7.2510    -0.2110     1.4800 H     1 <1>   0.0800 
 40 H        7.5230    -2.6540    -0.3110 H     1 <1>   0.3700 
 41 H        9.9870    -3.8660     0.8940 H     1 <1>   0.0800 
 42 H       10.7740    -4.0620    -1.3420 H     1 <1>   0.0800 
 43 H       10.0350    -2.4790    -1.3920 H     1 <1>   0.0800 
 44 H        7.7830    -5.3480     0.6360 H     1 <1>   0.0800 
 45 H        9.2870    -5.9490    -0.0190 H     1 <1>   0.0800 
 46 H        9.3680    -4.5300    -3.1140 H     1 <1>   0.0800 
 47 H        8.2110    -3.3040    -2.6400 H     1 <1>   0.0800 
 48 H        6.9770    -4.8290    -1.5240 H     1 <1>   0.0800 
 49 H        8.0810    -6.1050    -1.9920 H     1 <1>   0.0800 
@<TRIPOS>BOND
  1   1   2  2   
  2   2   3  am  
  3   2   4  1   
  4   3   5  1   
  5   3   6  1   
  6   4   7  1   
  7   4   8  1   
  8   4  23  1   
  9   5   9  1   
 10   5  24  1   
 11   5  25  1   
 12   6  10  1   
 13   6  26  1   
 14   6  27  1   
 15   7  11  1   
 16   8  12  1   
 17   8  28  1   
 18   8  29  1   
 19   9  13  1   
 20   9  30  1   
 21   9  31  1   
 22  10  13  1   
 23  10  32  1   
 24  10  33  1   
 25  11  12  1   
 26  11  34  1   
 27  11  35  1   
 28  12  36  1   
 29  12  37  1   
 30  13  14  1   
 31  14  15  1   
 32  14  38  1   
 33  14  39  1   
 34  15  16  2   
 35  15  17  am  
 36  17  18  1   
 37  17  40  1   
 38  18  19  1   
 39  18  20  1   
 40  18  41  1   
 41  19  21  1   
 42  19  42  1   
 43  19  43  1   
 44  20  22  1   
 45  20  44  1   
 46  20  45  1   
 47  21  22  1   
 48  21  46  1   
 49  21  47  1   
 50  22  48  1   
 51  22  49  1   
@<TRIPOS>SUBSTRUCTURE
  1 ****   6 GROUP 4 **** **** 0

# MOE 2024.06 (io_trps.svl 2023.06)
