@<TRIPOS>MOLECULE
NONAME
36 37 1 0 0 
SMALL
USER_CHARGES


@<TRIPOS>ATOM
  1 I        0.3980     0.0390    -1.1420 I     1 <1>  -0.0810 
  2 C       -0.6650    -1.6240    -0.3090 C.ar  1 <1>   0.0810 
  3 C       -0.0020    -2.8310    -0.0730 C.ar  1 <1>   0.1170 
  4 C       -2.0040    -1.4260    -0.0310 C.ar  1 <1>  -0.1500 
  5 N        1.3650    -2.9790    -0.3850 N.am  1 <1>  -0.5470 
  6 C       -0.7670    -3.8630     0.4650 C.ar  1 <1>  -0.1500 
  7 C       -2.7320    -2.4720     0.5080 C.ar  1 <1>  -0.1500 
  8 C        2.3090    -3.8680     0.0490 C.2   1 <1>   0.5690 
  9 C       -2.1110    -3.6860     0.7530 C.ar  1 <1>  -0.1500 
 10 O        2.0770    -4.7490     0.8400 O.2   1 <1>  -0.5700 
 11 C        3.7250    -3.6990    -0.5060 C.3   1 <1>  -0.0190 
 12 C        4.5710    -4.9850    -0.4010 C.3   1 <1>  -0.1600 
 13 C        4.4560    -2.5350     0.1910 C.3   1 <1>  -0.1600 
 14 C        5.9880    -4.7780    -0.9410 C.3   1 <1>   0.1400 
 15 C        5.8770    -2.3510    -0.3500 C.3   1 <1>   0.1400 
 16 N        6.6250    -3.6330    -0.2330 N.am  1 <1>  -0.6600 
 17 C        7.7840    -3.7050     0.4990 C.2   1 <1>   0.5690 
 18 O        8.2710    -2.7370     1.0320 O.2   1 <1>  -0.5700 
 19 C        8.5090    -5.0190     0.6710 C.3   1 <1>  -0.1790 
 20 H       -2.4750    -0.4790    -0.2270 H     1 <1>   0.1500 
 21 H        1.7250    -2.2390    -0.9860 H     1 <1>   0.3700 
 22 H       -0.3190    -4.8190     0.6630 H     1 <1>   0.1500 
 23 H       -3.7770    -2.3450     0.7350 H     1 <1>   0.1500 
 24 H       -2.6760    -4.5010     1.1710 H     1 <1>   0.1500 
 25 H        3.6330    -3.4600    -1.5510 H     1 <1>   0.0800 
 26 H        4.0930    -5.7780    -0.9500 H     1 <1>   0.0800 
 27 H        4.6370    -5.2970     0.6270 H     1 <1>   0.0800 
 28 H        4.5130    -2.7260     1.2500 H     1 <1>   0.0800 
 29 H        3.9100    -1.6190     0.0560 H     1 <1>   0.0800 
 30 H        5.9500    -4.5570    -1.9940 H     1 <1>   0.0800 
 31 H        6.5540    -5.6830    -0.8150 H     1 <1>   0.0800 
 32 H        6.3700    -1.5680     0.2010 H     1 <1>   0.0800 
 33 H        5.8460    -2.0570    -1.3850 H     1 <1>   0.0800 
 34 H        8.8310    -5.3860    -0.2840 H     1 <1>   0.0800 
 35 H        7.8610    -5.7340     1.1420 H     1 <1>   0.0800 
 36 H        9.3720    -4.8770     1.2940 H     1 <1>   0.0800 
@<TRIPOS>BOND
  1   1   2  1   
  2   2   3  ar  
  3   2   4  ar  
  4   3   5  1   
  5   3   6  ar  
  6   4   7  ar  
  7   4  20  1   
  8   5   8  am  
  9   5  21  1   
 10   6   9  ar  
 11   6  22  1   
 12   7   9  ar  
 13   7  23  1   
 14   8  10  2   
 15   8  11  1   
 16   9  24  1   
 17  11  12  1   
 18  11  13  1   
 19  11  25  1   
 20  12  14  1   
 21  12  26  1   
 22  12  27  1   
 23  13  15  1   
 24  13  28  1   
 25  13  29  1   
 26  14  16  1   
 27  14  30  1   
 28  14  31  1   
 29  15  16  1   
 30  15  32  1   
 31  15  33  1   
 32  16  17  am  
 33  17  18  2   
 34  17  19  1   
 35  19  34  1   
 36  19  35  1   
 37  19  36  1   
@<TRIPOS>SUBSTRUCTURE
  1 ****   8 GROUP 4 **** **** 0

# MOE 2024.06 (io_trps.svl 2023.06)
