@<TRIPOS>MOLECULE
NONAME
44 46 1 0 0 
SMALL
USER_CHARGES


@<TRIPOS>ATOM
  1 O       -0.2400    -0.3650     0.3240 O.2   1 <1>  -0.5700 
  2 C       -0.1320    -1.5380     0.1380 C.2   1 <1>   0.8520 
  3 N       -1.2200    -2.2620    -0.1820 N.pl3 1 <1>  -0.8600 
  4 C        1.2040    -2.2260     0.2680 C.3   1 <1>  -0.0990 
  5 C       -1.2060    -3.5270    -0.5260 C.cat 1 <1>   1.2000 
  6 C        1.2890    -3.3500    -0.7620 C.3   1 <1>   0.3090 
  7 N       -2.3290    -4.2400    -0.5900 N.pl3 1 <1>  -0.7220 
  8 N       -0.0330    -4.0410    -0.8040 N.pl3 1 <1>  -0.8440 
  9 C        2.4260    -4.3480    -0.4550 C.2   1 <1>   0.5690 
 10 C       -3.6960    -3.7290    -0.2130 C.3   1 <1>   0.1680 
 11 C       -2.3990    -5.6760    -1.0450 C.3   1 <1>   0.1680 
 12 O        2.0980    -5.4960    -0.2650 O.2   1 <1>  -0.5700 
 13 N        3.7250    -3.9070    -0.4130 N.am  1 <1>  -0.5470 
 14 C       -4.4100    -4.7010     0.7430 C.3   1 <1>   0.1200 
 15 C       -3.1810    -6.5410    -0.0410 C.3   1 <1>   0.1200 
 16 C        4.9120    -4.6060    -0.1400 C.ar  1 <1>   0.1170 
 17 O       -4.4380    -5.9820     0.1930 O.3   1 <1>  -0.5600 
 18 C        6.0110    -3.8880     0.3170 C.ar  1 <1>  -0.1500 
 19 C        5.0530    -5.9790    -0.3200 C.ar  1 <1>  -0.1500 
 20 C        7.2110    -4.5190     0.5930 C.ar  1 <1>  -0.1500 
 21 C        6.2520    -6.6120    -0.0450 C.ar  1 <1>  -0.1500 
 22 C        7.3380    -5.8860     0.4160 C.ar  1 <1>  -0.1430 
 23 C        8.6530    -6.5830     0.7170 C.3   1 <1>  -0.0970 
 24 H       -2.0880    -1.7470    -0.1780 H     1 <1>   0.4500 
 25 H        1.2930    -2.6230     1.2630 H     1 <1>   0.0800 
 26 H        1.9940    -1.5130     0.1170 H     1 <1>   0.0800 
 27 H        1.4770    -2.9290    -1.7360 H     1 <1>   0.0800 
 28 H        0.0650    -5.0510    -0.9440 H     1 <1>   0.4500 
 29 H       -4.2950    -3.6260    -1.1030 H     1 <1>   0.0800 
 30 H       -3.6470    -2.7660     0.2630 H     1 <1>   0.0800 
 31 H       -1.4230    -6.1060    -1.1760 H     1 <1>   0.0800 
 32 H       -2.9040    -5.7210    -1.9960 H     1 <1>   0.0800 
 33 H        3.8880    -2.9150    -0.5750 H     1 <1>   0.3700 
 34 H       -5.4300    -4.3910     0.8970 H     1 <1>   0.0800 
 35 H       -3.9160    -4.7440     1.6990 H     1 <1>   0.0800 
 36 H       -2.6570    -6.6250     0.8960 H     1 <1>   0.0800 
 37 H       -3.3330    -7.5290    -0.4400 H     1 <1>   0.0800 
 38 H        5.9380    -2.8270     0.4660 H     1 <1>   0.1500 
 39 H        4.2330    -6.5690    -0.6820 H     1 <1>   0.1500 
 40 H        8.0480    -3.9430     0.9470 H     1 <1>   0.1500 
 41 H        6.3370    -7.6740    -0.1910 H     1 <1>   0.1500 
 42 H        9.1920    -6.0560     1.4840 H     1 <1>   0.0800 
 43 H        9.2570    -6.6190    -0.1720 H     1 <1>   0.0800 
 44 H        8.4760    -7.5870     1.0570 H     1 <1>   0.0800 
@<TRIPOS>BOND
  1   1   2  2   
  2   2   3  1   
  3   2   4  1   
  4   3   5  ar  
  5   3  24  1   
  6   4   6  1   
  7   4  25  1   
  8   4  26  1   
  9   5   7  ar  
 10   5   8  ar  
 11   6   8  1   
 12   6   9  1   
 13   6  27  1   
 14   7  10  1   
 15   7  11  1   
 16   8  28  1   
 17   9  12  2   
 18   9  13  am  
 19  10  14  1   
 20  10  29  1   
 21  10  30  1   
 22  11  15  1   
 23  11  31  1   
 24  11  32  1   
 25  13  16  1   
 26  13  33  1   
 27  14  17  1   
 28  14  34  1   
 29  14  35  1   
 30  15  17  1   
 31  15  36  1   
 32  15  37  1   
 33  16  18  ar  
 34  16  19  ar  
 35  18  20  ar  
 36  18  38  1   
 37  19  21  ar  
 38  19  39  1   
 39  20  22  ar  
 40  20  40  1   
 41  21  22  ar  
 42  21  41  1   
 43  22  23  1   
 44  23  42  1   
 45  23  43  1   
 46  23  44  1   
@<TRIPOS>SUBSTRUCTURE
  1 ****   9 GROUP 4 **** **** 0

# MOE 2024.06 (io_trps.svl 2023.06)
