@<TRIPOS>MOLECULE
NONAME
45 46 1 0 0 
SMALL
USER_CHARGES


@<TRIPOS>ATOM
  1 O        0.5290     0.6610     0.2470 O.3   1 <1>  -0.3630 
  2 C       -0.7000     1.1890     0.0080 C.ar  1 <1>   0.0830 
  3 C        1.6990     1.3350    -0.1450 C.3   1 <1>   0.1200 
  4 C       -0.9120     2.4080    -0.6300 C.ar  1 <1>  -0.1500 
  5 C       -1.7880     0.4470     0.4370 C.ar  1 <1>  -0.1500 
  6 C        2.8890     0.4690     0.2750 C.3   1 <1>  -0.1600 
  7 C       -2.2030     2.8670    -0.8300 C.ar  1 <1>  -0.1500 
  8 C       -3.0790     0.9050     0.2380 C.ar  1 <1>  -0.1500 
  9 C        4.2310     1.1160    -0.0990 C.3   1 <1>  -0.1600 
 10 C       -3.2910     2.1240    -0.4000 C.ar  1 <1>   0.0830 
 11 C        5.3930     0.2170     0.3300 C.3   1 <1>   0.3430 
 12 O       -4.5210     2.6510    -0.6380 O.3   1 <1>  -0.3620 
 13 N        6.6940     0.7850    -0.1200 N.4   1 <1>  -0.9590 
 14 C       -5.6910     1.9720    -0.2400 C.3   1 <1>   0.0400 
 15 C        7.7620    -0.2570    -0.0620 C.3   1 <1>   0.3430 
 16 C        7.0830     2.0020     0.6560 C.3   1 <1>   0.3430 
 17 C        9.0550     0.2940    -0.6680 C.3   1 <1>  -0.1600 
 18 C        8.3620     2.6030     0.0680 C.3   1 <1>  -0.1600 
 19 C        9.5060     1.5820     0.0330 C.3   1 <1>  -0.1600 
 20 H        1.7200     2.2900     0.3520 H     1 <1>   0.0800 
 21 H        1.6720     1.4660    -1.2130 H     1 <1>   0.0800 
 22 H       -0.0960     3.0120    -0.9770 H     1 <1>   0.1500 
 23 H       -1.6170    -0.4930     0.9290 H     1 <1>   0.1500 
 24 H        2.7990    -0.4890    -0.2090 H     1 <1>   0.0800 
 25 H        2.8420     0.3200     1.3410 H     1 <1>   0.0800 
 26 H       -2.3770     3.8070    -1.3210 H     1 <1>   0.1500 
 27 H       -3.8980     0.3040     0.5830 H     1 <1>   0.1500 
 28 H        4.2980     2.0730     0.3880 H     1 <1>   0.0800 
 29 H        4.2610     1.2620    -1.1660 H     1 <1>   0.0800 
 30 H        5.2540    -0.7570    -0.1120 H     1 <1>   0.0800 
 31 H        5.3910     0.0990     1.4030 H     1 <1>   0.0800 
 32 H        6.6010     1.0640    -1.1050 H     1 <1>   0.4500 
 33 H       -6.5370     2.5700    -0.5270 H     1 <1>   0.0800 
 34 H       -5.6770     1.8490     0.8290 H     1 <1>   0.0800 
 35 H       -5.7290     1.0200    -0.7380 H     1 <1>   0.0800 
 36 H        7.4560    -1.1330    -0.6110 H     1 <1>   0.0800 
 37 H        7.9390    -0.5420     0.9630 H     1 <1>   0.0800 
 38 H        7.2520     1.7380     1.6880 H     1 <1>   0.0800 
 39 H        6.2970     2.7380     0.6180 H     1 <1>   0.0800 
 40 H        8.9080     0.4780    -1.7180 H     1 <1>   0.0800 
 41 H        9.8290    -0.4490    -0.5780 H     1 <1>   0.0800 
 42 H        8.6590     3.4480     0.6640 H     1 <1>   0.0800 
 43 H        8.1620     2.9660    -0.9250 H     1 <1>   0.0800 
 44 H       10.3560     2.0010    -0.4820 H     1 <1>   0.0800 
 45 H        9.8150     1.3540     1.0400 H     1 <1>   0.0800 
@<TRIPOS>BOND
  1   1   2  1   
  2   1   3  1   
  3   2   4  ar  
  4   2   5  ar  
  5   3   6  1   
  6   3  20  1   
  7   3  21  1   
  8   4   7  ar  
  9   4  22  1   
 10   5   8  ar  
 11   5  23  1   
 12   6   9  1   
 13   6  24  1   
 14   6  25  1   
 15   7  10  ar  
 16   7  26  1   
 17   8  10  ar  
 18   8  27  1   
 19   9  11  1   
 20   9  28  1   
 21   9  29  1   
 22  10  12  1   
 23  11  13  1   
 24  11  30  1   
 25  11  31  1   
 26  12  14  1   
 27  13  15  1   
 28  13  16  1   
 29  13  32  1   
 30  14  33  1   
 31  14  34  1   
 32  14  35  1   
 33  15  17  1   
 34  15  36  1   
 35  15  37  1   
 36  16  18  1   
 37  16  38  1   
 38  16  39  1   
 39  17  19  1   
 40  17  40  1   
 41  17  41  1   
 42  18  19  1   
 43  18  42  1   
 44  18  43  1   
 45  19  44  1   
 46  19  45  1   
@<TRIPOS>SUBSTRUCTURE
  1 ****   3 GROUP 4 **** **** 0

# MOE 2024.06 (io_trps.svl 2023.06)
