@<TRIPOS>MOLECULE
NONAME
42 44 1 0 0 
SMALL
USER_CHARGES


@<TRIPOS>ATOM
  1 O       -0.3270     1.0650    -2.5920 O.2   1 <1>  -0.5700 
  2 C       -0.3960     1.5780    -1.5020 C.2   1 <1>   0.5690 
  3 N       -1.4860     1.4590    -0.7080 N.am  1 <1>  -0.7300 
  4 C        0.7780     2.3870    -0.9890 C.3   1 <1>  -0.0990 
  5 C       -2.7030     0.6860    -1.0290 C.3   1 <1>   0.2200 
  6 C        1.5390     1.6560     0.1300 C.3   1 <1>  -0.1600 
  7 C       -3.9540     1.5830    -0.9060 C.3   1 <1>  -0.0800 
  8 C       -2.8370    -0.5170    -0.0710 C.3   1 <1>  -0.0800 
  9 C        2.7240     2.4890     0.6360 C.3   1 <1>  -0.1600 
 10 C       -4.1520     2.0570     0.5520 C.3   1 <1>  -0.1600 
 11 C       -5.1880     0.7570    -1.3250 C.3   1 <1>  -0.1600 
 12 C       -3.0350    -0.0420     1.3870 C.3   1 <1>  -0.1600 
 13 C       -4.0730    -1.3390    -0.4910 C.3   1 <1>  -0.1600 
 14 C        3.4740     1.7550     1.7510 C.3   1 <1>  -0.2400 
 15 C       -4.2960     0.8400     1.4880 C.3   1 <1>  -0.0800 
 16 C       -5.3420    -0.4680    -0.4020 C.3   1 <1>  -0.0800 
 17 C       -5.5210     0.0140     1.0500 C.3   1 <1>  -0.1600 
 18 H       -1.4930     1.8850     0.2170 H     1 <1>   0.3700 
 19 H        0.4140     3.3320    -0.6330 H     1 <1>   0.0800 
 20 H        1.4440     2.5770    -1.8120 H     1 <1>   0.0800 
 21 H       -2.6280     0.3230    -2.0410 H     1 <1>   0.0800 
 22 H        1.8970     0.7130    -0.2490 H     1 <1>   0.0800 
 23 H        0.8700     1.4510     0.9480 H     1 <1>   0.0800 
 24 H       -3.8520     2.4280    -1.5640 H     1 <1>   0.0800 
 25 H       -1.9580    -1.1330    -0.1480 H     1 <1>   0.0800 
 26 H        2.3710     3.4350     1.0100 H     1 <1>   0.0800 
 27 H        3.4030     2.6830    -0.1780 H     1 <1>   0.0800 
 28 H       -5.0360     2.6670     0.6160 H     1 <1>   0.0800 
 29 H       -3.3220     2.6650     0.8650 H     1 <1>   0.0800 
 30 H       -5.0800     0.4330    -2.3460 H     1 <1>   0.0800 
 31 H       -6.0720     1.3680    -1.2710 H     1 <1>   0.0800 
 32 H       -2.1740     0.5080     1.7220 H     1 <1>   0.0800 
 33 H       -3.1390    -0.8960     2.0330 H     1 <1>   0.0800 
 34 H       -4.1750    -2.1990     0.1490 H     1 <1>   0.0800 
 35 H       -3.9470    -1.6970    -1.4990 H     1 <1>   0.0800 
 36 H        2.8210     1.5680     2.5850 H     1 <1>   0.0800 
 37 H        4.3020     2.3520     2.0910 H     1 <1>   0.0800 
 38 H        3.8560     0.8160     1.3920 H     1 <1>   0.0800 
 39 H       -4.4280     1.1730     2.5030 H     1 <1>   0.0800 
 40 H       -6.2010    -1.0450    -0.7020 H     1 <1>   0.0800 
 41 H       -6.4110     0.6140     1.1270 H     1 <1>   0.0800 
 42 H       -5.6410    -0.8330     1.7020 H     1 <1>   0.0800 
@<TRIPOS>BOND
  1   1   2  2   
  2   2   3  am  
  3   2   4  1   
  4   3   5  1   
  5   3  18  1   
  6   4   6  1   
  7   4  19  1   
  8   4  20  1   
  9   5   7  1   
 10   5   8  1   
 11   5  21  1   
 12   6   9  1   
 13   6  22  1   
 14   6  23  1   
 15   7  10  1   
 16   7  11  1   
 17   7  24  1   
 18   8  12  1   
 19   8  13  1   
 20   8  25  1   
 21   9  14  1   
 22   9  26  1   
 23   9  27  1   
 24  10  15  1   
 25  10  28  1   
 26  10  29  1   
 27  11  16  1   
 28  11  30  1   
 29  11  31  1   
 30  12  15  1   
 31  12  32  1   
 32  12  33  1   
 33  13  16  1   
 34  13  34  1   
 35  13  35  1   
 36  14  36  1   
 37  14  37  1   
 38  14  38  1   
 39  15  17  1   
 40  15  39  1   
 41  16  17  1   
 42  16  40  1   
 43  17  41  1   
 44  17  42  1   
@<TRIPOS>SUBSTRUCTURE
  1 ****   3 GROUP 4 **** **** 0

# MOE 2024.06 (io_trps.svl 2023.06)
