@<TRIPOS>MOLECULE
NONAME
35 35 1 0 0 
SMALL
USER_CHARGES


@<TRIPOS>ATOM
  1 O        2.2640    -1.7680     1.7740 O.2   1 <1>  -0.5700 
  2 C        2.1850    -0.8490     1.0040 C.2   1 <1>   0.6590 
  3 O        2.9530    -0.7320    -0.0650 O.3   1 <1>  -0.4300 
  4 C        1.1840     0.2580     1.2030 C.3   1 <1>  -0.1790 
  5 C        3.9550    -1.6730    -0.3810 C.3   1 <1>   0.4000 
  6 C        5.1760    -0.9040    -0.7570 C.1   1 <1>  -0.2000 
  7 C        3.4800    -2.5490    -1.5510 C.3   1 <1>  -0.1600 
  8 C        6.1590    -0.2970    -1.0420 C.1   1 <1>  -0.2000 
  9 C        2.2200    -3.3710    -1.2400 C.3   1 <1>  -0.2400 
 10 C        7.3930     0.4720    -1.3780 C.3   1 <1>   0.3100 
 11 N        8.4550     0.2090    -0.3950 N.3   1 <1>  -0.8100 
 12 C        9.7340     0.8010    -0.8320 C.3   1 <1>   0.1100 
 13 C        8.1090     0.7190     0.9500 C.3   1 <1>   0.1100 
 14 C       10.8370     0.5740     0.2160 C.3   1 <1>   0.1200 
 15 C        9.2660     0.5020     1.9410 C.3   1 <1>   0.1200 
 16 O       10.4440     1.0840     1.4580 O.3   1 <1>  -0.5600 
 17 H        1.7000     1.1940     1.3000 H     1 <1>   0.0800 
 18 H        0.6100     0.0750     2.0920 H     1 <1>   0.0800 
 19 H        0.5240     0.3010     0.3570 H     1 <1>   0.0800 
 20 H        4.1770    -2.2790     0.4810 H     1 <1>   0.0800 
 21 H        4.2770    -3.2270    -1.8040 H     1 <1>   0.0800 
 22 H        3.3040    -1.9240    -2.4090 H     1 <1>   0.0800 
 23 H        2.3710    -3.9760    -0.3630 H     1 <1>   0.0800 
 24 H        1.9890    -4.0180    -2.0680 H     1 <1>   0.0800 
 25 H        1.3760    -2.7250    -1.0710 H     1 <1>   0.0800 
 26 H        7.1680     1.5240    -1.4080 H     1 <1>   0.0800 
 27 H        7.7260     0.1660    -2.3540 H     1 <1>   0.0800 
 28 H        9.6180     1.8590    -0.9910 H     1 <1>   0.0800 
 29 H       10.0370     0.3500    -1.7610 H     1 <1>   0.0800 
 30 H        7.2400     0.2040     1.3220 H     1 <1>   0.0800 
 31 H        7.8830     1.7700     0.9020 H     1 <1>   0.0800 
 32 H       11.7400     1.0800    -0.0750 H     1 <1>   0.0800 
 33 H       11.0450    -0.4760     0.3240 H     1 <1>   0.0800 
 34 H        9.4370    -0.5500     2.0930 H     1 <1>   0.0800 
 35 H        9.0380     0.9580     2.8880 H     1 <1>   0.0800 
@<TRIPOS>BOND
  1   1   2  2   
  2   2   3  1   
  3   2   4  1   
  4   3   5  1   
  5   4  17  1   
  6   4  18  1   
  7   4  19  1   
  8   5   6  1   
  9   5   7  1   
 10   5  20  1   
 11   6   8  3   
 12   7   9  1   
 13   7  21  1   
 14   7  22  1   
 15   8  10  1   
 16   9  23  1   
 17   9  24  1   
 18   9  25  1   
 19  10  11  1   
 20  10  26  1   
 21  10  27  1   
 22  11  12  1   
 23  11  13  1   
 24  12  14  1   
 25  12  28  1   
 26  12  29  1   
 27  13  15  1   
 28  13  30  1   
 29  13  31  1   
 30  14  16  1   
 31  14  32  1   
 32  14  33  1   
 33  15  16  1   
 34  15  34  1   
 35  15  35  1   
@<TRIPOS>SUBSTRUCTURE
  1 ****   6 GROUP 4 **** **** 0

# MOE 2024.06 (io_trps.svl 2023.06)
