@<TRIPOS>MOLECULE
NONAME
52 55 1 0 0 
SMALL
USER_CHARGES


@<TRIPOS>ATOM
  1 O       -2.0790    -1.8390     1.9750 O.2   1 <1>  -0.5700 
  2 C       -1.8550    -1.4550     0.8510 C.2   1 <1>   0.5690 
  3 N       -0.6430    -1.6470     0.2510 N.am  1 <1>  -0.7300 
  4 C       -2.9580    -0.7290     0.0480 C.3   1 <1>   0.0610 
  5 C        0.5610    -2.3040     0.7930 C.3   1 <1>   0.2200 
  6 C       -4.2580    -0.5560     0.8790 C.3   1 <1>  -0.1600 
  7 C       -3.3120    -1.5390    -1.2260 C.3   1 <1>  -0.1600 
  8 C       -2.4750     0.6780    -0.3810 C.3   1 <1>  -0.1600 
  9 C        0.2670    -3.7690     1.1030 C.3   1 <1>  -0.2400 
 10 C        1.0680    -1.5450     2.0170 C.3   1 <1>  -0.2400 
 11 C       -5.3750     0.1540     0.0790 C.3   1 <1>   0.1430 
 12 C       -4.3910    -0.8200    -2.0550 C.3   1 <1>  -0.0800 
 13 C       -3.5560     1.3980    -1.2060 C.3   1 <1>  -0.0800 
 14 C       -6.6610     0.2510     0.9330 C.ar  1 <1>  -0.1440 
 15 C       -5.6620    -0.6620    -1.2020 C.3   1 <1>  -0.1600 
 16 C       -4.8300     1.5370    -0.3560 C.3   1 <1>  -0.1600 
 17 C       -3.8750     0.5700    -2.4630 C.3   1 <1>  -0.1600 
 18 C       -7.2760     1.4610     1.2480 C.ar  1 <1>  -0.1500 
 19 C       -7.2520    -0.9120     1.4170 C.ar  1 <1>  -0.1500 
 20 C       -8.4300     1.5020     2.0120 C.ar  1 <1>  -0.1500 
 21 C       -8.4040    -0.8730     2.1820 C.ar  1 <1>  -0.1500 
 22 C       -9.0020     0.3360     2.4860 C.ar  1 <1>  -0.1440 
 23 C      -10.2660     0.3820     3.3240 C.3   1 <1>  -0.0970 
 24 H       -0.5320    -1.2970    -0.6990 H     1 <1>   0.3700 
 25 H        1.3260    -2.2670     0.0350 H     1 <1>   0.0800 
 26 H       -4.0450     0.0110     1.7690 H     1 <1>   0.0800 
 27 H       -4.5910    -1.5260     1.1970 H     1 <1>   0.0800 
 28 H       -3.6640    -2.5160    -0.9420 H     1 <1>   0.0800 
 29 H       -2.4360    -1.6770    -1.8340 H     1 <1>   0.0800 
 30 H       -1.5780     0.6040    -0.9690 H     1 <1>   0.0800 
 31 H       -2.2410     1.2590     0.4950 H     1 <1>   0.0800 
 32 H       -0.4560    -3.8540     1.8940 H     1 <1>   0.0800 
 33 H        1.1680    -4.2640     1.4170 H     1 <1>   0.0800 
 34 H       -0.1070    -4.2670     0.2270 H     1 <1>   0.0800 
 35 H        0.3560    -1.5990     2.8210 H     1 <1>   0.0800 
 36 H        1.2440    -0.5150     1.7690 H     1 <1>   0.0800 
 37 H        1.9910    -1.9770     2.3570 H     1 <1>   0.0800 
 38 H       -4.6170    -1.3960    -2.9370 H     1 <1>   0.0800 
 39 H       -3.2040     2.3740    -1.4940 H     1 <1>   0.0800 
 40 H       -6.4280    -0.1680    -1.7750 H     1 <1>   0.0800 
 41 H       -6.0330    -1.6380    -0.9470 H     1 <1>   0.0800 
 42 H       -4.6080     2.1290     0.5140 H     1 <1>   0.0800 
 43 H       -5.5760     2.0560    -0.9330 H     1 <1>   0.0800 
 44 H       -2.9930     0.4710    -3.0710 H     1 <1>   0.0800 
 45 H       -4.6210     1.0760    -3.0520 H     1 <1>   0.0800 
 46 H       -6.8790     2.3980     0.9100 H     1 <1>   0.1500 
 47 H       -6.8190    -1.8710     1.2040 H     1 <1>   0.1500 
 48 H       -8.8810     2.4520     2.2360 H     1 <1>   0.1500 
 49 H       -8.8320    -1.7930     2.5390 H     1 <1>   0.1500 
 50 H      -10.3060     1.2930     3.8930 H     1 <1>   0.0800 
 51 H      -10.2930    -0.4470     4.0080 H     1 <1>   0.0800 
 52 H      -11.1280     0.3330     2.6830 H     1 <1>   0.0800 
@<TRIPOS>BOND
  1   1   2  2   
  2   2   3  am  
  3   2   4  1   
  4   3   5  1   
  5   3  24  1   
  6   4   6  1   
  7   4   7  1   
  8   4   8  1   
  9   5   9  1   
 10   5  10  1   
 11   5  25  1   
 12   6  11  1   
 13   6  26  1   
 14   6  27  1   
 15   7  12  1   
 16   7  28  1   
 17   7  29  1   
 18   8  13  1   
 19   8  30  1   
 20   8  31  1   
 21   9  32  1   
 22   9  33  1   
 23   9  34  1   
 24  10  35  1   
 25  10  36  1   
 26  10  37  1   
 27  11  14  1   
 28  11  15  1   
 29  11  16  1   
 30  12  15  1   
 31  12  17  1   
 32  12  38  1   
 33  13  16  1   
 34  13  17  1   
 35  13  39  1   
 36  14  18  ar  
 37  14  19  ar  
 38  15  40  1   
 39  15  41  1   
 40  16  42  1   
 41  16  43  1   
 42  17  44  1   
 43  17  45  1   
 44  18  20  ar  
 45  18  46  1   
 46  19  21  ar  
 47  19  47  1   
 48  20  22  ar  
 49  20  48  1   
 50  21  22  ar  
 51  21  49  1   
 52  22  23  1   
 53  23  50  1   
 54  23  51  1   
 55  23  52  1   
@<TRIPOS>SUBSTRUCTURE
  1 ****   6 GROUP 4 **** **** 0

# MOE 2024.06 (io_trps.svl 2023.06)
