@<TRIPOS>MOLECULE
NONAME
45 47 1 0 0 
SMALL
USER_CHARGES


@<TRIPOS>ATOM
  1 BR       0.7680    -0.3410    -2.3010 Br    1 <1>  -0.1110 
  2 C        1.9300    -0.9610    -0.8990 C.ar  1 <1>   0.1110 
  3 C        3.1710    -0.3760    -0.7560 C.ar  1 <1>  -0.1500 
  4 C        1.4890    -1.9770    -0.0730 C.ar  1 <1>  -0.1500 
  5 C        4.0320    -0.8150     0.2480 C.ar  1 <1>   0.0860 
  6 C        2.3300    -2.4140     0.9350 C.ar  1 <1>  -0.1500 
  7 C        5.3460    -0.2190     0.4100 C.2   1 <1>   0.5440 
  8 C        3.5800    -1.8360     1.0900 C.ar  1 <1>  -0.1500 
  9 O        5.4510     0.9930     0.4190 O.2   1 <1>  -0.5700 
 10 N        6.4840    -0.9860     0.5400 N.am  1 <1>  -0.6600 
 11 C        7.7930    -0.3900     0.9540 C.3   1 <1>   0.1400 
 12 C        6.6110    -2.3860     0.0240 C.3   1 <1>   0.1400 
 13 C        8.8180    -0.4620    -0.1890 C.3   1 <1>   0.1400 
 14 C        7.6350    -2.4510    -1.1200 C.3   1 <1>   0.1400 
 15 N        8.9390    -1.8590    -0.7030 N.am  1 <1>  -0.6600 
 16 C        9.9530    -2.6720    -0.2670 C.2   1 <1>   0.6900 
 17 O        9.6900    -3.7970     0.1240 O.2   1 <1>  -0.5700 
 18 N       11.2510    -2.2280    -0.2550 N.am  1 <1>  -0.6600 
 19 C       12.2810    -2.9200     0.5630 C.3   1 <1>   0.1400 
 20 C       11.7990    -1.3590    -1.3300 C.3   1 <1>   0.1400 
 21 C       13.2260    -1.8860     1.1860 C.3   1 <1>  -0.1600 
 22 C       12.7350    -0.3080    -0.7220 C.3   1 <1>  -0.1600 
 23 C       13.8380    -0.9610     0.1230 C.3   1 <1>  -0.1600 
 24 H        3.4760     0.4190    -1.4130 H     1 <1>   0.1500 
 25 H        0.5150    -2.4090    -0.2150 H     1 <1>   0.1500 
 26 H        2.0110    -3.2000     1.5990 H     1 <1>   0.1500 
 27 H        4.2250    -2.1750     1.8830 H     1 <1>   0.1500 
 28 H        8.1730    -0.9350     1.8010 H     1 <1>   0.0800 
 29 H        7.6660     0.6350     1.2550 H     1 <1>   0.0800 
 30 H        5.6670    -2.7500    -0.3380 H     1 <1>   0.0800 
 31 H        6.9360    -3.0310     0.8220 H     1 <1>   0.0800 
 32 H        9.7680    -0.1150     0.1760 H     1 <1>   0.0800 
 33 H        8.5080     0.1870    -0.9880 H     1 <1>   0.0800 
 34 H        7.2580    -1.9090    -1.9690 H     1 <1>   0.0800 
 35 H        7.7750    -3.4750    -1.4190 H     1 <1>   0.0800 
 36 H       12.8320    -3.5960    -0.0670 H     1 <1>   0.0800 
 37 H       11.8100    -3.4940     1.3440 H     1 <1>   0.0800 
 38 H       11.0050    -0.8760    -1.8720 H     1 <1>   0.0800 
 39 H       12.3460    -1.9740    -2.0230 H     1 <1>   0.0800 
 40 H       14.0100    -2.3980     1.7150 H     1 <1>   0.0800 
 41 H       12.6750    -1.3020     1.9010 H     1 <1>   0.0800 
 42 H       12.1580     0.3620    -0.1100 H     1 <1>   0.0800 
 43 H       13.1800     0.2700    -1.5120 H     1 <1>   0.0800 
 44 H       14.4860    -1.5350    -0.5180 H     1 <1>   0.0800 
 45 H       14.4310    -0.2000     0.6000 H     1 <1>   0.0800 
@<TRIPOS>BOND
  1   1   2  1   
  2   2   3  ar  
  3   2   4  ar  
  4   3   5  ar  
  5   3  24  1   
  6   4   6  ar  
  7   4  25  1   
  8   5   7  1   
  9   5   8  ar  
 10   6   8  ar  
 11   6  26  1   
 12   7   9  2   
 13   7  10  am  
 14   8  27  1   
 15  10  11  1   
 16  10  12  1   
 17  11  13  1   
 18  11  28  1   
 19  11  29  1   
 20  12  14  1   
 21  12  30  1   
 22  12  31  1   
 23  13  15  1   
 24  13  32  1   
 25  13  33  1   
 26  14  15  1   
 27  14  34  1   
 28  14  35  1   
 29  15  16  am  
 30  16  17  2   
 31  16  18  am  
 32  18  19  1   
 33  18  20  1   
 34  19  21  1   
 35  19  36  1   
 36  19  37  1   
 37  20  22  1   
 38  20  38  1   
 39  20  39  1   
 40  21  23  1   
 41  21  40  1   
 42  21  41  1   
 43  22  23  1   
 44  22  42  1   
 45  22  43  1   
 46  23  44  1   
 47  23  45  1   
@<TRIPOS>SUBSTRUCTURE
  1 ****  10 GROUP 4 **** **** 0

# MOE 2024.06 (io_trps.svl 2023.06)
