@<TRIPOS>MOLECULE
NONAME
44 46 1 0 0 
SMALL
USER_CHARGES


@<TRIPOS>ATOM
  1 F       -2.0210     1.2590     1.6780 F     1 <1>  -0.1900 
  2 C       -1.1890     2.0770     1.0880 C.ar  1 <1>   0.1900 
  3 C       -1.4420     2.4610    -0.2200 C.ar  1 <1>  -0.1440 
  4 C       -0.0990     2.5350     1.8020 C.ar  1 <1>  -0.1500 
  5 C       -0.5550     3.3400    -0.8260 C.ar  1 <1>  -0.1500 
  6 C       -2.6560     1.9310    -0.9560 C.3   1 <1>   0.4870 
  7 C        0.7750     3.4120     1.1840 C.ar  1 <1>  -0.1500 
  8 C        0.5450     3.8110    -0.1240 C.ar  1 <1>  -0.1500 
  9 N       -3.8890     2.4310    -0.2910 N.4   1 <1>  -0.9590 
 10 C       -5.1070     1.7640    -0.8280 C.3   1 <1>   0.3430 
 11 C       -3.9890     3.9190    -0.3360 C.3   1 <1>   0.3430 
 12 C       -6.3250     2.1870    -0.0100 C.3   1 <1>  -0.1600 
 13 C       -5.1900     4.3780     0.4910 C.3   1 <1>  -0.1600 
 14 C       -6.4950     3.7180     0.0170 C.3   1 <1>  -0.0800 
 15 C       -7.6810     4.1500     0.9010 C.3   1 <1>  -0.0170 
 16 C       -8.9870     3.5340     0.4210 C.ar  1 <1>  -0.1430 
 17 C       -9.6120     4.0240    -0.7160 C.ar  1 <1>  -0.1500 
 18 C       -9.5610     2.4750     1.1090 C.ar  1 <1>  -0.1500 
 19 C      -10.7910     3.4560    -1.1660 C.ar  1 <1>  -0.1500 
 20 C      -10.7400     1.9070     0.6600 C.ar  1 <1>  -0.1500 
 21 C      -11.3550     2.3960    -0.4790 C.ar  1 <1>  -0.1500 
 22 H        0.0650     2.2120     2.8150 H     1 <1>   0.1500 
 23 H       -0.7000     3.6650    -1.8430 H     1 <1>   0.1500 
 24 H       -2.6360     0.8530    -0.9310 H     1 <1>   0.0800 
 25 H       -2.6320     2.2500    -1.9850 H     1 <1>   0.0800 
 26 H        1.6340     3.7840     1.7180 H     1 <1>   0.1500 
 27 H        1.2340     4.4920    -0.5980 H     1 <1>   0.1500 
 28 H       -3.7980     2.1640     0.7000 H     1 <1>   0.4500 
 29 H       -4.9980     0.6920    -0.7770 H     1 <1>   0.0800 
 30 H       -5.2540     2.0430    -1.8590 H     1 <1>   0.0800 
 31 H       -4.1070     4.2480    -1.3560 H     1 <1>   0.0800 
 32 H       -3.0910     4.3640     0.0640 H     1 <1>   0.0800 
 33 H       -6.2350     1.8040     0.9910 H     1 <1>   0.0800 
 34 H       -7.1960     1.7340    -0.4500 H     1 <1>   0.0800 
 35 H       -5.2780     5.4480     0.4060 H     1 <1>   0.0800 
 36 H       -5.0120     4.1520     1.5280 H     1 <1>   0.0800 
 37 H       -6.6970     4.0520    -0.9880 H     1 <1>   0.0800 
 38 H       -7.7790     5.2210     0.8790 H     1 <1>   0.0800 
 39 H       -7.5020     3.8660     1.9230 H     1 <1>   0.0800 
 40 H       -9.1870     4.8510    -1.2570 H     1 <1>   0.1500 
 41 H       -9.0970     2.0860     1.9980 H     1 <1>   0.1500 
 42 H      -11.2720     3.8400    -2.0480 H     1 <1>   0.1500 
 43 H      -11.1820     1.0860     1.1980 H     1 <1>   0.1500 
 44 H      -12.2720     1.9540    -0.8280 H     1 <1>   0.1500 
@<TRIPOS>BOND
  1   1   2  1   
  2   2   3  ar  
  3   2   4  ar  
  4   3   5  ar  
  5   3   6  1   
  6   4   7  ar  
  7   4  22  1   
  8   5   8  ar  
  9   5  23  1   
 10   6   9  1   
 11   6  24  1   
 12   6  25  1   
 13   7   8  ar  
 14   7  26  1   
 15   8  27  1   
 16   9  10  1   
 17   9  11  1   
 18   9  28  1   
 19  10  12  1   
 20  10  29  1   
 21  10  30  1   
 22  11  13  1   
 23  11  31  1   
 24  11  32  1   
 25  12  14  1   
 26  12  33  1   
 27  12  34  1   
 28  13  14  1   
 29  13  35  1   
 30  13  36  1   
 31  14  15  1   
 32  14  37  1   
 33  15  16  1   
 34  15  38  1   
 35  15  39  1   
 36  16  17  ar  
 37  16  18  ar  
 38  17  19  ar  
 39  17  40  1   
 40  18  20  ar  
 41  18  41  1   
 42  19  21  ar  
 43  19  42  1   
 44  20  21  ar  
 45  20  43  1   
 46  21  44  1   
@<TRIPOS>SUBSTRUCTURE
  1 ****   9 GROUP 4 **** **** 0

# MOE 2024.06 (io_trps.svl 2023.06)
