@<TRIPOS>MOLECULE
NONAME
55 56 1 0 0 
SMALL
USER_CHARGES


@<TRIPOS>ATOM
  1 S       -0.1510    -0.3150    -1.3510 S.o2  1 <1>   1.3330 
  2 O       -1.5810    -0.1640    -1.2560 O.2   1 <1>  -0.6500 
  3 O        0.4400    -1.0130    -2.4690 O.2   1 <1>  -0.6500 
  4 N        0.5530     1.2610    -1.2870 N.am  1 <1>  -0.6930 
  5 C        0.4600    -1.0410     0.1540 C.3   1 <1>  -0.1350 
  6 C        0.0270     2.2670    -0.4890 C.ar  1 <1>   0.1990 
  7 C        1.6750     1.5590    -2.1970 C.3   1 <1>   0.3390 
  8 C        0.6540     2.6280     0.6980 C.ar  1 <1>  -0.1500 
  9 C       -1.1330     2.9340    -0.8620 C.ar  1 <1>  -0.1500 
 10 C        2.9880     1.1300    -1.5570 C.ar  1 <1>  -0.1430 
 11 C        0.1430     3.6410     1.4880 C.ar  1 <1>  -0.1500 
 12 C       -1.6480     3.9480    -0.0750 C.ar  1 <1>  -0.1500 
 13 C        3.4960    -0.1410    -1.7690 C.ar  1 <1>  -0.1500 
 14 C        3.6960     2.0080    -0.7530 C.ar  1 <1>  -0.1500 
 15 C       -1.0090     4.3040     1.1010 C.ar  1 <1>  -0.1500 
 16 C        4.6790    -0.5300    -1.1710 C.ar  1 <1>  -0.1500 
 17 C        4.8810     1.6160    -0.1590 C.ar  1 <1>  -0.1500 
 18 C        5.4010     0.3330    -0.3470 C.ar  1 <1>   0.0860 
 19 C        6.6430    -0.0990     0.2710 C.2   1 <1>   0.5440 
 20 O        7.2850    -1.0230    -0.1900 O.2   1 <1>  -0.5700 
 21 N        7.1610     0.5380     1.3640 N.am  1 <1>  -0.7300 
 22 C        8.2010    -0.0130     2.2700 C.3   1 <1>   0.1400 
 23 C        9.5460     0.6980     2.0700 C.3   1 <1>  -0.1600 
 24 C       10.4290     0.0930     0.9690 C.3   1 <1>   0.3430 
 25 N        9.7940     0.1630    -0.3710 N.4   1 <1>  -0.9590 
 26 C       10.4830    -0.7200    -1.3540 C.3   1 <1>   0.2630 
 27 C        9.6540     1.5540    -0.8930 C.3   1 <1>   0.2630 
 28 H        0.1090    -2.0500     0.2430 H     1 <1>   0.0800 
 29 H        0.1130    -0.4800     1.0000 H     1 <1>   0.0800 
 30 H        1.5320    -1.0450     0.1560 H     1 <1>   0.0800 
 31 H        1.6990     2.6170    -2.3940 H     1 <1>   0.0800 
 32 H        1.5340     1.0600    -3.1410 H     1 <1>   0.0800 
 33 H        1.5430     2.1070     1.0020 H     1 <1>   0.1500 
 34 H       -1.6330     2.6470    -1.7690 H     1 <1>   0.1500 
 35 H        0.6360     3.9150     2.4050 H     1 <1>   0.1500 
 36 H       -2.5490     4.4560    -0.3750 H     1 <1>   0.1500 
 37 H        2.9710    -0.8380    -2.4030 H     1 <1>   0.1500 
 38 H        3.3190     3.0040    -0.5880 H     1 <1>   0.1500 
 39 H       -1.4110     5.0940     1.7130 H     1 <1>   0.1500 
 40 H        5.0520    -1.5250    -1.3470 H     1 <1>   0.1500 
 41 H        5.4040     2.3280     0.4530 H     1 <1>   0.1500 
 42 H        6.5780     1.2590     1.8000 H     1 <1>   0.3700 
 43 H        8.3060    -1.0750     2.1170 H     1 <1>   0.0800 
 44 H        7.8700     0.1340     3.2850 H     1 <1>   0.0800 
 45 H       10.0970     0.5920     2.9880 H     1 <1>   0.0800 
 46 H        9.4030     1.7530     1.9230 H     1 <1>   0.0800 
 47 H       10.6170    -0.9400     1.2150 H     1 <1>   0.0800 
 48 H       11.3780     0.6040     0.9470 H     1 <1>   0.0800 
 49 H        8.8310    -0.2270    -0.2510 H     1 <1>   0.4500 
 50 H       11.4950    -0.3860    -1.5170 H     1 <1>   0.0800 
 51 H        9.9570    -0.7090    -2.2950 H     1 <1>   0.0800 
 52 H       10.5040    -1.7350    -0.9910 H     1 <1>   0.0800 
 53 H       10.6230     2.0110    -1.0090 H     1 <1>   0.0800 
 54 H        9.0660     2.1480    -0.2130 H     1 <1>   0.0800 
 55 H        9.1580     1.5420    -1.8490 H     1 <1>   0.0800 
@<TRIPOS>BOND
  1   1   2  2   
  2   1   3  2   
  3   1   4  am  
  4   1   5  1   
  5   4   6  1   
  6   4   7  1   
  7   5  28  1   
  8   5  29  1   
  9   5  30  1   
 10   6   8  ar  
 11   6   9  ar  
 12   7  10  1   
 13   7  31  1   
 14   7  32  1   
 15   8  11  ar  
 16   8  33  1   
 17   9  12  ar  
 18   9  34  1   
 19  10  13  ar  
 20  10  14  ar  
 21  11  15  ar  
 22  11  35  1   
 23  12  15  ar  
 24  12  36  1   
 25  13  16  ar  
 26  13  37  1   
 27  14  17  ar  
 28  14  38  1   
 29  15  39  1   
 30  16  18  ar  
 31  16  40  1   
 32  17  18  ar  
 33  17  41  1   
 34  18  19  1   
 35  19  20  2   
 36  19  21  am  
 37  21  22  1   
 38  21  42  1   
 39  22  23  1   
 40  22  43  1   
 41  22  44  1   
 42  23  24  1   
 43  23  45  1   
 44  23  46  1   
 45  24  25  1   
 46  24  47  1   
 47  24  48  1   
 48  25  26  1   
 49  25  27  1   
 50  25  49  1   
 51  26  50  1   
 52  26  51  1   
 53  26  52  1   
 54  27  53  1   
 55  27  54  1   
 56  27  55  1   
@<TRIPOS>SUBSTRUCTURE
  1 ****  14 GROUP 4 **** **** 0

# MOE 2024.06 (io_trps.svl 2023.06)
