@<TRIPOS>MOLECULE
NONAME
48 50 1 0 0 
SMALL
USER_CHARGES


@<TRIPOS>ATOM
  1 O       -1.6750    -0.0780     1.2780 O.3   1 <1>  -0.6800 
  2 C       -1.9110     0.7510     0.2000 C.3   1 <1>   0.4240 
  3 C       -0.7210     1.7230     0.0760 C.ar  1 <1>  -0.1440 
  4 C       -2.0860    -0.1330    -1.0560 C.3   1 <1>  -0.0800 
  5 C       -3.2340     1.4580     0.5250 C.3   1 <1>  -0.1600 
  6 C       -0.8700     2.9740    -0.5170 C.ar  1 <1>  -0.1500 
  7 C        0.5480     1.3710     0.5370 C.ar  1 <1>  -0.1500 
  8 C       -3.2500    -1.1060    -0.8410 C.3   1 <1>   0.3430 
  9 C       -0.8210    -0.9230    -1.4540 C.3   1 <1>  -0.2400 
 10 C       -4.3590     0.4450     0.7170 C.3   1 <1>   0.3430 
 11 C        0.1970     3.8470    -0.6240 C.ar  1 <1>  -0.1500 
 12 C        1.6160     2.2440     0.4310 C.ar  1 <1>  -0.1500 
 13 N       -4.5180    -0.3770    -0.5230 N.4   1 <1>  -0.9590 
 14 C        1.4420     3.4850    -0.1470 C.ar  1 <1>  -0.1500 
 15 C       -5.6700    -1.3250    -0.4780 C.3   1 <1>   0.4230 
 16 C       -6.9910    -0.5480    -0.5470 C.3   1 <1>  -0.1600 
 17 C       -5.6390    -2.2520     0.7500 C.3   1 <1>  -0.1600 
 18 C       -8.1870    -1.5110    -0.5740 C.3   1 <1>  -0.1600 
 19 C       -6.8300    -3.2210     0.7240 C.3   1 <1>  -0.1600 
 20 C       -8.1610    -2.4620     0.6300 C.3   1 <1>  -0.1600 
 21 H       -1.0990     0.4080     1.9040 H     1 <1>   0.4000 
 22 H       -2.3270     0.5070    -1.8870 H     1 <1>   0.0800 
 23 H       -3.1160     2.0430     1.4200 H     1 <1>   0.0800 
 24 H       -3.5170     2.1280    -0.2640 H     1 <1>   0.0800 
 25 H       -1.8120     3.3010    -0.9150 H     1 <1>   0.1500 
 26 H        0.7360     0.4060     0.9770 H     1 <1>   0.1500 
 27 H       -3.3820    -1.7010    -1.7300 H     1 <1>   0.0800 
 28 H       -2.9980    -1.7680    -0.0280 H     1 <1>   0.0800 
 29 H       -0.4950    -1.5600    -0.6490 H     1 <1>   0.0800 
 30 H       -0.0170    -0.2520    -1.7010 H     1 <1>   0.0800 
 31 H       -1.0110    -1.5350    -2.3180 H     1 <1>   0.0800 
 32 H       -5.2750     0.9650     0.9430 H     1 <1>   0.0800 
 33 H       -4.1170    -0.1950     1.5510 H     1 <1>   0.0800 
 34 H        0.0630     4.8130    -1.0820 H     1 <1>   0.1500 
 35 H        2.5870     1.9550     0.7960 H     1 <1>   0.1500 
 36 H       -4.7060     0.2660    -1.3010 H     1 <1>   0.4500 
 37 H        2.2720     4.1650    -0.2300 H     1 <1>   0.1500 
 38 H       -5.6260    -1.9510    -1.3560 H     1 <1>   0.0800 
 39 H       -7.0170     0.0560    -1.4370 H     1 <1>   0.0800 
 40 H       -7.0970     0.0930     0.3090 H     1 <1>   0.0800 
 41 H       -4.7320    -2.8300     0.7640 H     1 <1>   0.0800 
 42 H       -5.6970    -1.6810     1.6590 H     1 <1>   0.0800 
 43 H       -9.1060    -0.9490    -0.5640 H     1 <1>   0.0800 
 44 H       -8.1700    -2.0890    -1.4830 H     1 <1>   0.0800 
 45 H       -6.8260    -3.8250     1.6170 H     1 <1>   0.0800 
 46 H       -6.7400    -3.8870    -0.1180 H     1 <1>   0.0800 
 47 H       -8.9710    -3.1680     0.5470 H     1 <1>   0.0800 
 48 H       -8.3170    -1.8990     1.5360 H     1 <1>   0.0800 
@<TRIPOS>BOND
  1   1   2  1   
  2   1  21  1   
  3   2   3  1   
  4   2   4  1   
  5   2   5  1   
  6   3   6  ar  
  7   3   7  ar  
  8   4   8  1   
  9   4   9  1   
 10   4  22  1   
 11   5  10  1   
 12   5  23  1   
 13   5  24  1   
 14   6  11  ar  
 15   6  25  1   
 16   7  12  ar  
 17   7  26  1   
 18   8  13  1   
 19   8  27  1   
 20   8  28  1   
 21   9  29  1   
 22   9  30  1   
 23   9  31  1   
 24  10  13  1   
 25  10  32  1   
 26  10  33  1   
 27  11  14  ar  
 28  11  34  1   
 29  12  14  ar  
 30  12  35  1   
 31  13  15  1   
 32  13  36  1   
 33  14  37  1   
 34  15  16  1   
 35  15  17  1   
 36  15  38  1   
 37  16  18  1   
 38  16  39  1   
 39  16  40  1   
 40  17  19  1   
 41  17  41  1   
 42  17  42  1   
 43  18  20  1   
 44  18  43  1   
 45  18  44  1   
 46  19  20  1   
 47  19  45  1   
 48  19  46  1   
 49  20  47  1   
 50  20  48  1   
@<TRIPOS>SUBSTRUCTURE
  1 ****   2 GROUP 4 **** **** 0

# MOE 2024.06 (io_trps.svl 2023.06)
