@<TRIPOS>MOLECULE
NONAME
43 44 1 0 0 
SMALL
USER_CHARGES


@<TRIPOS>ATOM
  1 CL       0.0420     0.4470     1.3790 Cl    1 <1>  -0.1770 
  2 C       -1.4680     1.1030     0.7920 C.ar  1 <1>   0.1770 
  3 C       -1.5080     2.1580    -0.1240 C.ar  1 <1>   0.0860 
  4 C       -2.6210     0.5170     1.2760 C.ar  1 <1>  -0.1500 
  5 C       -0.3330     2.8280    -0.6510 C.2   1 <1>   0.5440 
  6 C       -2.7760     2.5730    -0.5400 C.ar  1 <1>  -0.1500 
  7 C       -3.8550     0.9690     0.8480 C.ar  1 <1>  -0.1500 
  8 O       -0.3430     3.2540    -1.7880 O.2   1 <1>  -0.5700 
  9 N        0.7790     3.0350     0.1130 N.am  1 <1>  -0.7300 
 10 C       -3.9550     2.0040    -0.0730 C.ar  1 <1>  -0.0090 
 11 C        2.0200     3.6910    -0.3310 C.3   1 <1>   0.2200 
 12 S       -5.5820     2.6060    -0.6150 S.o2  1 <1>   1.4470 
 13 C        3.1290     2.6380    -0.4180 C.3   1 <1>  -0.1600 
 14 C        2.3790     4.7950     0.6690 C.3   1 <1>  -0.1600 
 15 O       -6.4820     1.4780    -0.7160 O.2   1 <1>  -0.6500 
 16 O       -5.4390     3.5090    -1.7370 O.2   1 <1>  -0.6500 
 17 N       -6.0960     3.5440     0.7060 N.am  1 <1>  -0.8490 
 18 C        4.4790     3.2810    -0.7690 C.3   1 <1>  -0.1600 
 19 C        3.7270     5.4430     0.3200 C.3   1 <1>  -0.1600 
 20 C       -5.4030     4.8330     0.8040 C.3   1 <1>   0.1160 
 21 C       -7.5450     3.7570     0.6950 C.3   1 <1>   0.1160 
 22 C        4.8400     4.3910     0.2280 C.3   1 <1>  -0.1600 
 23 H       -2.5530    -0.2920     1.9830 H     1 <1>   0.1500 
 24 H       -2.8390     3.3760    -1.2590 H     1 <1>   0.1500 
 25 H       -4.7570     0.5130     1.2280 H     1 <1>   0.1500 
 26 H        0.8470     2.5790     1.0230 H     1 <1>   0.3700 
 27 H        1.8750     4.1330    -1.3040 H     1 <1>   0.0800 
 28 H        2.8720     1.9170    -1.1750 H     1 <1>   0.0800 
 29 H        3.2190     2.1280     0.5240 H     1 <1>   0.0800 
 30 H        2.4370     4.3800     1.6600 H     1 <1>   0.0800 
 31 H        1.6100     5.5470     0.6570 H     1 <1>   0.0800 
 32 H        4.4260     3.6970    -1.7610 H     1 <1>   0.0800 
 33 H        5.2480     2.5290    -0.7680 H     1 <1>   0.0800 
 34 H        3.9810     6.1740     1.0680 H     1 <1>   0.0800 
 35 H        3.6410     5.9540    -0.6240 H     1 <1>   0.0800 
 36 H       -4.3390     4.6810     0.8570 H     1 <1>   0.0800 
 37 H       -5.7140     5.3520     1.6950 H     1 <1>   0.0800 
 38 H       -5.6240     5.4480    -0.0540 H     1 <1>   0.0800 
 39 H       -8.0580     2.8110     0.7330 H     1 <1>   0.0800 
 40 H       -7.8410     4.2760    -0.2020 H     1 <1>   0.0800 
 41 H       -7.8440     4.3340     1.5540 H     1 <1>   0.0800 
 42 H        5.7580     4.8640    -0.0770 H     1 <1>   0.0800 
 43 H        5.0020     3.9570     1.2000 H     1 <1>   0.0800 
@<TRIPOS>BOND
  1   1   2  1   
  2   2   3  ar  
  3   2   4  ar  
  4   3   5  1   
  5   3   6  ar  
  6   4   7  ar  
  7   4  23  1   
  8   5   8  2   
  9   5   9  am  
 10   6  10  ar  
 11   6  24  1   
 12   7  10  ar  
 13   7  25  1   
 14   9  11  1   
 15   9  26  1   
 16  10  12  1   
 17  11  13  1   
 18  11  14  1   
 19  11  27  1   
 20  12  15  2   
 21  12  16  2   
 22  12  17  am  
 23  13  18  1   
 24  13  28  1   
 25  13  29  1   
 26  14  19  1   
 27  14  30  1   
 28  14  31  1   
 29  17  20  1   
 30  17  21  1   
 31  18  22  1   
 32  18  32  1   
 33  18  33  1   
 34  19  22  1   
 35  19  34  1   
 36  19  35  1   
 37  20  36  1   
 38  20  37  1   
 39  20  38  1   
 40  21  39  1   
 41  21  40  1   
 42  21  41  1   
 43  22  42  1   
 44  22  43  1   
@<TRIPOS>SUBSTRUCTURE
  1 ****   3 GROUP 4 **** **** 0

# MOE 2024.06 (io_trps.svl 2023.06)
