@<TRIPOS>MOLECULE
NONAME
43 44 1 0 0 
SMALL
USER_CHARGES


@<TRIPOS>ATOM
  1 O        0.7740    -1.5630    -0.1580 O.3   1 <1>  -0.3630 
  2 C       -0.5420    -1.5350    -0.4930 C.ar  1 <1>   0.0830 
  3 C        1.7080    -0.6720    -0.7090 C.3   1 <1>   0.1200 
  4 C       -1.3820    -2.4930     0.1330 C.ar  1 <1>   0.0000 
  5 C       -1.0630    -0.6330    -1.3950 C.ar  1 <1>  -0.1500 
  6 C        3.0660    -1.0140    -0.0950 C.3   1 <1>  -0.1600 
  7 C       -2.7590    -2.5010    -0.1870 C.ar  1 <1>   0.0000 
  8 C       -0.9150    -3.4460     1.0660 C.ar  1 <1>  -0.1500 
  9 C       -2.4250    -0.6480    -1.7050 C.ar  1 <1>  -0.1500 
 10 C        4.1550    -0.0950    -0.6360 C.3   1 <1>   0.3430 
 11 C       -3.2510    -1.5620    -1.1130 C.ar  1 <1>  -0.1500 
 12 C       -3.6010    -3.4490     0.4300 C.ar  1 <1>  -0.1500 
 13 C       -1.7540    -4.3550     1.6500 C.ar  1 <1>  -0.1500 
 14 N        5.4470    -0.4670    -0.0130 N.4   1 <1>  -0.9060 
 15 C       -3.1140    -4.3560     1.3280 C.ar  1 <1>  -0.1500 
 16 C        6.5730     0.3750    -0.4800 C.3   1 <1>   0.3430 
 17 C        7.8540    -0.0820     0.2130 C.3   1 <1>  -0.1600 
 18 C        9.0510     0.7630    -0.2410 C.3   1 <1>  -0.1600 
 19 C       10.3370     0.3060     0.4530 C.3   1 <1>  -0.2400 
 20 H        1.4040     0.3300    -0.4580 H     1 <1>   0.0800 
 21 H        1.7130    -0.8100    -1.7770 H     1 <1>   0.0800 
 22 H       -0.4590     0.1040    -1.8860 H     1 <1>   0.1500 
 23 H        3.2980    -2.0370    -0.3360 H     1 <1>   0.0800 
 24 H        2.9920    -0.9040     0.9730 H     1 <1>   0.0800 
 25 H        0.1300    -3.4500     1.3170 H     1 <1>   0.1500 
 26 H       -2.8120     0.0660    -2.4110 H     1 <1>   0.1500 
 27 H        3.9140     0.9300    -0.4030 H     1 <1>   0.0800 
 28 H        4.2180    -0.1980    -1.7080 H     1 <1>   0.0800 
 29 H       -4.3000    -1.5770    -1.3490 H     1 <1>   0.1500 
 30 H       -4.6460    -3.4450     0.1790 H     1 <1>   0.1500 
 31 H       -1.3820    -5.0740     2.3580 H     1 <1>   0.1500 
 32 H        5.6570    -1.4530    -0.2170 H     1 <1>   0.4500 
 33 H        5.3710    -0.3920     1.0100 H     1 <1>   0.4500 
 34 H       -3.7620    -5.0770     1.7960 H     1 <1>   0.1500 
 35 H        6.3860     1.4110    -0.2440 H     1 <1>   0.0800 
 36 H        6.6890     0.2830    -1.5490 H     1 <1>   0.0800 
 37 H        8.0490    -1.1140    -0.0250 H     1 <1>   0.0800 
 38 H        7.7460     0.0150     1.2800 H     1 <1>   0.0800 
 39 H        8.8810     1.8010    -0.0080 H     1 <1>   0.0800 
 40 H        9.1830     0.6770    -1.3070 H     1 <1>   0.0800 
 41 H       10.2520     0.4060     1.5210 H     1 <1>   0.0800 
 42 H       11.1660     0.9090     0.1240 H     1 <1>   0.0800 
 43 H       10.5540    -0.7220     0.2180 H     1 <1>   0.0800 
@<TRIPOS>BOND
  1   1   2  1   
  2   1   3  1   
  3   2   4  ar  
  4   2   5  ar  
  5   3   6  1   
  6   3  20  1   
  7   3  21  1   
  8   4   7  ar  
  9   4   8  ar  
 10   5   9  ar  
 11   5  22  1   
 12   6  10  1   
 13   6  23  1   
 14   6  24  1   
 15   7  11  ar  
 16   7  12  ar  
 17   8  13  ar  
 18   8  25  1   
 19   9  11  ar  
 20   9  26  1   
 21  10  14  1   
 22  10  27  1   
 23  10  28  1   
 24  11  29  1   
 25  12  15  ar  
 26  12  30  1   
 27  13  15  ar  
 28  13  31  1   
 29  14  16  1   
 30  14  32  1   
 31  14  33  1   
 32  15  34  1   
 33  16  17  1   
 34  16  35  1   
 35  16  36  1   
 36  17  18  1   
 37  17  37  1   
 38  17  38  1   
 39  18  19  1   
 40  18  39  1   
 41  18  40  1   
 42  19  41  1   
 43  19  42  1   
 44  19  43  1   
@<TRIPOS>SUBSTRUCTURE
  1 ****   1 GROUP 4 **** **** 0

# MOE 2024.06 (io_trps.svl 2023.06)
