@<TRIPOS>MOLECULE
NONAME
53 55 1 0 0 
SMALL
USER_CHARGES


@<TRIPOS>ATOM
  1 O        0.5220    -1.4960     2.1180 O.2   1 <1>  -0.5700 
  2 C        0.1870    -1.9380     1.0360 C.2   1 <1>   0.5440 
  3 N        0.1920    -1.1230    -0.0610 N.am  1 <1>  -0.7300 
  4 C       -0.2150    -3.3270     0.9180 C.ar  1 <1>   0.0860 
  5 C        0.5460     0.3000    -0.2360 C.3   1 <1>   0.3640 
  6 C       -1.2110    -3.7790     0.0360 C.ar  1 <1>   0.0830 
  7 C        0.4120    -4.2930     1.7090 C.ar  1 <1>  -0.1500 
  8 C        2.0370     0.4420    -0.5280 C.ar  1 <1>  -0.1440 
  9 C        0.0900     1.1790     0.9280 C.3   1 <1>  -0.2400 
 10 O       -1.9090    -2.9380    -0.7550 O.3   1 <1>  -0.3620 
 11 C       -1.5200    -5.1260    -0.0690 C.ar  1 <1>  -0.1500 
 12 C        0.0930    -5.6350     1.6180 C.ar  1 <1>  -0.1500 
 13 C        2.4570     0.9590    -1.7470 C.ar  1 <1>  -0.1500 
 14 C        2.9930     0.0650     0.4050 C.ar  1 <1>  -0.1500 
 15 C       -2.8410    -2.0500    -0.1440 C.3   1 <1>   0.1810 
 16 C       -0.8730    -6.0560     0.7210 C.ar  1 <1>  -0.1500 
 17 C        3.8060     1.1000    -2.0250 C.ar  1 <1>  -0.1500 
 18 C        4.3420     0.2040     0.1290 C.ar  1 <1>  -0.1500 
 19 C       -2.8470    -0.6630    -0.7990 C.2   1 <1>   0.5690 
 20 C        4.7500     0.7240    -1.0870 C.ar  1 <1>  -0.1500 
 21 O       -2.2730    -0.5180    -1.8570 O.2   1 <1>  -0.5700 
 22 N       -3.4800     0.3950    -0.1850 N.am  1 <1>  -0.6600 
 23 C       -3.4950     1.7500    -0.8080 C.3   1 <1>   0.1400 
 24 C       -4.1790     0.3360     1.1320 C.3   1 <1>   0.1400 
 25 C       -4.9420     2.2180    -0.9940 C.3   1 <1>  -0.1600 
 26 C       -5.6340     0.7870     0.9640 C.3   1 <1>  -0.1600 
 27 C       -5.7240     2.1810     0.3260 C.3   1 <1>  -0.1600 
 28 H       -0.1740    -1.5300    -0.9290 H     1 <1>   0.3700 
 29 H        0.0060     0.6410    -1.1040 H     1 <1>   0.0800 
 30 H        1.1690    -3.9770     2.4070 H     1 <1>   0.1500 
 31 H        0.6700     0.9820     1.8110 H     1 <1>   0.0800 
 32 H       -0.9490     1.0080     1.1360 H     1 <1>   0.0800 
 33 H        0.2270     2.2110     0.6670 H     1 <1>   0.0800 
 34 H       -2.2710    -5.4410    -0.7710 H     1 <1>   0.1500 
 35 H        0.5990    -6.3530     2.2400 H     1 <1>   0.1500 
 36 H        1.7340     1.2530    -2.4870 H     1 <1>   0.1500 
 37 H        2.6860    -0.3430     1.3520 H     1 <1>   0.1500 
 38 H       -2.5850    -1.9520     0.8940 H     1 <1>   0.0800 
 39 H       -3.8150    -2.4920    -0.2320 H     1 <1>   0.0800 
 40 H       -1.1170    -7.1020     0.6410 H     1 <1>   0.1500 
 41 H        4.1190     1.5020    -2.9720 H     1 <1>   0.1500 
 42 H        5.0710    -0.0930     0.8620 H     1 <1>   0.1500 
 43 H        5.7980     0.8320    -1.3020 H     1 <1>   0.1500 
 44 H       -2.9980     1.7410    -1.7630 H     1 <1>   0.0800 
 45 H       -2.9680     2.4360    -0.1660 H     1 <1>   0.0800 
 46 H       -3.6750     0.9920     1.8220 H     1 <1>   0.0800 
 47 H       -4.1650    -0.6540     1.5470 H     1 <1>   0.0800 
 48 H       -5.4190     1.5820    -1.7190 H     1 <1>   0.0800 
 49 H       -4.9430     3.2190    -1.3870 H     1 <1>   0.0800 
 50 H       -6.1160     0.8010     1.9260 H     1 <1>   0.0800 
 51 H       -6.1530     0.0730     0.3480 H     1 <1>   0.0800 
 52 H       -6.7550     2.4340     0.1460 H     1 <1>   0.0800 
 53 H       -5.3160     2.9110     1.0040 H     1 <1>   0.0800 
@<TRIPOS>BOND
  1   1   2  2   
  2   2   3  am  
  3   2   4  1   
  4   3   5  1   
  5   3  28  1   
  6   4   6  ar  
  7   4   7  ar  
  8   5   8  1   
  9   5   9  1   
 10   5  29  1   
 11   6  10  1   
 12   6  11  ar  
 13   7  12  ar  
 14   7  30  1   
 15   8  13  ar  
 16   8  14  ar  
 17   9  31  1   
 18   9  32  1   
 19   9  33  1   
 20  10  15  1   
 21  11  16  ar  
 22  11  34  1   
 23  12  16  ar  
 24  12  35  1   
 25  13  17  ar  
 26  13  36  1   
 27  14  18  ar  
 28  14  37  1   
 29  15  19  1   
 30  15  38  1   
 31  15  39  1   
 32  16  40  1   
 33  17  20  ar  
 34  17  41  1   
 35  18  20  ar  
 36  18  42  1   
 37  19  21  2   
 38  19  22  am  
 39  20  43  1   
 40  22  23  1   
 41  22  24  1   
 42  23  25  1   
 43  23  44  1   
 44  23  45  1   
 45  24  26  1   
 46  24  46  1   
 47  24  47  1   
 48  25  27  1   
 49  25  48  1   
 50  25  49  1   
 51  26  27  1   
 52  26  50  1   
 53  26  51  1   
 54  27  52  1   
 55  27  53  1   
@<TRIPOS>SUBSTRUCTURE
  1 ****   3 GROUP 4 **** **** 0

# MOE 2024.06 (io_trps.svl 2023.06)
