@<TRIPOS>MOLECULE
NONAME
35 36 1 0 0 
SMALL
USER_CHARGES


@<TRIPOS>ATOM
  1 O        0.4210     0.0750    -1.4190 O.2   1 <1>  -0.5700 
  2 C        1.0320    -0.4200    -0.4880 C.2   1 <1>   0.5440 
  3 N        0.4230    -1.3010     0.3740 N.am  1 <1>  -0.5390 
  4 C        2.4200    -0.0620    -0.2570 C.ar  1 <1>   0.0860 
  5 C       -0.4570    -2.3790     0.0710 C.2   1 <1>  -0.1410 
  6 C        2.8890     1.2180    -0.5570 C.ar  1 <1>  -0.1500 
  7 C        3.3410    -0.9720     0.2680 C.ar  1 <1>  -0.1500 
  8 C       -1.7460    -2.1450    -0.3090 C.2   1 <1>  -0.2760 
  9 C        0.2260    -3.6740     0.2770 C.2   1 <1>   1.0500 
 10 C        4.2040     1.5810    -0.3300 C.ar  1 <1>  -0.1500 
 11 C        4.6570    -0.6160     0.4990 C.ar  1 <1>  -0.1500 
 12 C       -2.7600    -3.2260    -0.6920 C.3   1 <1>  -0.0220 
 13 C       -2.3860    -0.7560    -0.4000 C.3   1 <1>  -0.0220 
 14 O       -0.1020    -4.7450    -0.2610 O.co2 1 <1>  -0.9000 
 15 O        1.2350    -3.6780     1.0200 O.co2 1 <1>  -0.9000 
 16 C        5.0920     0.6630     0.2020 C.ar  1 <1>  -0.1500 
 17 C       -4.0150    -3.1420     0.1840 C.3   1 <1>  -0.1600 
 18 C       -3.6480    -0.6670     0.4670 C.3   1 <1>  -0.1600 
 19 C       -4.6630    -1.7550     0.1010 C.3   1 <1>  -0.1600 
 20 H        1.0900    -1.6630     1.0710 H     1 <1>   0.3700 
 21 H        2.2000     1.9330    -0.9750 H     1 <1>   0.1500 
 22 H        3.0270    -1.9800     0.4920 H     1 <1>   0.1500 
 23 H        4.5360     2.5760    -0.5690 H     1 <1>   0.1500 
 24 H        5.3410    -1.3400     0.9070 H     1 <1>   0.1500 
 25 H       -3.0300    -3.0940    -1.7250 H     1 <1>   0.0800 
 26 H       -2.3560    -4.2130    -0.6000 H     1 <1>   0.0800 
 27 H       -1.7110     0.0120    -0.0730 H     1 <1>   0.0800 
 28 H       -2.6290    -0.5510    -1.4280 H     1 <1>   0.0800 
 29 H        6.1160     0.9400     0.3810 H     1 <1>   0.1500 
 30 H       -4.7190    -3.8940    -0.1260 H     1 <1>   0.0800 
 31 H       -3.7340    -3.3480     1.2030 H     1 <1>   0.0800 
 32 H       -3.3600    -0.7810     1.4980 H     1 <1>   0.0800 
 33 H       -4.0950     0.3040     0.3500 H     1 <1>   0.0800 
 34 H       -5.5040    -1.7070     0.7710 H     1 <1>   0.0800 
 35 H       -5.0200    -1.5880    -0.9000 H     1 <1>   0.0800 
@<TRIPOS>BOND
  1   1   2  2   
  2   2   3  am  
  3   2   4  1   
  4   3   5  1   
  5   3  20  1   
  6   4   6  ar  
  7   4   7  ar  
  8   5   8  2   
  9   5   9  1   
 10   6  10  ar  
 11   6  21  1   
 12   7  11  ar  
 13   7  22  1   
 14   8  12  1   
 15   8  13  1   
 16   9  14  ar  
 17   9  15  ar  
 18  10  16  ar  
 19  10  23  1   
 20  11  16  ar  
 21  11  24  1   
 22  12  17  1   
 23  12  25  1   
 24  12  26  1   
 25  13  18  1   
 26  13  27  1   
 27  13  28  1   
 28  16  29  1   
 29  17  19  1   
 30  17  30  1   
 31  17  31  1   
 32  18  19  1   
 33  18  32  1   
 34  18  33  1   
 35  19  34  1   
 36  19  35  1   
@<TRIPOS>SUBSTRUCTURE
  1 ****   3 GROUP 4 **** **** 0

# MOE 2024.06 (io_trps.svl 2023.06)
