@<TRIPOS>MOLECULE
NONAME
44 45 1 0 0 
SMALL
USER_CHARGES


@<TRIPOS>ATOM
  1 S       -0.0080    -0.2900     0.4750 S.3   1 <1>  -0.3320 
  2 C       -1.6170    -0.9420    -0.0020 C.ar  1 <1>   0.1020 
  3 C        0.7350    -1.4960     1.6600 C.3   1 <1>  -0.0100 
  4 C       -2.1280    -2.1150     0.5270 C.ar  1 <1>  -0.1500 
  5 C       -2.3360    -0.2150    -0.9310 C.ar  1 <1>  -0.1500 
  6 C       -3.3760    -2.5580     0.1220 C.ar  1 <1>  -0.1500 
  7 C       -3.5820    -0.6600    -1.3360 C.ar  1 <1>  -0.1500 
  8 C       -4.1120    -1.8290    -0.8040 C.ar  1 <1>  -0.1430 
  9 C       -5.4880    -2.3010    -1.2330 C.3   1 <1>   0.4860 
 10 N       -6.4550    -2.0560    -0.1100 N.4   1 <1>  -0.9590 
 11 C       -7.7780    -2.7480    -0.2800 C.3   1 <1>   0.4230 
 12 C       -6.5690    -0.5680     0.1010 C.3   1 <1>   0.2630 
 13 C       -8.7050    -2.4380     0.9080 C.3   1 <1>  -0.1600 
 14 C       -7.5840    -4.2700    -0.3930 C.3   1 <1>  -0.1600 
 15 C      -10.0240    -3.2100     0.8270 C.3   1 <1>   0.3430 
 16 C       -8.9180    -5.0170    -0.4550 C.3   1 <1>   0.3430 
 17 N       -9.7550    -4.6700     0.7260 N.4   1 <1>  -0.9590 
 18 C      -11.0480    -5.4320     0.6870 C.3   1 <1>   0.2630 
 19 H        1.7050    -1.1240     1.9340 H     1 <1>   0.0800 
 20 H        0.8180    -2.4450     1.1610 H     1 <1>   0.0800 
 21 H        0.0940    -1.5560     2.5210 H     1 <1>   0.0800 
 22 H       -1.5680    -2.6860     1.2440 H     1 <1>   0.1500 
 23 H       -1.9130     0.6900    -1.3330 H     1 <1>   0.1500 
 24 H       -3.7510    -3.4780     0.5360 H     1 <1>   0.1500 
 25 H       -4.1210    -0.0810    -2.0680 H     1 <1>   0.1500 
 26 H       -5.4240    -3.3500    -1.4660 H     1 <1>   0.0800 
 27 H       -5.7990    -1.7730    -2.1210 H     1 <1>   0.0800 
 28 H       -5.9820    -2.4280     0.7260 H     1 <1>   0.4500 
 29 H       -8.2470    -2.3900    -1.1840 H     1 <1>   0.0800 
 30 H       -7.0400    -0.0990    -0.7480 H     1 <1>   0.0800 
 31 H       -5.5920    -0.1290     0.2330 H     1 <1>   0.0800 
 32 H       -7.1450    -0.3480     0.9840 H     1 <1>   0.0800 
 33 H       -8.9600    -1.3940     0.9190 H     1 <1>   0.0800 
 34 H       -8.2200    -2.6770     1.8380 H     1 <1>   0.0800 
 35 H       -7.0180    -4.6420     0.4430 H     1 <1>   0.0800 
 36 H       -7.0530    -4.5150    -1.2950 H     1 <1>   0.0800 
 37 H      -10.5860    -2.8830    -0.0350 H     1 <1>   0.0800 
 38 H      -10.6150    -3.0060     1.7070 H     1 <1>   0.0800 
 39 H       -8.7350    -6.0810    -0.4750 H     1 <1>   0.0800 
 40 H       -9.4420    -4.7550    -1.3620 H     1 <1>   0.0800 
 41 H       -9.2610    -4.9740     1.5810 H     1 <1>   0.4500 
 42 H      -11.6210    -5.1630    -0.1870 H     1 <1>   0.0800 
 43 H      -11.6380    -5.2170     1.5630 H     1 <1>   0.0800 
 44 H      -10.8580    -6.4940     0.6590 H     1 <1>   0.0800 
@<TRIPOS>BOND
  1   1   2  1   
  2   1   3  1   
  3   2   4  ar  
  4   2   5  ar  
  5   3  19  1   
  6   3  20  1   
  7   3  21  1   
  8   4   6  ar  
  9   4  22  1   
 10   5   7  ar  
 11   5  23  1   
 12   6   8  ar  
 13   6  24  1   
 14   7   8  ar  
 15   7  25  1   
 16   8   9  1   
 17   9  10  1   
 18   9  26  1   
 19   9  27  1   
 20  10  11  1   
 21  10  12  1   
 22  10  28  1   
 23  11  13  1   
 24  11  14  1   
 25  11  29  1   
 26  12  30  1   
 27  12  31  1   
 28  12  32  1   
 29  13  15  1   
 30  13  33  1   
 31  13  34  1   
 32  14  16  1   
 33  14  35  1   
 34  14  36  1   
 35  15  17  1   
 36  15  37  1   
 37  15  38  1   
 38  16  17  1   
 39  16  39  1   
 40  16  40  1   
 41  17  18  1   
 42  17  41  1   
 43  18  42  1   
 44  18  43  1   
 45  18  44  1   
@<TRIPOS>SUBSTRUCTURE
  1 ****  10 GROUP 4 **** **** 0

# MOE 2024.06 (io_trps.svl 2023.06)
