@<TRIPOS>MOLECULE
NONAME
37 39 1 0 0 
SMALL
USER_CHARGES


@<TRIPOS>ATOM
  1 S       -1.0900     1.2960     1.6380 S.3   1 <1>  -0.0800 
  2 C       -1.5780     0.7190     0.0500 C.2   1 <1>  -0.1400 
  3 C        0.3620     2.0240     0.9780 C.2   1 <1>  -0.1100 
  4 C       -0.6670     1.0710    -0.8780 C.2   1 <1>  -0.1500 
  5 C       -2.8690    -0.0650    -0.0380 C.3   1 <1>   0.5230 
  6 C        0.4350     1.8170    -0.3490 C.2   1 <1>  -0.1500 
  7 N       -3.9880     0.8720    -0.3290 N.4   1 <1>  -0.9590 
  8 C       -4.2770     1.7870     0.8420 C.3   1 <1>   0.3430 
  9 C       -5.2310     0.1290    -0.7560 C.3   1 <1>   0.3430 
 10 C       -5.4710     2.7300     0.5870 C.3   1 <1>   0.2090 
 11 C       -6.4240     1.0680    -1.0300 C.3   1 <1>   0.2090 
 12 N       -6.6650     1.9580     0.1400 N.pl3 1 <1>  -0.8380 
 13 C       -7.8760     2.6390     0.1530 C.ar  1 <1>   0.1000 
 14 C       -8.1440     3.6670    -0.7440 C.ar  1 <1>  -0.1500 
 15 C       -8.8480     2.2900     1.0810 C.ar  1 <1>  -0.1500 
 16 C       -9.3570     4.3310    -0.7130 C.ar  1 <1>  -0.1500 
 17 C      -10.0620     2.9510     1.1150 C.ar  1 <1>  -0.1500 
 18 C      -10.3190     3.9730     0.2170 C.ar  1 <1>  -0.1500 
 19 H        1.0200     2.5350     1.6610 H     1 <1>   0.1500 
 20 H       -0.7010     0.8410    -1.9300 H     1 <1>   0.1500 
 21 H       -3.0440    -0.5980     0.8820 H     1 <1>   0.0800 
 22 H       -2.7810    -0.7820    -0.8380 H     1 <1>   0.0800 
 23 H        1.2310     2.1600    -0.9890 H     1 <1>   0.1500 
 24 H       -3.6800     1.4690    -1.1050 H     1 <1>   0.4500 
 25 H       -3.4100     2.3860     1.0650 H     1 <1>   0.0800 
 26 H       -4.5010     1.1960     1.7150 H     1 <1>   0.0800 
 27 H       -5.5250    -0.5560     0.0220 H     1 <1>   0.0800 
 28 H       -5.0300    -0.4470    -1.6440 H     1 <1>   0.0800 
 29 H       -5.2090     3.4600    -0.1590 H     1 <1>   0.0800 
 30 H       -5.7110     3.2570     1.4950 H     1 <1>   0.0800 
 31 H       -7.3090     0.4810    -1.2140 H     1 <1>   0.0800 
 32 H       -6.2340     1.6630    -1.9060 H     1 <1>   0.0800 
 33 H       -7.4040     3.9500    -1.4670 H     1 <1>   0.1500 
 34 H       -8.6460     1.4970     1.7770 H     1 <1>   0.1500 
 35 H       -9.5580     5.1260    -1.4100 H     1 <1>   0.1500 
 36 H      -10.8090     2.6720     1.8390 H     1 <1>   0.1500 
 37 H      -11.2630     4.4880     0.2430 H     1 <1>   0.1500 
@<TRIPOS>BOND
  1   1   2  1   
  2   1   3  1   
  3   2   4  2   
  4   2   5  1   
  5   3   6  2   
  6   3  19  1   
  7   4   6  1   
  8   4  20  1   
  9   5   7  1   
 10   5  21  1   
 11   5  22  1   
 12   6  23  1   
 13   7   8  1   
 14   7   9  1   
 15   7  24  1   
 16   8  10  1   
 17   8  25  1   
 18   8  26  1   
 19   9  11  1   
 20   9  27  1   
 21   9  28  1   
 22  10  12  1   
 23  10  29  1   
 24  10  30  1   
 25  11  12  1   
 26  11  31  1   
 27  11  32  1   
 28  12  13  1   
 29  13  14  ar  
 30  13  15  ar  
 31  14  16  ar  
 32  14  33  1   
 33  15  17  ar  
 34  15  34  1   
 35  16  18  ar  
 36  16  35  1   
 37  17  18  ar  
 38  17  36  1   
 39  18  37  1   
@<TRIPOS>SUBSTRUCTURE
  1 ****  10 GROUP 4 **** **** 0

# MOE 2024.06 (io_trps.svl 2023.06)
