@<TRIPOS>MOLECULE
NONAME
53 54 1 0 0 
SMALL
USER_CHARGES


@<TRIPOS>ATOM
  1 S       -0.1410     0.2900    -1.0590 S.o2  1 <1>   1.4470 
  2 O       -0.4590     0.4810    -2.4580 O.2   1 <1>  -0.6500 
  3 O        0.5200    -0.9260    -0.6400 O.2   1 <1>  -0.6500 
  4 N       -1.6140     0.3520    -0.2230 N.am  1 <1>  -0.8490 
  5 C        0.7520     1.7290    -0.4090 C.ar  1 <1>  -0.0090 
  6 C       -2.3680    -0.9030    -0.3810 C.3   1 <1>   0.1960 
  7 C       -2.4520     1.4890    -0.6420 C.3   1 <1>   0.1960 
  8 C        1.0780     1.8160     0.9380 C.ar  1 <1>  -0.1500 
  9 C        1.1140     2.7880    -1.2320 C.ar  1 <1>  -0.1500 
 10 C       -3.7130    -0.8680     0.3710 C.3   1 <1>   0.1960 
 11 C       -3.7790     1.5260     0.1380 C.3   1 <1>   0.1960 
 12 C        1.7370     2.9210     1.4480 C.ar  1 <1>  -0.1500 
 13 C        1.7720     3.8960    -0.7280 C.ar  1 <1>  -0.1500 
 14 N       -4.5460     0.2790    -0.0390 N.am  1 <1>  -0.8490 
 15 C        2.0900     3.9740     0.6200 C.ar  1 <1>  -0.1430 
 16 S       -6.0330     0.2990     0.7740 S.o2  1 <1>   1.3330 
 17 C        2.8150     5.1890     1.1960 C.3   1 <1>   0.0640 
 18 O       -6.4650    -1.0710     0.9330 O.2   1 <1>  -0.6500 
 19 O       -5.8830     1.1460     1.9350 O.2   1 <1>  -0.6500 
 20 C       -7.1170     1.0960    -0.4150 C.3   1 <1>  -0.0550 
 21 C        1.9740     6.4580     1.0260 C.3   1 <1>  -0.2400 
 22 C        4.1940     5.3590     0.5510 C.3   1 <1>  -0.2400 
 23 C       -8.5670     1.2430     0.0740 C.3   1 <1>  -0.1600 
 24 C       -9.4420     1.9310    -0.9820 C.3   1 <1>  -0.1600 
 25 C      -10.8840     2.0720    -0.4890 C.3   1 <1>  -0.2400 
 26 H       -1.7850    -1.7240     0.0010 H     1 <1>   0.0800 
 27 H       -2.5560    -1.0890    -1.4260 H     1 <1>   0.0800 
 28 H       -2.6710     1.4240    -1.6950 H     1 <1>   0.0800 
 29 H       -1.9230     2.4100    -0.4670 H     1 <1>   0.0800 
 30 H        0.8100     1.0060     1.5950 H     1 <1>   0.1500 
 31 H        0.8790     2.7480    -2.2830 H     1 <1>   0.1500 
 32 H       -3.5250    -0.8230     1.4310 H     1 <1>   0.0800 
 33 H       -4.2370    -1.7860     0.1680 H     1 <1>   0.0800 
 34 H       -4.3630     2.3620    -0.2050 H     1 <1>   0.0800 
 35 H       -3.5590     1.6820     1.1820 H     1 <1>   0.0800 
 36 H        1.9750     2.9530     2.4970 H     1 <1>   0.1500 
 37 H        2.0370     4.6990    -1.3930 H     1 <1>   0.1500 
 38 H        2.9650     5.0340     2.2510 H     1 <1>   0.0800 
 39 H       -7.1140     0.5210    -1.3210 H     1 <1>   0.0800 
 40 H       -6.7300     2.0690    -0.6430 H     1 <1>   0.0800 
 41 H        1.8350     6.6900    -0.0140 H     1 <1>   0.0800 
 42 H        2.4580     7.2910     1.5020 H     1 <1>   0.0800 
 43 H        1.0080     6.3190     1.4780 H     1 <1>   0.0800 
 44 H        4.1040     5.5690    -0.4990 H     1 <1>   0.0800 
 45 H        4.7670     4.4570     0.6720 H     1 <1>   0.0800 
 46 H        4.7260     6.1670     1.0190 H     1 <1>   0.0800 
 47 H       -8.5780     1.8190     0.9840 H     1 <1>   0.0800 
 48 H       -8.9660     0.2670     0.2940 H     1 <1>   0.0800 
 49 H       -9.4360     1.3540    -1.8910 H     1 <1>   0.0800 
 50 H       -9.0470     2.9080    -1.2020 H     1 <1>   0.0800 
 51 H      -11.3090     1.1050    -0.2830 H     1 <1>   0.0800 
 52 H      -11.4840     2.5550    -1.2400 H     1 <1>   0.0800 
 53 H      -10.9200     2.6640     0.4090 H     1 <1>   0.0800 
@<TRIPOS>BOND
  1   1   2  2   
  2   1   3  2   
  3   1   4  am  
  4   1   5  1   
  5   4   6  1   
  6   4   7  1   
  7   5   8  ar  
  8   5   9  ar  
  9   6  10  1   
 10   6  26  1   
 11   6  27  1   
 12   7  11  1   
 13   7  28  1   
 14   7  29  1   
 15   8  12  ar  
 16   8  30  1   
 17   9  13  ar  
 18   9  31  1   
 19  10  14  1   
 20  10  32  1   
 21  10  33  1   
 22  11  14  1   
 23  11  34  1   
 24  11  35  1   
 25  12  15  ar  
 26  12  36  1   
 27  13  15  ar  
 28  13  37  1   
 29  14  16  am  
 30  15  17  1   
 31  16  18  2   
 32  16  19  2   
 33  16  20  1   
 34  17  21  1   
 35  17  22  1   
 36  17  38  1   
 37  20  23  1   
 38  20  39  1   
 39  20  40  1   
 40  21  41  1   
 41  21  42  1   
 42  21  43  1   
 43  22  44  1   
 44  22  45  1   
 45  22  46  1   
 46  23  24  1   
 47  23  47  1   
 48  23  48  1   
 49  24  25  1   
 50  24  49  1   
 51  24  50  1   
 52  25  51  1   
 53  25  52  1   
 54  25  53  1   
@<TRIPOS>SUBSTRUCTURE
  1 ****   7 GROUP 4 **** **** 0

# MOE 2024.06 (io_trps.svl 2023.06)
