@<TRIPOS>MOLECULE
NONAME
39 40 1 0 0 
SMALL
USER_CHARGES


@<TRIPOS>ATOM
  1 O        0.5020     1.0210    -1.6450 O.2   1 <1>  -0.5700 
  2 C        0.3130     2.1400    -1.2060 C.2   1 <1>   0.5440 
  3 N        1.3790     3.0140    -1.1080 N.am  1 <1>  -0.6600 
  4 C       -1.0220     2.5310    -0.7950 C.ar  1 <1>   0.0860 
  5 C        1.2970     4.3400    -0.4380 C.3   1 <1>   0.1400 
  6 C        2.7330     2.6680    -1.6220 C.3   1 <1>   0.1400 
  7 C       -1.5750     2.1370     0.4280 C.ar  1 <1>  -0.1440 
  8 C       -1.7890     3.3430    -1.6280 C.ar  1 <1>  -0.1500 
  9 C        2.2790     4.3730     0.7360 C.3   1 <1>  -0.1600 
 10 C        3.7300     2.6760    -0.4620 C.3   1 <1>  -0.1600 
 11 C       -2.8450     2.5590     0.7900 C.ar  1 <1>  -0.1500 
 12 C       -0.7880     1.2370     1.3720 C.3   1 <1>  -0.0970 
 13 C       -3.0550     3.7610    -1.2630 C.ar  1 <1>  -0.1500 
 14 C        3.7110     4.0220     0.2890 C.3   1 <1>  -0.0190 
 15 C       -3.5900     3.3700    -0.0490 C.ar  1 <1>  -0.1430 
 16 C        4.6850     4.0410     1.4630 C.2   1 <1>   0.5690 
 17 C       -4.9790     3.8240     0.3620 C.3   1 <1>  -0.0970 
 18 O        5.5260     4.8990     1.5260 O.2   1 <1>  -0.5700 
 19 N        4.6060     3.1070     2.4290 N.am  1 <1>  -0.8000 
 20 H        0.3020     4.5350    -0.0770 H     1 <1>   0.0800 
 21 H        1.5490     5.1080    -1.1500 H     1 <1>   0.0800 
 22 H        3.0220     3.3930    -2.3640 H     1 <1>   0.0800 
 23 H        2.7300     1.6980    -2.0920 H     1 <1>   0.0800 
 24 H       -1.3790     3.6450    -2.5750 H     1 <1>   0.1500 
 25 H        1.9440     3.6790     1.4860 H     1 <1>   0.0800 
 26 H        2.2720     5.3560     1.1750 H     1 <1>   0.0800 
 27 H        4.7180     2.4900    -0.8450 H     1 <1>   0.0800 
 28 H        3.4790     1.8690     0.2030 H     1 <1>   0.0800 
 29 H       -3.2630     2.2520     1.7320 H     1 <1>   0.1500 
 30 H        0.1430     1.7050     1.6380 H     1 <1>   0.0800 
 31 H       -0.5770     0.2990     0.8880 H     1 <1>   0.0800 
 32 H       -1.3410     1.0380     2.2720 H     1 <1>   0.0800 
 33 H       -3.6220     4.3880    -1.9290 H     1 <1>   0.1500 
 34 H        4.0350     4.7840    -0.3990 H     1 <1>   0.0800 
 35 H       -5.4740     3.0510     0.9220 H     1 <1>   0.0800 
 36 H       -5.5760     4.0480    -0.5040 H     1 <1>   0.0800 
 37 H       -4.9090     4.7050     0.9730 H     1 <1>   0.0800 
 38 H        5.2700     3.1340     3.2040 H     1 <1>   0.3700 
 39 H        3.9250     2.3490     2.4280 H     1 <1>   0.3700 
@<TRIPOS>BOND
  1   1   2  2   
  2   2   3  am  
  3   2   4  1   
  4   3   5  1   
  5   3   6  1   
  6   4   7  ar  
  7   4   8  ar  
  8   5   9  1   
  9   5  20  1   
 10   5  21  1   
 11   6  10  1   
 12   6  22  1   
 13   6  23  1   
 14   7  11  ar  
 15   7  12  1   
 16   8  13  ar  
 17   8  24  1   
 18   9  14  1   
 19   9  25  1   
 20   9  26  1   
 21  10  14  1   
 22  10  27  1   
 23  10  28  1   
 24  11  15  ar  
 25  11  29  1   
 26  12  30  1   
 27  12  31  1   
 28  12  32  1   
 29  13  15  ar  
 30  13  33  1   
 31  14  16  1   
 32  14  34  1   
 33  15  17  1   
 34  16  18  2   
 35  16  19  am  
 36  17  35  1   
 37  17  36  1   
 38  17  37  1   
 39  19  38  1   
 40  19  39  1   
@<TRIPOS>SUBSTRUCTURE
  1 ****   3 GROUP 4 **** **** 0

# MOE 2024.06 (io_trps.svl 2023.06)
