@<TRIPOS>MOLECULE
NONAME
38 42 1 0 0 
SMALL
USER_CHARGES


@<TRIPOS>ATOM
  1 CL       0.3280    -0.7280    -2.3960 Cl    1 <1>  -0.1770 
  2 C       -0.4560    -2.0090    -1.5020 C.ar  1 <1>   0.1770 
  3 C        0.2920    -3.0570    -0.9850 C.ar  1 <1>  -0.1440 
  4 C       -1.8250    -1.9420    -1.3310 C.ar  1 <1>  -0.1500 
  5 C       -0.3700    -4.0500    -0.2810 C.ar  1 <1>  -0.1500 
  6 C        1.8000    -3.1230    -1.1790 C.3   1 <1>  -0.0960 
  7 C       -2.4930    -2.9360    -0.6250 C.ar  1 <1>   0.1170 
  8 C       -1.7420    -3.9880    -0.1050 C.ar  1 <1>  -0.1500 
  9 N       -3.8940    -2.8800    -0.4390 N.am  1 <1>  -0.2370 
 10 C       -4.8170    -2.4190    -1.3680 C.2   1 <1>   0.5690 
 11 C       -4.5780    -3.2790     0.7010 C.2   1 <1>   0.5690 
 12 O       -4.6450    -2.1830    -2.5360 O.2   1 <1>  -0.5700 
 13 C       -6.1140    -2.2000    -0.6430 C.3   1 <1>  -0.0190 
 14 O       -4.1330    -3.5420     1.7880 O.2   1 <1>  -0.5700 
 15 C       -6.0300    -3.3740     0.3350 C.3   1 <1>  -0.0190 
 16 C       -7.5890    -2.0030    -1.0660 C.3   1 <1>   0.1530 
 17 C       -7.3710    -3.5570     1.0960 C.3   1 <1>   0.1530 
 18 C       -8.3060    -3.3610    -1.1440 C.2   1 <1>  -0.2880 
 19 C       -8.2710    -1.3580     0.1900 C.3   1 <1>  -0.1950 
 20 C       -8.2370    -4.1250    -0.0390 C.2   1 <1>  -0.2880 
 21 C       -8.1370    -2.2430     1.4190 C.3   1 <1>  -0.1950 
 22 C       -7.6740    -0.8240     1.4770 C.3   1 <1>  -0.2000 
 23 H       -2.3610    -1.1120    -1.7540 H     1 <1>   0.1500 
 24 H        0.1780    -4.8780     0.1360 H     1 <1>   0.1500 
 25 H        2.2640    -2.2560    -0.7430 H     1 <1>   0.0800 
 26 H        2.0340    -3.1510    -2.2280 H     1 <1>   0.0800 
 27 H        2.2120    -4.0000    -0.7140 H     1 <1>   0.0800 
 28 H       -2.2300    -4.7710     0.4490 H     1 <1>   0.1500 
 29 H       -5.8590    -1.2800    -0.1580 H     1 <1>   0.0800 
 30 H       -5.9790    -4.2800    -0.2530 H     1 <1>   0.0800 
 31 H       -7.6940    -1.3950    -1.9480 H     1 <1>   0.0800 
 32 H       -7.2850    -4.2280     1.9340 H     1 <1>   0.0800 
 33 H       -8.8320    -3.5820    -2.0580 H     1 <1>   0.1500 
 34 H       -9.2690    -1.0290    -0.0470 H     1 <1>   0.1000 
 35 H       -8.7010    -5.0830     0.1240 H     1 <1>   0.1500 
 36 H       -9.0450    -2.4590     1.9560 H     1 <1>   0.1000 
 37 H       -8.2690    -0.1250     2.0390 H     1 <1>   0.1000 
 38 H       -6.6290    -0.6630     1.6710 H     1 <1>   0.1000 
@<TRIPOS>BOND
  1   1   2  1   
  2   2   3  ar  
  3   2   4  ar  
  4   3   5  ar  
  5   3   6  1   
  6   4   7  ar  
  7   4  23  1   
  8   5   8  ar  
  9   5  24  1   
 10   6  25  1   
 11   6  26  1   
 12   6  27  1   
 13   7   8  ar  
 14   7   9  1   
 15   8  28  1   
 16   9  10  am  
 17   9  11  am  
 18  10  12  2   
 19  10  13  1   
 20  11  14  2   
 21  11  15  1   
 22  13  15  1   
 23  13  16  1   
 24  13  29  1   
 25  15  17  1   
 26  15  30  1   
 27  16  18  1   
 28  16  19  1   
 29  16  31  1   
 30  17  20  1   
 31  17  21  1   
 32  17  32  1   
 33  18  20  2   
 34  18  33  1   
 35  19  21  1   
 36  19  22  1   
 37  19  34  1   
 38  20  35  1   
 39  21  22  1   
 40  21  36  1   
 41  22  37  1   
 42  22  38  1   
@<TRIPOS>SUBSTRUCTURE
  1 ****   9 GROUP 4 **** **** 0

# MOE 2024.06 (io_trps.svl 2023.06)
