@<TRIPOS>MOLECULE
NONAME
38 39 1 0 0 
SMALL
USER_CHARGES


@<TRIPOS>ATOM
  1 O        0.3380    -1.3390     0.7920 O.3   1 <1>  -0.3630 
  2 C       -0.9410    -1.4350     0.3410 C.ar  1 <1>   0.0830 
  3 C        1.3170    -0.6230     0.0850 C.3   1 <1>   0.1200 
  4 C       -1.8290    -2.2120     1.0790 C.ar  1 <1>  -0.1440 
  5 C       -1.3870    -0.7940    -0.8140 C.ar  1 <1>  -0.1500 
  6 C        2.6280    -0.7590     0.8640 C.3   1 <1>   0.3430 
  7 C       -3.1420    -2.3420     0.6550 C.ar  1 <1>  -0.1500 
  8 C       -1.3790    -2.9240     2.3470 C.3   1 <1>  -0.0960 
  9 C       -2.7000    -0.9320    -1.2250 C.ar  1 <1>  -0.1500 
 10 N        3.7690    -0.0410     0.2060 N.4   1 <1>  -0.9590 
 11 C       -3.5830    -1.7080    -0.4950 C.ar  1 <1>  -0.1430 
 12 C        4.1730    -0.6130    -1.1040 C.3   1 <1>   0.3430 
 13 C        4.9940    -0.0540     1.0420 C.3   1 <1>   0.3430 
 14 C       -5.0260    -1.8600    -0.9440 C.3   1 <1>  -0.0970 
 15 C        5.5910    -0.1020    -1.3200 C.3   1 <1>  -0.1600 
 16 C        6.1190     0.2700     0.0680 C.3   1 <1>  -0.1600 
 17 H        1.0050     0.4050     0.0320 H     1 <1>   0.0800 
 18 H        1.3980    -1.0560    -0.8960 H     1 <1>   0.0800 
 19 H       -0.7380    -0.1830    -1.4090 H     1 <1>   0.1500 
 20 H        2.8670    -1.8060     0.9590 H     1 <1>   0.0800 
 21 H        2.4740    -0.3560     1.8520 H     1 <1>   0.0800 
 22 H       -3.8320    -2.9410     1.2230 H     1 <1>   0.1500 
 23 H       -0.5880    -3.6140     2.1170 H     1 <1>   0.0800 
 24 H       -2.1890    -3.4700     2.7940 H     1 <1>   0.0800 
 25 H       -1.0190    -2.2040     3.0600 H     1 <1>   0.0800 
 26 H       -3.0350    -0.4330    -2.1170 H     1 <1>   0.1500 
 27 H        3.5170     0.9460     0.0570 H     1 <1>   0.4500 
 28 H        3.5130    -0.3050    -1.9000 H     1 <1>   0.0800 
 29 H        4.1850    -1.6900    -1.0450 H     1 <1>   0.0800 
 30 H        5.1480    -1.0400     1.4520 H     1 <1>   0.0800 
 31 H        4.9410     0.6640     1.8460 H     1 <1>   0.0800 
 32 H       -5.6400    -1.1330    -0.4430 H     1 <1>   0.0800 
 33 H       -5.3890    -2.8440    -0.7080 H     1 <1>   0.0800 
 34 H       -5.1090    -1.7140    -2.0060 H     1 <1>   0.0800 
 35 H        5.5750     0.7630    -1.9610 H     1 <1>   0.0800 
 36 H        6.1950    -0.8600    -1.7880 H     1 <1>   0.0800 
 37 H        7.0070    -0.2850     0.3210 H     1 <1>   0.0800 
 38 H        6.3500     1.3200     0.1140 H     1 <1>   0.0800 
@<TRIPOS>BOND
  1   1   2  1   
  2   1   3  1   
  3   2   4  ar  
  4   2   5  ar  
  5   3   6  1   
  6   3  17  1   
  7   3  18  1   
  8   4   7  ar  
  9   4   8  1   
 10   5   9  ar  
 11   5  19  1   
 12   6  10  1   
 13   6  20  1   
 14   6  21  1   
 15   7  11  ar  
 16   7  22  1   
 17   8  23  1   
 18   8  24  1   
 19   8  25  1   
 20   9  11  ar  
 21   9  26  1   
 22  10  12  1   
 23  10  13  1   
 24  10  27  1   
 25  11  14  1   
 26  12  15  1   
 27  12  28  1   
 28  12  29  1   
 29  13  16  1   
 30  13  30  1   
 31  13  31  1   
 32  14  32  1   
 33  14  33  1   
 34  14  34  1   
 35  15  16  1   
 36  15  35  1   
 37  15  36  1   
 38  16  37  1   
 39  16  38  1   
@<TRIPOS>SUBSTRUCTURE
  1 ****   1 GROUP 4 **** **** 0

# MOE 2024.06 (io_trps.svl 2023.06)
