@<TRIPOS>MOLECULE
NONAME
44 45 1 0 0 
SMALL
USER_CHARGES


@<TRIPOS>ATOM
  1 S        0.1720     0.6260     0.6250 S.o2  1 <1>   1.4470 
  2 O        0.6120     0.7190     2.0000 O.2   1 <1>  -0.6500 
  3 O       -0.0700     1.8310    -0.1380 O.2   1 <1>  -0.6500 
  4 N        1.3720    -0.2450    -0.2000 N.am  1 <1>  -0.8490 
  5 C       -1.2900    -0.4480     0.5350 C.ar  1 <1>  -0.0090 
  6 C        1.7520    -1.5100     0.4780 C.3   1 <1>   0.2570 
  7 C        1.1260    -0.4340    -1.6340 C.3   1 <1>   0.1160 
  8 C       -2.1590    -0.3860    -0.5480 C.ar  1 <1>  -0.1500 
  9 C       -1.5620    -1.3800     1.5300 C.ar  1 <1>  -0.1500 
 10 C        3.0510    -2.1520    -0.0300 C.2   1 <1>   0.5690 
 11 C       -3.2570    -1.2240    -0.6520 C.ar  1 <1>  -0.1440 
 12 C       -2.6530    -2.2250     1.4450 C.ar  1 <1>  -0.1500 
 13 O        2.9710    -3.2240    -0.5870 O.2   1 <1>  -0.5700 
 14 N        4.2560    -1.5260     0.1490 N.am  1 <1>  -0.6600 
 15 C       -3.5090    -2.1560     0.3500 C.ar  1 <1>   0.0830 
 16 C       -4.1790    -1.1180    -1.8590 C.3   1 <1>  -0.0970 
 17 C        4.4380    -0.1660     0.7050 C.3   1 <1>   0.1400 
 18 C        5.5340    -2.0820    -0.3390 C.3   1 <1>   0.1400 
 19 O       -4.5930    -2.9600     0.2080 O.3   1 <1>  -0.3630 
 20 C        5.9490     0.0240     0.7690 C.3   1 <1>  -0.1600 
 21 C        6.5030    -0.9050    -0.3080 C.3   1 <1>  -0.1600 
 22 C       -4.9470    -3.9160     1.1830 C.3   1 <1>   0.0400 
 23 H        0.9590    -2.2280     0.3710 H     1 <1>   0.0800 
 24 H        1.8880    -1.3290     1.5290 H     1 <1>   0.0800 
 25 H        0.9100     0.5130    -2.0990 H     1 <1>   0.0800 
 26 H        0.2980    -1.1030    -1.7950 H     1 <1>   0.0800 
 27 H        2.0010    -0.8450    -2.1100 H     1 <1>   0.0800 
 28 H       -1.9690     0.3390    -1.3220 H     1 <1>   0.1500 
 29 H       -0.9130    -1.4420     2.3870 H     1 <1>   0.1500 
 30 H       -2.8220    -2.9280     2.2390 H     1 <1>   0.1500 
 31 H       -3.8560    -0.3460    -2.5330 H     1 <1>   0.0800 
 32 H       -5.1790    -0.8920    -1.5330 H     1 <1>   0.0800 
 33 H       -4.1950    -2.0530    -2.3880 H     1 <1>   0.0800 
 34 H        3.9850    -0.0750     1.6780 H     1 <1>   0.0800 
 35 H        3.9980     0.5520     0.0320 H     1 <1>   0.0800 
 36 H        5.4250    -2.4860    -1.3320 H     1 <1>   0.0800 
 37 H        5.8570    -2.8580     0.3330 H     1 <1>   0.0800 
 38 H        6.2990    -0.2890     1.7370 H     1 <1>   0.0800 
 39 H        6.2290     1.0510     0.6110 H     1 <1>   0.0800 
 40 H        6.4800    -0.4110    -1.2640 H     1 <1>   0.0800 
 41 H        7.5100    -1.2220    -0.1020 H     1 <1>   0.0800 
 42 H       -5.8380    -4.4180     0.8500 H     1 <1>   0.0800 
 43 H       -5.1380    -3.4120     2.1130 H     1 <1>   0.0800 
 44 H       -4.1450    -4.6250     1.2840 H     1 <1>   0.0800 
@<TRIPOS>BOND
  1   1   2  2   
  2   1   3  2   
  3   1   4  am  
  4   1   5  1   
  5   4   6  1   
  6   4   7  1   
  7   5   8  ar  
  8   5   9  ar  
  9   6  10  1   
 10   6  23  1   
 11   6  24  1   
 12   7  25  1   
 13   7  26  1   
 14   7  27  1   
 15   8  11  ar  
 16   8  28  1   
 17   9  12  ar  
 18   9  29  1   
 19  10  13  2   
 20  10  14  am  
 21  11  15  ar  
 22  11  16  1   
 23  12  15  ar  
 24  12  30  1   
 25  14  17  1   
 26  14  18  1   
 27  15  19  1   
 28  16  31  1   
 29  16  32  1   
 30  16  33  1   
 31  17  20  1   
 32  17  34  1   
 33  17  35  1   
 34  18  21  1   
 35  18  36  1   
 36  18  37  1   
 37  19  22  1   
 38  20  21  1   
 39  20  38  1   
 40  20  39  1   
 41  21  40  1   
 42  21  41  1   
 43  22  42  1   
 44  22  43  1   
 45  22  44  1   
@<TRIPOS>SUBSTRUCTURE
  1 ****   4 GROUP 4 **** **** 0

# MOE 2024.06 (io_trps.svl 2023.06)
