@<TRIPOS>MOLECULE
NONAME
57 60 1 0 0 
SMALL
USER_CHARGES


@<TRIPOS>ATOM
  1 S        0.3080     0.5670     2.1380 S.3   1 <1>  -0.3320 
  2 C        0.4560    -1.1520     1.6770 C.ar  1 <1>   0.7220 
  3 C        2.0540     1.1860     2.3210 C.3   1 <1>   0.1310 
  4 N       -0.5760    -1.6380     1.0670 N.ar  1 <1>  -0.6200 
  5 N        1.5640    -1.7440     2.0000 N.ar  1 <1>  -0.6200 
  6 C        2.3670     2.2000     1.2310 C.2   1 <1>   0.5690 
  7 C       -0.4130    -2.8880     0.7060 C.ar  1 <1>   0.7200 
  8 C        1.6070    -2.9960     1.6100 C.ar  1 <1>   0.7200 
  9 O        2.5340     3.3550     1.5370 O.2   1 <1>  -0.5700 
 10 N        2.4760     1.8330    -0.0740 N.am  1 <1>  -0.5470 
 11 N        0.6490    -3.6100     0.9630 N.ar  1 <1>  -0.6200 
 12 N       -1.4360    -3.4820    -0.0020 N.pl3 1 <1>  -0.8380 
 13 N        2.7490    -3.7150     1.9060 N.pl3 1 <1>  -0.8380 
 14 C        2.3580     0.5650    -0.6440 C.ar  1 <1>   0.1170 
 15 C       -2.7730    -2.8500    -0.1860 C.3   1 <1>   0.2090 
 16 C       -1.2440    -4.7160    -0.8140 C.3   1 <1>   0.2090 
 17 C        2.9600    -5.1220     1.4530 C.3   1 <1>   0.2090 
 18 C        3.8160    -3.2150     2.8210 C.3   1 <1>   0.2090 
 19 C        1.2210     0.2260    -1.3640 C.ar  1 <1>  -0.1500 
 20 C        3.3700    -0.3750    -0.4970 C.ar  1 <1>  -0.1500 
 21 C       -2.9530    -2.4740    -1.6600 C.3   1 <1>  -0.1600 
 22 C       -1.4080    -4.3700    -2.2980 C.3   1 <1>  -0.1600 
 23 C        4.3160    -5.2390     0.7490 C.3   1 <1>  -0.1600 
 24 C        5.1760    -3.3060     2.1220 C.3   1 <1>  -0.1600 
 25 C        1.0890    -1.0350    -1.9170 C.ar  1 <1>  -0.1500 
 26 C        3.2410    -1.6360    -1.0510 C.ar  1 <1>  -0.1500 
 27 C       -2.7540    -3.6870    -2.5830 C.3   1 <1>  -0.1600 
 28 C        5.4670    -4.7310     1.6290 C.3   1 <1>  -0.1600 
 29 C        2.0990    -1.9680    -1.7600 C.ar  1 <1>  -0.1500 
 30 H        2.7380     0.3630     2.2740 H     1 <1>   0.0800 
 31 H        2.1150     1.6500     3.2870 H     1 <1>   0.0800 
 32 H        2.5880     2.6200    -0.7130 H     1 <1>   0.3700 
 33 H       -2.8880    -1.9750     0.4310 H     1 <1>   0.0800 
 34 H       -3.5330    -3.5540     0.1060 H     1 <1>   0.0800 
 35 H       -1.9820    -5.4440    -0.5220 H     1 <1>   0.0800 
 36 H       -0.2730    -5.1510    -0.6550 H     1 <1>   0.0800 
 37 H        2.1890    -5.4430     0.7750 H     1 <1>   0.0800 
 38 H        2.9360    -5.7710     2.3110 H     1 <1>   0.0800 
 39 H        3.8230    -3.8230     3.7100 H     1 <1>   0.0800 
 40 H        3.6420    -2.1980     3.1230 H     1 <1>   0.0800 
 41 H        0.4300     0.9450    -1.4760 H     1 <1>   0.1500 
 42 H        4.2560    -0.1220     0.0550 H     1 <1>   0.1500 
 43 H       -2.2400    -1.7070    -1.9040 H     1 <1>   0.0800 
 44 H       -3.9370    -2.0660    -1.8040 H     1 <1>   0.0800 
 45 H       -1.3280    -5.2690    -2.8820 H     1 <1>   0.0800 
 46 H       -0.6020    -3.7190    -2.5860 H     1 <1>   0.0800 
 47 H        4.2770    -4.6710    -0.1630 H     1 <1>   0.0800 
 48 H        4.4890    -6.2670     0.4860 H     1 <1>   0.0800 
 49 H        5.9460    -2.9960     2.8050 H     1 <1>   0.0800 
 50 H        5.1790    -2.6240     1.2910 H     1 <1>   0.0800 
 51 H        0.1980    -1.2950    -2.4590 H     1 <1>   0.1500 
 52 H        4.0220    -2.3640    -0.9240 H     1 <1>   0.1500 
 53 H       -2.7940    -3.3730    -3.6110 H     1 <1>   0.0800 
 54 H       -3.5510    -4.3910    -2.4170 H     1 <1>   0.0800 
 55 H        6.3870    -4.7440     1.0710 H     1 <1>   0.0800 
 56 H        5.5810    -5.3840     2.4770 H     1 <1>   0.0800 
 57 H        1.9930    -2.9530    -2.1780 H     1 <1>   0.1500 
@<TRIPOS>BOND
  1   1   2  1   
  2   1   3  1   
  3   2   4  ar  
  4   2   5  ar  
  5   3   6  1   
  6   3  30  1   
  7   3  31  1   
  8   4   7  ar  
  9   5   8  ar  
 10   6   9  2   
 11   6  10  am  
 12   7  11  ar  
 13   7  12  1   
 14   8  11  ar  
 15   8  13  1   
 16  10  14  1   
 17  10  32  1   
 18  12  15  1   
 19  12  16  1   
 20  13  17  1   
 21  13  18  1   
 22  14  19  ar  
 23  14  20  ar  
 24  15  21  1   
 25  15  33  1   
 26  15  34  1   
 27  16  22  1   
 28  16  35  1   
 29  16  36  1   
 30  17  23  1   
 31  17  37  1   
 32  17  38  1   
 33  18  24  1   
 34  18  39  1   
 35  18  40  1   
 36  19  25  ar  
 37  19  41  1   
 38  20  26  ar  
 39  20  42  1   
 40  21  27  1   
 41  21  43  1   
 42  21  44  1   
 43  22  27  1   
 44  22  45  1   
 45  22  46  1   
 46  23  28  1   
 47  23  47  1   
 48  23  48  1   
 49  24  28  1   
 50  24  49  1   
 51  24  50  1   
 52  25  29  ar  
 53  25  51  1   
 54  26  29  ar  
 55  26  52  1   
 56  27  53  1   
 57  27  54  1   
 58  28  55  1   
 59  28  56  1   
 60  29  57  1   
@<TRIPOS>SUBSTRUCTURE
  1 ****   5 GROUP 4 **** **** 0

# MOE 2024.06 (io_trps.svl 2023.06)
