@<TRIPOS>MOLECULE
NONAME
35 37 1 0 0 
SMALL
USER_CHARGES


@<TRIPOS>ATOM
  1 CL       0.6820     0.2180     2.1000 Cl    1 <1>  -0.1770 
  2 C        2.1290     0.8610     1.3610 C.ar  1 <1>   0.1770 
  3 C        3.3610     0.6760     1.9620 C.ar  1 <1>   0.1600 
  4 C        2.0390     1.5540     0.1740 C.ar  1 <1>  -0.1500 
  5 N        4.5080     1.1290     1.4720 N.ar  1 <1>  -0.6200 
  6 C        3.2250     2.0290    -0.3430 C.ar  1 <1>  -0.1500 
  7 C        4.4290     1.7970     0.3280 C.ar  1 <1>   0.4270 
  8 N        5.6590     2.2330    -0.1120 N.am  1 <1>  -0.5470 
  9 C        6.0780     2.8900    -1.2330 C.2   1 <1>   0.5690 
 10 O        5.3320     3.2270    -2.1180 O.2   1 <1>  -0.5700 
 11 C        7.5530     3.2310    -1.3750 C.3   1 <1>   0.1310 
 12 S        8.6190     2.1130    -0.3370 S.3   1 <1>  -0.2860 
 13 C       10.2640     2.7740    -0.6160 C.2   1 <1>   0.2430 
 14 N       10.5040     3.7960    -1.3570 N.2   1 <1>  -0.3380 
 15 N       11.3540     2.2440    -0.0640 N.pl3 1 <1>   0.0480 
 16 N       11.8280     3.9750    -1.3040 N.2   1 <1>  -0.3380 
 17 C       12.3130     3.0530    -0.5360 C.2   1 <1>   0.1020 
 18 C       11.4550     1.0780     0.8370 C.3   1 <1>   0.0160 
 19 C       13.7870     2.8950    -0.2030 C.3   1 <1>  -0.0150 
 20 C       14.2800     3.1620     1.1870 C.3   1 <1>  -0.2000 
 21 C       14.6290     4.1020     0.0750 C.3   1 <1>  -0.2000 
 22 H        3.3970     0.1310     2.8890 H     1 <1>   0.1500 
 23 H        1.0930     1.7110    -0.3120 H     1 <1>   0.1500 
 24 H        3.2120     2.5770    -1.2650 H     1 <1>   0.1500 
 25 H        6.3960     1.9560     0.5350 H     1 <1>   0.3700 
 26 H        7.7370     4.2390    -1.0540 H     1 <1>   0.0800 
 27 H        7.8700     3.1130    -2.3950 H     1 <1>   0.0800 
 28 H       10.8160     0.2920     0.4780 H     1 <1>   0.0800 
 29 H       11.1450     1.3680     1.8250 H     1 <1>   0.0800 
 30 H       12.4690     0.7250     0.8680 H     1 <1>   0.0800 
 31 H       14.2510     2.1030    -0.7650 H     1 <1>   0.1000 
 32 H       15.0560     2.5390     1.5950 H     1 <1>   0.1000 
 33 H       13.5860     3.5060     1.9350 H     1 <1>   0.1000 
 34 H       14.1570     5.0690     0.0380 H     1 <1>   0.1000 
 35 H       15.6370     4.1200    -0.3010 H     1 <1>   0.1000 
@<TRIPOS>BOND
  1   1   2  1   
  2   2   3  ar  
  3   2   4  ar  
  4   3   5  ar  
  5   3  22  1   
  6   4   6  ar  
  7   4  23  1   
  8   5   7  ar  
  9   6   7  ar  
 10   6  24  1   
 11   7   8  1   
 12   8   9  am  
 13   8  25  1   
 14   9  10  2   
 15   9  11  1   
 16  11  12  1   
 17  11  26  1   
 18  11  27  1   
 19  12  13  1   
 20  13  14  2   
 21  13  15  1   
 22  14  16  1   
 23  15  17  1   
 24  15  18  1   
 25  16  17  2   
 26  17  19  1   
 27  18  28  1   
 28  18  29  1   
 29  18  30  1   
 30  19  20  1   
 31  19  21  1   
 32  19  31  1   
 33  20  21  1   
 34  20  32  1   
 35  20  33  1   
 36  21  34  1   
 37  21  35  1   
@<TRIPOS>SUBSTRUCTURE
  1 ****  12 GROUP 4 **** **** 0

# MOE 2024.06 (io_trps.svl 2023.06)
