@<TRIPOS>MOLECULE
NONAME
42 43 1 0 0 
SMALL
USER_CHARGES


@<TRIPOS>ATOM
  1 O       -0.6210    -0.2270     0.9350 O.2   1 <1>  -0.5700 
  2 C       -0.9750    -1.2010     0.2970 C.2   1 <1>   0.7150 
  3 N       -0.0400    -2.1090    -0.1390 N.am  1 <1>  -0.5470 
  4 C       -2.3690    -1.4470    -0.0060 C.2   1 <1>   0.0550 
  5 C        1.3640    -2.0890    -0.0860 C.ar  1 <1>   0.1170 
  6 O       -3.3360    -0.7370     0.5700 O.3   1 <1>  -0.2800 
  7 C       -2.9530    -2.3510    -0.8450 C.2   1 <1>  -0.1500 
  8 C        2.0770    -3.2860     0.0120 C.ar  1 <1>  -0.1440 
  9 C        2.0760    -0.8960    -0.1580 C.ar  1 <1>  -0.1500 
 10 C       -4.4990    -1.1570     0.1310 C.2   1 <1>  -0.0100 
 11 C       -4.3320    -2.1620    -0.7540 C.2   1 <1>  -0.1500 
 12 C        3.4620    -3.2630     0.0360 C.ar  1 <1>  -0.1500 
 13 C        1.3590    -4.6280     0.1000 C.3   1 <1>  -0.0970 
 14 C        3.4570    -0.8860    -0.1320 C.ar  1 <1>  -0.1500 
 15 C        4.1730    -2.0720    -0.0370 C.ar  1 <1>   0.1170 
 16 N        5.5770    -2.1140     0.0070 N.am  1 <1>  -0.5470 
 17 C        6.5180    -1.2470    -0.4820 C.2   1 <1>   0.5690 
 18 O        6.2220    -0.2570    -1.1090 O.2   1 <1>  -0.5700 
 19 C        8.0200    -1.5490    -0.2350 C.3   1 <1>   0.0610 
 20 C        8.6550    -0.3990     0.5680 C.3   1 <1>  -0.2400 
 21 C        8.2590    -2.8590     0.5500 C.3   1 <1>  -0.2400 
 22 C        8.7570    -1.6700    -1.5820 C.3   1 <1>  -0.2400 
 23 H       -0.4340    -2.9770    -0.4860 H     1 <1>   0.3700 
 24 H       -2.4800    -3.0800    -1.4790 H     1 <1>   0.1500 
 25 H        1.5500     0.0390    -0.2370 H     1 <1>   0.1500 
 26 H       -5.3960    -0.6870     0.4970 H     1 <1>   0.1500 
 27 H       -5.0850    -2.7140    -1.2890 H     1 <1>   0.1500 
 28 H        4.0080    -4.1850     0.1090 H     1 <1>   0.1500 
 29 H        0.8370    -4.8290    -0.8170 H     1 <1>   0.0800 
 30 H        0.6570    -4.6180     0.9150 H     1 <1>   0.0800 
 31 H        2.0570    -5.4280     0.2730 H     1 <1>   0.0800 
 32 H        3.9760     0.0540    -0.1830 H     1 <1>   0.1500 
 33 H        5.9640    -2.9410     0.4550 H     1 <1>   0.3700 
 34 H        8.1610    -0.2900     1.5180 H     1 <1>   0.0800 
 35 H        8.5530     0.5290     0.0320 H     1 <1>   0.0800 
 36 H        9.7010    -0.5780     0.7410 H     1 <1>   0.0800 
 37 H        9.3120    -3.0210     0.6960 H     1 <1>   0.0800 
 38 H        7.7950    -2.8130     1.5200 H     1 <1>   0.0800 
 39 H        7.8670    -3.7040     0.0110 H     1 <1>   0.0800 
 40 H        8.6600    -0.7570    -2.1430 H     1 <1>   0.0800 
 41 H        8.3360    -2.4670    -2.1690 H     1 <1>   0.0800 
 42 H        9.8040    -1.8660    -1.4340 H     1 <1>   0.0800 
@<TRIPOS>BOND
  1   1   2  2   
  2   2   3  am  
  3   2   4  1   
  4   3   5  1   
  5   3  23  1   
  6   4   6  1   
  7   4   7  2   
  8   5   8  ar  
  9   5   9  ar  
 10   6  10  1   
 11   7  11  1   
 12   7  24  1   
 13   8  12  ar  
 14   8  13  1   
 15   9  14  ar  
 16   9  25  1   
 17  10  11  2   
 18  10  26  1   
 19  11  27  1   
 20  12  15  ar  
 21  12  28  1   
 22  13  29  1   
 23  13  30  1   
 24  13  31  1   
 25  14  15  ar  
 26  14  32  1   
 27  15  16  1   
 28  16  17  am  
 29  16  33  1   
 30  17  18  2   
 31  17  19  1   
 32  19  20  1   
 33  19  21  1   
 34  19  22  1   
 35  20  34  1   
 36  20  35  1   
 37  20  36  1   
 38  21  37  1   
 39  21  38  1   
 40  21  39  1   
 41  22  40  1   
 42  22  41  1   
 43  22  42  1   
@<TRIPOS>SUBSTRUCTURE
  1 ****   9 GROUP 4 **** **** 0

# MOE 2024.06 (io_trps.svl 2023.06)
