@<TRIPOS>MOLECULE
NONAME
28 29 1 0 0 
SMALL
USER_CHARGES


@<TRIPOS>ATOM
  1 S        0.1090     0.2390     0.1120 S.3   1 <1>  -0.2860 
  2 C       -1.4090    -0.6780    -0.1620 C.2   1 <1>   0.2420 
  3 C        1.3120    -0.6130    -0.9990 C.3   1 <1>   0.2140 
  4 N       -1.5330    -1.6530    -0.9740 N.2   1 <1>  -0.3380 
  5 N       -2.5390    -0.4150     0.4620 N.pl3 1 <1>   0.3140 
  6 C        2.6630     0.0610    -0.8360 C.ar  1 <1>  -0.1440 
  7 N       -2.8080    -2.0200    -0.8500 N.2   1 <1>   0.0000 
  8 N       -3.4240    -1.2820     0.0110 N.2   1 <1>  -0.4180 
  9 C       -2.8330     0.6140     1.4700 C.3   1 <1>   0.0160 
 10 C        3.5710    -0.4130     0.0980 C.ar  1 <1>  -0.1500 
 11 C        3.0020     1.1560    -1.6160 C.ar  1 <1>  -0.1500 
 12 C        4.8080     0.1900     0.2570 C.ar  1 <1>   0.0830 
 13 C        4.2360     1.7660    -1.4650 C.ar  1 <1>  -0.1500 
 14 O        5.6300    -0.3420     1.1950 O.3   1 <1>  -0.3630 
 15 C        5.1400     1.2870    -0.5330 C.ar  1 <1>  -0.1500 
 16 C        6.8990     0.2150     1.4570 C.3   1 <1>   0.0400 
 17 H        0.9400    -0.5260    -2.0040 H     1 <1>   0.0800 
 18 H        1.3440    -1.6470    -0.7070 H     1 <1>   0.0800 
 19 H       -2.2390     0.4290     2.3460 H     1 <1>   0.0800 
 20 H       -3.8760     0.5740     1.7260 H     1 <1>   0.0800 
 21 H       -2.5960     1.5810     1.0680 H     1 <1>   0.0800 
 22 H        3.3290    -1.2580     0.7180 H     1 <1>   0.1500 
 23 H        2.3060     1.5390    -2.3420 H     1 <1>   0.1500 
 24 H        4.4910     2.6150    -2.0750 H     1 <1>   0.1500 
 25 H        6.0890     1.7780    -0.4370 H     1 <1>   0.1500 
 26 H        7.3600    -0.3600     2.2390 H     1 <1>   0.0800 
 27 H        6.7720     1.2330     1.7780 H     1 <1>   0.0800 
 28 H        7.4950     0.1620     0.5630 H     1 <1>   0.0800 
@<TRIPOS>BOND
  1   1   2  1   
  2   1   3  1   
  3   2   4  2   
  4   2   5  1   
  5   3   6  1   
  6   3  17  1   
  7   3  18  1   
  8   4   7  1   
  9   5   8  1   
 10   5   9  1   
 11   6  10  ar  
 12   6  11  ar  
 13   7   8  2   
 14   9  19  1   
 15   9  20  1   
 16   9  21  1   
 17  10  12  ar  
 18  10  22  1   
 19  11  13  ar  
 20  11  23  1   
 21  12  14  1   
 22  12  15  ar  
 23  13  15  ar  
 24  13  24  1   
 25  14  16  1   
 26  15  25  1   
 27  16  26  1   
 28  16  27  1   
 29  16  28  1   
@<TRIPOS>SUBSTRUCTURE
  1 ****   3 GROUP 4 **** **** 0

# MOE 2024.06 (io_trps.svl 2023.06)
