@<TRIPOS>MOLECULE
NONAME
32 32 1 0 0 
SMALL
USER_CHARGES


@<TRIPOS>ATOM
  1 S        0.2560    -0.5850     1.4290 S.o2  1 <1>   1.4470 
  2 O        0.5190    -1.1650     2.7310 O.2   1 <1>  -0.6500 
  3 O        0.4040     0.8450     1.2570 O.2   1 <1>  -0.6500 
  4 N        1.2400    -1.3680     0.2930 N.am  1 <1>  -0.8490 
  5 C       -1.4100    -1.0540     0.8810 C.ar  1 <1>  -0.0090 
  6 C        2.6000    -0.7290     0.1800 C.3   1 <1>   0.0900 
  7 C        1.3470    -2.8120     0.5080 C.3   1 <1>   0.1960 
  8 C       -2.3820    -1.4650     1.7860 C.ar  1 <1>  -0.1500 
  9 C       -1.7560    -1.0020    -0.4650 C.ar  1 <1>  -0.1500 
 10 C        3.6530    -1.3480    -0.7560 C.2   1 <1>   0.9060 
 11 C        1.1600    -3.5270    -0.8270 C.3   1 <1>  -0.2400 
 12 C       -3.6520    -1.8180     1.3620 C.ar  1 <1>  -0.1500 
 13 C       -3.0220    -1.3530    -0.9010 C.ar  1 <1>  -0.1500 
 14 O        3.7990    -0.8920    -1.8970 O.co2 1 <1>  -0.9000 
 15 O        4.3540    -2.2790    -0.3310 O.co2 1 <1>  -0.9000 
 16 C       -3.9810    -1.7660     0.0180 C.ar  1 <1>   0.0820 
 17 O       -5.2420    -2.1300    -0.3180 O.3   1 <1>  -0.3630 
 18 C       -5.6880    -2.0860    -1.6550 C.3   1 <1>   0.0400 
 19 H        3.0480    -0.6990     1.1560 H     1 <1>   0.0800 
 20 H        2.4730     0.2870    -0.1450 H     1 <1>   0.0800 
 21 H        0.5760    -3.1540     1.1790 H     1 <1>   0.0800 
 22 H        2.2980    -3.0670     0.9480 H     1 <1>   0.0800 
 23 H       -2.1400    -1.5090     2.8350 H     1 <1>   0.1500 
 24 H       -1.0130    -0.6840    -1.1790 H     1 <1>   0.1500 
 25 H        0.2010    -3.2880    -1.2460 H     1 <1>   0.0800 
 26 H        1.2210    -4.5890    -0.6770 H     1 <1>   0.0800 
 27 H        1.9320    -3.2430    -1.5190 H     1 <1>   0.0800 
 28 H       -4.3960    -2.1350     2.0710 H     1 <1>   0.1500 
 29 H       -3.2380    -1.2990    -1.9510 H     1 <1>   0.1500 
 30 H       -6.7150    -2.4050    -1.6750 H     1 <1>   0.0800 
 31 H       -5.0870    -2.7540    -2.2460 H     1 <1>   0.0800 
 32 H       -5.6130    -1.0760    -2.0160 H     1 <1>   0.0800 
@<TRIPOS>BOND
  1   1   2  2   
  2   1   3  2   
  3   1   4  am  
  4   1   5  1   
  5   4   6  1   
  6   4   7  1   
  7   5   8  ar  
  8   5   9  ar  
  9   6  10  1   
 10   6  19  1   
 11   6  20  1   
 12   7  11  1   
 13   7  21  1   
 14   7  22  1   
 15   8  12  ar  
 16   8  23  1   
 17   9  13  ar  
 18   9  24  1   
 19  10  14  ar  
 20  10  15  ar  
 21  11  25  1   
 22  11  26  1   
 23  11  27  1   
 24  12  16  ar  
 25  12  28  1   
 26  13  16  ar  
 27  13  29  1   
 28  16  17  1   
 29  17  18  1   
 30  18  30  1   
 31  18  31  1   
 32  18  32  1   
@<TRIPOS>SUBSTRUCTURE
  1 ****   5 GROUP 4 **** **** 0

# MOE 2024.06 (io_trps.svl 2023.06)
