@<TRIPOS>MOLECULE
NONAME
53 55 1 0 0 
SMALL
USER_CHARGES


@<TRIPOS>ATOM
  1 O       -0.2100     1.2920    -2.3400 O.2   1 <1>  -0.5700 
  2 C       -0.5490     1.4200    -1.1840 C.2   1 <1>   0.5690 
  3 N       -1.7150     0.8640    -0.7540 N.am  1 <1>  -0.7300 
  4 C        0.3530     2.1880    -0.1750 C.3   1 <1>   0.2040 
  5 C       -2.7760     0.3590    -1.6380 C.3   1 <1>   0.2840 
  6 C        1.2730     1.1670     0.5340 C.ar  1 <1>  -0.1440 
  7 C       -0.5070     3.0090     0.8220 C.3   1 <1>  -0.1600 
  8 C        1.2450     3.2360    -0.8910 C.3   1 <1>  -0.1600 
  9 C       -4.0600     1.0730    -1.2580 C.ar  1 <1>  -0.1430 
 10 C        1.3410     1.0150     1.9180 C.ar  1 <1>  -0.1500 
 11 C        2.0820     0.3500    -0.2490 C.ar  1 <1>  -0.1500 
 12 C       -1.3560     4.0850     0.1230 C.3   1 <1>   0.1200 
 13 C        0.4940     4.5230    -1.2800 C.3   1 <1>   0.1200 
 14 C       -5.0650     0.4160    -0.5620 C.ar  1 <1>  -0.1500 
 15 C       -4.2290     2.4060    -1.5990 C.ar  1 <1>  -0.1500 
 16 C        2.1880     0.0830     2.4920 C.ar  1 <1>  -0.1500 
 17 C        2.9300    -0.5830     0.3220 C.ar  1 <1>  -0.1500 
 18 O       -0.8830     4.3430    -1.1630 O.3   1 <1>  -0.5600 
 19 C       -6.2260     1.0840    -0.2110 C.ar  1 <1>  -0.1500 
 20 C       -5.3890     3.0740    -1.2490 C.ar  1 <1>  -0.1500 
 21 C        2.9850    -0.7180     1.6960 C.ar  1 <1>  -0.1500 
 22 C       -6.3950     2.4230    -0.5550 C.ar  1 <1>   0.0820 
 23 O       -7.4950     3.1590    -0.2530 O.3   1 <1>  -0.3620 
 24 C       -8.6550     2.6150     0.3380 C.3   1 <1>   0.2000 
 25 C       -9.4630     1.8820    -0.7360 C.3   1 <1>  -0.2400 
 26 C       -9.4490     3.7820     0.9190 C.3   1 <1>  -0.2400 
 27 H       -1.9990     0.9740     0.2180 H     1 <1>   0.3700 
 28 H       -2.8750    -0.7040    -1.5090 H     1 <1>   0.0800 
 29 H       -2.5360     0.5590    -2.6690 H     1 <1>   0.0800 
 30 H        0.1430     3.5150     1.5120 H     1 <1>   0.0800 
 31 H       -1.1500     2.3740     1.4030 H     1 <1>   0.0800 
 32 H        1.6920     2.8120    -1.7720 H     1 <1>   0.0800 
 33 H        2.0580     3.5120    -0.2450 H     1 <1>   0.0800 
 34 H        0.7440     1.6100     2.5830 H     1 <1>   0.1500 
 35 H        2.0580     0.4310    -1.3230 H     1 <1>   0.1500 
 36 H       -1.3490     5.0060     0.6800 H     1 <1>   0.0800 
 37 H       -2.3740     3.7520     0.0220 H     1 <1>   0.0800 
 38 H        0.7030     4.7840    -2.3030 H     1 <1>   0.0800 
 39 H        0.7790     5.3450    -0.6450 H     1 <1>   0.0800 
 40 H       -4.9470    -0.6180    -0.2890 H     1 <1>   0.1500 
 41 H       -3.4520     2.9270    -2.1360 H     1 <1>   0.1500 
 42 H        2.2280    -0.0210     3.5620 H     1 <1>   0.1500 
 43 H        3.5450    -1.2030    -0.3060 H     1 <1>   0.1500 
 44 H       -6.9830     0.5460     0.3260 H     1 <1>   0.1500 
 45 H       -5.5190     4.1080    -1.5140 H     1 <1>   0.1500 
 46 H        3.6430    -1.4430     2.1420 H     1 <1>   0.1500 
 47 H       -8.3650     1.9550     1.1370 H     1 <1>   0.0800 
 48 H       -9.7270     2.5590    -1.5280 H     1 <1>   0.0800 
 49 H      -10.3650     1.4850    -0.3080 H     1 <1>   0.0800 
 50 H       -8.8970     1.0660    -1.1460 H     1 <1>   0.0800 
 51 H       -9.7210     4.4740     0.1430 H     1 <1>   0.0800 
 52 H       -8.8580     4.2930     1.6590 H     1 <1>   0.0800 
 53 H      -10.3460     3.4210     1.3900 H     1 <1>   0.0800 
@<TRIPOS>BOND
  1   1   2  2   
  2   2   3  am  
  3   2   4  1   
  4   3   5  1   
  5   3  27  1   
  6   4   6  1   
  7   4   7  1   
  8   4   8  1   
  9   5   9  1   
 10   5  28  1   
 11   5  29  1   
 12   6  10  ar  
 13   6  11  ar  
 14   7  12  1   
 15   7  30  1   
 16   7  31  1   
 17   8  13  1   
 18   8  32  1   
 19   8  33  1   
 20   9  14  ar  
 21   9  15  ar  
 22  10  16  ar  
 23  10  34  1   
 24  11  17  ar  
 25  11  35  1   
 26  12  18  1   
 27  12  36  1   
 28  12  37  1   
 29  13  18  1   
 30  13  38  1   
 31  13  39  1   
 32  14  19  ar  
 33  14  40  1   
 34  15  20  ar  
 35  15  41  1   
 36  16  21  ar  
 37  16  42  1   
 38  17  21  ar  
 39  17  43  1   
 40  19  22  ar  
 41  19  44  1   
 42  20  22  ar  
 43  20  45  1   
 44  21  46  1   
 45  22  23  1   
 46  23  24  1   
 47  24  25  1   
 48  24  26  1   
 49  24  47  1   
 50  25  48  1   
 51  25  49  1   
 52  25  50  1   
 53  26  51  1   
 54  26  52  1   
 55  26  53  1   
@<TRIPOS>SUBSTRUCTURE
  1 ****   3 GROUP 4 **** **** 0

# MOE 2024.06 (io_trps.svl 2023.06)
