@<TRIPOS>MOLECULE
NONAME
32 32 1 0 0 
SMALL
USER_CHARGES


@<TRIPOS>ATOM
  1 CL       0.6380     0.5130    -1.6190 Cl    1 <1>  -0.1770 
  2 C        1.4060     1.8330    -0.7720 C.ar  1 <1>   0.1770 
  3 C        2.7680     1.7950    -0.5480 C.ar  1 <1>  -0.1500 
  4 C        0.6330     2.8930    -0.3410 C.ar  1 <1>  -0.1500 
  5 C        3.3880     2.8420     0.1240 C.ar  1 <1>   0.1170 
  6 C        1.2370     3.9410     0.3340 C.ar  1 <1>  -0.1500 
  7 N        4.7690     2.8720     0.3900 N.am  1 <1>  -0.5470 
  8 C        2.6100     3.9200     0.5690 C.ar  1 <1>   0.0830 
  9 C        5.8210     2.1220    -0.0500 C.2   1 <1>   0.5690 
 10 O        3.2620     4.9250     1.2300 O.3   1 <1>  -0.3630 
 11 O        5.7160     1.1870    -0.8030 O.2   1 <1>  -0.5700 
 12 C        7.2060     2.4960     0.4490 C.3   1 <1>  -0.0990 
 13 C        2.5780     6.0790     1.6670 C.3   1 <1>   0.0400 
 14 C        7.9260     3.5230    -0.4440 C.3   1 <1>  -0.1600 
 15 C        7.2390     4.8960    -0.4600 C.3   1 <1>  -0.1600 
 16 C        8.0500     5.9030    -1.2800 C.3   1 <1>  -0.2400 
 17 H        3.3270     0.9490    -0.8990 H     1 <1>   0.1500 
 18 H       -0.4260     2.8930    -0.5310 H     1 <1>   0.1500 
 19 H        0.6210     4.7560     0.6640 H     1 <1>   0.1500 
 20 H        5.0210     3.6790     0.9630 H     1 <1>   0.3700 
 21 H        7.7940     1.5970     0.4820 H     1 <1>   0.0800 
 22 H        7.1360     2.8690     1.4550 H     1 <1>   0.0800 
 23 H        3.2910     6.7340     2.1350 H     1 <1>   0.0800 
 24 H        1.8260     5.7920     2.3800 H     1 <1>   0.0800 
 25 H        2.1380     6.5690     0.8160 H     1 <1>   0.0800 
 26 H        7.9790     3.1360    -1.4480 H     1 <1>   0.0800 
 27 H        8.9340     3.6380    -0.0850 H     1 <1>   0.0800 
 28 H        7.1340     5.2660     0.5460 H     1 <1>   0.0800 
 29 H        6.2570     4.8130    -0.8940 H     1 <1>   0.0800 
 30 H        9.0310     6.0320    -0.8570 H     1 <1>   0.0800 
 31 H        7.5530     6.8570    -1.2870 H     1 <1>   0.0800 
 32 H        8.1510     5.5640    -2.2960 H     1 <1>   0.0800 
@<TRIPOS>BOND
  1   1   2  1   
  2   2   3  ar  
  3   2   4  ar  
  4   3   5  ar  
  5   3  17  1   
  6   4   6  ar  
  7   4  18  1   
  8   5   7  1   
  9   5   8  ar  
 10   6   8  ar  
 11   6  19  1   
 12   7   9  am  
 13   7  20  1   
 14   8  10  1   
 15   9  11  2   
 16   9  12  1   
 17  10  13  1   
 18  12  14  1   
 19  12  21  1   
 20  12  22  1   
 21  13  23  1   
 22  13  24  1   
 23  13  25  1   
 24  14  15  1   
 25  14  26  1   
 26  14  27  1   
 27  15  16  1   
 28  15  28  1   
 29  15  29  1   
 30  16  30  1   
 31  16  31  1   
 32  16  32  1   
@<TRIPOS>SUBSTRUCTURE
  1 ****   5 GROUP 4 **** **** 0

# MOE 2024.06 (io_trps.svl 2023.06)
