@<TRIPOS>MOLECULE
NONAME
54 56 1 0 0 
SMALL
USER_CHARGES


@<TRIPOS>ATOM
  1 S       -0.1710     0.2380     0.1060 S.o2  1 <1>   1.4470 
  2 O       -0.1470     0.7410     1.4640 O.2   1 <1>  -0.6500 
  3 O       -0.8780     1.0350    -0.8740 O.2   1 <1>  -0.6500 
  4 N        1.4560     0.2150    -0.3780 N.am  1 <1>  -0.8490 
  5 C       -0.6710    -1.5290    -0.0270 C.ar  1 <1>  -0.0090 
  6 C        2.2970    -0.5290     0.5730 C.3   1 <1>   0.1960 
  7 C        1.9680     1.5750    -0.5630 C.3   1 <1>   0.1960 
  8 C       -0.7680    -2.1430    -1.2850 C.ar  1 <1>  -0.1440 
  9 C       -0.9420    -2.3280     1.0970 C.ar  1 <1>  -0.1430 
 10 C        3.7220    -0.6830     0.0220 C.3   1 <1>  -0.0190 
 11 C        3.3900     1.5330    -1.1350 C.3   1 <1>  -0.1600 
 12 C       -1.1230    -3.4780    -1.4050 C.ar  1 <1>  -0.1500 
 13 C       -0.4990    -1.3950    -2.5890 C.3   1 <1>  -0.0970 
 14 C       -1.2930    -3.6620     0.9530 C.ar  1 <1>  -0.1500 
 15 C       -0.8730    -1.8080     2.5290 C.3   1 <1>  -0.0970 
 16 C        4.5870    -1.4980     0.9810 C.2   1 <1>   0.5690 
 17 C        4.3320     0.7050    -0.2510 C.3   1 <1>  -0.1600 
 18 C       -1.3850    -4.2460    -0.2920 C.ar  1 <1>  -0.1430 
 19 O        4.3320    -1.4330     2.1620 O.2   1 <1>  -0.5700 
 20 N        5.6230    -2.2770     0.5220 N.am  1 <1>  -0.6600 
 21 C       -1.7740    -5.7060    -0.4340 C.3   1 <1>  -0.0970 
 22 C        6.1130    -2.3600    -0.8890 C.3   1 <1>   0.1400 
 23 C        6.4130    -3.1400     1.4540 C.3   1 <1>   0.1400 
 24 C        7.6390    -2.1820    -0.9480 C.3   1 <1>   0.1200 
 25 C        7.9210    -2.9160     1.2610 C.3   1 <1>   0.1200 
 26 O        8.2750    -3.0780    -0.0830 O.3   1 <1>  -0.5600 
 27 H        1.8870    -1.5110     0.7360 H     1 <1>   0.0800 
 28 H        2.3210    -0.0160     1.5220 H     1 <1>   0.0800 
 29 H        1.9610     2.1000     0.3790 H     1 <1>   0.0800 
 30 H        1.3340     2.1130    -1.2500 H     1 <1>   0.0800 
 31 H        3.6280    -1.2250    -0.9000 H     1 <1>   0.0800 
 32 H        3.7650     2.5370    -1.2240 H     1 <1>   0.0800 
 33 H        3.3490     1.1090    -2.1240 H     1 <1>   0.0800 
 34 H       -1.2000    -3.9300    -2.3780 H     1 <1>   0.1500 
 35 H       -1.2650    -0.6600    -2.7590 H     1 <1>   0.0800 
 36 H       -0.4950    -2.0640    -3.4300 H     1 <1>   0.0800 
 37 H        0.4580    -0.9060    -2.5620 H     1 <1>   0.0800 
 38 H       -1.5000    -4.2620     1.8220 H     1 <1>   0.1500 
 39 H        0.1190    -1.4600     2.7570 H     1 <1>   0.0800 
 40 H       -1.1180    -2.5750     3.2410 H     1 <1>   0.0800 
 41 H       -1.5720    -1.0020     2.6680 H     1 <1>   0.0800 
 42 H        5.2920     0.6070    -0.7270 H     1 <1>   0.0800 
 43 H        4.4780     1.2150     0.6870 H     1 <1>   0.0800 
 44 H       -1.3140    -6.1350    -1.3060 H     1 <1>   0.0800 
 45 H       -2.8420    -5.7900    -0.5280 H     1 <1>   0.0800 
 46 H       -1.4550    -6.2670     0.4260 H     1 <1>   0.0800 
 47 H        5.6590    -1.6090    -1.5070 H     1 <1>   0.0800 
 48 H        5.8570    -3.3240    -1.2940 H     1 <1>   0.0800 
 49 H        6.1820    -4.1720     1.2600 H     1 <1>   0.0800 
 50 H        6.1570    -2.9330     2.4790 H     1 <1>   0.0800 
 51 H        7.9160    -1.1800    -0.6690 H     1 <1>   0.0800 
 52 H        8.0000    -2.3760    -1.9420 H     1 <1>   0.0800 
 53 H        8.4790    -3.6330     1.8370 H     1 <1>   0.0800 
 54 H        8.2010    -1.9260     1.5780 H     1 <1>   0.0800 
@<TRIPOS>BOND
  1   1   2  2   
  2   1   3  2   
  3   1   4  am  
  4   1   5  1   
  5   4   6  1   
  6   4   7  1   
  7   5   8  ar  
  8   5   9  ar  
  9   6  10  1   
 10   6  27  1   
 11   6  28  1   
 12   7  11  1   
 13   7  29  1   
 14   7  30  1   
 15   8  12  ar  
 16   8  13  1   
 17   9  14  ar  
 18   9  15  1   
 19  10  16  1   
 20  10  17  1   
 21  10  31  1   
 22  11  17  1   
 23  11  32  1   
 24  11  33  1   
 25  12  18  ar  
 26  12  34  1   
 27  13  35  1   
 28  13  36  1   
 29  13  37  1   
 30  14  18  ar  
 31  14  38  1   
 32  15  39  1   
 33  15  40  1   
 34  15  41  1   
 35  16  19  2   
 36  16  20  am  
 37  17  42  1   
 38  17  43  1   
 39  18  21  1   
 40  20  22  1   
 41  20  23  1   
 42  21  44  1   
 43  21  45  1   
 44  21  46  1   
 45  22  24  1   
 46  22  47  1   
 47  22  48  1   
 48  23  25  1   
 49  23  49  1   
 50  23  50  1   
 51  24  26  1   
 52  24  51  1   
 53  24  52  1   
 54  25  26  1   
 55  25  53  1   
 56  25  54  1   
@<TRIPOS>SUBSTRUCTURE
  1 ****   6 GROUP 4 **** **** 0

# MOE 2024.06 (io_trps.svl 2023.06)
