@<TRIPOS>MOLECULE
NONAME
50 52 1 0 0 
SMALL
USER_CHARGES


@<TRIPOS>ATOM
  1 F        0.7000     1.9940    -0.0740 F     1 <1>  -0.3400 
  2 C        1.7070     1.5940    -0.8420 C.3   1 <1>   1.1640 
  3 F        1.5320     0.2900    -1.0300 F     1 <1>  -0.3400 
  4 F        1.5260     2.1680    -2.0240 F     1 <1>  -0.3400 
  5 C        3.0840     1.9230    -0.2450 C.ar  1 <1>  -0.1440 
  6 C        4.1990     1.1640    -0.5830 C.ar  1 <1>  -0.1500 
  7 C        3.2510     2.9900     0.6330 C.ar  1 <1>  -0.1500 
  8 C        5.4570     1.4410    -0.0620 C.ar  1 <1>   0.1000 
  9 C        4.4980     3.2810     1.1580 C.ar  1 <1>  -0.1500 
 10 N        6.5390     0.6420    -0.4220 N.pl3 1 <1>  -0.8380 
 11 C        5.5920     2.5110     0.8140 C.ar  1 <1>  -0.1500 
 12 C        7.8490     1.2560    -0.8010 C.3   1 <1>   0.2090 
 13 C        6.5720    -0.7740     0.0490 C.3   1 <1>   0.2090 
 14 C        8.9330     0.9870     0.2660 C.3   1 <1>   0.3430 
 15 C        7.6750    -0.9890     1.1070 C.3   1 <1>   0.3430 
 16 N        9.0170    -0.4690     0.6600 N.4   1 <1>  -0.9590 
 17 C       10.0740    -0.7050     1.6800 C.3   1 <1>   0.4860 
 18 C       11.4100    -0.3030     1.0870 C.ar  1 <1>  -0.1430 
 19 C       11.9980    -1.0770     0.0980 C.ar  1 <1>  -0.1500 
 20 C       12.0490     0.8490     1.5220 C.ar  1 <1>  -0.1500 
 21 C       13.2040    -0.7030    -0.4690 C.ar  1 <1>  -0.1430 
 22 C       13.2550     1.2290     0.9630 C.ar  1 <1>  -0.1500 
 23 C       13.8390     0.4580    -0.0390 C.ar  1 <1>   0.0830 
 24 C       13.8340    -1.5650    -1.5560 C.3   1 <1>  -0.0970 
 25 O       15.0190     0.7860    -0.6270 O.3   1 <1>  -0.3630 
 26 C       15.7980     1.8750    -0.1860 C.3   1 <1>   0.0400 
 27 H        4.1060     0.3420    -1.2710 H     1 <1>   0.1500 
 28 H        2.4100     3.6050     0.9140 H     1 <1>   0.1500 
 29 H        4.6110     4.1100     1.8370 H     1 <1>   0.1500 
 30 H        6.5500     2.7470     1.2320 H     1 <1>   0.1500 
 31 H        7.7290     2.3180    -0.9350 H     1 <1>   0.0800 
 32 H        8.1660     0.8490    -1.7460 H     1 <1>   0.0800 
 33 H        6.7410    -1.4220    -0.7940 H     1 <1>   0.0800 
 34 H        5.6180    -1.0370     0.4750 H     1 <1>   0.0800 
 35 H        8.7020     1.5810     1.1340 H     1 <1>   0.0800 
 36 H        9.8840     1.3210    -0.1160 H     1 <1>   0.0800 
 37 H        7.7420    -2.0400     1.3320 H     1 <1>   0.0800 
 38 H        7.3730    -0.4770     2.0070 H     1 <1>   0.0800 
 39 H        9.3010    -0.9800    -0.1850 H     1 <1>   0.4500 
 40 H       10.1060    -1.7480     1.9510 H     1 <1>   0.0800 
 41 H        9.8750    -0.1260     2.5670 H     1 <1>   0.0800 
 42 H       11.5260    -1.9840    -0.2390 H     1 <1>   0.1500 
 43 H       11.6230     1.4620     2.2980 H     1 <1>   0.1500 
 44 H       13.7290     2.1250     1.3170 H     1 <1>   0.1500 
 45 H       13.2320    -2.4270    -1.7780 H     1 <1>   0.0800 
 46 H       14.8050    -1.9000    -1.2340 H     1 <1>   0.0800 
 47 H       13.9550    -0.9880    -2.4550 H     1 <1>   0.0800 
 48 H       16.6980     1.9010    -0.7740 H     1 <1>   0.0800 
 49 H       16.0450     1.7320     0.8510 H     1 <1>   0.0800 
 50 H       15.2430     2.7850    -0.3310 H     1 <1>   0.0800 
@<TRIPOS>BOND
  1   1   2  1   
  2   2   3  1   
  3   2   4  1   
  4   2   5  1   
  5   5   6  ar  
  6   5   7  ar  
  7   6   8  ar  
  8   6  27  1   
  9   7   9  ar  
 10   7  28  1   
 11   8  10  1   
 12   8  11  ar  
 13   9  11  ar  
 14   9  29  1   
 15  10  12  1   
 16  10  13  1   
 17  11  30  1   
 18  12  14  1   
 19  12  31  1   
 20  12  32  1   
 21  13  15  1   
 22  13  33  1   
 23  13  34  1   
 24  14  16  1   
 25  14  35  1   
 26  14  36  1   
 27  15  16  1   
 28  15  37  1   
 29  15  38  1   
 30  16  17  1   
 31  16  39  1   
 32  17  18  1   
 33  17  40  1   
 34  17  41  1   
 35  18  19  ar  
 36  18  20  ar  
 37  19  21  ar  
 38  19  42  1   
 39  20  22  ar  
 40  20  43  1   
 41  21  23  ar  
 42  21  24  1   
 43  22  23  ar  
 44  22  44  1   
 45  23  25  1   
 46  24  45  1   
 47  24  46  1   
 48  24  47  1   
 49  25  26  1   
 50  26  48  1   
 51  26  49  1   
 52  26  50  1   
@<TRIPOS>SUBSTRUCTURE
  1 ****  14 GROUP 4 **** **** 0

# MOE 2024.06 (io_trps.svl 2023.06)
