@<TRIPOS>MOLECULE
NONAME
34 35 1 0 0 
SMALL
USER_CHARGES


@<TRIPOS>ATOM
  1 BR      -0.3960     0.4190     0.3290 Br    1 <1>  -0.1110 
  2 C       -2.1600     1.1680     0.1400 C.ar  1 <1>   0.1110 
  3 C       -3.1360     0.4220    -0.4940 C.ar  1 <1>  -0.1500 
  4 C       -2.4050     2.4320     0.6410 C.ar  1 <1>  -0.1500 
  5 C       -4.4050     0.9610    -0.6290 C.ar  1 <1>  -0.1500 
  6 C       -3.6760     2.9610     0.5010 C.ar  1 <1>  -0.1500 
  7 C       -4.6800     2.2350    -0.1270 C.ar  1 <1>   0.0820 
  8 O       -5.8910     2.8410    -0.2110 O.3   1 <1>  -0.3630 
  9 C       -7.0390     2.1910    -0.7220 C.3   1 <1>   0.4800 
 10 O       -7.9190     3.2240    -1.1020 O.3   1 <1>  -0.5600 
 11 C       -7.6730     1.2600     0.3530 C.3   1 <1>   0.2000 
 12 C       -8.5830     3.8380    -0.0290 C.3   1 <1>   0.2000 
 13 O       -7.3460    -0.0810     0.1450 O.3   1 <1>  -0.6800 
 14 C       -9.2020     1.3930     0.3430 C.3   1 <1>   0.2000 
 15 C       -9.6680     2.8580     0.4970 C.3   1 <1>   0.2000 
 16 C       -9.0460     5.2630    -0.4180 C.3   1 <1>   0.1200 
 17 O       -9.7730     0.5940     1.3330 O.3   1 <1>  -0.6800 
 18 O      -10.8710     2.9820    -0.2000 O.3   1 <1>  -0.6800 
 19 O      -10.0100     5.2780    -1.4210 O.3   1 <1>  -0.6800 
 20 H       -2.9070    -0.5590    -0.8710 H     1 <1>   0.1500 
 21 H       -1.6210     2.9850     1.1270 H     1 <1>   0.1500 
 22 H       -5.1540     0.3730    -1.1230 H     1 <1>   0.1500 
 23 H       -3.8970     3.9440     0.8790 H     1 <1>   0.1500 
 24 H       -6.7800     1.6490    -1.6140 H     1 <1>   0.0800 
 25 H       -7.2960     1.5380     1.3220 H     1 <1>   0.0800 
 26 H       -7.8570     3.9740     0.7550 H     1 <1>   0.0800 
 27 H       -7.9020    -0.6200     0.7490 H     1 <1>   0.4000 
 28 H       -9.5450     1.0230    -0.6090 H     1 <1>   0.0800 
 29 H       -9.8680     3.0840     1.5300 H     1 <1>   0.0800 
 30 H       -8.2020     5.8330    -0.7660 H     1 <1>   0.0800 
 31 H       -9.4630     5.7600     0.4400 H     1 <1>   0.0800 
 32 H      -10.7480     0.6880     1.2990 H     1 <1>   0.4000 
 33 H      -10.6850     2.8940    -1.1610 H     1 <1>   0.4000 
 34 H      -10.8160     4.8240    -1.0940 H     1 <1>   0.4000 
@<TRIPOS>BOND
  1   1   2  1   
  2   2   3  ar  
  3   2   4  ar  
  4   3   5  ar  
  5   3  20  1   
  6   4   6  ar  
  7   4  21  1   
  8   5   7  ar  
  9   5  22  1   
 10   6   7  ar  
 11   6  23  1   
 12   7   8  1   
 13   8   9  1   
 14   9  10  1   
 15   9  11  1   
 16   9  24  1   
 17  10  12  1   
 18  11  13  1   
 19  11  14  1   
 20  11  25  1   
 21  12  15  1   
 22  12  16  1   
 23  12  26  1   
 24  13  27  1   
 25  14  15  1   
 26  14  17  1   
 27  14  28  1   
 28  15  18  1   
 29  15  29  1   
 30  16  19  1   
 31  16  30  1   
 32  16  31  1   
 33  17  32  1   
 34  18  33  1   
 35  19  34  1   
@<TRIPOS>SUBSTRUCTURE
  1 ****   9 GROUP 4 **** **** 0

# MOE 2024.06 (io_trps.svl 2023.06)
