@<TRIPOS>MOLECULE
NONAME
40 42 1 0 0 
SMALL
USER_CHARGES


@<TRIPOS>ATOM
  1 S        0.2710     0.2380     0.3140 S.o2  1 <1>   1.5000 
  2 O        0.7680     0.5890     1.6270 O.2   1 <1>  -0.6500 
  3 O       -0.4330     1.2350    -0.4610 O.2   1 <1>  -0.6500 
  4 N        1.6220    -0.2400    -0.5930 N.am  1 <1>  -0.8490 
  5 C       -0.7310    -1.2650     0.4330 C.2   1 <1>  -0.0220 
  6 C        2.3650     0.9270    -1.1020 C.3   1 <1>   0.1960 
  7 C        2.5190    -1.1300     0.1650 C.3   1 <1>   0.1960 
  8 S       -0.8910    -2.2790    -1.0010 S.3   1 <1>  -0.0800 
  9 C       -1.4440    -1.8080     1.4420 C.2   1 <1>  -0.1500 
 10 C        3.5430     0.5040    -1.9960 C.3   1 <1>   0.1400 
 11 C        3.6960    -1.6180    -0.6970 C.3   1 <1>   0.1400 
 12 C       -1.9230    -3.4190    -0.1590 C.2   1 <1>  -0.1100 
 13 C       -2.1160    -3.0280     1.1120 C.2   1 <1>  -0.1500 
 14 N        4.4370    -0.4570    -1.2790 N.am  1 <1>  -0.6600 
 15 C        5.7290    -0.1300    -0.9270 C.2   1 <1>   0.7160 
 16 O        6.1200     1.0070    -1.1020 O.2   1 <1>  -0.5700 
 17 C        6.6080    -1.1010    -0.3320 C.2   1 <1>  -0.0860 
 18 C        7.2570    -1.0940     0.8500 C.2   1 <1>  -0.0400 
 19 C        7.0040    -2.3240    -0.8500 C.2   1 <1>   0.1080 
 20 O        7.9420    -2.1940     1.0470 O.3   1 <1>  -0.0190 
 21 C        7.2880    -0.0240     1.9240 C.3   1 <1>  -0.0600 
 22 N        7.7630    -2.9360    -0.0230 N.2   1 <1>  -0.4100 
 23 C        6.6280    -2.8820    -2.2070 C.3   1 <1>  -0.0590 
 24 H        2.7350     1.5180    -0.2800 H     1 <1>   0.0800 
 25 H        1.7070     1.5500    -1.6850 H     1 <1>   0.0800 
 26 H        1.9680    -1.9880     0.5120 H     1 <1>   0.0800 
 27 H        2.9100    -0.6160     1.0290 H     1 <1>   0.0800 
 28 H       -1.5270    -1.3870     2.4310 H     1 <1>   0.1500 
 29 H        4.0880     1.3800    -2.3030 H     1 <1>   0.0800 
 30 H        3.1580     0.0330    -2.8830 H     1 <1>   0.0800 
 31 H        3.3170    -2.2320    -1.4950 H     1 <1>   0.0800 
 32 H        4.3420    -2.2250    -0.0880 H     1 <1>   0.0800 
 33 H       -2.2820    -4.2690    -0.7130 H     1 <1>   0.1500 
 34 H       -2.7120    -3.5480     1.8430 H     1 <1>   0.1500 
 35 H        6.6960     0.8250     1.6320 H     1 <1>   0.0800 
 36 H        8.3010     0.3010     2.0810 H     1 <1>   0.0800 
 37 H        6.9020    -0.4200     2.8460 H     1 <1>   0.0800 
 38 H        6.5660    -2.0910    -2.9320 H     1 <1>   0.0800 
 39 H        5.6810    -3.3850    -2.1480 H     1 <1>   0.0800 
 40 H        7.3740    -3.5860    -2.5290 H     1 <1>   0.0800 
@<TRIPOS>BOND
  1   1   2  2   
  2   1   3  2   
  3   1   4  am  
  4   1   5  1   
  5   4   6  1   
  6   4   7  1   
  7   5   8  1   
  8   5   9  2   
  9   6  10  1   
 10   6  24  1   
 11   6  25  1   
 12   7  11  1   
 13   7  26  1   
 14   7  27  1   
 15   8  12  1   
 16   9  13  1   
 17   9  28  1   
 18  10  14  1   
 19  10  29  1   
 20  10  30  1   
 21  11  14  1   
 22  11  31  1   
 23  11  32  1   
 24  12  13  2   
 25  12  33  1   
 26  13  34  1   
 27  14  15  am  
 28  15  16  2   
 29  15  17  1   
 30  17  18  2   
 31  17  19  1   
 32  18  20  1   
 33  18  21  1   
 34  19  22  2   
 35  19  23  1   
 36  20  22  1   
 37  21  35  1   
 38  21  36  1   
 39  21  37  1   
 40  23  38  1   
 41  23  39  1   
 42  23  40  1   
@<TRIPOS>SUBSTRUCTURE
  1 ****   7 GROUP 4 **** **** 0

# MOE 2024.06 (io_trps.svl 2023.06)
