@<TRIPOS>MOLECULE
NONAME
46 49 1 0 0 
SMALL
USER_CHARGES


@<TRIPOS>ATOM
  1 O       -2.3280    -7.7900     0.7430 O.3   1 <1>  -0.3630 
  2 C       -2.7100    -6.5210     0.4600 C.ar  1 <1>   0.0830 
  3 C       -3.2220    -8.8730     0.6210 C.3   1 <1>   0.0400 
  4 C       -1.7550    -5.5320     0.6160 C.ar  1 <1>  -0.1500 
  5 C       -3.9870    -6.1720     0.0300 C.ar  1 <1>  -0.1500 
  6 C       -2.0610    -4.2100     0.3500 C.ar  1 <1>  -0.1500 
  7 C       -4.2930    -4.8490    -0.2340 C.ar  1 <1>  -0.1500 
  8 C       -3.3360    -3.8560    -0.0750 C.ar  1 <1>  -0.1430 
  9 C       -3.6940    -2.4060    -0.3610 C.3   1 <1>   0.3430 
 10 O       -2.7590    -1.9150    -1.2610 O.3   1 <1>  -0.6800 
 11 C       -3.6910    -1.5600     0.9290 C.3   1 <1>   0.1680 
 12 N       -4.1600    -0.1490     0.7390 N.pl3 1 <1>  -0.7050 
 13 C       -3.5220     0.8560     0.1280 C.cat 1 <1>   1.2000 
 14 C       -5.2890     0.4080     1.3310 C.ar  1 <1>   0.3110 
 15 N       -2.4110     0.7700    -0.5800 N.pl3 1 <1>  -0.8440 
 16 N       -4.1500     2.0170     0.2980 N.pl3 1 <1>  -0.7050 
 17 C       -5.2810     1.7650     1.0510 C.ar  1 <1>   0.3110 
 18 C       -6.3180    -0.1480     2.0850 C.ar  1 <1>  -0.1500 
 19 C       -1.7700     1.9200    -1.2550 C.3   1 <1>   0.1680 
 20 C       -3.6920     3.2990    -0.2800 C.3   1 <1>   0.1680 
 21 C       -6.2930     2.5980     1.5110 C.ar  1 <1>  -0.1500 
 22 C       -7.3260     0.6780     2.5450 C.ar  1 <1>  -0.1500 
 23 C       -2.1800     3.2190    -0.5440 C.3   1 <1>  -0.1600 
 24 C       -7.3140     2.0450     2.2590 C.ar  1 <1>  -0.1500 
 25 H       -2.7000    -9.7700     0.8990 H     1 <1>   0.0800 
 26 H       -3.5490    -8.9420    -0.4020 H     1 <1>   0.0800 
 27 H       -4.0550    -8.7150     1.2830 H     1 <1>   0.0800 
 28 H       -0.7690    -5.8090     0.9460 H     1 <1>   0.1500 
 29 H       -4.7490    -6.9160    -0.1030 H     1 <1>   0.1500 
 30 H       -1.2960    -3.4630     0.4770 H     1 <1>   0.1500 
 31 H       -5.2880    -4.6040    -0.5670 H     1 <1>   0.1500 
 32 H       -4.6630    -2.3550    -0.8280 H     1 <1>   0.0800 
 33 H       -2.5740    -2.6270    -1.9120 H     1 <1>   0.4000 
 34 H       -2.6960    -1.5530     1.3420 H     1 <1>   0.0800 
 35 H       -4.3230    -2.0480     1.6480 H     1 <1>   0.0800 
 36 H       -2.1350    -0.1830    -0.8570 H     1 <1>   0.4500 
 37 H       -6.3300    -1.2000     2.3060 H     1 <1>   0.1500 
 38 H       -2.0850     1.9470    -2.2860 H     1 <1>   0.0800 
 39 H       -0.6980     1.8100    -1.2280 H     1 <1>   0.0800 
 40 H       -3.9030     4.1080     0.4000 H     1 <1>   0.0800 
 41 H       -4.2190     3.4780    -1.2030 H     1 <1>   0.0800 
 42 H       -6.2750     3.6490     1.2860 H     1 <1>   0.1500 
 43 H       -8.1350     0.2710     3.1310 H     1 <1>   0.1500 
 44 H       -1.8740     4.0630    -1.1360 H     1 <1>   0.0800 
 45 H       -1.6560     3.2860     0.3930 H     1 <1>   0.0800 
 46 H       -8.1130     2.6680     2.6290 H     1 <1>   0.1500 
@<TRIPOS>BOND
  1   1   2  1   
  2   1   3  1   
  3   2   4  ar  
  4   2   5  ar  
  5   3  25  1   
  6   3  26  1   
  7   3  27  1   
  8   4   6  ar  
  9   4  28  1   
 10   5   7  ar  
 11   5  29  1   
 12   6   8  ar  
 13   6  30  1   
 14   7   8  ar  
 15   7  31  1   
 16   8   9  1   
 17   9  10  1   
 18   9  11  1   
 19   9  32  1   
 20  10  33  1   
 21  11  12  1   
 22  11  34  1   
 23  11  35  1   
 24  12  13  ar  
 25  12  14  1   
 26  13  15  ar  
 27  13  16  ar  
 28  14  17  ar  
 29  14  18  ar  
 30  15  19  1   
 31  15  36  1   
 32  16  17  1   
 33  16  20  1   
 34  17  21  ar  
 35  18  22  ar  
 36  18  37  1   
 37  19  23  1   
 38  19  38  1   
 39  19  39  1   
 40  20  23  1   
 41  20  40  1   
 42  20  41  1   
 43  21  24  ar  
 44  21  42  1   
 45  22  24  ar  
 46  22  43  1   
 47  23  44  1   
 48  23  45  1   
 49  24  46  1   
@<TRIPOS>SUBSTRUCTURE
  1 ****  11 GROUP 4 **** **** 0

# MOE 2024.06 (io_trps.svl 2023.06)
