@<TRIPOS>MOLECULE
NONAME
40 40 1 0 0 
SMALL
USER_CHARGES


@<TRIPOS>ATOM
  1 CL       0.3240    -0.5510    -1.9710 Cl    1 <1>  -0.1770 
  2 C       -0.8050     0.4590    -1.0860 C.ar  1 <1>   0.1770 
  3 C       -0.5020     1.7660    -0.6870 C.ar  1 <1>   0.0830 
  4 C       -2.0370    -0.1020    -0.8120 C.ar  1 <1>  -0.1500 
  5 O        0.6970     2.3810    -0.8980 O.3   1 <1>  -0.3630 
  6 C       -1.4830     2.5080    -0.0310 C.ar  1 <1>  -0.1440 
  7 C       -3.0000     0.6320    -0.1430 C.ar  1 <1>  -0.1430 
  8 C        1.9030     1.6790    -0.7230 C.3   1 <1>   0.1200 
  9 C       -2.7170     1.9340     0.2370 C.ar  1 <1>  -0.1500 
 10 C       -1.2240     3.9460     0.3990 C.3   1 <1>  -0.0960 
 11 C       -4.3590     0.0270     0.1620 C.3   1 <1>  -0.0970 
 12 C        2.9680     2.6830    -0.2740 C.3   1 <1>   0.3430 
 13 N        4.3370     2.0720    -0.1570 N.4   1 <1>  -0.9590 
 14 C        4.4050     1.0370     0.9130 C.3   1 <1>   0.3430 
 15 C        5.3470     3.1440     0.0470 C.3   1 <1>   0.3430 
 16 C        4.5440    -0.3290     0.2550 C.3   1 <1>  -0.2400 
 17 C        6.7350     2.6090    -0.2860 C.3   1 <1>  -0.2400 
 18 H       -2.2400    -1.1090    -1.1290 H     1 <1>   0.1500 
 19 H        2.1720     1.2470    -1.6700 H     1 <1>   0.0800 
 20 H        1.7480     0.9180     0.0210 H     1 <1>   0.0800 
 21 H       -3.4730     2.5060     0.7470 H     1 <1>   0.1500 
 22 H       -0.4440     3.9740     1.1370 H     1 <1>   0.0800 
 23 H       -2.1080     4.3900     0.8200 H     1 <1>   0.0800 
 24 H       -0.9240     4.5330    -0.4510 H     1 <1>   0.0800 
 25 H       -4.3060    -1.0470     0.1650 H     1 <1>   0.0800 
 26 H       -5.0710     0.3360    -0.5820 H     1 <1>   0.0800 
 27 H       -4.7040     0.3510     1.1280 H     1 <1>   0.0800 
 28 H        2.6750     3.1000     0.6750 H     1 <1>   0.0800 
 29 H        2.9970     3.4800    -1.0000 H     1 <1>   0.0800 
 30 H        4.5620     1.6120    -1.0500 H     1 <1>   0.4500 
 31 H        3.5180     1.0660     1.5260 H     1 <1>   0.0800 
 32 H        5.2570     1.2120     1.5500 H     1 <1>   0.0800 
 33 H        5.3170     3.4990     1.0650 H     1 <1>   0.0800 
 34 H        5.1320     3.9760    -0.6060 H     1 <1>   0.0800 
 35 H        3.6980    -0.5550    -0.3680 H     1 <1>   0.0800 
 36 H        4.5990    -1.0840     1.0200 H     1 <1>   0.0800 
 37 H        5.4470    -0.3830    -0.3260 H     1 <1>   0.0800 
 38 H        7.0290     1.8230     0.3860 H     1 <1>   0.0800 
 39 H        7.4520     3.4060    -0.1860 H     1 <1>   0.0800 
 40 H        6.7770     2.2550    -1.3000 H     1 <1>   0.0800 
@<TRIPOS>BOND
  1   1   2  1   
  2   2   3  ar  
  3   2   4  ar  
  4   3   5  1   
  5   3   6  ar  
  6   4   7  ar  
  7   4  18  1   
  8   5   8  1   
  9   6   9  ar  
 10   6  10  1   
 11   7   9  ar  
 12   7  11  1   
 13   8  12  1   
 14   8  19  1   
 15   8  20  1   
 16   9  21  1   
 17  10  22  1   
 18  10  23  1   
 19  10  24  1   
 20  11  25  1   
 21  11  26  1   
 22  11  27  1   
 23  12  13  1   
 24  12  28  1   
 25  12  29  1   
 26  13  14  1   
 27  13  15  1   
 28  13  30  1   
 29  14  16  1   
 30  14  31  1   
 31  14  32  1   
 32  15  17  1   
 33  15  33  1   
 34  15  34  1   
 35  16  35  1   
 36  16  36  1   
 37  16  37  1   
 38  17  38  1   
 39  17  39  1   
 40  17  40  1   
@<TRIPOS>SUBSTRUCTURE
  1 ****   5 GROUP 4 **** **** 0

# MOE 2024.06 (io_trps.svl 2023.06)
