@<TRIPOS>MOLECULE
NONAME
50 53 1 0 0 
SMALL
USER_CHARGES


@<TRIPOS>ATOM
  1 O       -1.8310     0.7550    -1.4590 O.co2 1 <1>  -0.9000 
  2 C       -1.9310    -0.2610    -2.1600 C.2   1 <1>   0.9060 
  3 O       -1.5700    -0.2780    -3.3440 O.co2 1 <1>  -0.9000 
  4 C       -2.4460    -1.5450    -1.5280 C.3   1 <1>   0.0140 
  5 O       -3.8670    -1.5720    -1.4050 O.3   1 <1>  -0.3630 
  6 C       -4.3600    -2.1030    -0.2680 C.ar  1 <1>   0.0830 
  7 C       -4.8540    -1.2690     0.7280 C.ar  1 <1>  -0.1440 
  8 C       -4.3820    -3.4810    -0.1200 C.ar  1 <1>  -0.1500 
  9 C       -5.3740    -1.8470     1.8800 C.ar  1 <1>  -0.1500 
 10 C       -4.8130     0.2500     0.5230 C.3   1 <1>   0.3440 
 11 C       -4.9000    -4.0430     1.0320 C.ar  1 <1>  -0.1500 
 12 C       -5.3960    -3.2240     2.0320 C.ar  1 <1>  -0.1500 
 13 O       -4.8550     0.8990     1.7710 O.3   1 <1>  -0.5600 
 14 C       -5.9350     0.8010    -0.4050 C.3   1 <1>   0.0580 
 15 C       -4.5280     2.2660     1.7490 C.3   1 <1>   0.2000 
 16 C       -6.2970     2.2520    -0.0630 C.2   1 <1>  -0.2760 
 17 C       -7.2240    -0.0500    -0.4330 C.3   1 <1>  -0.1600 
 18 C       -5.1330     3.0300     0.5340 C.3   1 <1>   0.0580 
 19 C       -3.0020     2.4220     1.8830 C.3   1 <1>  -0.1600 
 20 C       -7.5230     2.7640    -0.2280 C.2   1 <1>  -0.2880 
 21 C       -8.2950     0.6110    -1.3140 C.3   1 <1>  -0.1600 
 22 C       -4.0820     3.3760    -0.5360 C.3   1 <1>  -0.1600 
 23 C       -2.5700     3.8450     1.5080 C.3   1 <1>  -0.1600 
 24 C       -8.7100     1.9850    -0.7690 C.3   1 <1>  -0.0220 
 25 C       -2.8890     4.1660     0.0350 C.3   1 <1>  -0.1600 
 26 H       -2.0090    -1.6310    -0.5510 H     1 <1>   0.0800 
 27 H       -2.1480    -2.3780    -2.1340 H     1 <1>   0.0800 
 28 H       -3.9970    -4.0990    -0.9100 H     1 <1>   0.1500 
 29 H       -5.7620    -1.2190     2.6620 H     1 <1>   0.1500 
 30 H       -3.8630     0.4880     0.0800 H     1 <1>   0.0800 
 31 H       -4.9180    -5.1120     1.1500 H     1 <1>   0.1500 
 32 H       -5.8000    -3.6540     2.9310 H     1 <1>   0.1500 
 33 H       -5.5250     0.7870    -1.4010 H     1 <1>   0.0800 
 34 H       -4.9800     2.6780     2.6340 H     1 <1>   0.0800 
 35 H       -7.5960    -0.1610     0.5700 H     1 <1>   0.0800 
 36 H       -7.0040    -1.0280    -0.8240 H     1 <1>   0.0800 
 37 H       -5.5040     3.9690     0.9050 H     1 <1>   0.0800 
 38 H       -2.4930     1.7330     1.2310 H     1 <1>   0.0800 
 39 H       -2.7130     2.2030     2.8950 H     1 <1>   0.0800 
 40 H       -7.7720     3.7780     0.0310 H     1 <1>   0.1500 
 41 H       -9.1580    -0.0260    -1.3850 H     1 <1>   0.0800 
 42 H       -7.8930     0.7360    -2.3050 H     1 <1>   0.0800 
 43 H       -4.5410     3.9340    -1.3320 H     1 <1>   0.0800 
 44 H       -3.7040     2.4680    -0.9710 H     1 <1>   0.0800 
 45 H       -1.5130     3.9590     1.6750 H     1 <1>   0.0800 
 46 H       -3.0820     4.5450     2.1460 H     1 <1>   0.0800 
 47 H       -9.1900     2.5470    -1.5500 H     1 <1>   0.0800 
 48 H       -9.4180     1.8500     0.0310 H     1 <1>   0.0800 
 49 H       -3.0730     5.2220    -0.0610 H     1 <1>   0.0800 
 50 H       -2.0270     3.9310    -0.5690 H     1 <1>   0.0800 
@<TRIPOS>BOND
  1   1   2  ar  
  2   2   3  ar  
  3   2   4  1   
  4   4   5  1   
  5   4  26  1   
  6   4  27  1   
  7   5   6  1   
  8   6   7  ar  
  9   6   8  ar  
 10   7   9  ar  
 11   7  10  1   
 12   8  11  ar  
 13   8  28  1   
 14   9  12  ar  
 15   9  29  1   
 16  10  13  1   
 17  10  14  1   
 18  10  30  1   
 19  11  12  ar  
 20  11  31  1   
 21  12  32  1   
 22  13  15  1   
 23  14  16  1   
 24  14  17  1   
 25  14  33  1   
 26  15  18  1   
 27  15  19  1   
 28  15  34  1   
 29  16  18  1   
 30  16  20  2   
 31  17  21  1   
 32  17  35  1   
 33  17  36  1   
 34  18  22  1   
 35  18  37  1   
 36  19  23  1   
 37  19  38  1   
 38  19  39  1   
 39  20  24  1   
 40  20  40  1   
 41  21  24  1   
 42  21  41  1   
 43  21  42  1   
 44  22  25  1   
 45  22  43  1   
 46  22  44  1   
 47  23  25  1   
 48  23  45  1   
 49  23  46  1   
 50  24  47  1   
 51  24  48  1   
 52  25  49  1   
 53  25  50  1   
@<TRIPOS>SUBSTRUCTURE
  1 ****  10 GROUP 4 **** **** 0

# MOE 2024.06 (io_trps.svl 2023.06)
