@<TRIPOS>MOLECULE
NONAME
53 56 1 0 0 
SMALL
USER_CHARGES


@<TRIPOS>ATOM
  1 O       -2.9930     2.2170    -1.6980 O.2   1 <1>  -0.5700 
  2 C       -3.3760     3.2000    -1.0940 C.2   1 <1>   0.4690 
  3 C       -4.7890     3.3690    -0.8040 C.ar  1 <1>   0.0860 
  4 C       -2.4120     4.1900    -0.6620 C.2   1 <1>  -0.1240 
  5 C       -5.2180     4.3140     0.1340 C.ar  1 <1>  -0.1440 
  6 C       -5.7650     2.6030    -1.4430 C.ar  1 <1>  -0.1500 
  7 C       -1.0680     4.0150    -0.7640 C.2   1 <1>  -0.1780 
  8 C       -3.0070     5.4680    -0.0680 C.3   1 <1>  -0.0220 
  9 C       -6.5650     4.4800     0.4110 C.ar  1 <1>  -0.1500 
 10 C       -4.1820     5.1560     0.8610 C.3   1 <1>  -0.0160 
 11 C       -7.1100     2.7690    -1.1690 C.ar  1 <1>  -0.1500 
 12 C        0.0160     4.8930    -0.4220 C.ar  1 <1>   0.0280 
 13 C       -7.5120     3.7110    -0.2400 C.ar  1 <1>  -0.1500 
 14 C        1.0800     4.4160     0.3380 C.ar  1 <1>  -0.1500 
 15 C        0.0660     6.2180    -0.8480 C.ar  1 <1>  -0.1500 
 16 C        2.1530     5.2260     0.6700 C.ar  1 <1>  -0.1430 
 17 C        1.1260     7.0410    -0.5180 C.ar  1 <1>  -0.1500 
 18 C        2.1800     6.5490     0.2460 C.ar  1 <1>   0.0830 
 19 C        3.3000     4.6760     1.4920 C.3   1 <1>   0.4860 
 20 O        3.2560     7.2940     0.5960 O.3   1 <1>  -0.3630 
 21 N        4.2060     3.9180     0.5890 N.4   1 <1>  -0.9590 
 22 C        3.3000     8.6880     0.3620 C.3   1 <1>   0.0400 
 23 C        5.2080     3.1010     1.3510 C.3   1 <1>   0.3430 
 24 C        4.8980     4.8450    -0.3740 C.3   1 <1>   0.3430 
 25 C        6.2170     2.4250     0.4030 C.3   1 <1>   0.1200 
 26 C        5.9290     4.0940    -1.2390 C.3   1 <1>   0.1200 
 27 O        6.8150     3.3770    -0.4280 O.3   1 <1>  -0.5600 
 28 H       -5.4590     1.8650    -2.1660 H     1 <1>   0.1500 
 29 H       -0.7220     3.0750    -1.1610 H     1 <1>   0.1500 
 30 H       -2.2700     6.0160     0.4910 H     1 <1>   0.0800 
 31 H       -3.3520     6.0960    -0.8710 H     1 <1>   0.0800 
 32 H       -6.8880     5.2080     1.1350 H     1 <1>   0.1500 
 33 H       -4.6220     6.0770     1.2030 H     1 <1>   0.0800 
 34 H       -3.8280     4.6130     1.7200 H     1 <1>   0.0800 
 35 H       -7.8420     2.1650    -1.6760 H     1 <1>   0.1500 
 36 H       -8.5580     3.8420    -0.0240 H     1 <1>   0.1500 
 37 H        1.0390     3.3920     0.6700 H     1 <1>   0.1500 
 38 H       -0.7360     6.6020    -1.4540 H     1 <1>   0.1500 
 39 H        1.1150     8.0560    -0.8690 H     1 <1>   0.1500 
 40 H        2.9060     4.0270     2.2560 H     1 <1>   0.0800 
 41 H        3.8340     5.4820     1.9700 H     1 <1>   0.0800 
 42 H        3.6160     3.2900     0.0310 H     1 <1>   0.4500 
 43 H        4.2100     9.0740     0.7860 H     1 <1>   0.0800 
 44 H        2.4540     9.1510     0.8380 H     1 <1>   0.0800 
 45 H        3.2890     8.8690    -0.6990 H     1 <1>   0.0800 
 46 H        5.7560     3.7360     2.0280 H     1 <1>   0.0800 
 47 H        4.7060     2.3470     1.9350 H     1 <1>   0.0800 
 48 H        4.1730     5.3200    -1.0160 H     1 <1>   0.0800 
 49 H        5.4090     5.6210     0.1700 H     1 <1>   0.0800 
 50 H        5.7390     1.6800    -0.2100 H     1 <1>   0.0800 
 51 H        6.9990     1.9500     0.9710 H     1 <1>   0.0800 
 52 H        6.5070     4.7950    -1.8160 H     1 <1>   0.0800 
 53 H        5.4450     3.4110    -1.9150 H     1 <1>   0.0800 
@<TRIPOS>BOND
  1   1   2  2   
  2   2   3  1   
  3   2   4  1   
  4   3   5  ar  
  5   3   6  ar  
  6   4   7  2   
  7   4   8  1   
  8   5   9  ar  
  9   5  10  1   
 10   6  11  ar  
 11   6  28  1   
 12   7  12  1   
 13   7  29  1   
 14   8  10  1   
 15   8  30  1   
 16   8  31  1   
 17   9  13  ar  
 18   9  32  1   
 19  10  33  1   
 20  10  34  1   
 21  11  13  ar  
 22  11  35  1   
 23  12  14  ar  
 24  12  15  ar  
 25  13  36  1   
 26  14  16  ar  
 27  14  37  1   
 28  15  17  ar  
 29  15  38  1   
 30  16  18  ar  
 31  16  19  1   
 32  17  18  ar  
 33  17  39  1   
 34  18  20  1   
 35  19  21  1   
 36  19  40  1   
 37  19  41  1   
 38  20  22  1   
 39  21  23  1   
 40  21  24  1   
 41  21  42  1   
 42  22  43  1   
 43  22  44  1   
 44  22  45  1   
 45  23  25  1   
 46  23  46  1   
 47  23  47  1   
 48  24  26  1   
 49  24  48  1   
 50  24  49  1   
 51  25  27  1   
 52  25  50  1   
 53  25  51  1   
 54  26  27  1   
 55  26  52  1   
 56  26  53  1   
@<TRIPOS>SUBSTRUCTURE
  1 ****  12 GROUP 4 **** **** 0

# MOE 2024.06 (io_trps.svl 2023.06)
