@<TRIPOS>MOLECULE
NONAME
24 24 1 0 0 
SMALL
USER_CHARGES


@<TRIPOS>ATOM
  1 S       -0.5330     0.6590    -0.0970 S.o2  1 <1>   1.2580 
  2 O       -0.1620     1.4330     1.0690 O.2   1 <1>  -0.6500 
  3 O       -1.1020     1.3420    -1.2410 O.2   1 <1>  -0.6500 
  4 C       -1.6940    -0.6230     0.4290 C.2   1 <1>  -0.0630 
  5 C        0.9420    -0.2840    -0.6590 C.3   1 <1>   0.1050 
  6 C       -1.7380    -1.2040     1.6460 C.2   1 <1>  -0.1100 
  7 C       -2.6880    -1.1600    -0.4610 C.2   1 <1>  -0.1500 
  8 C        0.6120    -1.2440    -1.8230 C.3   1 <1>  -0.2400 
  9 C        2.0390     0.6770    -1.1640 C.3   1 <1>  -0.2400 
 10 C        1.5680    -1.1290     0.4720 C.3   1 <1>  -0.2400 
 11 S       -2.9850    -2.4330     1.7350 S.3   1 <1>  -0.0800 
 12 C       -3.4530    -2.1280     0.0750 C.2   1 <1>  -0.1100 
 13 H       -1.1500    -1.0330     2.5310 H     1 <1>   0.1500 
 14 H       -2.7810    -0.7820    -1.4660 H     1 <1>   0.1500 
 15 H        0.1880    -0.6980    -2.6480 H     1 <1>   0.0800 
 16 H       -0.0970    -1.9920    -1.5140 H     1 <1>   0.0800 
 17 H        1.4980    -1.7470    -2.1700 H     1 <1>   0.0800 
 18 H        1.6680     1.2690    -1.9820 H     1 <1>   0.0800 
 19 H        2.9090     0.1400    -1.4980 H     1 <1>   0.0800 
 20 H        2.3350     1.3490    -0.3760 H     1 <1>   0.0800 
 21 H        0.8820    -1.8840     0.8120 H     1 <1>   0.0800 
 22 H        1.8230    -0.5010     1.3080 H     1 <1>   0.0800 
 23 H        2.4630    -1.6210     0.1340 H     1 <1>   0.0800 
 24 H       -4.2640    -2.7110    -0.3260 H     1 <1>   0.1500 
@<TRIPOS>BOND
  1   1   2  2   
  2   1   3  2   
  3   1   4  1   
  4   1   5  1   
  5   4   6  2   
  6   4   7  1   
  7   5   8  1   
  8   5   9  1   
  9   5  10  1   
 10   6  11  1   
 11   6  13  1   
 12   7  12  2   
 13   7  14  1   
 14   8  15  1   
 15   8  16  1   
 16   8  17  1   
 17   9  18  1   
 18   9  19  1   
 19   9  20  1   
 20  10  21  1   
 21  10  22  1   
 22  10  23  1   
 23  11  12  1   
 24  12  24  1   
@<TRIPOS>SUBSTRUCTURE
  1 ****   4 GROUP 4 **** **** 0

# MOE 2024.06 (io_trps.svl 2023.06)
