@<TRIPOS>MOLECULE
NONAME
35 38 1 0 0 
SMALL
USER_CHARGES


@<TRIPOS>ATOM
  1 S       -0.3370    -0.8840    -1.5030 S.2   1 <1>  -0.3800 
  2 C       -1.8820    -0.6500    -1.1440 C.2   1 <1>   0.5810 
  3 S       -3.1200    -1.7780    -1.6620 S.3   1 <1>  -0.2420 
  4 N       -2.4260     0.3600    -0.4510 N.am  1 <1>  -0.5470 
  5 C       -4.3900    -0.8070    -0.8910 C.ar  1 <1>   0.1020 
  6 C       -3.8170     0.3010    -0.2930 C.ar  1 <1>   0.1170 
  7 C       -5.7440    -1.0660    -0.8610 C.ar  1 <1>  -0.1500 
  8 C       -4.6400     1.1980     0.3690 C.ar  1 <1>  -0.1500 
  9 C       -6.5770    -0.1680    -0.1980 C.ar  1 <1>   0.1170 
 10 C       -6.0050     0.9570     0.4100 C.ar  1 <1>  -0.1500 
 11 N       -7.9740    -0.3870    -0.1420 N.am  1 <1>  -0.2370 
 12 C       -8.9420     0.5790    -0.2990 C.2   1 <1>   0.5690 
 13 C       -8.5840    -1.6020     0.0690 C.2   1 <1>   0.5690 
 14 O       -8.7770     1.7220    -0.6430 O.2   1 <1>  -0.5700 
 15 C      -10.2940     0.0040     0.0640 C.3   1 <1>  -0.0190 
 16 O       -8.0530    -2.6330     0.3970 O.2   1 <1>  -0.5700 
 17 C      -10.0680    -1.4780    -0.2030 C.3   1 <1>  -0.0190 
 18 C      -11.5970     0.4470    -0.6120 C.3   1 <1>  -0.1600 
 19 C      -11.1240    -2.2950     0.5490 C.3   1 <1>  -0.1600 
 20 C      -12.7580    -0.3620     0.0080 C.3   1 <1>  -0.1600 
 21 C      -12.5150    -1.8910     0.0120 C.3   1 <1>  -0.1600 
 22 H       -1.8560     1.1160    -0.0690 H     1 <1>   0.3700 
 23 H       -6.1320    -1.9470    -1.3390 H     1 <1>   0.1500 
 24 H       -4.2220     2.0690     0.8410 H     1 <1>   0.1500 
 25 H       -6.6410     1.6580     0.9220 H     1 <1>   0.1500 
 26 H      -10.3990     0.1660     1.1240 H     1 <1>   0.0800 
 27 H      -10.1840    -1.6750    -1.2550 H     1 <1>   0.0800 
 28 H      -11.5450     0.2750    -1.6730 H     1 <1>   0.0800 
 29 H      -11.7540     1.5000    -0.4510 H     1 <1>   0.0800 
 30 H      -11.0620    -2.1050     1.6070 H     1 <1>   0.0800 
 31 H      -10.9570    -3.3470     0.3880 H     1 <1>   0.0800 
 32 H      -13.6690    -0.1460    -0.5250 H     1 <1>   0.0800 
 33 H      -12.9000    -0.0370     1.0250 H     1 <1>   0.0800 
 34 H      -13.2790    -2.3730     0.5980 H     1 <1>   0.0800 
 35 H      -12.6130    -2.2540    -0.9980 H     1 <1>   0.0800 
@<TRIPOS>BOND
  1   1   2  2   
  2   2   3  1   
  3   2   4  am  
  4   3   5  1   
  5   4   6  1   
  6   4  22  1   
  7   5   6  ar  
  8   5   7  ar  
  9   6   8  ar  
 10   7   9  ar  
 11   7  23  1   
 12   8  10  ar  
 13   8  24  1   
 14   9  10  ar  
 15   9  11  1   
 16  10  25  1   
 17  11  12  am  
 18  11  13  am  
 19  12  14  2   
 20  12  15  1   
 21  13  16  2   
 22  13  17  1   
 23  15  17  1   
 24  15  18  1   
 25  15  26  1   
 26  17  19  1   
 27  17  27  1   
 28  18  20  1   
 29  18  28  1   
 30  18  29  1   
 31  19  21  1   
 32  19  30  1   
 33  19  31  1   
 34  20  21  1   
 35  20  32  1   
 36  20  33  1   
 37  21  34  1   
 38  21  35  1   
@<TRIPOS>SUBSTRUCTURE
  1 ****   9 GROUP 4 **** **** 0

# MOE 2024.06 (io_trps.svl 2023.06)
