@<TRIPOS>MOLECULE
NONAME
30 31 1 0 0 
SMALL
USER_CHARGES


@<TRIPOS>ATOM
  1 O        0.2030    -0.8230    -2.5400 O.2   1 <1>  -0.5700 
  2 C       -0.2780    -1.2840    -1.5300 C.2   1 <1>   0.5690 
  3 N        0.4550    -1.5040    -0.4050 N.am  1 <1>  -0.5790 
  4 C       -1.7620    -1.6270    -1.5280 C.3   1 <1>   0.1810 
  5 C        1.8870    -1.2340    -0.2300 C.3   1 <1>   0.0490 
  6 O       -2.1720    -2.1560    -0.2720 O.3   1 <1>  -0.3630 
  7 C        2.6750    -2.1630     0.6320 C.3   1 <1>  -0.2000 
  8 C        2.3560    -0.7780     1.1110 C.3   1 <1>  -0.2000 
  9 C       -3.4580    -2.5280    -0.0560 C.ar  1 <1>   0.0820 
 10 C       -4.4660    -2.4290    -1.0110 C.ar  1 <1>  -0.1500 
 11 C       -3.7590    -3.0320     1.1990 C.ar  1 <1>  -0.1500 
 12 C       -5.7540    -2.8340    -0.7020 C.ar  1 <1>  -0.1500 
 13 C       -5.0470    -3.4360     1.5030 C.ar  1 <1>  -0.1500 
 14 C       -6.0510    -3.3400     0.5530 C.ar  1 <1>  -0.1440 
 15 C       -7.4650    -3.7810     0.8880 C.3   1 <1>  -0.0970 
 16 H       -0.0320    -1.8960     0.4040 H     1 <1>   0.3700 
 17 H       -1.9550    -2.3630    -2.2860 H     1 <1>   0.0800 
 18 H       -2.3300    -0.7360    -1.7240 H     1 <1>   0.0800 
 19 H        2.3550    -0.8210    -1.1110 H     1 <1>   0.1000 
 20 H        3.6910    -2.3840     0.3550 H     1 <1>   0.1000 
 21 H        2.1760    -3.0030     1.0810 H     1 <1>   0.1000 
 22 H        1.6330    -0.6480     1.8970 H     1 <1>   0.1000 
 23 H        3.1550    -0.0600     1.1600 H     1 <1>   0.1000 
 24 H       -4.2760    -2.0440    -1.9940 H     1 <1>   0.1500 
 25 H       -2.9820    -3.1080     1.9370 H     1 <1>   0.1500 
 26 H       -6.5270    -2.7540    -1.4450 H     1 <1>   0.1500 
 27 H       -5.2640    -3.8240     2.4830 H     1 <1>   0.1500 
 28 H       -8.0160    -2.9540     1.2980 H     1 <1>   0.0800 
 29 H       -7.4490    -4.5800     1.6080 H     1 <1>   0.0800 
 30 H       -7.9690    -4.1320     0.0050 H     1 <1>   0.0800 
@<TRIPOS>BOND
  1   1   2  2   
  2   2   3  am  
  3   2   4  1   
  4   3   5  1   
  5   3  16  1   
  6   4   6  1   
  7   4  17  1   
  8   4  18  1   
  9   5   7  1   
 10   5   8  1   
 11   5  19  1   
 12   6   9  1   
 13   7   8  1   
 14   7  20  1   
 15   7  21  1   
 16   8  22  1   
 17   8  23  1   
 18   9  10  ar  
 19   9  11  ar  
 20  10  12  ar  
 21  10  24  1   
 22  11  13  ar  
 23  11  25  1   
 24  12  14  ar  
 25  12  26  1   
 26  13  14  ar  
 27  13  27  1   
 28  14  15  1   
 29  15  28  1   
 30  15  29  1   
 31  15  30  1   
@<TRIPOS>SUBSTRUCTURE
  1 ****   6 GROUP 4 **** **** 0

# MOE 2024.06 (io_trps.svl 2023.06)
