@<TRIPOS>MOLECULE
NONAME
44 45 1 0 0 
SMALL
USER_CHARGES


@<TRIPOS>ATOM
  1 O        0.1510     0.5010     0.3890 O.2   1 <1>  -0.5700 
  2 C        0.0910     1.5870    -0.1570 C.2   1 <1>   0.5440 
  3 N        1.2410     2.1330    -0.6950 N.am  1 <1>  -0.6600 
  4 C       -1.1870     2.2700    -0.2150 C.ar  1 <1>   0.0860 
  5 C        1.3740     3.5690    -1.0700 C.3   1 <1>   0.1400 
  6 C        2.5060     1.3510    -0.7850 C.3   1 <1>   0.1400 
  7 C       -1.7510     2.6630    -1.4300 C.ar  1 <1>  -0.1500 
  8 C       -1.9010     2.5510     0.9490 C.ar  1 <1>  -0.1500 
  9 C        2.4480     4.2320    -0.2040 C.3   1 <1>  -0.1600 
 10 C        3.5810     2.0000     0.0910 C.3   1 <1>  -0.1600 
 11 C       -2.9630     3.3260    -1.4760 C.ar  1 <1>  -0.1500 
 12 C       -3.1150     3.2130     0.9110 C.ar  1 <1>  -0.1500 
 13 C        3.7910     3.4800    -0.2770 C.3   1 <1>  -0.0190 
 14 C       -3.6540     3.6090    -0.3090 C.ar  1 <1>   0.0830 
 15 C        4.8670     4.1130     0.6060 C.2   1 <1>   0.5690 
 16 O       -4.8310     4.2630    -0.4370 O.3   1 <1>  -0.3630 
 17 O        4.5680     4.6170     1.6610 O.2   1 <1>  -0.5700 
 18 N        6.1520     4.0860     0.1740 N.am  1 <1>  -0.7300 
 19 C       -5.6330     4.5730     0.6810 C.3   1 <1>   0.0400 
 20 C        7.2960     4.6130     0.9290 C.3   1 <1>   0.2780 
 21 C        8.4700     3.6990     0.6540 C.2   1 <1>  -0.2880 
 22 C        9.5910     4.0470     0.0140 C.2   1 <1>  -0.3000 
 23 H        0.4450     4.0940    -0.9320 H     1 <1>   0.0800 
 24 H        1.6460     3.6360    -2.1100 H     1 <1>   0.0800 
 25 H        2.8300     1.3290    -1.8110 H     1 <1>   0.0800 
 26 H        2.3510     0.3330    -0.4690 H     1 <1>   0.0800 
 27 H       -1.2270     2.4410    -2.3430 H     1 <1>   0.1500 
 28 H       -1.4870     2.2390     1.8920 H     1 <1>   0.1500 
 29 H        2.0990     4.2560     0.8150 H     1 <1>   0.0800 
 30 H        2.5860     5.2500    -0.5220 H     1 <1>   0.0800 
 31 H        4.5030     1.4600    -0.0230 H     1 <1>   0.0800 
 32 H        3.2800     1.9210     1.1220 H     1 <1>   0.0800 
 33 H       -3.3870     3.6260    -2.4180 H     1 <1>   0.1500 
 34 H       -3.6250     3.4090     1.8350 H     1 <1>   0.1500 
 35 H        4.1360     3.5270    -1.2940 H     1 <1>   0.0800 
 36 H        6.4020     3.6520    -0.7140 H     1 <1>   0.3700 
 37 H       -6.5150     5.0770     0.3290 H     1 <1>   0.0800 
 38 H       -5.0800     5.2190     1.3390 H     1 <1>   0.0800 
 39 H       -5.9080     3.6590     1.1770 H     1 <1>   0.0800 
 40 H        7.0740     4.6340     1.9830 H     1 <1>   0.0800 
 41 H        7.5100     5.6150     0.5990 H     1 <1>   0.0800 
 42 H        8.3070     2.7070     1.0410 H     1 <1>   0.1500 
 43 H       10.4130     3.3740    -0.1650 H     1 <1>   0.1500 
 44 H        9.7860     5.0290    -0.3840 H     1 <1>   0.1500 
@<TRIPOS>BOND
  1   1   2  2   
  2   2   3  am  
  3   2   4  1   
  4   3   5  1   
  5   3   6  1   
  6   4   7  ar  
  7   4   8  ar  
  8   5   9  1   
  9   5  23  1   
 10   5  24  1   
 11   6  10  1   
 12   6  25  1   
 13   6  26  1   
 14   7  11  ar  
 15   7  27  1   
 16   8  12  ar  
 17   8  28  1   
 18   9  13  1   
 19   9  29  1   
 20   9  30  1   
 21  10  13  1   
 22  10  31  1   
 23  10  32  1   
 24  11  14  ar  
 25  11  33  1   
 26  12  14  ar  
 27  12  34  1   
 28  13  15  1   
 29  13  35  1   
 30  14  16  1   
 31  15  17  2   
 32  15  18  am  
 33  16  19  1   
 34  18  20  1   
 35  18  36  1   
 36  19  37  1   
 37  19  38  1   
 38  19  39  1   
 39  20  21  1   
 40  20  40  1   
 41  20  41  1   
 42  21  22  2   
 43  21  42  1   
 44  22  43  1   
 45  22  44  1   
@<TRIPOS>SUBSTRUCTURE
  1 ****   5 GROUP 4 **** **** 0

# MOE 2024.06 (io_trps.svl 2023.06)
