@<TRIPOS>MOLECULE
NONAME
51 51 1 0 0 
SMALL
USER_CHARGES


@<TRIPOS>ATOM
  1 N        0.2650    -0.1080     0.0690 N.4   1 <1>  -0.9590 
  2 C        1.5800     0.6100     0.2720 C.3   1 <1>   0.3430 
  3 C       -0.8010     0.5490     0.8840 C.3   1 <1>   0.3430 
  4 C        0.3150    -1.5710     0.3800 C.3   1 <1>   0.3430 
  5 C        2.7290     0.1690    -0.6830 C.3   1 <1>   0.3430 
  6 C       -2.1660     0.2230     0.2890 C.3   1 <1>  -0.2400 
  7 C        0.4420    -2.3510    -0.9210 C.3   1 <1>  -0.2400 
  8 N        4.0080     0.9610    -0.5700 N.4   1 <1>  -0.9590 
  9 C        4.7470     0.7760     0.7210 C.3   1 <1>   0.4860 
 10 C        3.8710     2.4170    -0.9250 C.3   1 <1>   0.2630 
 11 C        6.1540     1.2950     0.5300 C.ar  1 <1>  -0.1440 
 12 C        6.5330     2.5120     1.0760 C.ar  1 <1>  -0.1500 
 13 C        7.0770     0.5630    -0.2020 C.ar  1 <1>  -0.1500 
 14 C        7.8130     2.9970     0.8770 C.ar  1 <1>  -0.1500 
 15 C        8.3560     1.0530    -0.3980 C.ar  1 <1>  -0.1500 
 16 C        8.7360     2.2750     0.1360 C.ar  1 <1>  -0.1440 
 17 C       10.1450     2.8270    -0.0720 C.3   1 <1>   0.0630 
 18 C       10.4310     3.0550    -1.5600 C.3   1 <1>  -0.2400 
 19 C       11.1940     1.8970     0.5460 C.3   1 <1>  -0.2400 
 20 H       -0.0520    -0.0170    -0.9090 H     1 <1>   0.4500 
 21 H        1.8990     0.4650     1.2910 H     1 <1>   0.0800 
 22 H        1.4140     1.6650     0.1250 H     1 <1>   0.0800 
 23 H       -0.6710     1.6200     0.8710 H     1 <1>   0.0800 
 24 H       -0.7530     0.2160     1.9100 H     1 <1>   0.0800 
 25 H       -0.5940    -1.8770     0.8740 H     1 <1>   0.0800 
 26 H        1.1380    -1.7950     1.0400 H     1 <1>   0.0800 
 27 H        2.3710     0.2490    -1.6970 H     1 <1>   0.0800 
 28 H        2.9500    -0.8690    -0.4960 H     1 <1>   0.0800 
 29 H       -2.2370     0.5650    -0.7280 H     1 <1>   0.0800 
 30 H       -2.9260     0.7310     0.8580 H     1 <1>   0.0800 
 31 H       -2.3820    -0.8300     0.3330 H     1 <1>   0.0800 
 32 H       -0.4020    -2.1610    -1.5620 H     1 <1>   0.0800 
 33 H        0.4430    -3.4040    -0.6970 H     1 <1>   0.0800 
 34 H        1.3520    -2.1300    -1.4450 H     1 <1>   0.0800 
 35 H        4.6730     0.5870    -1.2700 H     1 <1>   0.4500 
 36 H        4.7950    -0.2680     0.9830 H     1 <1>   0.0800 
 37 H        4.2640     1.3140     1.5200 H     1 <1>   0.0800 
 38 H        3.2780     2.9390    -0.1920 H     1 <1>   0.0800 
 39 H        3.4090     2.5290    -1.8930 H     1 <1>   0.0800 
 40 H        4.8440     2.8840    -0.9660 H     1 <1>   0.0800 
 41 H        5.8490     3.1010     1.6640 H     1 <1>   0.1500 
 42 H        6.8290    -0.3950    -0.6250 H     1 <1>   0.1500 
 43 H        8.0930     3.9440     1.3070 H     1 <1>   0.1500 
 44 H        9.0630     0.4750    -0.9680 H     1 <1>   0.1500 
 45 H       10.2220     3.7800     0.4250 H     1 <1>   0.0800 
 46 H       10.4190     2.1270    -2.1010 H     1 <1>   0.0800 
 47 H       11.3960     3.5130    -1.6870 H     1 <1>   0.0800 
 48 H        9.6870     3.7080    -1.9800 H     1 <1>   0.0800 
 49 H       11.2010     0.9420     0.0520 H     1 <1>   0.0800 
 50 H       10.9770     1.7420     1.5880 H     1 <1>   0.0800 
 51 H       12.1730     2.3330     0.4630 H     1 <1>   0.0800 
@<TRIPOS>BOND
  1   1   2  1   
  2   1   3  1   
  3   1   4  1   
  4   1  20  1   
  5   2   5  1   
  6   2  21  1   
  7   2  22  1   
  8   3   6  1   
  9   3  23  1   
 10   3  24  1   
 11   4   7  1   
 12   4  25  1   
 13   4  26  1   
 14   5   8  1   
 15   5  27  1   
 16   5  28  1   
 17   6  29  1   
 18   6  30  1   
 19   6  31  1   
 20   7  32  1   
 21   7  33  1   
 22   7  34  1   
 23   8   9  1   
 24   8  10  1   
 25   8  35  1   
 26   9  11  1   
 27   9  36  1   
 28   9  37  1   
 29  10  38  1   
 30  10  39  1   
 31  10  40  1   
 32  11  12  ar  
 33  11  13  ar  
 34  12  14  ar  
 35  12  41  1   
 36  13  15  ar  
 37  13  42  1   
 38  14  16  ar  
 39  14  43  1   
 40  15  16  ar  
 41  15  44  1   
 42  16  17  1   
 43  17  18  1   
 44  17  19  1   
 45  17  45  1   
 46  18  46  1   
 47  18  47  1   
 48  18  48  1   
 49  19  49  1   
 50  19  50  1   
 51  19  51  1   
@<TRIPOS>SUBSTRUCTURE
  1 ****   9 GROUP 4 **** **** 0

# MOE 2024.06 (io_trps.svl 2023.06)
