@<TRIPOS>MOLECULE
NONAME
51 53 1 0 0 
SMALL
USER_CHARGES


@<TRIPOS>ATOM
  1 F        2.6870    -3.9900    -3.2730 F     1 <1>  -0.1900 
  2 C        3.3320    -3.7280    -2.1700 C.ar  1 <1>   0.1900 
  3 C        2.7360    -2.9160    -1.2260 C.ar  1 <1>  -0.1500 
  4 C        4.5880    -4.2720    -1.9860 C.ar  1 <1>  -0.1500 
  5 C        3.4260    -2.6360    -0.0580 C.ar  1 <1>  -0.1500 
  6 C        5.2710    -3.9870    -0.8160 C.ar  1 <1>  -0.1500 
  7 C        4.6960    -3.1650     0.1480 C.ar  1 <1>  -0.1430 
  8 C        5.4590    -2.8450     1.4210 C.3   1 <1>   0.4870 
  9 N        5.9800    -1.4540     1.3330 N.4   1 <1>  -0.9590 
 10 C        6.9530    -1.3120     0.1840 C.3   1 <1>   0.3430 
 11 C        6.5920    -1.0340     2.6470 C.3   1 <1>   0.3430 
 12 C        7.6050     0.0850     0.1280 C.3   1 <1>   0.1400 
 13 C        7.2520     0.3580     2.5680 C.3   1 <1>   0.1400 
 14 N        8.2300     0.3940     1.4430 N.am  1 <1>  -0.6600 
 15 C        9.4790    -0.1110     1.6700 C.2   1 <1>   0.6900 
 16 O        9.6070    -1.0180     2.4710 O.2   1 <1>  -0.5700 
 17 N       10.5040     0.3710     0.9220 N.am  1 <1>  -0.5470 
 18 C       11.8280    -0.0460     0.6990 C.ar  1 <1>   0.1170 
 19 C       12.5210     0.5270    -0.3740 C.ar  1 <1>   0.0830 
 20 C       12.4760    -0.9880     1.4900 C.ar  1 <1>  -0.1500 
 21 O       11.8480     1.4540    -1.1230 O.3   1 <1>  -0.3630 
 22 C       13.8320     0.1460    -0.6400 C.ar  1 <1>  -0.1500 
 23 C       13.7800    -1.3620     1.2210 C.ar  1 <1>  -0.1500 
 24 C       12.4990     2.1750    -2.1440 C.3   1 <1>   0.1200 
 25 C       14.4580    -0.7970     0.1570 C.ar  1 <1>  -0.1500 
 26 C       11.5020     3.1720    -2.7260 C.3   1 <1>  -0.2400 
 27 H        1.7510    -2.5200    -1.4080 H     1 <1>   0.1500 
 28 H        5.0120    -4.9060    -2.7460 H     1 <1>   0.1500 
 29 H        2.9540    -2.0110     0.6820 H     1 <1>   0.1500 
 30 H        6.2480    -4.4180    -0.6690 H     1 <1>   0.1500 
 31 H        6.2740    -3.5390     1.5470 H     1 <1>   0.0800 
 32 H        4.7960    -2.9410     2.2660 H     1 <1>   0.0800 
 33 H        5.1800    -0.8430     1.1300 H     1 <1>   0.4500 
 34 H        6.4500    -1.5030    -0.7500 H     1 <1>   0.0800 
 35 H        7.7400    -2.0420     0.2890 H     1 <1>   0.0800 
 36 H        7.3530    -1.7420     2.9340 H     1 <1>   0.0800 
 37 H        5.8420    -1.0250     3.4200 H     1 <1>   0.0800 
 38 H        6.8690     0.8330    -0.1110 H     1 <1>   0.0800 
 39 H        8.3520     0.0970    -0.6480 H     1 <1>   0.0800 
 40 H        7.7650     0.5630     3.4940 H     1 <1>   0.0800 
 41 H        6.5070     1.1220     2.4280 H     1 <1>   0.0800 
 42 H       10.2620     1.1860     0.3590 H     1 <1>   0.3700 
 43 H       11.9720    -1.4340     2.3270 H     1 <1>   0.1500 
 44 H       14.3860     0.5650    -1.4580 H     1 <1>   0.1500 
 45 H       14.2670    -2.0940     1.8440 H     1 <1>   0.1500 
 46 H       12.8260     1.4800    -2.8990 H     1 <1>   0.0800 
 47 H       13.3430     2.6880    -1.7160 H     1 <1>   0.0800 
 48 H       15.4730    -1.0910    -0.0500 H     1 <1>   0.1500 
 49 H       10.6570     2.6530    -3.1430 H     1 <1>   0.0800 
 50 H       11.9720     3.7400    -3.5080 H     1 <1>   0.0800 
 51 H       11.1690     3.8510    -1.9620 H     1 <1>   0.0800 
@<TRIPOS>BOND
  1   1   2  1   
  2   2   3  ar  
  3   2   4  ar  
  4   3   5  ar  
  5   3  27  1   
  6   4   6  ar  
  7   4  28  1   
  8   5   7  ar  
  9   5  29  1   
 10   6   7  ar  
 11   6  30  1   
 12   7   8  1   
 13   8   9  1   
 14   8  31  1   
 15   8  32  1   
 16   9  10  1   
 17   9  11  1   
 18   9  33  1   
 19  10  12  1   
 20  10  34  1   
 21  10  35  1   
 22  11  13  1   
 23  11  36  1   
 24  11  37  1   
 25  12  14  1   
 26  12  38  1   
 27  12  39  1   
 28  13  14  1   
 29  13  40  1   
 30  13  41  1   
 31  14  15  am  
 32  15  16  2   
 33  15  17  am  
 34  17  18  1   
 35  17  42  1   
 36  18  19  ar  
 37  18  20  ar  
 38  19  21  1   
 39  19  22  ar  
 40  20  23  ar  
 41  20  43  1   
 42  21  24  1   
 43  22  25  ar  
 44  22  44  1   
 45  23  25  ar  
 46  23  45  1   
 47  24  26  1   
 48  24  46  1   
 49  24  47  1   
 50  25  48  1   
 51  26  49  1   
 52  26  50  1   
 53  26  51  1   
@<TRIPOS>SUBSTRUCTURE
  1 ****  12 GROUP 4 **** **** 0

# MOE 2024.06 (io_trps.svl 2023.06)
