@<TRIPOS>MOLECULE
NONAME
33 33 1 0 0 
SMALL
USER_CHARGES


@<TRIPOS>ATOM
  1 O       -0.8960     0.2520     2.0740 O.2   1 <1>  -0.5700 
  2 C       -1.9550     0.6900     1.7000 C.2   1 <1>   0.4240 
  3 C       -2.9870    -0.0680     1.0410 C.ar  1 <1>   0.0860 
  4 C       -4.1790     0.5360     0.6480 C.ar  1 <1>  -0.1500 
  5 C       -2.8350    -1.4270     0.7720 C.ar  1 <1>  -0.1500 
  6 C       -5.1880    -0.1680     0.0130 C.ar  1 <1>  -0.1440 
  7 C       -3.8160    -2.1740     0.1400 C.ar  1 <1>  -0.1440 
  8 C       -4.9950    -1.5280    -0.2370 C.ar  1 <1>   0.0830 
  9 C       -6.4770     0.5620    -0.3930 C.3   1 <1>   0.0640 
 10 C       -3.5280    -3.6640    -0.1000 C.3   1 <1>   0.0640 
 11 O       -5.9560    -2.2290    -0.8500 O.3   1 <1>  -0.5320 
 12 C       -6.1810     1.6780    -1.4020 C.3   1 <1>  -0.2400 
 13 C       -7.2010     1.1210     0.8370 C.3   1 <1>  -0.2400 
 14 C       -3.4710    -4.0160    -1.5920 C.3   1 <1>  -0.2400 
 15 C       -4.4980    -4.5760     0.6610 C.3   1 <1>  -0.2400 
 16 H       -2.1530     1.7330     1.8690 H     1 <1>   0.0600 
 17 H       -4.3120     1.5840     0.8480 H     1 <1>   0.1500 
 18 H       -1.9130    -1.8930     1.0770 H     1 <1>   0.1500 
 19 H       -7.1540    -0.1230    -0.8720 H     1 <1>   0.0800 
 20 H       -2.5480    -3.8770     0.2940 H     1 <1>   0.0800 
 21 H       -5.7010    -3.1600    -0.9650 H     1 <1>   0.4500 
 22 H       -5.5670     2.4440    -0.9660 H     1 <1>   0.0800 
 23 H       -7.0990     2.1240    -1.7400 H     1 <1>   0.0800 
 24 H       -5.6670     1.2680    -2.2540 H     1 <1>   0.0800 
 25 H       -6.6120     1.8750     1.3270 H     1 <1>   0.0800 
 26 H       -7.3940     0.3260     1.5350 H     1 <1>   0.0800 
 27 H       -8.1410     1.5550     0.5470 H     1 <1>   0.0800 
 28 H       -4.4290    -3.9280    -2.0680 H     1 <1>   0.0800 
 29 H       -3.1230    -5.0260    -1.7190 H     1 <1>   0.0800 
 30 H       -2.7830    -3.3570    -2.0920 H     1 <1>   0.0800 
 31 H       -5.5000    -4.5120     0.2820 H     1 <1>   0.0800 
 32 H       -4.5120    -4.3010     1.7010 H     1 <1>   0.0800 
 33 H       -4.1750    -5.6000     0.5890 H     1 <1>   0.0800 
@<TRIPOS>BOND
  1   1   2  2   
  2   2   3  1   
  3   2  16  1   
  4   3   4  ar  
  5   3   5  ar  
  6   4   6  ar  
  7   4  17  1   
  8   5   7  ar  
  9   5  18  1   
 10   6   8  ar  
 11   6   9  1   
 12   7   8  ar  
 13   7  10  1   
 14   8  11  1   
 15   9  12  1   
 16   9  13  1   
 17   9  19  1   
 18  10  14  1   
 19  10  15  1   
 20  10  20  1   
 21  11  21  1   
 22  12  22  1   
 23  12  23  1   
 24  12  24  1   
 25  13  25  1   
 26  13  26  1   
 27  13  27  1   
 28  14  28  1   
 29  14  29  1   
 30  14  30  1   
 31  15  31  1   
 32  15  32  1   
 33  15  33  1   
@<TRIPOS>SUBSTRUCTURE
  1 ****   8 GROUP 4 **** **** 0

# MOE 2024.06 (io_trps.svl 2023.06)
