@<TRIPOS>MOLECULE
NONAME
33 33 1 0 0 
SMALL
USER_CHARGES


@<TRIPOS>ATOM
  1 O       -0.0170     0.7730     0.9850 O.2   1 <1>  -0.5700 
  2 C        0.1740     1.7530     0.3070 C.2   1 <1>   0.5690 
  3 N        1.3980     2.0960    -0.2000 N.am  1 <1>  -0.5470 
  4 C       -1.0040     2.6860     0.0020 C.3   1 <1>  -0.0190 
  5 C        2.6440     1.4530    -0.1230 C.ar  1 <1>   0.1170 
  6 C       -1.4860     3.4080     1.2700 C.3   1 <1>  -0.2400 
  7 C       -2.1740     1.9320    -0.6520 C.3   1 <1>  -0.2400 
  8 C        2.7870     0.0930     0.1280 C.ar  1 <1>  -0.1500 
  9 C        3.7910     2.2070    -0.3270 C.ar  1 <1>  -0.1500 
 10 C        4.0370    -0.5000     0.1780 C.ar  1 <1>   0.0820 
 11 C        5.0490     1.6320    -0.2800 C.ar  1 <1>   0.0820 
 12 O        4.0660    -1.8350     0.4280 O.3   1 <1>  -0.3630 
 13 C        5.1770     0.2710    -0.0260 C.ar  1 <1>  -0.1500 
 14 O        6.1020     2.4630    -0.4940 O.3   1 <1>  -0.3630 
 15 C        5.2830    -2.5360     0.5600 C.3   1 <1>   0.0400 
 16 C        7.4310     1.9940    -0.4490 C.3   1 <1>   0.0400 
 17 H        1.4230     2.9920    -0.6810 H     1 <1>   0.3700 
 18 H       -0.6710     3.4340    -0.6960 H     1 <1>   0.0800 
 19 H       -1.8410     2.6920     1.9920 H     1 <1>   0.0800 
 20 H       -2.2850     4.0900     1.0380 H     1 <1>   0.0800 
 21 H       -0.6780     3.9620     1.7130 H     1 <1>   0.0800 
 22 H       -2.5560     1.1830     0.0200 H     1 <1>   0.0800 
 23 H       -1.8430     1.4430    -1.5510 H     1 <1>   0.0800 
 24 H       -2.9700     2.6110    -0.9020 H     1 <1>   0.0800 
 25 H        1.9220    -0.5250     0.2840 H     1 <1>   0.1500 
 26 H        3.7180     3.2590    -0.5220 H     1 <1>   0.1500 
 27 H        6.1450    -0.1820     0.0110 H     1 <1>   0.1500 
 28 H        5.0520    -3.5630     0.7780 H     1 <1>   0.0800 
 29 H        5.8460    -2.1080     1.3700 H     1 <1>   0.0800 
 30 H        5.8240    -2.4720    -0.3670 H     1 <1>   0.0800 
 31 H        8.0850     2.8260    -0.6370 H     1 <1>   0.0800 
 32 H        7.5630     1.2460    -1.2110 H     1 <1>   0.0800 
 33 H        7.6260     1.5900     0.5280 H     1 <1>   0.0800 
@<TRIPOS>BOND
  1   1   2  2   
  2   2   3  am  
  3   2   4  1   
  4   3   5  1   
  5   3  17  1   
  6   4   6  1   
  7   4   7  1   
  8   4  18  1   
  9   5   8  ar  
 10   5   9  ar  
 11   6  19  1   
 12   6  20  1   
 13   6  21  1   
 14   7  22  1   
 15   7  23  1   
 16   7  24  1   
 17   8  10  ar  
 18   8  25  1   
 19   9  11  ar  
 20   9  26  1   
 21  10  12  1   
 22  10  13  ar  
 23  11  13  ar  
 24  11  14  1   
 25  12  15  1   
 26  13  27  1   
 27  14  16  1   
 28  15  28  1   
 29  15  29  1   
 30  15  30  1   
 31  16  31  1   
 32  16  32  1   
 33  16  33  1   
@<TRIPOS>SUBSTRUCTURE
  1 ****   5 GROUP 4 **** **** 0

# MOE 2024.06 (io_trps.svl 2023.06)
