@<TRIPOS>MOLECULE
NONAME
40 41 1 0 0 
SMALL
USER_CHARGES


@<TRIPOS>ATOM
  1 F       -1.7080     0.9820     1.3370 F     1 <1>  -0.1900 
  2 C       -0.9860     1.9520     0.8390 C.ar  1 <1>   0.1900 
  3 C       -1.4410     2.6090    -0.2940 C.ar  1 <1>  -0.1440 
  4 C        0.1930     2.2910     1.4750 C.ar  1 <1>  -0.1500 
  5 C       -0.6700     3.6450    -0.8030 C.ar  1 <1>  -0.1500 
  6 C       -2.7410     2.1910    -0.9490 C.3   1 <1>   0.4870 
  7 C        0.9470     3.3290     0.9570 C.ar  1 <1>  -0.1500 
  8 C        0.5150     4.0010    -0.1770 C.ar  1 <1>  -0.1500 
  9 N       -3.8650     2.4430     0.0120 N.4   1 <1>  -0.9590 
 10 C       -5.1210     1.6800    -0.2940 C.3   1 <1>   0.4230 
 11 C       -4.0470     3.9310     0.1510 C.3   1 <1>   0.2630 
 12 C       -6.2220     2.0330     0.7200 C.3   1 <1>  -0.1600 
 13 C       -4.8470     0.1670    -0.2480 C.3   1 <1>  -0.1600 
 14 C       -7.4770     1.1800     0.5310 C.3   1 <1>   0.3430 
 15 C       -6.1230    -0.6590    -0.4180 C.3   1 <1>   0.3430 
 16 N       -7.1270    -0.2640     0.6060 N.4   1 <1>  -0.9590 
 17 C       -8.3630    -1.1060     0.4750 C.3   1 <1>   0.2630 
 18 H        0.5150     1.7570     2.3530 H     1 <1>   0.1500 
 19 H       -0.9710     4.1840    -1.6860 H     1 <1>   0.1500 
 20 H       -2.6670     1.1450    -1.1910 H     1 <1>   0.0800 
 21 H       -2.8930     2.7430    -1.8620 H     1 <1>   0.0800 
 22 H        1.8710     3.6140     1.4320 H     1 <1>   0.1500 
 23 H        1.1130     4.8050    -0.5740 H     1 <1>   0.1500 
 24 H       -3.4950     2.1010     0.9140 H     1 <1>   0.4500 
 25 H       -5.4640     1.9440    -1.2820 H     1 <1>   0.0800 
 26 H       -4.4360     4.3520    -0.7610 H     1 <1>   0.0800 
 27 H       -3.1030     4.4060     0.3710 H     1 <1>   0.0800 
 28 H       -4.7240     4.1600     0.9570 H     1 <1>   0.0800 
 29 H       -6.5220     3.0580     0.6000 H     1 <1>   0.0800 
 30 H       -5.8630     1.9020     1.7260 H     1 <1>   0.0800 
 31 H       -4.3840    -0.1040     0.6850 H     1 <1>   0.0800 
 32 H       -4.1860    -0.1210    -1.0440 H     1 <1>   0.0800 
 33 H       -7.9260     1.3970    -0.4260 H     1 <1>   0.0800 
 34 H       -8.1970     1.4240     1.2990 H     1 <1>   0.0800 
 35 H       -5.8880    -1.7080    -0.3160 H     1 <1>   0.0800 
 36 H       -6.5290    -0.5040    -1.4060 H     1 <1>   0.0800 
 37 H       -6.7350    -0.4590     1.5420 H     1 <1>   0.4500 
 38 H       -8.8270    -0.9520    -0.4860 H     1 <1>   0.0800 
 39 H       -9.0750    -0.8520     1.2440 H     1 <1>   0.0800 
 40 H       -8.1180    -2.1520     0.5730 H     1 <1>   0.0800 
@<TRIPOS>BOND
  1   1   2  1   
  2   2   3  ar  
  3   2   4  ar  
  4   3   5  ar  
  5   3   6  1   
  6   4   7  ar  
  7   4  18  1   
  8   5   8  ar  
  9   5  19  1   
 10   6   9  1   
 11   6  20  1   
 12   6  21  1   
 13   7   8  ar  
 14   7  22  1   
 15   8  23  1   
 16   9  10  1   
 17   9  11  1   
 18   9  24  1   
 19  10  12  1   
 20  10  13  1   
 21  10  25  1   
 22  11  26  1   
 23  11  27  1   
 24  11  28  1   
 25  12  14  1   
 26  12  29  1   
 27  12  30  1   
 28  13  15  1   
 29  13  31  1   
 30  13  32  1   
 31  14  16  1   
 32  14  33  1   
 33  14  34  1   
 34  15  16  1   
 35  15  35  1   
 36  15  36  1   
 37  16  17  1   
 38  16  37  1   
 39  17  38  1   
 40  17  39  1   
 41  17  40  1   
@<TRIPOS>SUBSTRUCTURE
  1 ****   9 GROUP 4 **** **** 0

# MOE 2024.06 (io_trps.svl 2023.06)
