@<TRIPOS>MOLECULE
NONAME
37 39 1 0 0 
SMALL
USER_CHARGES


@<TRIPOS>ATOM
  1 F       -0.6050     0.2670     0.6780 F     1 <1>  -0.1900 
  2 C       -1.7060     0.8640     0.3150 C.ar  1 <1>   0.1900 
  3 C       -2.2840     1.7770     1.1760 C.ar  1 <1>  -0.1500 
  4 C       -2.2540     0.5630    -0.9160 C.ar  1 <1>  -0.1500 
  5 C       -3.4560     2.4060     0.7890 C.ar  1 <1>  -0.1500 
  6 C       -3.4260     1.1960    -1.2940 C.ar  1 <1>  -0.1500 
  7 C       -4.0340     2.1120    -0.4420 C.ar  1 <1>  -0.1430 
  8 C       -5.3310     2.7860    -0.8540 C.3   1 <1>   0.4870 
  9 N       -6.4470     2.1860    -0.0740 N.4   1 <1>  -0.9590 
 10 C       -6.6210     0.7360    -0.4080 C.3   1 <1>   0.3430 
 11 C       -7.7110     2.9580    -0.2710 C.3   1 <1>   0.3430 
 12 C       -7.7100     0.1240     0.4630 C.3   1 <1>  -0.1600 
 13 C       -8.8140     2.3830     0.6050 C.3   1 <1>  -0.1600 
 14 C       -8.9950     0.9130     0.2750 C.3   1 <1>   0.5600 
 15 O       -9.9990     0.3860     1.0630 O.3   1 <1>  -0.5600 
 16 O       -9.4060     0.7980    -1.0480 O.3   1 <1>  -0.5600 
 17 C      -10.8260    -0.3980     0.2860 C.3   1 <1>   0.1200 
 18 C      -10.6410     0.1700    -1.1010 C.3   1 <1>   0.1200 
 19 H       -1.8190     1.9870     2.1230 H     1 <1>   0.1500 
 20 H       -1.7670    -0.1500    -1.5580 H     1 <1>   0.1500 
 21 H       -3.9010     3.1240     1.4580 H     1 <1>   0.1500 
 22 H       -3.8510     0.9640    -2.2580 H     1 <1>   0.1500 
 23 H       -5.4990     2.6510    -1.9110 H     1 <1>   0.0800 
 24 H       -5.2610     3.8420    -0.6510 H     1 <1>   0.0800 
 25 H       -6.1730     2.2390     0.9150 H     1 <1>   0.4500 
 26 H       -5.6970     0.2020    -0.2500 H     1 <1>   0.0800 
 27 H       -6.9010     0.6320    -1.4450 H     1 <1>   0.0800 
 28 H       -8.0170     2.8980    -1.3040 H     1 <1>   0.0800 
 29 H       -7.5580     3.9960    -0.0200 H     1 <1>   0.0800 
 30 H       -7.4110     0.1470     1.4940 H     1 <1>   0.0800 
 31 H       -7.8680    -0.8990     0.1780 H     1 <1>   0.0800 
 32 H       -9.7360     2.9050     0.4200 H     1 <1>   0.0800 
 33 H       -8.5610     2.5000     1.6430 H     1 <1>   0.0800 
 34 H      -11.8400    -0.3190     0.6380 H     1 <1>   0.0800 
 35 H      -10.4890    -1.4190     0.3410 H     1 <1>   0.0800 
 36 H      -10.6340    -0.5900    -1.8620 H     1 <1>   0.0800 
 37 H      -11.3930     0.9090    -1.3190 H     1 <1>   0.0800 
@<TRIPOS>BOND
  1   1   2  1   
  2   2   3  ar  
  3   2   4  ar  
  4   3   5  ar  
  5   3  19  1   
  6   4   6  ar  
  7   4  20  1   
  8   5   7  ar  
  9   5  21  1   
 10   6   7  ar  
 11   6  22  1   
 12   7   8  1   
 13   8   9  1   
 14   8  23  1   
 15   8  24  1   
 16   9  10  1   
 17   9  11  1   
 18   9  25  1   
 19  10  12  1   
 20  10  26  1   
 21  10  27  1   
 22  11  13  1   
 23  11  28  1   
 24  11  29  1   
 25  12  14  1   
 26  12  30  1   
 27  12  31  1   
 28  13  14  1   
 29  13  32  1   
 30  13  33  1   
 31  14  15  1   
 32  14  16  1   
 33  15  17  1   
 34  16  18  1   
 35  17  18  1   
 36  17  34  1   
 37  17  35  1   
 38  18  36  1   
 39  18  37  1   
@<TRIPOS>SUBSTRUCTURE
  1 ****  10 GROUP 4 **** **** 0

# MOE 2024.06 (io_trps.svl 2023.06)
