@<TRIPOS>MOLECULE
Structure924
24 24 1 0 0 
SMALL
USER_CHARGES


@<TRIPOS>ATOM
  1 O       -0.2090    -0.3040     0.3460 O.co2 1 <1>  -0.9000 
  2 C       -0.9100    -1.3150     0.5140 C.2   1 <1>   0.9790 
  3 O       -0.3440    -2.3800     0.8160 O.co2 1 <1>  -0.9000 
  4 C       -2.3500    -1.2790     0.3930 C.ar  1 <1>  -0.1790 
  5 C       -3.0800    -0.3620    -0.3470 C.ar  1 <1>   0.1660 
  6 C       -3.0930    -2.2300     1.0620 C.ar  1 <1>   0.1600 
  7 N       -4.3950    -0.3880    -0.3940 N.ar  1 <1>  -0.6200 
  8 C       -2.4230     0.7350    -1.1650 C.3   1 <1>  -0.0970 
  9 N       -4.4070    -2.2810     1.0330 N.ar  1 <1>  -0.6200 
 10 C       -4.9890    -1.3460     0.3010 C.ar  1 <1>   0.4770 
 11 C       -6.5230    -1.3880     0.2580 C.3   1 <1>   0.0640 
 12 C       -7.0490    -1.6310    -1.1660 C.3   1 <1>  -0.2400 
 13 C       -7.1470    -0.1110     0.8450 C.3   1 <1>  -0.2400 
 14 H       -2.5730    -2.9750     1.6430 H     1 <1>   0.1500 
 15 H       -1.6310     0.3220    -1.7630 H     1 <1>   0.0800 
 16 H       -2.0070     1.4720    -0.5030 H     1 <1>   0.0800 
 17 H       -3.1350     1.2070    -1.8140 H     1 <1>   0.0800 
 18 H       -6.8430    -2.2160     0.8680 H     1 <1>   0.0800 
 19 H       -6.7730    -0.8150    -1.8100 H     1 <1>   0.0800 
 20 H       -8.1200    -1.7270    -1.1620 H     1 <1>   0.0800 
 21 H       -6.6210    -2.5350    -1.5610 H     1 <1>   0.0800 
 22 H       -6.8730     0.7440     0.2520 H     1 <1>   0.0800 
 23 H       -6.7870     0.0400     1.8470 H     1 <1>   0.0800 
 24 H       -8.2180    -0.1910     0.8690 H     1 <1>   0.0800 
@<TRIPOS>BOND
  1   1   2  ar  
  2   2   3  ar  
  3   2   4  1   
  4   4   5  ar  
  5   4   6  ar  
  6   5   7  ar  
  7   5   8  1   
  8   6   9  ar  
  9   6  14  1   
 10   7  10  ar  
 11   8  15  1   
 12   8  16  1   
 13   8  17  1   
 14   9  10  ar  
 15  10  11  1   
 16  11  12  1   
 17  11  13  1   
 18  11  18  1   
 19  12  19  1   
 20  12  20  1   
 21  12  21  1   
 22  13  22  1   
 23  13  23  1   
 24  13  24  1   
@<TRIPOS>SUBSTRUCTURE
  1 ****   5 GROUP 4 **** **** 0

# MOE 2024.06 (io_trps.svl 2023.06)
