@<TRIPOS>MOLECULE
NONAME
44 46 1 0 0 
SMALL
USER_CHARGES


@<TRIPOS>ATOM
  1 F       -0.5960    -0.0350     0.1190 F     1 <1>  -0.1900 
  2 C       -1.7110    -0.7060     0.0300 C.ar  1 <1>   0.1900 
  3 C       -2.2160    -1.3150     1.1620 C.ar  1 <1>  -0.1500 
  4 C       -2.3470    -0.7830    -1.1940 C.ar  1 <1>  -0.1500 
  5 C       -3.4020    -2.0230     1.0630 C.ar  1 <1>  -0.1500 
  6 C       -3.5330    -1.4930    -1.2830 C.ar  1 <1>  -0.1500 
  7 C       -4.0670    -2.1090    -0.1560 C.ar  1 <1>  -0.1430 
  8 C       -5.3750    -2.8740    -0.2530 C.3   1 <1>   0.4870 
  9 N       -6.4920    -1.8990    -0.3510 N.4   1 <1>  -0.9590 
 10 C       -6.5980    -1.0340     0.8840 C.3   1 <1>   0.3430 
 11 C       -7.8080    -2.5770    -0.6410 C.3   1 <1>   0.3430 
 12 C       -7.7560    -0.0220     0.7960 C.3   1 <1>   0.2090 
 13 C       -8.9760    -1.5750    -0.7420 C.3   1 <1>   0.2090 
 14 N       -9.0420    -0.7070     0.4690 N.pl3 1 <1>  -0.8380 
 15 C      -10.1700     0.1260     0.5210 C.ar  1 <1>   0.1000 
 16 C      -10.4020     1.1900    -0.3700 C.ar  1 <1>   0.0830 
 17 C      -11.1010    -0.1280     1.5170 C.ar  1 <1>  -0.1500 
 18 O       -9.4750     1.4340    -1.3510 O.3   1 <1>  -0.3630 
 19 C      -11.5550     1.9590    -0.2350 C.ar  1 <1>  -0.1500 
 20 C      -12.2430     0.6410     1.6440 C.ar  1 <1>  -0.1500 
 21 C       -9.6380     2.5030    -2.2590 C.3   1 <1>   0.0400 
 22 C      -12.4700     1.6850     0.7680 C.ar  1 <1>  -0.1500 
 23 H       -1.6840    -1.2350     2.0940 H     1 <1>   0.1500 
 24 H       -1.9140    -0.2990    -2.0520 H     1 <1>   0.1500 
 25 H       -3.7920    -2.5040     1.9460 H     1 <1>   0.1500 
 26 H       -4.0230    -1.5600    -2.2400 H     1 <1>   0.1500 
 27 H       -5.5010    -3.5010     0.6150 H     1 <1>   0.0800 
 28 H       -5.3530    -3.5040    -1.1280 H     1 <1>   0.0800 
 29 H       -6.2820    -1.2650    -1.1310 H     1 <1>   0.4500 
 30 H       -5.6770    -0.4940     1.0340 H     1 <1>   0.0800 
 31 H       -6.7630    -1.6550     1.7480 H     1 <1>   0.0800 
 32 H       -8.0380    -3.2730     0.1490 H     1 <1>   0.0800 
 33 H       -7.7440    -3.1300    -1.5630 H     1 <1>   0.0800 
 34 H       -7.5320     0.7190     0.0490 H     1 <1>   0.0800 
 35 H       -7.8600     0.4860     1.7400 H     1 <1>   0.0800 
 36 H       -9.9030    -2.1150    -0.8370 H     1 <1>   0.0800 
 37 H       -8.8580    -0.9700    -1.6240 H     1 <1>   0.0800 
 38 H      -10.9250    -0.9390     2.1990 H     1 <1>   0.1500 
 39 H      -11.7690     2.7770    -0.8950 H     1 <1>   0.1500 
 40 H      -12.9540     0.4270     2.4240 H     1 <1>   0.1500 
 41 H       -8.7940     2.5110    -2.9250 H     1 <1>   0.0800 
 42 H       -9.6770     3.4270    -1.7100 H     1 <1>   0.0800 
 43 H      -10.5420     2.3500    -2.8210 H     1 <1>   0.0800 
 44 H      -13.3590     2.2840     0.8650 H     1 <1>   0.1500 
@<TRIPOS>BOND
  1   1   2  1   
  2   2   3  ar  
  3   2   4  ar  
  4   3   5  ar  
  5   3  23  1   
  6   4   6  ar  
  7   4  24  1   
  8   5   7  ar  
  9   5  25  1   
 10   6   7  ar  
 11   6  26  1   
 12   7   8  1   
 13   8   9  1   
 14   8  27  1   
 15   8  28  1   
 16   9  10  1   
 17   9  11  1   
 18   9  29  1   
 19  10  12  1   
 20  10  30  1   
 21  10  31  1   
 22  11  13  1   
 23  11  32  1   
 24  11  33  1   
 25  12  14  1   
 26  12  34  1   
 27  12  35  1   
 28  13  14  1   
 29  13  36  1   
 30  13  37  1   
 31  14  15  1   
 32  15  16  ar  
 33  15  17  ar  
 34  16  18  1   
 35  16  19  ar  
 36  17  20  ar  
 37  17  38  1   
 38  18  21  1   
 39  19  22  ar  
 40  19  39  1   
 41  20  22  ar  
 42  20  40  1   
 43  21  41  1   
 44  21  42  1   
 45  21  43  1   
 46  22  44  1   
@<TRIPOS>SUBSTRUCTURE
  1 ****  12 GROUP 4 **** **** 0

# MOE 2024.06 (io_trps.svl 2023.06)
