@<TRIPOS>MOLECULE
NONAME
41 42 1 0 0 
SMALL
USER_CHARGES


@<TRIPOS>ATOM
  1 S       -0.1180     0.0620    -0.4250 S.o2  1 <1>   1.3330 
  2 O       -0.3400     1.4650    -0.1530 O.2   1 <1>  -0.6500 
  3 O        0.1870    -0.3700    -1.7710 O.2   1 <1>  -0.6500 
  4 N       -1.4890    -0.7960     0.0800 N.am  1 <1>  -0.8490 
  5 C        1.1500    -0.5350     0.7030 C.3   1 <1>  -0.0550 
  6 C       -2.7230     0.0180    -0.0100 C.3   1 <1>   0.1960 
  7 C       -1.6200    -2.1090    -0.5490 C.3   1 <1>   0.1960 
  8 C        2.5440     0.0760     0.4760 C.3   1 <1>  -0.2400 
  9 C       -4.0200    -0.8250    -0.0460 C.3   1 <1>  -0.0190 
 10 C       -2.6630    -2.9490     0.2060 C.3   1 <1>  -0.1600 
 11 C       -5.2430    -0.0270     0.4140 C.2   1 <1>   0.5690 
 12 C       -3.8380    -2.1230     0.7630 C.3   1 <1>  -0.1600 
 13 O       -5.0760     0.8480     1.2310 O.2   1 <1>  -0.5700 
 14 N       -6.5020    -0.2960    -0.0760 N.am  1 <1>  -0.6600 
 15 C       -6.8990    -1.4900    -0.8870 C.3   1 <1>   0.1400 
 16 C       -7.6560     0.5890     0.2830 C.3   1 <1>   0.1400 
 17 C       -7.7610    -2.4550    -0.0620 C.3   1 <1>   0.0700 
 18 C       -8.5980    -0.1090     1.2680 C.3   1 <1>   0.0700 
 19 S       -9.2690    -1.6040     0.4830 S.3   1 <1>  -0.4600 
 20 H        1.2250    -1.6000     0.6090 H     1 <1>   0.0800 
 21 H        0.8410    -0.3200     1.7080 H     1 <1>   0.0800 
 22 H       -2.6960     0.6340    -0.8940 H     1 <1>   0.0800 
 23 H       -2.7290     0.6800     0.8400 H     1 <1>   0.0800 
 24 H       -0.6740    -2.6260    -0.5390 H     1 <1>   0.0800 
 25 H       -1.9150    -1.9820    -1.5780 H     1 <1>   0.0800 
 26 H        2.8880    -0.1460    -0.5200 H     1 <1>   0.0800 
 27 H        3.2470    -0.3230     1.1850 H     1 <1>   0.0800 
 28 H        2.5010     1.1460     0.5940 H     1 <1>   0.0800 
 29 H       -4.1720    -1.0780    -1.0770 H     1 <1>   0.0800 
 30 H       -2.1790    -3.4600     1.0200 H     1 <1>   0.0800 
 31 H       -3.0340    -3.7030    -0.4650 H     1 <1>   0.0800 
 32 H       -4.7370    -2.7120     0.7620 H     1 <1>   0.0800 
 33 H       -3.6250    -1.8520     1.7840 H     1 <1>   0.0800 
 34 H       -6.0400    -2.0230    -1.2460 H     1 <1>   0.0800 
 35 H       -7.4590    -1.1620    -1.7470 H     1 <1>   0.0800 
 36 H       -8.1980     0.8490    -0.6090 H     1 <1>   0.0800 
 37 H       -7.3040     1.5060     0.7250 H     1 <1>   0.0800 
 38 H       -7.2410    -2.7890     0.8180 H     1 <1>   0.0800 
 39 H       -8.0720    -3.3010    -0.6470 H     1 <1>   0.0800 
 40 H       -9.4320     0.5190     1.5230 H     1 <1>   0.0800 
 41 H       -8.0760    -0.4070     2.1600 H     1 <1>   0.0800 
@<TRIPOS>BOND
  1   1   2  2   
  2   1   3  2   
  3   1   4  am  
  4   1   5  1   
  5   4   6  1   
  6   4   7  1   
  7   5   8  1   
  8   5  20  1   
  9   5  21  1   
 10   6   9  1   
 11   6  22  1   
 12   6  23  1   
 13   7  10  1   
 14   7  24  1   
 15   7  25  1   
 16   8  26  1   
 17   8  27  1   
 18   8  28  1   
 19   9  11  1   
 20   9  12  1   
 21   9  29  1   
 22  10  12  1   
 23  10  30  1   
 24  10  31  1   
 25  11  13  2   
 26  11  14  am  
 27  12  32  1   
 28  12  33  1   
 29  14  15  1   
 30  14  16  1   
 31  15  17  1   
 32  15  34  1   
 33  15  35  1   
 34  16  18  1   
 35  16  36  1   
 36  16  37  1   
 37  17  19  1   
 38  17  38  1   
 39  17  39  1   
 40  18  19  1   
 41  18  40  1   
 42  18  41  1   
@<TRIPOS>SUBSTRUCTURE
  1 ****   9 GROUP 4 **** **** 0

# MOE 2024.06 (io_trps.svl 2023.06)
