@<TRIPOS>MOLECULE
NONAME
47 49 1 0 0 
SMALL
USER_CHARGES


@<TRIPOS>ATOM
  1 CL       3.7890     2.9560     3.3370 Cl    1 <1>  -0.1770 
  2 C        3.4830     2.2840     1.7520 C.ar  1 <1>   0.1770 
  3 C        2.1870     2.2370     1.2540 C.ar  1 <1>  -0.1440 
  4 C        4.5540     1.8090     1.0240 C.ar  1 <1>  -0.1500 
  5 C        1.9830     1.6980    -0.0080 C.ar  1 <1>  -0.1500 
  6 C        1.0120     2.7640     2.0650 C.3   1 <1>  -0.0960 
  7 C        4.3480     1.2660    -0.2360 C.ar  1 <1>   0.1990 
  8 C        3.0550     1.2200    -0.7420 C.ar  1 <1>  -0.1500 
  9 N        5.4050     0.7810    -0.9940 N.am  1 <1>  -0.6930 
 10 S        6.2430    -0.6610    -0.5300 S.o2  1 <1>   1.3330 
 11 C        6.1800     1.7840    -1.7940 C.3   1 <1>   0.2570 
 12 O        7.3860    -0.7730    -1.4060 O.2   1 <1>  -0.6500 
 13 O        6.4300    -0.6340     0.8980 O.2   1 <1>  -0.6500 
 14 C        5.0700    -1.9270    -0.9610 C.3   1 <1>  -0.1350 
 15 C        7.2810     2.4980    -1.0040 C.2   1 <1>   0.5690 
 16 O        7.1350     3.6640    -0.7230 O.2   1 <1>  -0.5700 
 17 N        8.3890     1.8060    -0.6380 N.am  1 <1>  -0.7300 
 18 C        9.4420     2.2870     0.2690 C.3   1 <1>   0.2200 
 19 C       10.8390     1.7420    -0.1030 C.3   1 <1>  -0.0800 
 20 C        9.2250     1.7410     1.6880 C.3   1 <1>  -0.1600 
 21 C       11.5460     1.8290     1.2420 C.3   1 <1>  -0.1600 
 22 C       10.8090     0.2110    -0.2970 C.3   1 <1>  -0.1600 
 23 C       10.5260     0.9720     1.9740 C.3   1 <1>  -0.0800 
 24 C       10.5270    -0.3100     1.1230 C.3   1 <1>  -0.1600 
 25 H        5.5460     1.8620     1.4360 H     1 <1>   0.1500 
 26 H        0.9910     1.6510    -0.4230 H     1 <1>   0.1500 
 27 H        0.9390     2.2280     2.9950 H     1 <1>   0.0800 
 28 H        0.0880     2.6470     1.5300 H     1 <1>   0.0800 
 29 H        1.1540     3.8090     2.2790 H     1 <1>   0.0800 
 30 H        2.8910     0.8080    -1.7210 H     1 <1>   0.1500 
 31 H        5.5020     2.5310    -2.1650 H     1 <1>   0.0800 
 32 H        6.6240     1.3000    -2.6440 H     1 <1>   0.0800 
 33 H        4.8400    -1.8780    -2.0070 H     1 <1>   0.0800 
 34 H        4.1660    -1.7990    -0.3990 H     1 <1>   0.0800 
 35 H        5.4780    -2.8940    -0.7410 H     1 <1>   0.0800 
 36 H        8.4440     0.8010    -0.8470 H     1 <1>   0.3700 
 37 H        9.4540     3.3650     0.2870 H     1 <1>   0.0800 
 38 H       11.3180     2.2860    -0.8970 H     1 <1>   0.0800 
 39 H        8.3580     1.1090     1.7680 H     1 <1>   0.0800 
 40 H        9.1260     2.5610     2.3760 H     1 <1>   0.0800 
 41 H       11.5970     2.8350     1.6250 H     1 <1>   0.0800 
 42 H       12.5290     1.3880     1.2290 H     1 <1>   0.0800 
 43 H       11.7750    -0.1320    -0.6260 H     1 <1>   0.0800 
 44 H       10.0750    -0.1190    -1.0090 H     1 <1>   0.0800 
 45 H       10.7190     0.8070     3.0200 H     1 <1>   0.0800 
 46 H       11.3130    -0.9740     1.4400 H     1 <1>   0.0800 
 47 H        9.5840    -0.8270     1.1810 H     1 <1>   0.0800 
@<TRIPOS>BOND
  1   1   2  1   
  2   2   3  ar  
  3   2   4  ar  
  4   3   5  ar  
  5   3   6  1   
  6   4   7  ar  
  7   4  25  1   
  8   5   8  ar  
  9   5  26  1   
 10   6  27  1   
 11   6  28  1   
 12   6  29  1   
 13   7   8  ar  
 14   7   9  1   
 15   8  30  1   
 16   9  10  am  
 17   9  11  1   
 18  10  12  2   
 19  10  13  2   
 20  10  14  1   
 21  11  15  1   
 22  11  31  1   
 23  11  32  1   
 24  14  33  1   
 25  14  34  1   
 26  14  35  1   
 27  15  16  2   
 28  15  17  am  
 29  17  18  1   
 30  17  36  1   
 31  18  19  1   
 32  18  20  1   
 33  18  37  1   
 34  19  21  1   
 35  19  22  1   
 36  19  38  1   
 37  20  23  1   
 38  20  39  1   
 39  20  40  1   
 40  21  23  1   
 41  21  41  1   
 42  21  42  1   
 43  22  24  1   
 44  22  43  1   
 45  22  44  1   
 46  23  24  1   
 47  23  45  1   
 48  24  46  1   
 49  24  47  1   
@<TRIPOS>SUBSTRUCTURE
  1 ****   9 GROUP 4 **** **** 0

# MOE 2024.06 (io_trps.svl 2023.06)
