@<TRIPOS>MOLECULE
NONAME
43 44 1 0 0 
SMALL
USER_CHARGES


@<TRIPOS>ATOM
  1 S        0.3140     0.3510     1.4330 S.o2  1 <1>   1.4470 
  2 O       -0.2860    -0.4980     2.4300 O.2   1 <1>  -0.6500 
  3 O        1.3230     1.3200     1.8110 O.2   1 <1>  -0.6500 
  4 N        1.0650    -0.7130     0.3620 N.am  1 <1>  -0.9140 
  5 C       -0.9810     1.1310     0.4300 C.ar  1 <1>  -0.0090 
  6 C        2.1550    -0.2860    -0.4880 C.3   1 <1>   0.3560 
  7 C       -0.9900     2.5020     0.1940 C.ar  1 <1>  -0.1500 
  8 C       -1.9950     0.3670    -0.1370 C.ar  1 <1>  -0.1500 
  9 C        3.4430    -0.0590     0.3780 C.3   1 <1>   0.3430 
 10 C        1.7230     0.9000    -1.3680 C.3   1 <1>  -0.2400 
 11 C        2.4140    -1.4730    -1.4180 C.3   1 <1>  -0.2400 
 12 C       -1.9620     3.0870    -0.5990 C.ar  1 <1>  -0.1500 
 13 C       -2.9700     0.9440    -0.9320 C.ar  1 <1>  -0.1500 
 14 N        4.2860     1.1440     0.0450 N.4   1 <1>  -0.9590 
 15 C       -2.9510     2.3060    -1.1670 C.ar  1 <1>  -0.1500 
 16 C        5.7520     0.8950     0.2390 C.3   1 <1>   0.3430 
 17 C        3.8760     2.3600     0.8350 C.3   1 <1>   0.3430 
 18 C        6.5860     2.1590    -0.0820 C.3   1 <1>   0.1200 
 19 C        4.8060     3.5620     0.5530 C.3   1 <1>   0.1200 
 20 O        5.7630     3.2430    -0.4210 O.3   1 <1>  -0.5600 
 21 H        0.3360    -1.1840    -0.1670 H     1 <1>   0.4200 
 22 H       -0.2330     3.1260     0.6360 H     1 <1>   0.1500 
 23 H       -2.0360    -0.6940     0.0490 H     1 <1>   0.1500 
 24 H        4.0510    -0.9420     0.2770 H     1 <1>   0.0800 
 25 H        3.1540    -0.0050     1.4140 H     1 <1>   0.0800 
 26 H        0.8070     0.6740    -1.8860 H     1 <1>   0.0800 
 27 H        2.4690     1.1040    -2.1150 H     1 <1>   0.0800 
 28 H        1.5810     1.7960    -0.7960 H     1 <1>   0.0800 
 29 H        1.5530    -1.6820    -2.0290 H     1 <1>   0.0800 
 30 H        2.6540    -2.3570    -0.8520 H     1 <1>   0.0800 
 31 H        3.2390    -1.2640    -2.0760 H     1 <1>   0.0800 
 32 H       -1.9540     4.1500    -0.7730 H     1 <1>   0.1500 
 33 H       -3.7480     0.3370    -1.3640 H     1 <1>   0.1500 
 34 H        4.1750     1.4060    -0.9440 H     1 <1>   0.4500 
 35 H       -3.7090     2.7590    -1.7840 H     1 <1>   0.1500 
 36 H        6.0800     0.0890    -0.3970 H     1 <1>   0.0800 
 37 H        5.9430     0.6030     1.2580 H     1 <1>   0.0800 
 38 H        3.8940     2.1390     1.8900 H     1 <1>   0.0800 
 39 H        2.8650     2.6390     0.5930 H     1 <1>   0.0800 
 40 H        7.2390     1.9710    -0.9170 H     1 <1>   0.0800 
 41 H        7.1940     2.4380     0.7620 H     1 <1>   0.0800 
 42 H        5.3140     3.8690     1.4520 H     1 <1>   0.0800 
 43 H        4.2320     4.3970     0.1910 H     1 <1>   0.0800 
@<TRIPOS>BOND
  1   1   2  2   
  2   1   3  2   
  3   1   4  am  
  4   1   5  1   
  5   4   6  1   
  6   4  21  1   
  7   5   7  ar  
  8   5   8  ar  
  9   6   9  1   
 10   6  10  1   
 11   6  11  1   
 12   7  12  ar  
 13   7  22  1   
 14   8  13  ar  
 15   8  23  1   
 16   9  14  1   
 17   9  24  1   
 18   9  25  1   
 19  10  26  1   
 20  10  27  1   
 21  10  28  1   
 22  11  29  1   
 23  11  30  1   
 24  11  31  1   
 25  12  15  ar  
 26  12  32  1   
 27  13  15  ar  
 28  13  33  1   
 29  14  16  1   
 30  14  17  1   
 31  14  34  1   
 32  15  35  1   
 33  16  18  1   
 34  16  36  1   
 35  16  37  1   
 36  17  19  1   
 37  17  38  1   
 38  17  39  1   
 39  18  20  1   
 40  18  40  1   
 41  18  41  1   
 42  19  20  1   
 43  19  42  1   
 44  19  43  1   
@<TRIPOS>SUBSTRUCTURE
  1 ****  10 GROUP 4 **** **** 0

# MOE 2024.06 (io_trps.svl 2023.06)
