@<TRIPOS>MOLECULE
NONAME
39 40 1 0 0 
SMALL
USER_CHARGES


@<TRIPOS>ATOM
  1 BR      -0.4190     0.2400    -1.8020 Br    1 <1>  -0.1110 
  2 C       -2.2040     0.2160    -1.0930 C.ar  1 <1>   0.1110 
  3 C       -2.9100    -0.9700    -1.0950 C.ar  1 <1>  -0.1500 
  4 C       -2.7430     1.3870    -0.5960 C.ar  1 <1>  -0.1500 
  5 C       -4.1960    -0.9750    -0.5830 C.ar  1 <1>  -0.1500 
  6 C       -4.0290     1.3620    -0.0870 C.ar  1 <1>  -0.1500 
  7 C       -4.7900     0.1850    -0.0710 C.ar  1 <1>   0.0860 
  8 C       -6.1460     0.1520     0.4540 C.2   1 <1>   0.5440 
  9 O       -6.6750    -0.8990     0.7650 O.2   1 <1>  -0.5700 
 10 N       -6.8740     1.2940     0.6070 N.am  1 <1>  -0.7300 
 11 C       -8.2920     1.3520     1.0640 C.3   1 <1>   0.2010 
 12 C       -8.9690     2.6930     0.7390 C.2   1 <1>   0.5690 
 13 O       -8.2570     3.6030     0.3680 O.2   1 <1>  -0.5700 
 14 N      -10.3300     2.8500     0.8730 N.am  1 <1>  -0.6600 
 15 C      -11.2240     1.7900     1.4170 C.3   1 <1>   0.1400 
 16 C      -10.9620     4.1560     0.5200 C.3   1 <1>   0.1400 
 17 C      -11.7660     0.9190     0.2780 C.3   1 <1>  -0.1600 
 18 C      -12.3670     4.0390    -0.0890 C.3   1 <1>  -0.1600 
 19 C      -12.8850     1.5750    -0.5450 C.3   1 <1>  -0.1600 
 20 C      -12.5150     2.9370    -1.1520 C.3   1 <1>  -0.1600 
 21 H       -2.4630    -1.8660    -1.4860 H     1 <1>   0.1500 
 22 H       -2.1650     2.2940    -0.6060 H     1 <1>   0.1500 
 23 H       -4.7590    -1.8930    -0.5760 H     1 <1>   0.1500 
 24 H       -4.4450     2.2710     0.3090 H     1 <1>   0.1500 
 25 H       -6.5430     2.1940     0.2440 H     1 <1>   0.3700 
 26 H       -8.3150     1.2020     2.1280 H     1 <1>   0.0800 
 27 H       -8.8370     0.5550     0.5950 H     1 <1>   0.0800 
 28 H      -12.0350     2.2360     1.9680 H     1 <1>   0.0800 
 29 H      -10.6770     1.1720     2.1080 H     1 <1>   0.0800 
 30 H      -10.3370     4.6640    -0.1950 H     1 <1>   0.0800 
 31 H      -11.0040     4.7720     1.4020 H     1 <1>   0.0800 
 32 H      -12.1600     0.0140     0.7070 H     1 <1>   0.0800 
 33 H      -10.9590     0.6350    -0.3740 H     1 <1>   0.0800 
 34 H      -12.5890     4.9850    -0.5500 H     1 <1>   0.0800 
 35 H      -13.0940     3.9050     0.6920 H     1 <1>   0.0800 
 36 H      -13.7610     1.6880     0.0710 H     1 <1>   0.0800 
 37 H      -13.1470     0.9060    -1.3470 H     1 <1>   0.0800 
 38 H      -11.6130     2.8560    -1.7360 H     1 <1>   0.0800 
 39 H      -13.3070     3.2220    -1.8230 H     1 <1>   0.0800 
@<TRIPOS>BOND
  1   1   2  1   
  2   2   3  ar  
  3   2   4  ar  
  4   3   5  ar  
  5   3  21  1   
  6   4   6  ar  
  7   4  22  1   
  8   5   7  ar  
  9   5  23  1   
 10   6   7  ar  
 11   6  24  1   
 12   7   8  1   
 13   8   9  2   
 14   8  10  am  
 15  10  11  1   
 16  10  25  1   
 17  11  12  1   
 18  11  26  1   
 19  11  27  1   
 20  12  13  2   
 21  12  14  am  
 22  14  15  1   
 23  14  16  1   
 24  15  17  1   
 25  15  28  1   
 26  15  29  1   
 27  16  18  1   
 28  16  30  1   
 29  16  31  1   
 30  17  19  1   
 31  17  32  1   
 32  17  33  1   
 33  18  20  1   
 34  18  34  1   
 35  18  35  1   
 36  19  20  1   
 37  19  36  1   
 38  19  37  1   
 39  20  38  1   
 40  20  39  1   
@<TRIPOS>SUBSTRUCTURE
  1 ****  10 GROUP 4 **** **** 0

# MOE 2024.06 (io_trps.svl 2023.06)
