@<TRIPOS>MOLECULE
NONAME
43 46 1 0 0 
SMALL
USER_CHARGES


@<TRIPOS>ATOM
  1 S       -0.2250    -1.1600     1.6800 S.3   1 <1>  -0.2860 
  2 C       -1.1590     0.3280     1.2990 C.2   1 <1>   0.2420 
  3 C        1.2840    -0.5540     2.5830 C.3   1 <1>   0.1310 
  4 N       -0.8330     1.5100     1.6820 N.2   1 <1>  -0.3380 
  5 N       -2.2670     0.2940     0.5640 N.pl3 1 <1>   0.0480 
  6 C        2.5270    -0.7360     1.7230 C.2   1 <1>   0.5690 
  7 N       -1.7590     2.3250     1.1730 N.2   1 <1>  -0.3380 
  8 C       -2.6200     1.5940     0.5180 C.2   1 <1>   0.1870 
  9 C       -2.8790    -0.8760    -0.1030 C.3   1 <1>   0.0160 
 10 O        3.2270    -1.6960     1.9490 O.2   1 <1>  -0.5700 
 11 N        2.8520     0.1630     0.7420 N.am  1 <1>  -0.6600 
 12 C       -3.7770     2.0920    -0.1800 C.2   1 <1>  -0.0010 
 13 C        2.0910     1.3760     0.3670 C.3   1 <1>   0.1400 
 14 C        4.0470     0.0020    -0.1120 C.3   1 <1>   0.1400 
 15 C       -5.1130     1.6400    -0.0050 C.ar  1 <1>   0.0000 
 16 C       -3.8250     3.0650    -1.1330 C.2   1 <1>  -0.3020 
 17 C        3.0060     2.1260    -0.5930 C.3   1 <1>  -0.1600 
 18 C        3.8830     1.0430    -1.2140 C.3   1 <1>  -0.1600 
 19 C       -5.9040     2.3510    -0.9020 C.ar  1 <1>  -0.1520 
 20 C       -5.7150     0.7060     0.8450 C.ar  1 <1>  -0.1500 
 21 N       -5.1000     3.2290    -1.5800 N.pl3 1 <1>   0.0330 
 22 C       -7.2780     2.1210    -0.9930 C.ar  1 <1>  -0.1500 
 23 C       -7.0700     0.4800     0.7590 C.ar  1 <1>  -0.1500 
 24 C       -7.8510     1.1850    -0.1640 C.ar  1 <1>  -0.1500 
 25 H        1.3680    -1.1490     3.4730 H     1 <1>   0.0800 
 26 H        1.1430     0.4730     2.8540 H     1 <1>   0.0800 
 27 H       -2.1090    -1.4720    -0.5570 H     1 <1>   0.0800 
 28 H       -3.5640    -0.5490    -0.8640 H     1 <1>   0.0800 
 29 H       -3.4050    -1.4660     0.6250 H     1 <1>   0.0800 
 30 H        1.8510     1.9760     1.2290 H     1 <1>   0.0800 
 31 H        1.1870     1.0840    -0.1390 H     1 <1>   0.0800 
 32 H        4.1020    -0.9980    -0.5100 H     1 <1>   0.0800 
 33 H        4.9260     0.2040     0.4760 H     1 <1>   0.0800 
 34 H       -3.0030     3.6470    -1.5110 H     1 <1>   0.1500 
 35 H        3.6140     2.8130    -0.0300 H     1 <1>   0.0800 
 36 H        2.4460     2.6770    -1.3280 H     1 <1>   0.0800 
 37 H        3.3730     0.5910    -2.0460 H     1 <1>   0.0800 
 38 H        4.8320     1.4230    -1.5480 H     1 <1>   0.0800 
 39 H       -5.1140     0.1820     1.5650 H     1 <1>   0.1500 
 40 H       -5.4220     3.9000    -2.2860 H     1 <1>   0.2700 
 41 H       -7.8730     2.6740    -1.6990 H     1 <1>   0.1500 
 42 H       -7.5450    -0.2370     1.4050 H     1 <1>   0.1500 
 43 H       -8.9080     0.9890    -0.2140 H     1 <1>   0.1500 
@<TRIPOS>BOND
  1   1   2  1   
  2   1   3  1   
  3   2   4  2   
  4   2   5  1   
  5   3   6  1   
  6   3  25  1   
  7   3  26  1   
  8   4   7  1   
  9   5   8  1   
 10   5   9  1   
 11   6  10  2   
 12   6  11  am  
 13   7   8  2   
 14   8  12  1   
 15   9  27  1   
 16   9  28  1   
 17   9  29  1   
 18  11  13  1   
 19  11  14  1   
 20  12  15  1   
 21  12  16  2   
 22  13  17  1   
 23  13  30  1   
 24  13  31  1   
 25  14  18  1   
 26  14  32  1   
 27  14  33  1   
 28  15  19  ar  
 29  15  20  ar  
 30  16  21  1   
 31  16  34  1   
 32  17  18  1   
 33  17  35  1   
 34  17  36  1   
 35  18  37  1   
 36  18  38  1   
 37  19  21  1   
 38  19  22  ar  
 39  20  23  ar  
 40  20  39  1   
 41  21  40  1   
 42  22  24  ar  
 43  22  41  1   
 44  23  24  ar  
 45  23  42  1   
 46  24  43  1   
@<TRIPOS>SUBSTRUCTURE
  1 ****   5 GROUP 4 **** **** 0

# MOE 2024.06 (io_trps.svl 2023.06)
