@<TRIPOS>MOLECULE
NONAME
43 45 1 0 0 
SMALL
USER_CHARGES


@<TRIPOS>ATOM
  1 O       -0.2230    -0.5150     0.9120 O.2   1 <1>  -0.5700 
  2 C       -0.0710    -1.6910     0.6290 C.2   1 <1>   0.7670 
  3 N       -1.2200    -2.4370     0.6480 N.2   1 <1>  -0.6610 
  4 C        1.1890    -2.2880     0.3170 C.2   1 <1>  -0.1240 
  5 C       -1.1400    -3.6970     0.4380 C.2   1 <1>   0.4390 
  6 C        1.2390    -3.6450     0.1640 C.2   1 <1>   0.0720 
  7 C        2.4960    -1.4710     0.1900 C.3   1 <1>   0.1380 
  8 N        0.0460    -4.3280     0.2050 N.pl3 1 <1>  -0.5500 
  9 C       -2.4450    -4.5170     0.4630 C.3   1 <1>   0.4040 
 10 C        2.4710    -4.3810    -0.0260 C.ar  1 <1>   0.0280 
 11 C        3.4780    -2.2050    -0.7570 C.3   1 <1>  -0.0160 
 12 C        3.1210    -1.3410     1.5880 C.3   1 <1>  -0.2400 
 13 C        2.3120    -0.0590    -0.4010 C.3   1 <1>  -0.2400 
 14 N       -3.6710    -3.6340     0.4420 N.4   1 <1>  -0.9590 
 15 C        3.5980    -3.6930    -0.4680 C.ar  1 <1>  -0.1430 
 16 C        2.6010    -5.7460     0.2360 C.ar  1 <1>  -0.1500 
 17 C       -4.8640    -4.2690     1.0760 C.3   1 <1>   0.2630 
 18 C       -3.9660    -3.1220    -0.9320 C.3   1 <1>   0.2630 
 19 C        4.8040    -4.3460    -0.6560 C.ar  1 <1>  -0.1500 
 20 C        3.8040    -6.4000     0.0480 C.ar  1 <1>  -0.1500 
 21 C        4.9090    -5.7010    -0.4010 C.ar  1 <1>  -0.1500 
 22 H        0.0900    -5.3350     0.0290 H     1 <1>   0.4000 
 23 H       -2.4440    -5.1040     1.3650 H     1 <1>   0.0800 
 24 H       -2.4650    -5.1880    -0.3780 H     1 <1>   0.0800 
 25 H        4.4490    -1.7440    -0.7010 H     1 <1>   0.0800 
 26 H        3.1320    -2.1030    -1.7710 H     1 <1>   0.0800 
 27 H        3.3210    -2.3110     2.0080 H     1 <1>   0.0800 
 28 H        2.4500    -0.8190     2.2480 H     1 <1>   0.0800 
 29 H        4.0450    -0.7930     1.5430 H     1 <1>   0.0800 
 30 H        1.7140    -0.0960    -1.2940 H     1 <1>   0.0800 
 31 H        3.2640     0.3780    -0.6470 H     1 <1>   0.0800 
 32 H        1.8390     0.6050     0.3000 H     1 <1>   0.0800 
 33 H       -3.3820    -2.8010     0.9970 H     1 <1>   0.4500 
 34 H        1.7700    -6.3140     0.6060 H     1 <1>   0.1500 
 35 H       -5.1670    -5.1410     0.5190 H     1 <1>   0.0800 
 36 H       -5.6870    -3.5730     1.1000 H     1 <1>   0.0800 
 37 H       -4.6380    -4.5640     2.0880 H     1 <1>   0.0800 
 38 H       -4.2200    -3.9350    -1.5930 H     1 <1>   0.0800 
 39 H       -3.1060    -2.6050    -1.3280 H     1 <1>   0.0800 
 40 H       -4.7920    -2.4300    -0.9020 H     1 <1>   0.0800 
 41 H        5.6690    -3.8070    -1.0030 H     1 <1>   0.1500 
 42 H        3.8880    -7.4540     0.2530 H     1 <1>   0.1500 
 43 H        5.8470    -6.2070    -0.5480 H     1 <1>   0.1500 
@<TRIPOS>BOND
  1   1   2  2   
  2   2   3  1   
  3   2   4  1   
  4   3   5  2   
  5   4   6  2   
  6   4   7  1   
  7   5   8  1   
  8   5   9  1   
  9   6   8  1   
 10   6  10  1   
 11   7  11  1   
 12   7  12  1   
 13   7  13  1   
 14   8  22  1   
 15   9  14  1   
 16   9  23  1   
 17   9  24  1   
 18  10  15  ar  
 19  10  16  ar  
 20  11  15  1   
 21  11  25  1   
 22  11  26  1   
 23  12  27  1   
 24  12  28  1   
 25  12  29  1   
 26  13  30  1   
 27  13  31  1   
 28  13  32  1   
 29  14  17  1   
 30  14  18  1   
 31  14  33  1   
 32  15  19  ar  
 33  16  20  ar  
 34  16  34  1   
 35  17  35  1   
 36  17  36  1   
 37  17  37  1   
 38  18  38  1   
 39  18  39  1   
 40  18  40  1   
 41  19  21  ar  
 42  19  41  1   
 43  20  21  ar  
 44  20  42  1   
 45  21  43  1   
@<TRIPOS>SUBSTRUCTURE
  1 ****   6 GROUP 4 **** **** 0

# MOE 2024.06 (io_trps.svl 2023.06)
