@<TRIPOS>MOLECULE
NONAME
43 44 1 0 0 
SMALL
USER_CHARGES


@<TRIPOS>ATOM
  1 F       -1.5410     0.4230    -2.5950 F     1 <1>  -0.3400 
  2 C       -2.3800    -0.3950    -1.9740 C.3   1 <1>   1.1640 
  3 F       -3.3040    -0.7320    -2.8670 F     1 <1>  -0.3400 
  4 F       -1.7030    -1.5020    -1.7040 F     1 <1>  -0.3400 
  5 C       -3.0120     0.2120    -0.7070 C.ar  1 <1>  -0.1440 
  6 C       -4.1300    -0.3830    -0.1290 C.ar  1 <1>  -0.1500 
  7 C       -2.4830     1.3520    -0.1100 C.ar  1 <1>  -0.1500 
  8 C       -4.7140     0.1460     1.0140 C.ar  1 <1>  -0.1440 
  9 C       -3.0560     1.8800     1.0330 C.ar  1 <1>  -0.1500 
 10 C       -4.1660     1.2790     1.5950 C.ar  1 <1>  -0.1500 
 11 C       -5.9390    -0.5070     1.6270 C.3   1 <1>   0.4870 
 12 N       -7.1320    -0.1940     0.7900 N.4   1 <1>  -0.9590 
 13 C       -7.4160     1.2710     0.7580 C.3   1 <1>   0.3430 
 14 C       -8.3160    -0.9890     1.2190 C.3   1 <1>   0.3430 
 15 C       -8.5520     1.5500    -0.2250 C.3   1 <1>  -0.1600 
 16 C       -9.4690    -0.7570     0.2450 C.3   1 <1>  -0.1600 
 17 C       -9.8180     0.7360     0.1040 C.3   1 <1>  -0.0190 
 18 C      -10.8940     0.9460    -0.9580 C.2   1 <1>   0.6590 
 19 O      -10.7030     0.6390    -2.1050 O.2   1 <1>  -0.5700 
 20 O      -12.0320     1.4770    -0.5360 O.3   1 <1>  -0.4300 
 21 C      -13.1020     1.7180    -1.4220 C.3   1 <1>   0.1200 
 22 C      -14.2480     2.3290    -0.6230 C.3   1 <1>  -0.2400 
 23 H       -4.5370    -1.2730    -0.5810 H     1 <1>   0.1500 
 24 H       -1.6150     1.8380    -0.5260 H     1 <1>   0.1500 
 25 H       -2.6280     2.7600     1.4860 H     1 <1>   0.1500 
 26 H       -4.5880     1.7070     2.4890 H     1 <1>   0.1500 
 27 H       -6.0840    -0.1450     2.6330 H     1 <1>   0.0800 
 28 H       -5.7850    -1.5730     1.6690 H     1 <1>   0.0800 
 29 H       -6.8940    -0.4660    -0.1730 H     1 <1>   0.4500 
 30 H       -6.5370     1.8140     0.4450 H     1 <1>   0.0800 
 31 H       -7.6950     1.6140     1.7410 H     1 <1>   0.0800 
 32 H       -8.6170    -0.6920     2.2110 H     1 <1>   0.0800 
 33 H       -8.0710    -2.0400     1.2380 H     1 <1>   0.0800 
 34 H       -8.2160     1.3230    -1.2240 H     1 <1>   0.0800 
 35 H       -8.7870     2.6000    -0.2010 H     1 <1>   0.0800 
 36 H      -10.3360    -1.2930     0.5920 H     1 <1>   0.0800 
 37 H       -9.2070    -1.1670    -0.7170 H     1 <1>   0.0800 
 38 H      -10.2140     1.0850     1.0430 H     1 <1>   0.0800 
 39 H      -13.3960     0.7830    -1.8670 H     1 <1>   0.0800 
 40 H      -12.7640     2.3930    -2.1910 H     1 <1>   0.0800 
 41 H      -14.5700     1.6500     0.1460 H     1 <1>   0.0800 
 42 H      -15.0800     2.5240    -1.2760 H     1 <1>   0.0800 
 43 H      -13.9390     3.2580    -0.1780 H     1 <1>   0.0800 
@<TRIPOS>BOND
  1   1   2  1   
  2   2   3  1   
  3   2   4  1   
  4   2   5  1   
  5   5   6  ar  
  6   5   7  ar  
  7   6   8  ar  
  8   6  23  1   
  9   7   9  ar  
 10   7  24  1   
 11   8  10  ar  
 12   8  11  1   
 13   9  10  ar  
 14   9  25  1   
 15  10  26  1   
 16  11  12  1   
 17  11  27  1   
 18  11  28  1   
 19  12  13  1   
 20  12  14  1   
 21  12  29  1   
 22  13  15  1   
 23  13  30  1   
 24  13  31  1   
 25  14  16  1   
 26  14  32  1   
 27  14  33  1   
 28  15  17  1   
 29  15  34  1   
 30  15  35  1   
 31  16  17  1   
 32  16  36  1   
 33  16  37  1   
 34  17  18  1   
 35  17  38  1   
 36  18  19  2   
 37  18  20  1   
 38  20  21  1   
 39  21  22  1   
 40  21  39  1   
 41  21  40  1   
 42  22  41  1   
 43  22  42  1   
 44  22  43  1   
@<TRIPOS>SUBSTRUCTURE
  1 ****  12 GROUP 4 **** **** 0

# MOE 2024.06 (io_trps.svl 2023.06)
