@<TRIPOS>MOLECULE
NONAME
41 43 1 0 0 
SMALL
USER_CHARGES


@<TRIPOS>ATOM
  1 O        0.5090     3.9120     2.5390 O.2   1 <1>  -0.5700 
  2 C        0.7000     3.7800     1.3510 C.2   1 <1>   0.5690 
  3 N        1.8270     3.1480     0.8780 N.am  1 <1>  -0.6600 
  4 C       -0.3660     4.3530     0.4200 C.3   1 <1>   0.0440 
  5 C        2.1830     2.9710    -0.5560 C.3   1 <1>   0.1400 
  6 C        2.7560     2.4310     1.7960 C.3   1 <1>   0.1400 
  7 C       -1.0130     3.3440    -0.5380 C.ar  1 <1>  -0.1440 
  8 C        2.0850     1.4880    -0.9120 C.3   1 <1>  -0.1600 
  9 C        2.6940     0.9330     1.4930 C.3   1 <1>  -0.1600 
 10 C       -1.6100     2.1630    -0.0990 C.ar  1 <1>  -0.1440 
 11 C       -1.0020     3.6310    -1.8970 C.ar  1 <1>  -0.1500 
 12 C        2.9790     0.6640     0.0190 C.3   1 <1>   0.5600 
 13 C       -2.1550     1.2870    -1.0260 C.ar  1 <1>  -0.1500 
 14 C       -1.6940     1.7850     1.3750 C.3   1 <1>  -0.0960 
 15 C       -1.5510     2.7540    -2.8130 C.ar  1 <1>  -0.1500 
 16 O        4.3190     0.9380    -0.2400 O.3   1 <1>  -0.5600 
 17 O        2.8280    -0.6920    -0.2300 O.3   1 <1>  -0.5600 
 18 C       -2.1260     1.5770    -2.3770 C.ar  1 <1>  -0.1500 
 19 C        4.8150     0.0010    -1.1270 C.3   1 <1>   0.1200 
 20 C        3.7510    -1.0780    -1.1810 C.3   1 <1>   0.1200 
 21 H        0.0840     5.1570    -0.1290 H     1 <1>   0.0800 
 22 H       -1.1430     4.7880     1.0220 H     1 <1>   0.0800 
 23 H        3.1920     3.3150    -0.7100 H     1 <1>   0.0800 
 24 H        1.5430     3.5500    -1.1950 H     1 <1>   0.0800 
 25 H        2.4910     2.6040     2.8250 H     1 <1>   0.0800 
 26 H        3.7580     2.7970     1.6440 H     1 <1>   0.0800 
 27 H        2.3710     1.3410    -1.9350 H     1 <1>   0.0800 
 28 H        1.0650     1.1700    -0.7970 H     1 <1>   0.0800 
 29 H        1.7110     0.5740     1.7350 H     1 <1>   0.0800 
 30 H        3.4080     0.4060     2.0980 H     1 <1>   0.0800 
 31 H       -0.5620     4.5440    -2.2570 H     1 <1>   0.1500 
 32 H       -2.6090     0.3690    -0.6990 H     1 <1>   0.1500 
 33 H       -1.9620     2.6370     1.9720 H     1 <1>   0.0800 
 34 H       -0.7450     1.4070     1.7110 H     1 <1>   0.0800 
 35 H       -2.4360     1.0250     1.5340 H     1 <1>   0.0800 
 36 H       -1.5330     2.9870    -3.8640 H     1 <1>   0.1500 
 37 H       -2.5530     0.8880    -3.0850 H     1 <1>   0.1500 
 38 H        5.7480    -0.3760    -0.7470 H     1 <1>   0.0800 
 39 H        4.9620     0.4640    -2.0870 H     1 <1>   0.0800 
 40 H        3.2690    -1.1110    -2.1420 H     1 <1>   0.0800 
 41 H        4.1390    -2.0480    -0.9230 H     1 <1>   0.0800 
@<TRIPOS>BOND
  1   1   2  2   
  2   2   3  am  
  3   2   4  1   
  4   3   5  1   
  5   3   6  1   
  6   4   7  1   
  7   4  21  1   
  8   4  22  1   
  9   5   8  1   
 10   5  23  1   
 11   5  24  1   
 12   6   9  1   
 13   6  25  1   
 14   6  26  1   
 15   7  10  ar  
 16   7  11  ar  
 17   8  12  1   
 18   8  27  1   
 19   8  28  1   
 20   9  12  1   
 21   9  29  1   
 22   9  30  1   
 23  10  13  ar  
 24  10  14  1   
 25  11  15  ar  
 26  11  31  1   
 27  12  16  1   
 28  12  17  1   
 29  13  18  ar  
 30  13  32  1   
 31  14  33  1   
 32  14  34  1   
 33  14  35  1   
 34  15  18  ar  
 35  15  36  1   
 36  16  19  1   
 37  17  20  1   
 38  18  37  1   
 39  19  20  1   
 40  19  38  1   
 41  19  39  1   
 42  20  40  1   
 43  20  41  1   
@<TRIPOS>SUBSTRUCTURE
  1 ****   8 GROUP 4 **** **** 0

# MOE 2024.06 (io_trps.svl 2023.06)
