@<TRIPOS>MOLECULE
NONAME
33 34 1 0 0 
SMALL
USER_CHARGES


@<TRIPOS>ATOM
  1 S       -0.0360     0.2310    -1.4990 S.o2  1 <1>   1.4470 
  2 O       -0.3660     1.5090    -2.0890 O.2   1 <1>  -0.6500 
  3 O        0.7000    -0.6950    -2.3320 O.2   1 <1>  -0.6500 
  4 N        1.0170     0.6060    -0.2450 N.am  1 <1>  -0.7890 
  5 C       -1.4430    -0.6010    -0.6540 C.ar  1 <1>  -0.0090 
  6 C        0.4940     1.5310     0.7280 C.3   1 <1>   0.1310 
  7 C       -1.2750    -1.8710    -0.0810 C.ar  1 <1>  -0.1430 
  8 C       -2.7070    -0.0020    -0.5240 C.ar  1 <1>  -0.1430 
  9 C        0.6430     2.9950     0.5070 C.3   1 <1>  -0.2000 
 10 C        1.4680     2.2930     1.5540 C.3   1 <1>  -0.2000 
 11 C       -2.3200    -2.5030     0.5760 C.ar  1 <1>  -0.1500 
 12 C        0.0460    -2.6340    -0.1410 C.3   1 <1>  -0.0970 
 13 C       -3.7370    -0.6530     0.1380 C.ar  1 <1>  -0.1500 
 14 C       -3.0410     1.3760    -1.0860 C.3   1 <1>  -0.0970 
 15 C       -3.5550    -1.9030     0.6890 C.ar  1 <1>  -0.1430 
 16 C       -4.6910    -2.6040     1.4110 C.3   1 <1>  -0.0970 
 17 H        1.7870     1.0670    -0.7200 H     1 <1>   0.4200 
 18 H       -0.3930     1.1660     1.2240 H     1 <1>   0.1000 
 19 H       -0.1490     3.6460     0.8320 H     1 <1>   0.1000 
 20 H        1.1130     3.3370    -0.3990 H     1 <1>   0.1000 
 21 H        2.5210     2.1500     1.3820 H     1 <1>   0.1000 
 22 H        1.2380     2.4760     2.5890 H     1 <1>   0.1000 
 23 H       -2.1750    -3.4780     1.0070 H     1 <1>   0.1500 
 24 H        0.8580    -2.0280     0.2180 H     1 <1>   0.0800 
 25 H        0.2530    -2.9370    -1.1520 H     1 <1>   0.0800 
 26 H        0.0140    -3.5200     0.4660 H     1 <1>   0.0800 
 27 H       -4.7020    -0.1850     0.2300 H     1 <1>   0.1500 
 28 H       -2.4010     2.1240    -0.6540 H     1 <1>   0.0800 
 29 H       -4.0570     1.6540    -0.8720 H     1 <1>   0.0800 
 30 H       -2.9220     1.3800    -2.1550 H     1 <1>   0.0800 
 31 H       -4.5960    -3.6710     1.3150 H     1 <1>   0.0800 
 32 H       -5.6390    -2.3110     0.9950 H     1 <1>   0.0800 
 33 H       -4.6740    -2.3450     2.4540 H     1 <1>   0.0800 
@<TRIPOS>BOND
  1   1   2  2   
  2   1   3  2   
  3   1   4  am  
  4   1   5  1   
  5   4   6  1   
  6   4  17  1   
  7   5   7  ar  
  8   5   8  ar  
  9   6   9  1   
 10   6  10  1   
 11   6  18  1   
 12   7  11  ar  
 13   7  12  1   
 14   8  13  ar  
 15   8  14  1   
 16   9  10  1   
 17   9  19  1   
 18   9  20  1   
 19  10  21  1   
 20  10  22  1   
 21  11  15  ar  
 22  11  23  1   
 23  12  24  1   
 24  12  25  1   
 25  12  26  1   
 26  13  15  ar  
 27  13  27  1   
 28  14  28  1   
 29  14  29  1   
 30  14  30  1   
 31  15  16  1   
 32  16  31  1   
 33  16  32  1   
 34  16  33  1   
@<TRIPOS>SUBSTRUCTURE
  1 ****   5 GROUP 4 **** **** 0

# MOE 2024.06 (io_trps.svl 2023.06)
