@<TRIPOS>MOLECULE
NONAME
45 47 1 0 0 
SMALL
USER_CHARGES


@<TRIPOS>ATOM
  1 O       -0.5310    -0.1750    -1.2940 O.2   1 <1>  -0.5700 
  2 C       -1.1910    -1.1300    -0.9430 C.2   1 <1>   0.6900 
  3 N       -2.5320    -1.0050    -0.9550 N.am  1 <1>  -0.7300 
  4 N       -0.6200    -2.2910    -0.5560 N.am  1 <1>  -0.7300 
  5 C       -3.6060    -1.8340    -0.3860 C.3   1 <1>   0.3000 
  6 C        0.7960    -2.6240    -0.3130 C.3   1 <1>   0.3000 
  7 C       -3.3860    -2.0730     1.1220 C.3   1 <1>  -0.1600 
  8 C       -3.7110    -3.1810    -1.1290 C.3   1 <1>  -0.1600 
  9 C       -4.9280    -1.0660    -0.5740 C.3   1 <1>  -0.1600 
 10 C        1.6710    -2.4370    -1.5840 C.3   1 <1>   0.1200 
 11 C        1.2980    -1.7990     0.8780 C.3   1 <1>  -0.2400 
 12 C        0.8050    -4.1040     0.0750 C.3   1 <1>  -0.2400 
 13 C       -4.5510    -2.9010     1.6980 C.3   1 <1>  -0.0800 
 14 C       -4.8750    -4.0110    -0.5530 C.3   1 <1>  -0.0800 
 15 C       -6.1070    -1.8770    -0.0040 C.3   1 <1>  -0.0800 
 16 O        1.8760    -1.1010    -1.9030 O.3   1 <1>  -0.6800 
 17 C       -4.6340    -4.2480     0.9520 C.3   1 <1>  -0.1600 
 18 C       -5.8690    -2.1290     1.4960 C.3   1 <1>  -0.1600 
 19 C       -6.1900    -3.2300    -0.7370 C.3   1 <1>  -0.1600 
 20 H       -2.8390    -0.0860    -1.2660 H     1 <1>   0.3700 
 21 H       -1.2710    -3.0050    -0.2510 H     1 <1>   0.3700 
 22 H       -3.3270    -1.1290     1.6340 H     1 <1>   0.0800 
 23 H       -2.4700    -2.6030     1.2970 H     1 <1>   0.0800 
 24 H       -2.8040    -3.7450    -1.0280 H     1 <1>   0.0800 
 25 H       -3.8780    -3.0050    -2.1770 H     1 <1>   0.0800 
 26 H       -5.0970    -0.8820    -1.6200 H     1 <1>   0.0800 
 27 H       -4.8740    -0.1180    -0.0690 H     1 <1>   0.0800 
 28 H        1.2020    -2.9120    -2.4270 H     1 <1>   0.0800 
 29 H        2.6410    -2.8750    -1.4360 H     1 <1>   0.0800 
 30 H        2.3170    -2.0570     1.1010 H     1 <1>   0.0800 
 31 H        0.6960    -1.9820     1.7490 H     1 <1>   0.0800 
 32 H        1.2660    -0.7480     0.6510 H     1 <1>   0.0800 
 33 H        1.8090    -4.4210     0.2950 H     1 <1>   0.0800 
 34 H        0.4320    -4.7070    -0.7330 H     1 <1>   0.0800 
 35 H        0.2030    -4.2730     0.9510 H     1 <1>   0.0800 
 36 H       -4.3900    -3.0750     2.7490 H     1 <1>   0.0800 
 37 H       -4.9390    -4.9550    -1.0650 H     1 <1>   0.0800 
 38 H       -7.0260    -1.3330    -0.1410 H     1 <1>   0.0800 
 39 H        1.0170    -0.6120    -1.7700 H     1 <1>   0.4000 
 40 H       -5.4380    -4.8370     1.3580 H     1 <1>   0.0800 
 41 H       -3.7230    -4.8020     1.0940 H     1 <1>   0.0800 
 42 H       -6.6880    -2.6940     1.9060 H     1 <1>   0.0800 
 43 H       -5.8260    -1.1910     2.0220 H     1 <1>   0.0800 
 44 H       -7.0130    -3.8050    -0.3480 H     1 <1>   0.0800 
 45 H       -6.3740    -3.0670    -1.7850 H     1 <1>   0.0800 
@<TRIPOS>BOND
  1   1   2  2   
  2   2   3  am  
  3   2   4  am  
  4   3   5  1   
  5   3  20  1   
  6   4   6  1   
  7   4  21  1   
  8   5   7  1   
  9   5   8  1   
 10   5   9  1   
 11   6  10  1   
 12   6  11  1   
 13   6  12  1   
 14   7  13  1   
 15   7  22  1   
 16   7  23  1   
 17   8  14  1   
 18   8  24  1   
 19   8  25  1   
 20   9  15  1   
 21   9  26  1   
 22   9  27  1   
 23  10  16  1   
 24  10  28  1   
 25  10  29  1   
 26  11  30  1   
 27  11  31  1   
 28  11  32  1   
 29  12  33  1   
 30  12  34  1   
 31  12  35  1   
 32  13  17  1   
 33  13  18  1   
 34  13  36  1   
 35  14  17  1   
 36  14  19  1   
 37  14  37  1   
 38  15  18  1   
 39  15  19  1   
 40  15  38  1   
 41  16  39  1   
 42  17  40  1   
 43  17  41  1   
 44  18  42  1   
 45  18  43  1   
 46  19  44  1   
 47  19  45  1   
@<TRIPOS>SUBSTRUCTURE
  1 ****   5 GROUP 4 **** **** 0

# MOE 2024.06 (io_trps.svl 2023.06)
