@<TRIPOS>MOLECULE
NONAME
52 53 1 0 0 
SMALL
USER_CHARGES


@<TRIPOS>ATOM
  1 S        1.0000     0.2930     1.3860 S.o2  1 <1>   1.3330 
  2 O        0.6460    -0.5080     0.2430 O.2   1 <1>  -0.6500 
  3 O        2.3600     0.2960     1.8750 O.2   1 <1>  -0.6500 
  4 N        0.6170     1.9410     1.0310 N.am  1 <1>  -0.6930 
  5 C       -0.0970    -0.0630     2.7410 C.3   1 <1>  -0.1350 
  6 C       -0.5640     2.2770     0.3840 C.ar  1 <1>   0.1990 
  7 C        1.7480     2.9170     0.9570 C.3   1 <1>   0.2570 
  8 C       -0.7240     2.0580    -0.9770 C.ar  1 <1>  -0.1500 
  9 C       -1.6090     2.8510     1.0960 C.ar  1 <1>  -0.1500 
 10 C        2.6850     2.7330    -0.2420 C.2   1 <1>   0.5690 
 11 C       -1.9050     2.3950    -1.6110 C.ar  1 <1>  -0.1500 
 12 C       -2.7920     3.1890     0.4640 C.ar  1 <1>  -0.1500 
 13 O        2.5910     3.5040    -1.1670 O.2   1 <1>  -0.5700 
 14 N        3.6170     1.7320    -0.2080 N.am  1 <1>  -0.5470 
 15 C       -2.9490     2.9610    -0.8940 C.ar  1 <1>  -0.1430 
 16 C        4.5760     1.4070    -1.1780 C.ar  1 <1>   0.1170 
 17 C       -4.2470     3.3300    -1.5920 C.3   1 <1>  -0.0170 
 18 C        5.7210     2.1910    -1.3640 C.ar  1 <1>  -0.1430 
 19 C        4.3990     0.2590    -1.9540 C.ar  1 <1>  -0.1430 
 20 C       -4.1940     4.7730    -2.0990 C.3   1 <1>  -0.2400 
 21 C        6.6580     1.8190    -2.3140 C.ar  1 <1>  -0.1500 
 22 C        5.9930     3.4500    -0.5450 C.3   1 <1>  -0.0170 
 23 C        5.3480    -0.0940    -2.8980 C.ar  1 <1>  -0.1500 
 24 C        3.1660    -0.6210    -1.7880 C.3   1 <1>  -0.0970 
 25 C        6.4760     0.6840    -3.0800 C.ar  1 <1>  -0.1500 
 26 C        6.5900     3.0970     0.8200 C.3   1 <1>  -0.2400 
 27 H        0.0570    -1.0670     3.0830 H     1 <1>   0.0800 
 28 H       -1.1170     0.0400     2.4260 H     1 <1>   0.0800 
 29 H        0.0850     0.6110     3.5540 H     1 <1>   0.0800 
 30 H        2.3290     2.8580     1.8590 H     1 <1>   0.0800 
 31 H        1.3410     3.9110     0.9020 H     1 <1>   0.0800 
 32 H        0.0830     1.6200    -1.5390 H     1 <1>   0.1500 
 33 H       -1.4910     3.0350     2.1480 H     1 <1>   0.1500 
 34 H       -2.0070     2.2170    -2.6670 H     1 <1>   0.1500 
 35 H       -3.5920     3.6340     1.0300 H     1 <1>   0.1500 
 36 H        3.5060     1.0400     0.5440 H     1 <1>   0.3700 
 37 H       -5.0710     3.2180    -0.9080 H     1 <1>   0.0800 
 38 H       -4.4180     2.6630    -2.4190 H     1 <1>   0.0800 
 39 H       -4.0400     5.4500    -1.2780 H     1 <1>   0.0800 
 40 H       -5.1150     5.0280    -2.5920 H     1 <1>   0.0800 
 41 H       -3.3830     4.8890    -2.7970 H     1 <1>   0.0800 
 42 H        7.5420     2.4140    -2.4640 H     1 <1>   0.1500 
 43 H        5.0890     4.0160    -0.4160 H     1 <1>   0.0800 
 44 H        6.6800     4.0850    -1.0760 H     1 <1>   0.0800 
 45 H        5.2160    -0.9750    -3.5000 H     1 <1>   0.1500 
 46 H        3.1550    -1.4170    -2.5090 H     1 <1>   0.0800 
 47 H        3.1530    -1.0560    -0.8040 H     1 <1>   0.0800 
 48 H        2.2750    -0.0340    -1.9220 H     1 <1>   0.0800 
 49 H        7.2090     0.4050    -3.8150 H     1 <1>   0.1500 
 50 H        5.9050     2.4860     1.3800 H     1 <1>   0.0800 
 51 H        6.7930     3.9930     1.3790 H     1 <1>   0.0800 
 52 H        7.5090     2.5530     0.6900 H     1 <1>   0.0800 
@<TRIPOS>BOND
  1   1   2  2   
  2   1   3  2   
  3   1   4  am  
  4   1   5  1   
  5   4   6  1   
  6   4   7  1   
  7   5  27  1   
  8   5  28  1   
  9   5  29  1   
 10   6   8  ar  
 11   6   9  ar  
 12   7  10  1   
 13   7  30  1   
 14   7  31  1   
 15   8  11  ar  
 16   8  32  1   
 17   9  12  ar  
 18   9  33  1   
 19  10  13  2   
 20  10  14  am  
 21  11  15  ar  
 22  11  34  1   
 23  12  15  ar  
 24  12  35  1   
 25  14  16  1   
 26  14  36  1   
 27  15  17  1   
 28  16  18  ar  
 29  16  19  ar  
 30  17  20  1   
 31  17  37  1   
 32  17  38  1   
 33  18  21  ar  
 34  18  22  1   
 35  19  23  ar  
 36  19  24  1   
 37  20  39  1   
 38  20  40  1   
 39  20  41  1   
 40  21  25  ar  
 41  21  42  1   
 42  22  26  1   
 43  22  43  1   
 44  22  44  1   
 45  23  25  ar  
 46  23  45  1   
 47  24  46  1   
 48  24  47  1   
 49  24  48  1   
 50  25  49  1   
 51  26  50  1   
 52  26  51  1   
 53  26  52  1   
@<TRIPOS>SUBSTRUCTURE
  1 ****  10 GROUP 4 **** **** 0

# MOE 2024.06 (io_trps.svl 2023.06)
