@<TRIPOS>MOLECULE
NONAME
48 50 1 0 0 
SMALL
USER_CHARGES


@<TRIPOS>ATOM
  1 O       -1.2160    -0.5570    -0.0630 O.2   1 <1>  -0.5700 
  2 C       -1.0060    -1.6980    -0.3860 C.2   1 <1>   0.6590 
  3 O        0.2020    -2.1140    -0.7470 O.3   1 <1>  -0.4300 
  4 C       -2.0990    -2.7650    -0.4130 C.3   1 <1>  -0.0190 
  5 C        1.3060    -1.2390    -0.7610 C.3   1 <1>   0.1200 
  6 C       -3.5200    -2.1680    -0.3420 C.3   1 <1>  -0.1600 
  7 C       -1.9020    -3.7870     0.7230 C.3   1 <1>  -0.1600 
  8 C        2.5310    -2.0310    -1.2060 C.3   1 <1>  -0.2400 
  9 C       -4.5960    -3.2570    -0.3380 C.3   1 <1>   0.1400 
 10 C       -2.9930    -4.8610     0.7160 C.3   1 <1>   0.1400 
 11 N       -4.3320    -4.2110     0.7750 N.am  1 <1>  -0.6600 
 12 C       -5.2340    -4.5280     1.7680 C.2   1 <1>   0.5690 
 13 O       -4.9610    -5.3220     2.6390 O.2   1 <1>  -0.5700 
 14 C       -6.6080    -3.8660     1.8490 C.3   1 <1>   0.1810 
 15 O       -7.4010    -4.1690     0.7100 O.3   1 <1>  -0.3630 
 16 C       -8.5940    -3.5640     0.4970 C.ar  1 <1>   0.0820 
 17 C       -9.1900    -3.7520    -0.7210 C.ar  1 <1>  -0.1500 
 18 C       -9.2310    -2.7610     1.4630 C.ar  1 <1>  -0.1500 
 19 C      -10.4230    -3.1540    -1.0420 C.ar  1 <1>   0.0000 
 20 C      -10.4290    -2.1690     1.1760 C.ar  1 <1>  -0.1500 
 21 C      -11.0560    -2.3430    -0.0750 C.ar  1 <1>   0.0000 
 22 C      -11.0510    -3.3330    -2.2920 C.ar  1 <1>  -0.1500 
 23 C      -12.2890    -1.7420    -0.3980 C.ar  1 <1>  -0.1500 
 24 C      -12.2480    -2.7380    -2.5770 C.ar  1 <1>  -0.1500 
 25 C      -12.8740    -1.9320    -1.6190 C.ar  1 <1>  -0.1500 
 26 H       -2.0050    -3.2830    -1.3500 H     1 <1>   0.0800 
 27 H        1.4400    -0.8430     0.2320 H     1 <1>   0.0800 
 28 H        1.0950    -0.4340    -1.4450 H     1 <1>   0.0800 
 29 H       -3.6800    -1.5160    -1.1830 H     1 <1>   0.0800 
 30 H       -3.6240    -1.5760     0.5510 H     1 <1>   0.0800 
 31 H       -1.9180    -3.2840     1.6750 H     1 <1>   0.0800 
 32 H       -0.9430    -4.2640     0.6220 H     1 <1>   0.0800 
 33 H        2.7210    -2.8370    -0.5200 H     1 <1>   0.0800 
 34 H        3.3910    -1.3870    -1.2240 H     1 <1>   0.0800 
 35 H        2.3790    -2.4260    -2.1940 H     1 <1>   0.0800 
 36 H       -4.5780    -3.7960    -1.2700 H     1 <1>   0.0800 
 37 H       -5.5620    -2.7960    -0.2440 H     1 <1>   0.0800 
 38 H       -2.8500    -5.5220     1.5540 H     1 <1>   0.0800 
 39 H       -2.9290    -5.4480    -0.1840 H     1 <1>   0.0800 
 40 H       -6.4850    -2.8010     1.9110 H     1 <1>   0.0800 
 41 H       -7.1240    -4.2260     2.7200 H     1 <1>   0.0800 
 42 H       -8.7090    -4.3700    -1.4550 H     1 <1>   0.1500 
 43 H       -8.7890    -2.6110     2.4300 H     1 <1>   0.1500 
 44 H      -10.9210    -1.5550     1.9080 H     1 <1>   0.1500 
 45 H      -10.5650    -3.9540    -3.0230 H     1 <1>   0.1500 
 46 H      -12.7670    -1.1250     0.3410 H     1 <1>   0.1500 
 47 H      -12.7220    -2.8780    -3.5330 H     1 <1>   0.1500 
 48 H      -13.8160    -1.4700    -1.8590 H     1 <1>   0.1500 
@<TRIPOS>BOND
  1   1   2  2   
  2   2   3  1   
  3   2   4  1   
  4   3   5  1   
  5   4   6  1   
  6   4   7  1   
  7   4  26  1   
  8   5   8  1   
  9   5  27  1   
 10   5  28  1   
 11   6   9  1   
 12   6  29  1   
 13   6  30  1   
 14   7  10  1   
 15   7  31  1   
 16   7  32  1   
 17   8  33  1   
 18   8  34  1   
 19   8  35  1   
 20   9  11  1   
 21   9  36  1   
 22   9  37  1   
 23  10  11  1   
 24  10  38  1   
 25  10  39  1   
 26  11  12  am  
 27  12  13  2   
 28  12  14  1   
 29  14  15  1   
 30  14  40  1   
 31  14  41  1   
 32  15  16  1   
 33  16  17  ar  
 34  16  18  ar  
 35  17  19  ar  
 36  17  42  1   
 37  18  20  ar  
 38  18  43  1   
 39  19  21  ar  
 40  19  22  ar  
 41  20  21  ar  
 42  20  44  1   
 43  21  23  ar  
 44  22  24  ar  
 45  22  45  1   
 46  23  25  ar  
 47  23  46  1   
 48  24  25  ar  
 49  24  47  1   
 50  25  48  1   
@<TRIPOS>SUBSTRUCTURE
  1 ****   9 GROUP 4 **** **** 0

# MOE 2024.06 (io_trps.svl 2023.06)
