@<TRIPOS>MOLECULE
NONAME
35 35 1 0 0 
SMALL
USER_CHARGES


@<TRIPOS>ATOM
  1 O       -1.4750    -2.6700    -0.5050 O.3   1 <1>  -0.3630 
  2 C       -0.6300    -3.4100     0.2520 C.ar  1 <1>   0.0830 
  3 C       -2.7750    -3.1210    -0.8100 C.3   1 <1>   0.1200 
  4 C        0.5920    -2.8320     0.5530 C.ar  1 <1>  -0.1500 
  5 C       -0.9220    -4.6850     0.7260 C.ar  1 <1>  -0.1500 
  6 C       -3.4680    -2.0410    -1.6340 C.3   1 <1>  -0.2400 
  7 C        1.5290    -3.5130     1.3140 C.ar  1 <1>  -0.1430 
  8 C        0.0090    -5.3640     1.4920 C.ar  1 <1>  -0.1500 
  9 C        1.2300    -4.7830     1.7870 C.ar  1 <1>  -0.1500 
 10 C        2.8640    -2.8760     1.6110 C.3   1 <1>   0.4860 
 11 N        3.7250    -3.1620     0.4460 N.4   1 <1>  -0.9060 
 12 C        5.0980    -2.5950     0.5840 C.3   1 <1>   0.3430 
 13 C        5.9720    -2.9110    -0.6340 C.3   1 <1>   0.1200 
 14 O        7.2190    -2.3600    -0.3850 O.3   1 <1>  -0.5600 
 15 C        8.1520    -2.5560    -1.4040 C.3   1 <1>   0.0400 
 16 H       -3.3030    -3.2930     0.1130 H     1 <1>   0.0800 
 17 H       -2.6970    -4.0360    -1.3720 H     1 <1>   0.0800 
 18 H        0.7790    -1.8410     0.1780 H     1 <1>   0.1500 
 19 H       -1.8610    -5.1600     0.5110 H     1 <1>   0.1500 
 20 H       -3.5280    -1.1270    -1.0710 H     1 <1>   0.0800 
 21 H       -4.4650    -2.3560    -1.8820 H     1 <1>   0.0800 
 22 H       -2.9270    -1.8670    -2.5470 H     1 <1>   0.0800 
 23 H       -0.2230    -6.3500     1.8610 H     1 <1>   0.1500 
 24 H        1.9320    -5.3350     2.3900 H     1 <1>   0.1500 
 25 H        3.2850    -3.2970     2.5100 H     1 <1>   0.0800 
 26 H        2.7440    -1.8120     1.7440 H     1 <1>   0.0800 
 27 H        3.2500    -2.7900    -0.3860 H     1 <1>   0.4500 
 28 H        3.7530    -4.1810     0.3260 H     1 <1>   0.4500 
 29 H        5.5750    -3.0040     1.4600 H     1 <1>   0.0800 
 30 H        5.0420    -1.5240     0.6940 H     1 <1>   0.0800 
 31 H        5.5730    -2.4600    -1.5260 H     1 <1>   0.0800 
 32 H        6.0910    -3.9740    -0.7610 H     1 <1>   0.0800 
 33 H        9.0760    -2.0900    -1.1060 H     1 <1>   0.0800 
 34 H        7.7960    -2.0980    -2.3110 H     1 <1>   0.0800 
 35 H        8.3120    -3.6100    -1.5480 H     1 <1>   0.0800 
@<TRIPOS>BOND
  1   1   2  1   
  2   1   3  1   
  3   2   4  ar  
  4   2   5  ar  
  5   3   6  1   
  6   3  16  1   
  7   3  17  1   
  8   4   7  ar  
  9   4  18  1   
 10   5   8  ar  
 11   5  19  1   
 12   6  20  1   
 13   6  21  1   
 14   6  22  1   
 15   7   9  ar  
 16   7  10  1   
 17   8   9  ar  
 18   8  23  1   
 19   9  24  1   
 20  10  11  1   
 21  10  25  1   
 22  10  26  1   
 23  11  12  1   
 24  11  27  1   
 25  11  28  1   
 26  12  13  1   
 27  12  29  1   
 28  12  30  1   
 29  13  14  1   
 30  13  31  1   
 31  13  32  1   
 32  14  15  1   
 33  15  33  1   
 34  15  34  1   
 35  15  35  1   
@<TRIPOS>SUBSTRUCTURE
  1 ****   7 GROUP 4 **** **** 0

# MOE 2024.06 (io_trps.svl 2023.06)
