@<TRIPOS>MOLECULE
NONAME
46 48 1 0 0 
SMALL
USER_CHARGES


@<TRIPOS>ATOM
  1 O        0.0130    -0.0040     1.3250 O.co2 1 <1>  -0.9000 
  2 C        0.3950     0.9040     0.5800 C.2   1 <1>   0.9060 
  3 O        0.9420     0.6630    -0.4990 O.co2 1 <1>  -0.9000 
  4 C        0.1060     2.3300     1.0200 C.3   1 <1>  -0.1860 
  5 C       -1.4260     2.9240     0.6160 C.3   1 <1>  -0.0190 
  6 C        1.2210     3.4000     0.4670 C.3   1 <1>  -0.0800 
  7 C       -2.5170     1.9770     0.0770 C.2   1 <1>   0.5690 
  8 C       -1.1860     4.2440    -0.3370 C.3   1 <1>  -0.0800 
  9 C        0.0170     3.8340     0.0870 C.3   1 <1>  -0.1600 
 10 C        1.4340     4.7390    -0.4460 C.3   1 <1>  -0.1600 
 11 O       -3.4490     2.4660    -0.5230 O.2   1 <1>  -0.5700 
 12 N       -2.5030     0.6440     0.3160 N.am  1 <1>  -0.7300 
 13 C       -0.0780     5.3310    -0.8440 C.3   1 <1>  -0.1600 
 14 C       -3.4480    -0.3030    -0.3000 C.3   1 <1>   0.2840 
 15 C       -2.9170    -1.7300    -0.2600 C.ar  1 <1>  -0.1440 
 16 C       -1.5990    -2.0020    -0.5910 C.ar  1 <1>  -0.1500 
 17 C       -3.7510    -2.7780     0.0930 C.ar  1 <1>  -0.1500 
 18 C       -1.0910    -3.2980    -0.5570 C.ar  1 <1>   0.0820 
 19 C       -3.2680    -4.0740     0.1190 C.ar  1 <1>  -0.1500 
 20 O        0.2140    -3.5370    -0.8810 O.3   1 <1>  -0.3620 
 21 C       -1.9470    -4.3510    -0.1930 C.ar  1 <1>   0.0820 
 22 C        1.1770    -2.5120    -0.7000 C.3   1 <1>   0.0400 
 23 O       -1.5980    -5.6680    -0.1030 O.3   1 <1>  -0.3630 
 24 C       -0.2940    -6.0370     0.2870 C.3   1 <1>   0.0400 
 25 H        0.1660     2.2960     2.0940 H     1 <1>   0.0800 
 26 H       -1.8600     3.2800     1.5380 H     1 <1>   0.0800 
 27 H        1.6760     3.7140     1.3960 H     1 <1>   0.0800 
 28 H       -1.5820     3.9120    -1.2890 H     1 <1>   0.0800 
 29 H        0.1100     3.1790    -0.8870 H     1 <1>   0.0800 
 30 H       -0.0720     4.4710     1.0690 H     1 <1>   0.0800 
 31 H        1.9780     4.4810    -1.3420 H     1 <1>   0.0800 
 32 H        2.0070     5.4840     0.0820 H     1 <1>   0.0800 
 33 H       -1.6690     0.2050     0.7610 H     1 <1>   0.3700 
 34 H       -0.2440     6.2820    -0.3610 H     1 <1>   0.0800 
 35 H       -0.1520     5.4870    -1.9080 H     1 <1>   0.0800 
 36 H       -3.6140    -0.0170    -1.3250 H     1 <1>   0.0800 
 37 H       -4.3850    -0.2400     0.2240 H     1 <1>   0.0800 
 38 H       -0.9670    -1.1790    -0.8760 H     1 <1>   0.1500 
 39 H       -4.7790    -2.5910     0.3500 H     1 <1>   0.1500 
 40 H       -3.9170    -4.8860     0.3910 H     1 <1>   0.1500 
 41 H        2.1560    -2.9450    -0.7780 H     1 <1>   0.0800 
 42 H        1.0470    -2.0710     0.2740 H     1 <1>   0.0800 
 43 H        1.0500    -1.7640    -1.4620 H     1 <1>   0.0800 
 44 H       -0.3250    -7.0490     0.6460 H     1 <1>   0.0800 
 45 H        0.0390    -5.3750     1.0680 H     1 <1>   0.0800 
 46 H        0.3540    -5.9720    -0.5680 H     1 <1>   0.0800 
@<TRIPOS>BOND
  1   1   2  ar  
  2   2   3  ar  
  3   2   4  1   
  4   4   5  1   
  5   4   6  1   
  6   4  25  1   
  7   5   7  1   
  8   5   8  1   
  9   5  26  1   
 10   6   9  1   
 11   6  10  1   
 12   6  27  1   
 13   7  11  2   
 14   7  12  am  
 15   8   9  1   
 16   8  13  1   
 17   8  28  1   
 18   9  29  1   
 19   9  30  1   
 20  10  13  1   
 21  10  31  1   
 22  10  32  1   
 23  12  14  1   
 24  12  33  1   
 25  13  34  1   
 26  13  35  1   
 27  14  15  1   
 28  14  36  1   
 29  14  37  1   
 30  15  16  ar  
 31  15  17  ar  
 32  16  18  ar  
 33  16  38  1   
 34  17  19  ar  
 35  17  39  1   
 36  18  20  1   
 37  18  21  ar  
 38  19  21  ar  
 39  19  40  1   
 40  20  22  1   
 41  21  23  1   
 42  22  41  1   
 43  22  42  1   
 44  22  43  1   
 45  23  24  1   
 46  24  44  1   
 47  24  45  1   
 48  24  46  1   
@<TRIPOS>SUBSTRUCTURE
  1 ****  12 GROUP 4 **** **** 0

# MOE 2024.06 (io_trps.svl 2023.06)
