@<TRIPOS>MOLECULE
NONAME
38 41 1 0 0 
SMALL
USER_CHARGES


@<TRIPOS>ATOM
  1 I        0.1710    -1.6240    -0.2030 I     1 <1>  -0.0810 
  2 C       -1.4670    -0.2650    -0.1690 C.ar  1 <1>   0.0810 
  3 C       -1.2330     1.0660    -0.4580 C.ar  1 <1>  -0.1500 
  4 C       -2.7250    -0.7460     0.1420 C.ar  1 <1>  -0.1500 
  5 C       -2.3040     1.9420    -0.4330 C.ar  1 <1>  -0.1500 
  6 C       -3.7840     0.1450     0.1610 C.ar  1 <1>  -0.1500 
  7 C       -3.5900     1.4970    -0.1250 C.ar  1 <1>   0.1170 
  8 N       -4.6780     2.3990    -0.1030 N.am  1 <1>  -0.2370 
  9 C       -5.6420     2.4810     0.8920 C.2   1 <1>   0.5690 
 10 C       -4.9620     3.3500    -1.0720 C.2   1 <1>   0.5690 
 11 O       -5.8670     1.7060     1.7850 O.2   1 <1>  -0.5700 
 12 C       -6.3700     3.7750     0.6870 C.3   1 <1>  -0.0190 
 13 O       -4.2570     3.7430    -1.9660 O.2   1 <1>  -0.5700 
 14 C       -6.3710     3.8120    -0.8430 C.3   1 <1>  -0.0190 
 15 C       -7.6740     4.4980     1.0530 C.3   1 <1>   0.1960 
 16 C       -7.2700     5.0350    -1.1360 C.3   1 <1>   0.1960 
 17 C       -7.3330     5.7280     0.2170 C.2   1 <1>  -0.2760 
 18 C       -8.8740     4.0640     0.2220 C.2   1 <1>  -0.2880 
 19 C       -8.6640     4.4310    -1.0450 C.2   1 <1>  -0.2880 
 20 C       -7.1410     7.0110     0.5590 C.2   1 <1>  -0.2760 
 21 C       -6.7970     8.1150    -0.4310 C.3   1 <1>  -0.1020 
 22 C       -7.2400     7.5460     1.9810 C.3   1 <1>  -0.1020 
 23 H       -0.2420     1.4100    -0.6970 H     1 <1>   0.1500 
 24 H       -2.8750    -1.7880     0.3640 H     1 <1>   0.1500 
 25 H       -2.1380     2.9820    -0.6580 H     1 <1>   0.1500 
 26 H       -4.7690    -0.2140     0.4040 H     1 <1>   0.1500 
 27 H       -5.6200     4.4610     1.0560 H     1 <1>   0.0800 
 28 H       -6.9180     2.9630    -1.2230 H     1 <1>   0.0800 
 29 H       -7.8530     4.6790     2.0970 H     1 <1>   0.0800 
 30 H       -7.0630     5.6170    -2.0160 H     1 <1>   0.0800 
 31 H       -9.7070     3.5670     0.6890 H     1 <1>   0.1500 
 32 H       -9.2760     4.3280    -1.9250 H     1 <1>   0.1500 
 33 H       -7.5570     8.8750    -0.4110 H     1 <1>   0.0800 
 34 H       -6.7240     7.7450    -1.4360 H     1 <1>   0.0800 
 35 H       -5.8540     8.5630    -0.1720 H     1 <1>   0.0800 
 36 H       -6.3050     7.9890     2.2740 H     1 <1>   0.0800 
 37 H       -7.4800     6.7750     2.6870 H     1 <1>   0.0800 
 38 H       -8.0080     8.2970     2.0360 H     1 <1>   0.0800 
@<TRIPOS>BOND
  1   1   2  1   
  2   2   3  ar  
  3   2   4  ar  
  4   3   5  ar  
  5   3  23  1   
  6   4   6  ar  
  7   4  24  1   
  8   5   7  ar  
  9   5  25  1   
 10   6   7  ar  
 11   6  26  1   
 12   7   8  1   
 13   8   9  am  
 14   8  10  am  
 15   9  11  2   
 16   9  12  1   
 17  10  13  2   
 18  10  14  1   
 19  12  14  1   
 20  12  15  1   
 21  12  27  1   
 22  14  16  1   
 23  14  28  1   
 24  15  17  1   
 25  15  18  1   
 26  15  29  1   
 27  16  17  1   
 28  16  19  1   
 29  16  30  1   
 30  17  20  2   
 31  18  19  2   
 32  18  31  1   
 33  19  32  1   
 34  20  21  1   
 35  20  22  1   
 36  21  33  1   
 37  21  34  1   
 38  21  35  1   
 39  22  36  1   
 40  22  37  1   
 41  22  38  1   
@<TRIPOS>SUBSTRUCTURE
  1 ****   8 GROUP 4 **** **** 0

# MOE 2024.06 (io_trps.svl 2023.06)
