@<TRIPOS>MOLECULE
NONAME
54 56 1 0 0 
SMALL
USER_CHARGES


@<TRIPOS>ATOM
  1 O        0.3260    -0.4190    -0.6550 O.3   1 <1>  -0.5600 
  2 C       -0.9250    -1.0170    -0.5120 C.3   1 <1>   0.1200 
  3 C        1.3930    -1.2650    -0.3680 C.3   1 <1>   0.1200 
  4 C       -1.9980     0.0310    -0.8070 C.3   1 <1>   0.1200 
  5 C        2.6890    -0.4920    -0.6250 C.3   1 <1>   0.1100 
  6 O       -3.2500    -0.5660    -0.7560 O.3   1 <1>  -0.6800 
  7 N        3.8890    -1.3110    -0.3390 N.3   1 <1>  -0.8100 
  8 C        4.1400    -1.4380     1.1120 C.3   1 <1>   0.1100 
  9 C        5.0670    -0.7560    -1.0370 C.3   1 <1>   0.1100 
 10 C        5.3870    -2.3010     1.3950 C.3   1 <1>   0.3430 
 11 C        6.3280    -1.6070    -0.7860 C.3   1 <1>   0.3430 
 12 N        6.5980    -1.7730     0.6840 N.4   1 <1>  -0.9590 
 13 C        7.8100    -2.5970     0.9350 C.3   1 <1>   0.4860 
 14 C        9.0090    -1.8380     0.4030 C.ar  1 <1>  -0.1430 
 15 C        9.4540    -0.6610     1.0560 C.ar  1 <1>   0.0000 
 16 C        9.6310    -2.2910    -0.7310 C.ar  1 <1>  -0.1500 
 17 C       10.5060     0.0810     0.4660 C.ar  1 <1>   0.0000 
 18 C        8.9030    -0.1840     2.2720 C.ar  1 <1>  -0.1500 
 19 C       10.6970    -1.5830    -1.2860 C.ar  1 <1>  -0.1500 
 20 C       11.1270    -0.4110    -0.7100 C.ar  1 <1>   0.0820 
 21 C       10.9020     1.2900     1.0810 C.ar  1 <1>  -0.1500 
 22 C        9.3190     0.9850     2.8430 C.ar  1 <1>  -0.1500 
 23 O       12.1480     0.3220    -1.2220 O.3   1 <1>  -0.3630 
 24 C       10.3250     1.7370     2.2350 C.ar  1 <1>  -0.1500 
 25 C       12.9120    -0.1050    -2.3280 C.3   1 <1>   0.0400 
 26 H       -1.0260    -1.3740     0.4980 H     1 <1>   0.0800 
 27 H       -0.9930    -1.8330    -1.2110 H     1 <1>   0.0800 
 28 H        1.3400    -2.1230    -1.0150 H     1 <1>   0.0800 
 29 H        1.3170    -1.5640     0.6620 H     1 <1>   0.0800 
 30 H       -1.8640     0.4550    -1.7870 H     1 <1>   0.0800 
 31 H       -1.9720     0.8090    -0.0650 H     1 <1>   0.0800 
 32 H        2.7000     0.4060    -0.0290 H     1 <1>   0.0800 
 33 H        2.6890    -0.2080    -1.6640 H     1 <1>   0.0800 
 34 H       -3.3790    -1.1670    -1.5160 H     1 <1>   0.4000 
 35 H        3.2930    -1.9040     1.5850 H     1 <1>   0.0800 
 36 H        4.2680    -0.4630     1.5510 H     1 <1>   0.0800 
 37 H        5.2450     0.2570    -0.7160 H     1 <1>   0.0800 
 38 H        4.8750    -0.7360    -2.0970 H     1 <1>   0.0800 
 39 H        5.1820    -3.3070     1.0650 H     1 <1>   0.0800 
 40 H        5.5650    -2.3280     2.4580 H     1 <1>   0.0800 
 41 H        7.1710    -1.1350    -1.2650 H     1 <1>   0.0800 
 42 H        6.1820    -2.5720    -1.2420 H     1 <1>   0.0800 
 43 H        6.8070    -0.8310     1.0400 H     1 <1>   0.4500 
 44 H        7.7220    -3.5500     0.4390 H     1 <1>   0.0800 
 45 H        7.9370    -2.7720     1.9910 H     1 <1>   0.0800 
 46 H        9.3200    -3.1960    -1.2270 H     1 <1>   0.1500 
 47 H        8.1460    -0.7460     2.7830 H     1 <1>   0.1500 
 48 H       11.1560    -1.9800    -2.1720 H     1 <1>   0.1500 
 49 H       11.6860     1.8680     0.6220 H     1 <1>   0.1500 
 50 H        8.8940     1.3440     3.7650 H     1 <1>   0.1500 
 51 H       10.6430     2.6600     2.6890 H     1 <1>   0.1500 
 52 H       13.6760     0.6300    -2.5090 H     1 <1>   0.0800 
 53 H       12.2710    -0.1840    -3.1880 H     1 <1>   0.0800 
 54 H       13.3670    -1.0520    -2.0950 H     1 <1>   0.0800 
@<TRIPOS>BOND
  1   1   2  1   
  2   1   3  1   
  3   2   4  1   
  4   2  26  1   
  5   2  27  1   
  6   3   5  1   
  7   3  28  1   
  8   3  29  1   
  9   4   6  1   
 10   4  30  1   
 11   4  31  1   
 12   5   7  1   
 13   5  32  1   
 14   5  33  1   
 15   6  34  1   
 16   7   8  1   
 17   7   9  1   
 18   8  10  1   
 19   8  35  1   
 20   8  36  1   
 21   9  11  1   
 22   9  37  1   
 23   9  38  1   
 24  10  12  1   
 25  10  39  1   
 26  10  40  1   
 27  11  12  1   
 28  11  41  1   
 29  11  42  1   
 30  12  13  1   
 31  12  43  1   
 32  13  14  1   
 33  13  44  1   
 34  13  45  1   
 35  14  15  ar  
 36  14  16  ar  
 37  15  17  ar  
 38  15  18  ar  
 39  16  19  ar  
 40  16  46  1   
 41  17  20  ar  
 42  17  21  ar  
 43  18  22  ar  
 44  18  47  1   
 45  19  20  ar  
 46  19  48  1   
 47  20  23  1   
 48  21  24  ar  
 49  21  49  1   
 50  22  24  ar  
 51  22  50  1   
 52  23  25  1   
 53  24  51  1   
 54  25  52  1   
 55  25  53  1   
 56  25  54  1   
@<TRIPOS>SUBSTRUCTURE
  1 ****  12 GROUP 4 **** **** 0

# MOE 2024.06 (io_trps.svl 2023.06)
