@<TRIPOS>MOLECULE
NONAME
31 31 1 0 0 
SMALL
USER_CHARGES


@<TRIPOS>ATOM
  1 O        6.3100    -2.8170    -0.8060 O.2   1 <1>  -0.5700 
  2 C        5.3010    -2.2240    -0.5050 C.2   1 <1>   0.5690 
  3 N        5.2860    -0.8420    -0.4320 N.am  1 <1>  -0.1130 
  4 C        4.0900    -3.0790    -0.2150 C.3   1 <1>  -0.0380 
  5 N        4.1610     0.1540    -0.1170 N.4   1 <1>  -0.7560 
  6 C        6.5510    -0.1070    -0.6590 C.3   1 <1>   0.5000 
  7 C        4.1750    -3.5400     1.2170 C.2   1 <1>   0.4480 
  8 C        4.8670     1.4760    -0.0770 C.3   1 <1>   0.3430 
  9 C        3.1230     0.1650    -1.1960 C.3   1 <1>   0.2630 
 10 C        3.5580    -0.1020     1.2320 C.3   1 <1>   0.2630 
 11 O        7.2380    -0.1070     0.5370 O.3   1 <1>  -0.6800 
 12 C        6.1090     1.3130    -0.9410 C.3   1 <1>  -0.1600 
 13 O        3.6880    -2.8830     2.0850 O.2   1 <1>  -0.5700 
 14 C        4.8920    -4.8390     1.5120 C.3   1 <1>  -0.1790 
 15 H        4.0830    -3.9290    -0.8710 H     1 <1>   0.0800 
 16 H        3.1810    -2.5360    -0.3640 H     1 <1>   0.0800 
 17 H        7.1620    -0.5380    -1.4360 H     1 <1>   0.0800 
 18 H        5.1750     1.6860     0.9350 H     1 <1>   0.0800 
 19 H        4.2350     2.2790    -0.4220 H     1 <1>   0.0800 
 20 H        3.5820     0.3430    -2.1540 H     1 <1>   0.0800 
 21 H        2.4060     0.9470    -1.0080 H     1 <1>   0.0800 
 22 H        2.5970    -0.7730    -1.2260 H     1 <1>   0.0800 
 23 H        4.3340    -0.2720     1.9610 H     1 <1>   0.0800 
 24 H        2.9140    -0.9630     1.1990 H     1 <1>   0.0800 
 25 H        2.9680     0.7430     1.5430 H     1 <1>   0.0800 
 26 H        7.6230    -0.9950     0.6860 H     1 <1>   0.4000 
 27 H        5.8530     1.4160    -1.9790 H     1 <1>   0.0800 
 28 H        6.8730     2.0310    -0.7010 H     1 <1>   0.0800 
 29 H        4.3890    -5.6570     1.0310 H     1 <1>   0.0800 
 30 H        4.9000    -5.0160     2.5730 H     1 <1>   0.0800 
 31 H        5.9070    -4.7920     1.1630 H     1 <1>   0.0800 
@<TRIPOS>BOND
  1   1   2  2   
  2   2   3  am  
  3   2   4  1   
  4   3   5  1   
  5   3   6  1   
  6   4   7  1   
  7   4  15  1   
  8   4  16  1   
  9   5   8  1   
 10   5   9  1   
 11   5  10  1   
 12   6  11  1   
 13   6  12  1   
 14   6  17  1   
 15   7  13  2   
 16   7  14  1   
 17   8  12  1   
 18   8  18  1   
 19   8  19  1   
 20   9  20  1   
 21   9  21  1   
 22   9  22  1   
 23  10  23  1   
 24  10  24  1   
 25  10  25  1   
 26  11  26  1   
 27  12  27  1   
 28  12  28  1   
 29  14  29  1   
 30  14  30  1   
 31  14  31  1   
@<TRIPOS>SUBSTRUCTURE
  1 ****   3 GROUP 4 **** **** 0

# MOE 2024.06 (io_trps.svl 2023.06)
