@<TRIPOS>MOLECULE
NONAME
41 42 1 0 0 
SMALL
USER_CHARGES


@<TRIPOS>ATOM
  1 F       -0.1610     1.1840    -1.0230 F     1 <1>  -0.1900 
  2 C       -1.3940     1.4340    -0.6700 C.ar  1 <1>   0.1900 
  3 C       -1.6240     2.3010     0.3810 C.ar  1 <1>  -0.1500 
  4 C       -2.4220     0.8210    -1.3610 C.ar  1 <1>  -0.1500 
  5 C       -2.9330     2.5600     0.7480 C.ar  1 <1>  -0.1500 
  6 C       -3.7290     1.0860    -0.9870 C.ar  1 <1>  -0.1500 
  7 C       -3.9870     1.9580     0.0720 C.ar  1 <1>   0.0830 
  8 O       -5.2360     2.2710     0.5030 O.3   1 <1>  -0.3630 
  9 C       -6.3810     1.7080    -0.0870 C.3   1 <1>   0.1200 
 10 C       -7.5970     2.2850     0.6460 C.3   1 <1>   0.3430 
 11 N       -8.9010     1.7810     0.1020 N.4   1 <1>  -0.9590 
 12 C      -10.0420     2.5590     0.6620 C.3   1 <1>   0.3430 
 13 C       -9.0920     0.3050     0.3250 C.3   1 <1>   0.3430 
 14 C      -11.3130     2.2790    -0.1610 C.3   1 <1>  -0.0800 
 15 C      -10.5560    -0.1520     0.1300 C.3   1 <1>  -0.0800 
 16 C      -11.3580     0.8420    -0.7290 C.3   1 <1>  -0.1600 
 17 C      -11.4720     3.3010    -1.2970 C.3   1 <1>  -0.2400 
 18 C      -11.2490    -0.4090     1.4800 C.3   1 <1>  -0.2400 
 19 H       -0.7970     2.7590     0.8940 H     1 <1>   0.1500 
 20 H       -2.1950     0.1530    -2.1730 H     1 <1>   0.1500 
 21 H       -3.1410     3.2320     1.5630 H     1 <1>   0.1500 
 22 H       -4.5190     0.6050    -1.5310 H     1 <1>   0.1500 
 23 H       -6.3220     0.6410     0.0300 H     1 <1>   0.0800 
 24 H       -6.3920     1.9850    -1.1260 H     1 <1>   0.0800 
 25 H       -7.5640     3.3580     0.5520 H     1 <1>   0.0800 
 26 H       -7.5240     2.0350     1.6920 H     1 <1>   0.0800 
 27 H       -8.9340     1.9490    -0.9120 H     1 <1>   0.4500 
 28 H       -9.8290     3.6160     0.6430 H     1 <1>   0.0800 
 29 H      -10.2030     2.2680     1.6870 H     1 <1>   0.0800 
 30 H       -8.7800     0.0420     1.3230 H     1 <1>   0.0800 
 31 H       -8.4660    -0.2380    -0.3650 H     1 <1>   0.0800 
 32 H      -12.1510     2.4070     0.5050 H     1 <1>   0.0800 
 33 H      -10.5320    -1.0970    -0.3870 H     1 <1>   0.0800 
 34 H      -10.9420     0.8320    -1.7230 H     1 <1>   0.0800 
 35 H      -12.3820     0.5180    -0.8190 H     1 <1>   0.0800 
 36 H      -10.6540     3.2450    -1.9940 H     1 <1>   0.0800 
 37 H      -11.5180     4.3010    -0.9020 H     1 <1>   0.0800 
 38 H      -12.3870     3.1170    -1.8350 H     1 <1>   0.0800 
 39 H      -11.3070     0.4770     2.0850 H     1 <1>   0.0800 
 40 H      -10.7180    -1.1630     2.0350 H     1 <1>   0.0800 
 41 H      -12.2510    -0.7690     1.3170 H     1 <1>   0.0800 
@<TRIPOS>BOND
  1   1   2  1   
  2   2   3  ar  
  3   2   4  ar  
  4   3   5  ar  
  5   3  19  1   
  6   4   6  ar  
  7   4  20  1   
  8   5   7  ar  
  9   5  21  1   
 10   6   7  ar  
 11   6  22  1   
 12   7   8  1   
 13   8   9  1   
 14   9  10  1   
 15   9  23  1   
 16   9  24  1   
 17  10  11  1   
 18  10  25  1   
 19  10  26  1   
 20  11  12  1   
 21  11  13  1   
 22  11  27  1   
 23  12  14  1   
 24  12  28  1   
 25  12  29  1   
 26  13  15  1   
 27  13  30  1   
 28  13  31  1   
 29  14  16  1   
 30  14  17  1   
 31  14  32  1   
 32  15  16  1   
 33  15  18  1   
 34  15  33  1   
 35  16  34  1   
 36  16  35  1   
 37  17  36  1   
 38  17  37  1   
 39  17  38  1   
 40  18  39  1   
 41  18  40  1   
 42  18  41  1   
@<TRIPOS>SUBSTRUCTURE
  1 ****   9 GROUP 4 **** **** 0

# MOE 2024.06 (io_trps.svl 2023.06)
