@<TRIPOS>MOLECULE
NONAME
38 39 1 0 0 
SMALL
USER_CHARGES


@<TRIPOS>ATOM
  1 O        1.5040     3.5760     0.8910 O.2   1 <1>  -0.5700 
  2 C        1.8830     2.7120     0.1280 C.2   1 <1>   0.6340 
  3 O        1.0620     2.3420    -0.8640 O.3   1 <1>  -0.4300 
  4 C        3.1620     2.0330     0.2120 C.ar  1 <1>   0.0860 
  5 C       -0.2190     2.9200    -1.0530 C.3   1 <1>   0.1200 
  6 C        4.3120     2.6070     0.7800 C.ar  1 <1>   0.0830 
  7 C        3.2910     0.7310    -0.2850 C.ar  1 <1>  -0.1500 
  8 C       -1.2140     2.3180    -0.0540 C.3   1 <1>   0.1100 
  9 O        4.3290     3.8590     1.2740 O.3   1 <1>  -0.3630 
 10 C        5.5000     1.8970     0.8700 C.ar  1 <1>  -0.1500 
 11 C        4.4800     0.0290    -0.2080 C.ar  1 <1>  -0.1500 
 12 N       -2.5730     2.8450    -0.2720 N.3   1 <1>  -0.8100 
 13 C        4.3540     4.9320     0.3580 C.3   1 <1>   0.0400 
 14 C        5.5900     0.6110     0.3760 C.ar  1 <1>  -0.1500 
 15 C       -3.5720     1.9910     0.3980 C.3   1 <1>   0.1100 
 16 C       -2.7070     4.2290     0.2350 C.3   1 <1>   0.1100 
 17 C       -4.9920     2.5640     0.2370 C.3   1 <1>   0.1200 
 18 C       -4.1520     4.7390     0.0850 C.3   1 <1>   0.1200 
 19 O       -5.0490     3.8750     0.7230 O.3   1 <1>  -0.5600 
 20 H       -0.5320     2.6960    -2.0570 H     1 <1>   0.0800 
 21 H       -0.1340     3.9860    -0.9350 H     1 <1>   0.0800 
 22 H        2.4400     0.2530    -0.7380 H     1 <1>   0.1500 
 23 H       -0.9000     2.5250     0.9560 H     1 <1>   0.0800 
 24 H       -1.2230     1.2510    -0.2010 H     1 <1>   0.0800 
 25 H        6.3540     2.3610     1.3300 H     1 <1>   0.1500 
 26 H        4.5440    -0.9730    -0.5990 H     1 <1>   0.1500 
 27 H        4.4440     5.8450     0.9170 H     1 <1>   0.0800 
 28 H        3.4400     4.9410    -0.2070 H     1 <1>   0.0800 
 29 H        5.2010     4.8120    -0.2940 H     1 <1>   0.0800 
 30 H        6.5150     0.0660     0.4450 H     1 <1>   0.1500 
 31 H       -3.3460     1.9100     1.4480 H     1 <1>   0.0800 
 32 H       -3.5440     1.0040    -0.0310 H     1 <1>   0.0800 
 33 H       -2.0540     4.8840    -0.3130 H     1 <1>   0.0800 
 34 H       -2.4290     4.2710     1.2740 H     1 <1>   0.0800 
 35 H       -5.6980     1.9760     0.7950 H     1 <1>   0.0800 
 36 H       -5.2810     2.5670    -0.8000 H     1 <1>   0.0800 
 37 H       -4.4210     4.8080    -0.9540 H     1 <1>   0.0800 
 38 H       -4.2540     5.7090     0.5370 H     1 <1>   0.0800 
@<TRIPOS>BOND
  1   1   2  2   
  2   2   3  1   
  3   2   4  1   
  4   3   5  1   
  5   4   6  ar  
  6   4   7  ar  
  7   5   8  1   
  8   5  20  1   
  9   5  21  1   
 10   6   9  1   
 11   6  10  ar  
 12   7  11  ar  
 13   7  22  1   
 14   8  12  1   
 15   8  23  1   
 16   8  24  1   
 17   9  13  1   
 18  10  14  ar  
 19  10  25  1   
 20  11  14  ar  
 21  11  26  1   
 22  12  15  1   
 23  12  16  1   
 24  13  27  1   
 25  13  28  1   
 26  13  29  1   
 27  14  30  1   
 28  15  17  1   
 29  15  31  1   
 30  15  32  1   
 31  16  18  1   
 32  16  33  1   
 33  16  34  1   
 34  17  19  1   
 35  17  35  1   
 36  17  36  1   
 37  18  19  1   
 38  18  37  1   
 39  18  38  1   
@<TRIPOS>SUBSTRUCTURE
  1 ****   2 GROUP 4 **** **** 0

# MOE 2024.06 (io_trps.svl 2023.06)
