@<TRIPOS>MOLECULE
NONAME
48 50 1 0 0 
SMALL
USER_CHARGES


@<TRIPOS>ATOM
  1 O       -0.1470     0.8100    -1.1280 O.2   1 <1>  -0.5700 
  2 C       -0.6270     1.5930    -0.3470 C.2   1 <1>   0.6590 
  3 O        0.0460     2.0280     0.7100 O.3   1 <1>  -0.4300 
  4 C       -2.0310     2.1520    -0.5080 C.3   1 <1>  -0.0190 
  5 C        1.3610     1.5960     0.9750 C.3   1 <1>   0.1200 
  6 C       -2.8370     1.3070    -1.5050 C.3   1 <1>   0.2090 
  7 C       -2.0060     3.6330    -0.9380 C.3   1 <1>  -0.1600 
  8 C        1.8370     2.2880     2.2490 C.3   1 <1>  -0.2400 
  9 N       -4.2080     1.8700    -1.6660 N.pl3 1 <1>  -0.8380 
 10 C       -3.4360     4.1620    -1.1230 C.3   1 <1>  -0.1600 
 11 C       -5.2530     1.3250    -0.9430 C.ar  1 <1>   0.4100 
 12 C       -4.2490     3.2950    -2.0930 C.3   1 <1>   0.2090 
 13 N       -5.9370     2.1070    -0.1590 N.ar  1 <1>  -0.6200 
 14 C       -5.5320    -0.0460    -1.0720 C.ar  1 <1>  -0.1500 
 15 C       -6.9470     1.5760     0.5830 C.ar  1 <1>   0.3100 
 16 C       -6.5190    -0.6320    -0.3460 C.ar  1 <1>  -0.1430 
 17 C       -7.7190     2.4010     1.4580 C.ar  1 <1>   0.0820 
 18 C       -7.2580     0.1910     0.5370 C.ar  1 <1>   0.0000 
 19 C       -6.8070    -2.1190    -0.4960 C.3   1 <1>  -0.0970 
 20 O       -7.5590     3.7480     1.5840 O.3   1 <1>  -0.3630 
 21 C       -8.6960     1.8610     2.2550 C.ar  1 <1>  -0.1500 
 22 C       -8.2800    -0.3130     1.3690 C.ar  1 <1>  -0.1500 
 23 C       -7.3850     4.5590     0.4420 C.3   1 <1>   0.0400 
 24 C       -8.9820     0.5000     2.2140 C.ar  1 <1>  -0.1500 
 25 H       -2.5170     2.0750     0.4480 H     1 <1>   0.0800 
 26 H        1.9820     1.8600     0.1360 H     1 <1>   0.0800 
 27 H        1.3510     0.5260     1.0960 H     1 <1>   0.0800 
 28 H       -2.8880     0.2930    -1.1500 H     1 <1>   0.0800 
 29 H       -2.3480     1.3000    -2.4640 H     1 <1>   0.0800 
 30 H       -1.4650     3.7290    -1.8640 H     1 <1>   0.0800 
 31 H       -1.4990     4.2200    -0.1910 H     1 <1>   0.0800 
 32 H        1.8310     3.3550     2.1150 H     1 <1>   0.0800 
 33 H        2.8410     1.9780     2.4760 H     1 <1>   0.0800 
 34 H        1.2010     2.0240     3.0740 H     1 <1>   0.0800 
 35 H       -3.4070     5.1720    -1.4900 H     1 <1>   0.0800 
 36 H       -3.9410     4.1730    -0.1730 H     1 <1>   0.0800 
 37 H       -5.2690     3.6400    -2.1280 H     1 <1>   0.0800 
 38 H       -3.8390     3.3730    -3.0850 H     1 <1>   0.0800 
 39 H       -4.9400    -0.6040    -1.7700 H     1 <1>   0.1500 
 40 H       -6.1550    -2.5630    -1.2280 H     1 <1>   0.0800 
 41 H       -7.8230    -2.2680    -0.8160 H     1 <1>   0.0800 
 42 H       -6.6520    -2.6220     0.4420 H     1 <1>   0.0800 
 43 H       -9.2540     2.4980     2.9190 H     1 <1>   0.1500 
 44 H       -8.5150    -1.3610     1.3440 H     1 <1>   0.1500 
 45 H       -7.7420     5.5460     0.6740 H     1 <1>   0.0800 
 46 H       -7.9440     4.1440    -0.3770 H     1 <1>   0.0800 
 47 H       -6.3380     4.5990     0.2030 H     1 <1>   0.0800 
 48 H       -9.7560     0.1050     2.8490 H     1 <1>   0.1500 
@<TRIPOS>BOND
  1   1   2  2   
  2   2   3  1   
  3   2   4  1   
  4   3   5  1   
  5   4   6  1   
  6   4   7  1   
  7   4  25  1   
  8   5   8  1   
  9   5  26  1   
 10   5  27  1   
 11   6   9  1   
 12   6  28  1   
 13   6  29  1   
 14   7  10  1   
 15   7  30  1   
 16   7  31  1   
 17   8  32  1   
 18   8  33  1   
 19   8  34  1   
 20   9  11  1   
 21   9  12  1   
 22  10  12  1   
 23  10  35  1   
 24  10  36  1   
 25  11  13  ar  
 26  11  14  ar  
 27  12  37  1   
 28  12  38  1   
 29  13  15  ar  
 30  14  16  ar  
 31  14  39  1   
 32  15  17  ar  
 33  15  18  ar  
 34  16  18  ar  
 35  16  19  1   
 36  17  20  1   
 37  17  21  ar  
 38  18  22  ar  
 39  19  40  1   
 40  19  41  1   
 41  19  42  1   
 42  20  23  1   
 43  21  24  ar  
 44  21  43  1   
 45  22  24  ar  
 46  22  44  1   
 47  23  45  1   
 48  23  46  1   
 49  23  47  1   
 50  24  48  1   
@<TRIPOS>SUBSTRUCTURE
  1 ****  11 GROUP 4 **** **** 0

# MOE 2024.06 (io_trps.svl 2023.06)
