@<TRIPOS>MOLECULE
NONAME
33 33 1 0 0 
SMALL
USER_CHARGES


@<TRIPOS>ATOM
  1 S        0.5130    -0.5210    -0.3630 S.o2  1 <1>   1.2570 
  2 O        1.3690     0.3660    -1.1200 O.2   1 <1>  -0.6500 
  3 O        0.2850    -1.8540    -0.8720 O.2   1 <1>  -0.6500 
  4 C       -1.0790     0.3110    -0.1460 C.2   1 <1>  -0.0220 
  5 C        1.1460    -0.6810     1.3160 C.3   1 <1>  -0.0550 
  6 S       -2.5260    -0.6910    -0.1790 S.3   1 <1>  -0.0800 
  7 C       -1.4150     1.6040     0.0620 C.2   1 <1>  -0.0630 
  8 C        2.5270    -1.3530     1.4070 C.3   1 <1>  -0.2400 
  9 C       -3.5720     0.6870     0.0740 C.2   1 <1>  -0.1400 
 10 S       -0.2680     2.9950     0.1890 S.o2  1 <1>   1.2580 
 11 C       -2.8330     1.8060     0.1790 C.2   1 <1>  -0.1500 
 12 C       -5.0640     0.4070     0.1320 C.3   1 <1>   0.0200 
 13 O       -1.0010     4.1340     0.6920 O.2   1 <1>  -0.6500 
 14 O        0.8900     2.5360     0.9220 O.2   1 <1>  -0.6500 
 15 C        0.1840     3.3510    -1.5170 C.3   1 <1>  -0.0550 
 16 C       -5.8820     1.6820     0.3560 C.3   1 <1>  -0.2400 
 17 C        1.1900     4.5040    -1.6740 C.3   1 <1>  -0.2400 
 18 H        0.4510    -1.2580     1.8950 H     1 <1>   0.0800 
 19 H        1.2160     0.2860     1.7720 H     1 <1>   0.0800 
 20 H        2.4880    -2.3430     0.9880 H     1 <1>   0.0800 
 21 H        2.8410    -1.4210     2.4330 H     1 <1>   0.0800 
 22 H        3.2540    -0.7760     0.8610 H     1 <1>   0.0800 
 23 H       -3.2290     2.7950     0.3450 H     1 <1>   0.1500 
 24 H       -5.2590    -0.2860     0.9320 H     1 <1>   0.0800 
 25 H       -5.3700    -0.0550    -0.7910 H     1 <1>   0.0800 
 26 H       -0.7040     3.6020    -2.0660 H     1 <1>   0.0800 
 27 H        0.6040     2.4790    -1.9750 H     1 <1>   0.0800 
 28 H       -5.6040     2.1460     1.2860 H     1 <1>   0.0800 
 29 H       -6.9300     1.4440     0.3920 H     1 <1>   0.0800 
 30 H       -5.7160     2.3790    -0.4470 H     1 <1>   0.0800 
 31 H        0.7880     5.4110    -1.2560 H     1 <1>   0.0800 
 32 H        1.4100     4.6680    -2.7140 H     1 <1>   0.0800 
 33 H        2.1070     4.2650    -1.1610 H     1 <1>   0.0800 
@<TRIPOS>BOND
  1   1   2  2   
  2   1   3  2   
  3   1   4  1   
  4   1   5  1   
  5   4   6  1   
  6   4   7  2   
  7   5   8  1   
  8   5  18  1   
  9   5  19  1   
 10   6   9  1   
 11   7  10  1   
 12   7  11  1   
 13   8  20  1   
 14   8  21  1   
 15   8  22  1   
 16   9  11  2   
 17   9  12  1   
 18  10  13  2   
 19  10  14  2   
 20  10  15  1   
 21  11  23  1   
 22  12  16  1   
 23  12  24  1   
 24  12  25  1   
 25  15  17  1   
 26  15  26  1   
 27  15  27  1   
 28  16  28  1   
 29  16  29  1   
 30  16  30  1   
 31  17  31  1   
 32  17  32  1   
 33  17  33  1   
@<TRIPOS>SUBSTRUCTURE
  1 ****   7 GROUP 4 **** **** 0

# MOE 2024.06 (io_trps.svl 2023.06)
