@<TRIPOS>MOLECULE
NONAME
52 53 1 0 0 
SMALL
USER_CHARGES


@<TRIPOS>ATOM
  1 N        0.2060    -0.2330     0.4000 N.4   1 <1>  -0.9590 
  2 C        0.0240    -1.5160    -0.3470 C.3   1 <1>   0.3430 
  3 C       -0.9550     0.6950     0.2510 C.3   1 <1>   0.3430 
  4 C        1.4610     0.4780    -0.0260 C.3   1 <1>   0.3430 
  5 C       -1.2560    -2.2170     0.1120 C.3   1 <1>  -0.1600 
  6 C       -2.2430     0.0140     0.7170 C.3   1 <1>  -0.1600 
  7 C        2.7300    -0.2580     0.4120 C.3   1 <1>  -0.0170 
  8 C       -2.4670    -1.2950    -0.0520 C.3   1 <1>   0.4230 
  9 C        3.9230     0.5930     0.0270 C.ar  1 <1>  -0.1440 
 10 N       -3.7240    -2.0010     0.3540 N.4   1 <1>  -0.9590 
 11 C        4.4190     1.5410     0.9090 C.ar  1 <1>  -0.1500 
 12 C        4.5210     0.4390    -1.2150 C.ar  1 <1>  -0.1500 
 13 C       -4.9400    -1.2790    -0.1370 C.3   1 <1>   0.3430 
 14 C       -3.8450    -2.3120     1.8240 C.3   1 <1>   0.2630 
 15 C        5.4950     2.3330     0.5500 C.ar  1 <1>  -0.1500 
 16 C        5.5970     1.2320    -1.5740 C.ar  1 <1>  -0.1500 
 17 C       -6.1400    -2.2260    -0.2010 C.3   1 <1>  -0.1600 
 18 C        6.0840     2.1800    -0.6920 C.ar  1 <1>  -0.1500 
 19 C       -7.3530    -1.5200    -0.8190 C.3   1 <1>  -0.1600 
 20 C       -8.5570    -2.4620    -0.8900 C.3   1 <1>  -0.2400 
 21 H        0.3230    -0.4450     1.4030 H     1 <1>   0.4500 
 22 H        0.8670    -2.1670    -0.1750 H     1 <1>   0.0800 
 23 H       -0.0300    -1.3150    -1.4060 H     1 <1>   0.0800 
 24 H       -1.0530     0.9910    -0.7820 H     1 <1>   0.0800 
 25 H       -0.7880     1.5870     0.8360 H     1 <1>   0.0800 
 26 H        1.4850     1.4630     0.4130 H     1 <1>   0.0800 
 27 H        1.4760     0.6000    -1.0970 H     1 <1>   0.0800 
 28 H       -1.1320    -2.5210     1.1360 H     1 <1>   0.0800 
 29 H       -1.3890    -3.1000    -0.4880 H     1 <1>   0.0800 
 30 H       -3.0590     0.6900     0.5400 H     1 <1>   0.0800 
 31 H       -2.1720    -0.1610     1.7750 H     1 <1>   0.0800 
 32 H        2.8120    -1.2140    -0.0720 H     1 <1>   0.0800 
 33 H        2.7310    -0.4060     1.4770 H     1 <1>   0.0800 
 34 H       -2.5470    -1.0520    -1.1010 H     1 <1>   0.0800 
 35 H       -3.7350    -2.9070    -0.1400 H     1 <1>   0.4500 
 36 H        3.9810     1.6750     1.8830 H     1 <1>   0.1500 
 37 H        4.1640    -0.2950    -1.9160 H     1 <1>   0.1500 
 38 H       -4.7600    -0.8960    -1.1290 H     1 <1>   0.0800 
 39 H       -5.1680    -0.4450     0.5080 H     1 <1>   0.0800 
 40 H       -3.9270    -1.4030     2.3980 H     1 <1>   0.0800 
 41 H       -2.9890    -2.8660     2.1690 H     1 <1>   0.0800 
 42 H       -4.7240    -2.9090     2.0100 H     1 <1>   0.0800 
 43 H        5.8790     3.0680     1.2360 H     1 <1>   0.1500 
 44 H        6.0600     1.1110    -2.5380 H     1 <1>   0.1500 
 45 H       -6.4090    -2.5590     0.7860 H     1 <1>   0.0800 
 46 H       -5.8970    -3.0830    -0.8050 H     1 <1>   0.0800 
 47 H        6.9220     2.7960    -0.9710 H     1 <1>   0.1500 
 48 H       -7.1190    -1.1820    -1.8160 H     1 <1>   0.0800 
 49 H       -7.6210    -0.6580    -0.2300 H     1 <1>   0.0800 
 50 H       -8.3350    -3.3230    -1.4970 H     1 <1>   0.0800 
 51 H       -9.3980    -1.9510    -1.3260 H     1 <1>   0.0800 
 52 H       -8.8400    -2.7950     0.0940 H     1 <1>   0.0800 
@<TRIPOS>BOND
  1   1   2  1   
  2   1   3  1   
  3   1   4  1   
  4   1  21  1   
  5   2   5  1   
  6   2  22  1   
  7   2  23  1   
  8   3   6  1   
  9   3  24  1   
 10   3  25  1   
 11   4   7  1   
 12   4  26  1   
 13   4  27  1   
 14   5   8  1   
 15   5  28  1   
 16   5  29  1   
 17   6   8  1   
 18   6  30  1   
 19   6  31  1   
 20   7   9  1   
 21   7  32  1   
 22   7  33  1   
 23   8  10  1   
 24   8  34  1   
 25   9  11  ar  
 26   9  12  ar  
 27  10  13  1   
 28  10  14  1   
 29  10  35  1   
 30  11  15  ar  
 31  11  36  1   
 32  12  16  ar  
 33  12  37  1   
 34  13  17  1   
 35  13  38  1   
 36  13  39  1   
 37  14  40  1   
 38  14  41  1   
 39  14  42  1   
 40  15  18  ar  
 41  15  43  1   
 42  16  18  ar  
 43  16  44  1   
 44  17  19  1   
 45  17  45  1   
 46  17  46  1   
 47  18  47  1   
 48  19  20  1   
 49  19  48  1   
 50  19  49  1   
 51  20  50  1   
 52  20  51  1   
 53  20  52  1   
@<TRIPOS>SUBSTRUCTURE
  1 ****   1 GROUP 4 **** **** 0

# MOE 2024.06 (io_trps.svl 2023.06)
