@<TRIPOS>MOLECULE
NONAME
41 42 1 0 0 
SMALL
USER_CHARGES


@<TRIPOS>ATOM
  1 S       -0.0200    -0.4730     0.8060 S.3   1 <1>  -0.0800 
  2 C        0.9420     0.7670     0.0070 C.2   1 <1>   0.1040 
  3 C       -1.4860     0.4590     0.5950 C.2   1 <1>  -0.1400 
  4 N        2.2950     0.4610    -0.1050 N.am  1 <1>  -0.4940 
  5 C        0.1560     1.8230    -0.3540 C.2   1 <1>   0.0190 
  6 C       -1.2290     1.6250    -0.0130 C.2   1 <1>  -0.1810 
  7 C       -2.8170    -0.0740     1.0750 C.3   1 <1>   0.0200 
  8 C        3.2500     0.8750    -0.9860 C.2   1 <1>   0.5690 
  9 C        0.5830     3.0460    -0.9670 C.1   1 <1>   0.5380 
 10 C       -2.3460     2.6190    -0.3010 C.3   1 <1>   0.0210 
 11 C       -3.9610     0.7610     0.4580 C.3   1 <1>  -0.0800 
 12 O        3.0320     1.6190    -1.9090 O.2   1 <1>  -0.5700 
 13 C        4.6590     0.3180    -0.7750 C.3   1 <1>   0.1710 
 14 N        0.8290     4.0700    -1.4100 N.1   1 <1>  -0.5570 
 15 C       -3.6230     2.2720     0.4940 C.3   1 <1>  -0.1600 
 16 C       -5.2870     0.4330     1.1720 C.3   1 <1>  -0.1600 
 17 N        4.6810    -0.9720    -0.0180 N.3   1 <1>  -0.8100 
 18 C       -6.5190     1.0300     0.4790 C.3   1 <1>  -0.2400 
 19 C        6.0200    -1.2330     0.5210 C.3   1 <1>   0.0300 
 20 C        4.2550    -2.0940    -0.8700 C.3   1 <1>   0.0300 
 21 H        2.6530    -0.2950     0.4910 H     1 <1>   0.3700 
 22 H       -2.8420    -0.0140     2.1490 H     1 <1>   0.0800 
 23 H       -2.9220    -1.1060     0.7870 H     1 <1>   0.0800 
 24 H       -2.5600     2.5990    -1.3560 H     1 <1>   0.0800 
 25 H       -2.0340     3.6160    -0.0420 H     1 <1>   0.0800 
 26 H       -4.0520     0.4680    -0.5750 H     1 <1>   0.0800 
 27 H        5.2080     1.0630    -0.2270 H     1 <1>   0.0800 
 28 H        5.1350     0.1960    -1.7320 H     1 <1>   0.0800 
 29 H       -4.4330     2.8510     0.0900 H     1 <1>   0.0800 
 30 H       -3.4840     2.5720     1.5180 H     1 <1>   0.0800 
 31 H       -5.2490     0.7810     2.1900 H     1 <1>   0.0800 
 32 H       -5.4100    -0.6370     1.2000 H     1 <1>   0.0800 
 33 H       -6.5190     2.1030     0.5410 H     1 <1>   0.0800 
 34 H       -7.4140     0.6710     0.9570 H     1 <1>   0.0800 
 35 H       -6.5490     0.7390    -0.5560 H     1 <1>   0.0800 
 36 H        6.3120    -0.4360     1.1840 H     1 <1>   0.0800 
 37 H        6.7420    -1.3100    -0.2750 H     1 <1>   0.0800 
 38 H        6.0170    -2.1530     1.0820 H     1 <1>   0.0800 
 39 H        3.2630    -1.9210    -1.2520 H     1 <1>   0.0800 
 40 H        4.2400    -3.0040    -0.2950 H     1 <1>   0.0800 
 41 H        4.9300    -2.2170    -1.7000 H     1 <1>   0.0800 
@<TRIPOS>BOND
  1   1   2  1   
  2   1   3  1   
  3   2   4  1   
  4   2   5  2   
  5   3   6  2   
  6   3   7  1   
  7   4   8  am  
  8   4  21  1   
  9   5   6  1   
 10   5   9  1   
 11   6  10  1   
 12   7  11  1   
 13   7  22  1   
 14   7  23  1   
 15   8  12  2   
 16   8  13  1   
 17   9  14  3   
 18  10  15  1   
 19  10  24  1   
 20  10  25  1   
 21  11  15  1   
 22  11  16  1   
 23  11  26  1   
 24  13  17  1   
 25  13  27  1   
 26  13  28  1   
 27  15  29  1   
 28  15  30  1   
 29  16  18  1   
 30  16  31  1   
 31  16  32  1   
 32  17  19  1   
 33  17  20  1   
 34  18  33  1   
 35  18  34  1   
 36  18  35  1   
 37  19  36  1   
 38  19  37  1   
 39  19  38  1   
 40  20  39  1   
 41  20  40  1   
 42  20  41  1   
@<TRIPOS>SUBSTRUCTURE
  1 ****   2 GROUP 4 **** **** 0

# MOE 2024.06 (io_trps.svl 2023.06)
