@<TRIPOS>MOLECULE
NONAME
47 50 1 0 0 
SMALL
USER_CHARGES


@<TRIPOS>ATOM
  1 O       -0.6310     1.2810    -2.5800 O.2   1 <1>  -0.5700 
  2 C       -1.5770     1.5000    -1.8440 C.2   1 <1>   0.8060 
  3 O       -2.5150     0.5460    -1.7620 O.3   1 <1>  -0.2320 
  4 C       -1.7850     2.6970    -1.0640 C.2   1 <1>   0.1410 
  5 C       -3.5810     0.6100    -0.9250 C.ar  1 <1>   0.0830 
  6 N       -1.0280     3.8260    -1.0120 N.2   1 <1>  -0.5650 
  7 C       -2.8800     2.8290    -0.2530 C.2   1 <1>  -0.2050 
  8 C       -3.7990     1.7310    -0.1070 C.ar  1 <1>   0.0530 
  9 C       -4.4350    -0.4810    -0.8870 C.ar  1 <1>  -0.1500 
 10 C       -1.6790     4.6090    -0.2230 C.2   1 <1>   0.0370 
 11 N       -2.8310     4.0820     0.2580 N.pl3 1 <1>   0.0480 
 12 C       -4.8700     1.6750     0.7880 C.ar  1 <1>  -0.1500 
 13 C       -5.5050    -0.4950    -0.0150 C.ar  1 <1>  -0.1500 
 14 C       -3.8850     4.7930     1.0210 C.3   1 <1>   0.0960 
 15 C       -5.7150     0.5820     0.8300 C.ar  1 <1>  -0.1500 
 16 C       -3.8210     6.3220     0.8610 C.3   1 <1>  -0.1600 
 17 C       -5.0930     7.0060     1.3770 C.3   1 <1>   0.1100 
 18 N       -6.2950     6.4960     0.6910 N.3   1 <1>  -0.8100 
 19 C       -7.5260     6.8750     1.4270 C.3   1 <1>   0.1100 
 20 C       -6.3830     6.9640    -0.7220 C.3   1 <1>   0.1100 
 21 C       -8.8090     6.2990     0.7750 C.3   1 <1>   0.3430 
 22 C       -7.7110     6.5660    -1.4140 C.3   1 <1>   0.3430 
 23 N       -8.5160     5.6470    -0.5470 N.4   1 <1>  -0.9590 
 24 C       -9.7340     5.1120    -1.2210 C.3   1 <1>   0.2630 
 25 H       -4.2520    -1.3190    -1.5360 H     1 <1>   0.1500 
 26 H       -1.3480     5.6000     0.0300 H     1 <1>   0.1500 
 27 H       -5.0480     2.4760     1.4760 H     1 <1>   0.1500 
 28 H       -6.1670    -1.3450     0.0170 H     1 <1>   0.1500 
 29 H       -3.8060     4.5240     2.0590 H     1 <1>   0.0800 
 30 H       -4.8310     4.4490     0.6480 H     1 <1>   0.0800 
 31 H       -6.5370     0.5570     1.5250 H     1 <1>   0.1500 
 32 H       -3.6680     6.5870    -0.1690 H     1 <1>   0.0800 
 33 H       -2.9840     6.6980     1.4240 H     1 <1>   0.0800 
 34 H       -5.0150     8.0740     1.2490 H     1 <1>   0.0800 
 35 H       -5.1750     6.8080     2.4340 H     1 <1>   0.0800 
 36 H       -7.6060     7.9490     1.4710 H     1 <1>   0.0800 
 37 H       -7.4670     6.5170     2.4410 H     1 <1>   0.0800 
 38 H       -5.5740     6.5400    -1.2900 H     1 <1>   0.0800 
 39 H       -6.2770     8.0350    -0.7630 H     1 <1>   0.0800 
 40 H       -9.5240     7.0940     0.6450 H     1 <1>   0.0800 
 41 H       -9.2440     5.5770     1.4450 H     1 <1>   0.0800 
 42 H       -7.4870     6.0890    -2.3540 H     1 <1>   0.0800 
 43 H       -8.2780     7.4570    -1.6260 H     1 <1>   0.0800 
 44 H       -7.8610     4.8830    -0.3140 H     1 <1>   0.4500 
 45 H      -10.4120     5.9150    -1.4620 H     1 <1>   0.0800 
 46 H      -10.2420     4.4130    -0.5770 H     1 <1>   0.0800 
 47 H       -9.4640     4.6030    -2.1320 H     1 <1>   0.0800 
@<TRIPOS>BOND
  1   1   2  2   
  2   2   3  1   
  3   2   4  1   
  4   3   5  1   
  5   4   6  1   
  6   4   7  2   
  7   5   8  ar  
  8   5   9  ar  
  9   6  10  2   
 10   7   8  1   
 11   7  11  1   
 12   8  12  ar  
 13   9  13  ar  
 14   9  25  1   
 15  10  11  1   
 16  10  26  1   
 17  11  14  1   
 18  12  15  ar  
 19  12  27  1   
 20  13  15  ar  
 21  13  28  1   
 22  14  16  1   
 23  14  29  1   
 24  14  30  1   
 25  15  31  1   
 26  16  17  1   
 27  16  32  1   
 28  16  33  1   
 29  17  18  1   
 30  17  34  1   
 31  17  35  1   
 32  18  19  1   
 33  18  20  1   
 34  19  21  1   
 35  19  36  1   
 36  19  37  1   
 37  20  22  1   
 38  20  38  1   
 39  20  39  1   
 40  21  23  1   
 41  21  40  1   
 42  21  41  1   
 43  22  23  1   
 44  22  42  1   
 45  22  43  1   
 46  23  24  1   
 47  23  44  1   
 48  24  45  1   
 49  24  46  1   
 50  24  47  1   
@<TRIPOS>SUBSTRUCTURE
  1 ****  14 GROUP 4 **** **** 0

# MOE 2024.06 (io_trps.svl 2023.06)
