@<TRIPOS>MOLECULE
NONAME
56 59 1 0 0 
SMALL
USER_CHARGES


@<TRIPOS>ATOM
  1 O       -1.7350    -0.5650    -1.1690 O.3   1 <1>  -0.2800 
  2 C       -2.4820    -1.1480    -0.2330 C.ar  1 <1>   0.1400 
  3 C       -0.7090    -1.3650    -1.4120 C.2   1 <1>  -0.0400 
  4 C       -1.9270    -2.3580     0.1320 C.ar  1 <1>   0.0000 
  5 C       -3.6540    -0.6750     0.3350 C.ar  1 <1>  -0.1500 
  6 C       -0.7540    -2.4870    -0.6520 C.2   1 <1>  -0.0540 
  7 C        0.3060    -0.9100    -2.4390 C.3   1 <1>  -0.0600 
  8 C       -2.5670    -3.1410     1.0910 C.ar  1 <1>  -0.1500 
  9 C       -4.2890    -1.4450     1.2920 C.ar  1 <1>  -0.1430 
 10 C        0.1510    -3.6100    -0.5940 C.ar  1 <1>   0.0540 
 11 C       -3.7450    -2.6870     1.6690 C.ar  1 <1>   0.0830 
 12 C       -5.5770    -0.9250     1.9170 C.3   1 <1>   0.2540 
 13 C        0.4310    -4.3650    -1.7290 C.ar  1 <1>  -0.1500 
 14 C        0.7680    -3.9690     0.6000 C.ar  1 <1>  -0.1500 
 15 O       -4.4270    -3.4100     2.6020 O.3   1 <1>  -0.3630 
 16 N       -6.7040    -1.0520     0.9700 N.3   1 <1>  -0.8100 
 17 C        1.2950    -5.4430    -1.6740 C.ar  1 <1>  -0.1500 
 18 C        1.6330    -5.0460     0.6620 C.ar  1 <1>  -0.1500 
 19 C       -3.8460    -4.5470     3.2040 C.3   1 <1>   0.0400 
 20 C       -6.9380    -2.4710     0.5950 C.3   1 <1>   0.1100 
 21 C       -7.9390    -0.4510     1.5170 C.3   1 <1>   0.1100 
 22 C        1.8980    -5.7860    -0.4770 C.ar  1 <1>  -0.1500 
 23 C       -8.1880    -2.6560    -0.2990 C.3   1 <1>   0.3430 
 24 C       -9.1170    -0.5260     0.5140 C.3   1 <1>   0.3430 
 25 N       -8.7550    -1.3290    -0.7040 N.4   1 <1>  -0.9590 
 26 C       -9.8230    -1.4410    -1.7250 C.3   1 <1>   0.3430 
 27 C      -10.0850    -0.0770    -2.3520 C.3   1 <1>  -0.2400 
 28 H       -4.0450     0.2740     0.0170 H     1 <1>   0.1500 
 29 H       -0.1690    -0.8070    -3.3970 H     1 <1>   0.0800 
 30 H        1.1080    -1.6210    -2.5180 H     1 <1>   0.0800 
 31 H        0.7130     0.0410    -2.1470 H     1 <1>   0.0800 
 32 H       -2.1220    -4.0840     1.3440 H     1 <1>   0.1500 
 33 H       -5.4370     0.1140     2.1630 H     1 <1>   0.0800 
 34 H       -5.7990    -1.4470     2.8330 H     1 <1>   0.0800 
 35 H       -0.0400    -4.1030    -2.6600 H     1 <1>   0.1500 
 36 H        0.5670    -3.3920     1.4860 H     1 <1>   0.1500 
 37 H        1.4980    -6.0170    -2.5620 H     1 <1>   0.1500 
 38 H        2.1030    -5.3090     1.5940 H     1 <1>   0.1500 
 39 H       -4.5120    -4.8990     3.9700 H     1 <1>   0.0800 
 40 H       -2.9030    -4.2690     3.6410 H     1 <1>   0.0800 
 41 H       -3.7130    -5.3110     2.4580 H     1 <1>   0.0800 
 42 H       -7.0420    -3.0760     1.4800 H     1 <1>   0.0800 
 43 H       -6.0830    -2.8430     0.0550 H     1 <1>   0.0800 
 44 H       -7.7590     0.5820     1.7630 H     1 <1>   0.0800 
 45 H       -8.2170    -0.9560     2.4270 H     1 <1>   0.0800 
 46 H        2.5710    -6.6250    -0.4320 H     1 <1>   0.1500 
 47 H       -8.9280    -3.2220     0.2410 H     1 <1>   0.0800 
 48 H       -7.9090    -3.2240    -1.1710 H     1 <1>   0.0800 
 49 H       -9.3820     0.4760     0.2220 H     1 <1>   0.0800 
 50 H       -9.9730    -0.9610     1.0040 H     1 <1>   0.0800 
 51 H       -7.9390    -0.8300    -1.0960 H     1 <1>   0.4500 
 52 H      -10.7270    -1.8250    -1.2780 H     1 <1>   0.0800 
 53 H       -9.5120    -2.1260    -2.4990 H     1 <1>   0.0800 
 54 H      -10.4950     0.6120    -1.6370 H     1 <1>   0.0800 
 55 H      -10.8010    -0.1870    -3.1470 H     1 <1>   0.0800 
 56 H       -9.1820     0.3290    -2.7720 H     1 <1>   0.0800 
@<TRIPOS>BOND
  1   1   2  1   
  2   1   3  1   
  3   2   4  ar  
  4   2   5  ar  
  5   3   6  2   
  6   3   7  1   
  7   4   6  1   
  8   4   8  ar  
  9   5   9  ar  
 10   5  28  1   
 11   6  10  1   
 12   7  29  1   
 13   7  30  1   
 14   7  31  1   
 15   8  11  ar  
 16   8  32  1   
 17   9  11  ar  
 18   9  12  1   
 19  10  13  ar  
 20  10  14  ar  
 21  11  15  1   
 22  12  16  1   
 23  12  33  1   
 24  12  34  1   
 25  13  17  ar  
 26  13  35  1   
 27  14  18  ar  
 28  14  36  1   
 29  15  19  1   
 30  16  20  1   
 31  16  21  1   
 32  17  22  ar  
 33  17  37  1   
 34  18  22  ar  
 35  18  38  1   
 36  19  39  1   
 37  19  40  1   
 38  19  41  1   
 39  20  23  1   
 40  20  42  1   
 41  20  43  1   
 42  21  24  1   
 43  21  44  1   
 44  21  45  1   
 45  22  46  1   
 46  23  25  1   
 47  23  47  1   
 48  23  48  1   
 49  24  25  1   
 50  24  49  1   
 51  24  50  1   
 52  25  26  1   
 53  25  51  1   
 54  26  27  1   
 55  26  52  1   
 56  26  53  1   
 57  27  54  1   
 58  27  55  1   
 59  27  56  1   
@<TRIPOS>SUBSTRUCTURE
  1 ****   8 GROUP 4 **** **** 0

# MOE 2024.06 (io_trps.svl 2023.06)
