@<TRIPOS>MOLECULE
NONAME
23 24 1 0 0 
SMALL
USER_CHARGES


@<TRIPOS>ATOM
  1 CL      -0.0570    -0.4360     0.5530 Cl    1 <1>  -0.1770 
  2 C        1.5590    -1.0200     0.2470 C.ar  1 <1>   0.1770 
  3 C        2.6390    -0.2270     0.5730 C.ar  1 <1>  -0.1500 
  4 C        1.7250    -2.2710    -0.3220 C.ar  1 <1>  -0.1500 
  5 C        3.9390    -0.6750     0.3320 C.ar  1 <1>   0.0860 
  6 C        3.0060    -2.7340    -0.5590 C.ar  1 <1>  -0.1500 
  7 C        4.1000    -1.9480    -0.2260 C.ar  1 <1>   0.0830 
  8 C        5.0970     0.1300     0.6110 C.2   1 <1>   0.4230 
  9 O        5.3340    -2.4530    -0.4520 O.3   1 <1>  -0.3630 
 10 O        5.0510     1.2340     1.0880 O.2   1 <1>  -0.5700 
 11 C        6.4520    -0.4150     0.2250 C.3   1 <1>  -0.0990 
 12 C        6.4620    -1.9450     0.2460 C.3   1 <1>   0.5600 
 13 O        6.2790    -2.3680     1.5560 O.3   1 <1>  -0.6800 
 14 C        7.7600    -2.5450    -0.3830 C.3   1 <1>   0.6000 
 15 F        7.8040    -3.8680    -0.2230 F     1 <1>  -0.3400 
 16 F        8.8520    -2.0980     0.2340 F     1 <1>  -0.3400 
 17 H        2.4790     0.7430     1.0100 H     1 <1>   0.1500 
 18 H        0.8630    -2.8650    -0.5690 H     1 <1>   0.1500 
 19 H        3.1620    -3.7050    -0.9960 H     1 <1>   0.1500 
 20 H        7.1970    -0.0400     0.9030 H     1 <1>   0.0800 
 21 H        6.6950    -0.0600    -0.7590 H     1 <1>   0.0800 
 22 H        6.3530    -3.3430     1.5740 H     1 <1>   0.4000 
 23 H        7.8630    -2.3270    -1.4300 H     1 <1>   0.0800 
@<TRIPOS>BOND
  1   1   2  1   
  2   2   3  ar  
  3   2   4  ar  
  4   3   5  ar  
  5   3  17  1   
  6   4   6  ar  
  7   4  18  1   
  8   5   7  ar  
  9   5   8  1   
 10   6   7  ar  
 11   6  19  1   
 12   7   9  1   
 13   8  10  2   
 14   8  11  1   
 15   9  12  1   
 16  11  12  1   
 17  11  20  1   
 18  11  21  1   
 19  12  13  1   
 20  12  14  1   
 21  13  22  1   
 22  14  15  1   
 23  14  16  1   
 24  14  23  1   
@<TRIPOS>SUBSTRUCTURE
  1 ****   7 GROUP 4 **** **** 0

# MOE 2024.06 (io_trps.svl 2023.06)
