@<TRIPOS>MOLECULE
NONAME
36 37 1 0 0 
SMALL
USER_CHARGES


@<TRIPOS>ATOM
  1 BR       1.5210     0.3550     0.7530 Br    1 <1>  -0.1110 
  2 C        3.0750    -0.7580     0.5640 C.ar  1 <1>   0.1110 
  3 C        3.8010    -0.7010    -0.6090 C.ar  1 <1>  -0.1500 
  4 C        3.4340    -1.5890     1.6070 C.ar  1 <1>  -0.1500 
  5 C        4.9190    -1.5060    -0.7380 C.ar  1 <1>  -0.1500 
  6 C        4.5540    -2.3880     1.4600 C.ar  1 <1>  -0.1500 
  7 C        5.3170    -2.3720     0.2880 C.ar  1 <1>   0.0860 
  8 C        6.4840    -3.2250     0.1570 C.2   1 <1>   0.5440 
  9 O        7.1560    -3.5140     1.1290 O.2   1 <1>  -0.5700 
 10 N        6.8670    -3.7140    -1.0600 N.am  1 <1>  -0.7300 
 11 C        8.1250    -4.4950    -1.3070 C.3   1 <1>   0.2010 
 12 C        9.3850    -3.6270    -1.2870 C.2   1 <1>   0.5690 
 13 O       10.0830    -3.5700    -2.2720 O.2   1 <1>  -0.5700 
 14 N        9.6630    -2.9370    -0.1550 N.am  1 <1>  -0.7300 
 15 C       10.7510    -1.9750     0.0510 C.3   1 <1>   0.2200 
 16 C       11.3640    -2.2260     1.4220 C.3   1 <1>  -0.1600 
 17 C       10.1440    -0.5850     0.1910 C.3   1 <1>  -0.1600 
 18 C       10.4220    -1.5500     2.4270 C.3   1 <1>  -0.1600 
 19 C        9.6300    -0.5030     1.6320 C.3   1 <1>  -0.1600 
 20 H        3.4950    -0.0370    -1.3990 H     1 <1>   0.1500 
 21 H        2.8500    -1.6080     2.5110 H     1 <1>   0.1500 
 22 H        5.4950    -1.4540    -1.6440 H     1 <1>   0.1500 
 23 H        4.8510    -3.0400     2.2650 H     1 <1>   0.1500 
 24 H        6.3460    -3.4510    -1.8970 H     1 <1>   0.3700 
 25 H        8.0570    -4.9870    -2.2600 H     1 <1>   0.0800 
 26 H        8.2260    -5.2500    -0.5480 H     1 <1>   0.0800 
 27 H        8.9780    -2.9900     0.6130 H     1 <1>   0.3700 
 28 H       11.4720    -2.0370    -0.7480 H     1 <1>   0.0800 
 29 H       12.3230    -1.7400     1.4610 H     1 <1>   0.0800 
 30 H       11.5000    -3.2750     1.6210 H     1 <1>   0.0800 
 31 H        9.3730    -0.4040    -0.5380 H     1 <1>   0.0800 
 32 H       10.9250     0.1430     0.0540 H     1 <1>   0.0800 
 33 H       10.9760    -1.1000     3.2320 H     1 <1>   0.0800 
 34 H        9.7420    -2.2790     2.8360 H     1 <1>   0.0800 
 35 H        8.5820    -0.7510     1.6590 H     1 <1>   0.0800 
 36 H        9.7640     0.4860     2.0360 H     1 <1>   0.0800 
@<TRIPOS>BOND
  1   1   2  1   
  2   2   3  ar  
  3   2   4  ar  
  4   3   5  ar  
  5   3  20  1   
  6   4   6  ar  
  7   4  21  1   
  8   5   7  ar  
  9   5  22  1   
 10   6   7  ar  
 11   6  23  1   
 12   7   8  1   
 13   8   9  2   
 14   8  10  am  
 15  10  11  1   
 16  10  24  1   
 17  11  12  1   
 18  11  25  1   
 19  11  26  1   
 20  12  13  2   
 21  12  14  am  
 22  14  15  1   
 23  14  27  1   
 24  15  16  1   
 25  15  17  1   
 26  15  28  1   
 27  16  18  1   
 28  16  29  1   
 29  16  30  1   
 30  17  19  1   
 31  17  31  1   
 32  17  32  1   
 33  18  19  1   
 34  18  33  1   
 35  18  34  1   
 36  19  35  1   
 37  19  36  1   
@<TRIPOS>SUBSTRUCTURE
  1 ****   8 GROUP 4 **** **** 0

# MOE 2024.06 (io_trps.svl 2023.06)
