@<TRIPOS>MOLECULE
NONAME
30 30 1 0 0 
SMALL
USER_CHARGES


@<TRIPOS>ATOM
  1 S        0.6010    -0.0590     0.5640 S.o2  1 <1>   1.3330 
  2 O        1.8450    -0.2160     1.2830 O.2   1 <1>  -0.6500 
  3 O        0.4680    -0.5740    -0.7740 O.2   1 <1>  -0.6500 
  4 N        0.2740     1.6400     0.5210 N.am  1 <1>  -0.6930 
  5 C       -0.7230    -0.6680     1.5840 C.3   1 <1>  -0.1350 
  6 C       -0.8090     2.1370    -0.1920 C.ar  1 <1>   0.1990 
  7 C        1.4540     2.5490     0.6810 C.3   1 <1>   0.2570 
  8 C       -1.9090     2.6410     0.4870 C.ar  1 <1>  -0.1500 
  9 C       -0.8120     2.1500    -1.5850 C.ar  1 <1>  -0.1500 
 10 C        2.4710     2.4800    -0.4650 C.2   1 <1>   0.5690 
 11 C       -2.9750     3.1310    -0.2380 C.ar  1 <1>   0.1900 
 12 C       -1.8920     2.6470    -2.2970 C.ar  1 <1>  -0.1500 
 13 O        2.5010     3.3820    -1.2690 O.2   1 <1>  -0.5700 
 14 N        3.3200     1.4180    -0.5460 N.am  1 <1>  -0.7300 
 15 F       -4.0100     3.6000     0.4080 F     1 <1>  -0.1900 
 16 C       -2.9920     3.1460    -1.6200 C.ar  1 <1>  -0.1500 
 17 C        4.3070     1.1790    -1.6260 C.3   1 <1>   0.0600 
 18 H       -0.6260    -1.7280     1.7170 H     1 <1>   0.0800 
 19 H       -1.6690    -0.4670     1.1210 H     1 <1>   0.0800 
 20 H       -0.6990    -0.1960     2.5460 H     1 <1>   0.0800 
 21 H        1.9590     2.3180     1.6010 H     1 <1>   0.0800 
 22 H        1.1050     3.5630     0.7510 H     1 <1>   0.0800 
 23 H       -1.9320     2.6520     1.5600 H     1 <1>   0.1500 
 24 H        0.0430     1.7640    -2.1130 H     1 <1>   0.1500 
 25 H       -1.8720     2.6470    -3.3740 H     1 <1>   0.1500 
 26 H        3.1920     0.6420     0.1230 H     1 <1>   0.3700 
 27 H       -3.8430     3.5380    -2.1480 H     1 <1>   0.1500 
 28 H        4.3450     2.0240    -2.2930 H     1 <1>   0.0800 
 29 H        4.0230     0.3060    -2.1870 H     1 <1>   0.0800 
 30 H        5.2830     1.0260    -1.2000 H     1 <1>   0.0800 
@<TRIPOS>BOND
  1   1   2  2   
  2   1   3  2   
  3   1   4  am  
  4   1   5  1   
  5   4   6  1   
  6   4   7  1   
  7   5  18  1   
  8   5  19  1   
  9   5  20  1   
 10   6   8  ar  
 11   6   9  ar  
 12   7  10  1   
 13   7  21  1   
 14   7  22  1   
 15   8  11  ar  
 16   8  23  1   
 17   9  12  ar  
 18   9  24  1   
 19  10  13  2   
 20  10  14  am  
 21  11  15  1   
 22  11  16  ar  
 23  12  16  ar  
 24  12  25  1   
 25  14  17  1   
 26  14  26  1   
 27  16  27  1   
 28  17  28  1   
 29  17  29  1   
 30  17  30  1   
@<TRIPOS>SUBSTRUCTURE
  1 ****   4 GROUP 4 **** **** 0

# MOE 2024.06 (io_trps.svl 2023.06)
