@<TRIPOS>MOLECULE
NONAME
46 47 1 0 0 
SMALL
USER_CHARGES


@<TRIPOS>ATOM
  1 O       -2.4570    -5.5080    -0.2000 O.3   1 <1>  -0.3630 
  2 C       -3.1700    -4.3590    -0.0100 C.ar  1 <1>   0.0820 
  3 C       -2.9340    -6.7150     0.3550 C.3   1 <1>   0.1200 
  4 C       -4.5530    -4.2670    -0.2230 C.ar  1 <1>   0.0820 
  5 C       -2.4500    -3.2380     0.3920 C.ar  1 <1>  -0.1440 
  6 C       -1.7300    -7.6030     0.6540 C.3   1 <1>  -0.2400 
  7 O       -5.2280    -5.3630    -0.6720 O.3   1 <1>  -0.3630 
  8 C       -5.1910    -3.0520     0.0080 C.ar  1 <1>  -0.1500 
  9 C       -3.1040    -2.0360     0.6120 C.ar  1 <1>  -0.1500 
 10 C       -0.9530    -3.3370     0.5900 C.3   1 <1>   0.4860 
 11 C       -6.6140    -5.3320    -0.9390 C.3   1 <1>   0.0400 
 12 C       -4.4700    -1.9470     0.4240 C.ar  1 <1>  -0.1500 
 13 N       -0.3820    -3.7310    -0.7170 N.4   1 <1>  -0.9060 
 14 C        1.0980    -3.9970    -0.7310 C.3   1 <1>   0.3430 
 15 C        1.5500    -5.2740     0.0180 C.3   1 <1>   0.3430 
 16 O        1.1710    -5.2240     1.3490 O.3   1 <1>  -0.6800 
 17 C        3.0620    -5.4170    -0.0330 C.ar  1 <1>  -0.1440 
 18 C        3.6340    -6.4080    -0.8190 C.ar  1 <1>  -0.1500 
 19 C        3.8880    -4.5650     0.6900 C.ar  1 <1>  -0.1500 
 20 C        5.0100    -6.5410    -0.8850 C.ar  1 <1>  -0.1500 
 21 C        5.2630    -4.6990     0.6230 C.ar  1 <1>  -0.1500 
 22 C        5.8250    -5.6860    -0.1660 C.ar  1 <1>  -0.1500 
 23 H       -3.5870    -7.1870    -0.3600 H     1 <1>   0.0800 
 24 H       -3.4820    -6.4950     1.2570 H     1 <1>   0.0800 
 25 H       -1.1930    -7.8220    -0.2510 H     1 <1>   0.0800 
 26 H       -2.0680    -8.5310     1.0790 H     1 <1>   0.0800 
 27 H       -1.0800    -7.1240     1.3640 H     1 <1>   0.0800 
 28 H       -6.2500    -2.9390    -0.1310 H     1 <1>   0.1500 
 29 H       -2.5660    -1.1590     0.9340 H     1 <1>   0.1500 
 30 H       -0.7520    -4.0860     1.3380 H     1 <1>   0.0800 
 31 H       -0.5460    -2.3950     0.9170 H     1 <1>   0.0800 
 32 H       -6.9090    -6.3060    -1.2880 H     1 <1>   0.0800 
 33 H       -6.8080    -4.5990    -1.7020 H     1 <1>   0.0800 
 34 H       -7.1410    -5.0960    -0.0320 H     1 <1>   0.0800 
 35 H       -4.9790    -1.0130     0.6010 H     1 <1>   0.1500 
 36 H       -0.6540    -3.0230    -1.4060 H     1 <1>   0.4500 
 37 H       -0.9150    -4.5850    -0.9600 H     1 <1>   0.4500 
 38 H        1.6230    -3.1550    -0.3130 H     1 <1>   0.0800 
 39 H        1.4230    -4.0950    -1.7540 H     1 <1>   0.0800 
 40 H        1.0870    -6.1420    -0.4210 H     1 <1>   0.0800 
 41 H        1.7140    -5.8690     1.8520 H     1 <1>   0.4000 
 42 H        3.0230    -7.0890    -1.3870 H     1 <1>   0.1500 
 43 H        3.4730    -3.7930     1.3160 H     1 <1>   0.1500 
 44 H        5.4510    -7.3110    -1.4960 H     1 <1>   0.1500 
 45 H        5.9000    -4.0380     1.1860 H     1 <1>   0.1500 
 46 H        6.8960    -5.7910    -0.2170 H     1 <1>   0.1500 
@<TRIPOS>BOND
  1   1   2  1   
  2   1   3  1   
  3   2   4  ar  
  4   2   5  ar  
  5   3   6  1   
  6   3  23  1   
  7   3  24  1   
  8   4   7  1   
  9   4   8  ar  
 10   5   9  ar  
 11   5  10  1   
 12   6  25  1   
 13   6  26  1   
 14   6  27  1   
 15   7  11  1   
 16   8  12  ar  
 17   8  28  1   
 18   9  12  ar  
 19   9  29  1   
 20  10  13  1   
 21  10  30  1   
 22  10  31  1   
 23  11  32  1   
 24  11  33  1   
 25  11  34  1   
 26  12  35  1   
 27  13  14  1   
 28  13  36  1   
 29  13  37  1   
 30  14  15  1   
 31  14  38  1   
 32  14  39  1   
 33  15  16  1   
 34  15  17  1   
 35  15  40  1   
 36  16  41  1   
 37  17  18  ar  
 38  17  19  ar  
 39  18  20  ar  
 40  18  42  1   
 41  19  21  ar  
 42  19  43  1   
 43  20  22  ar  
 44  20  44  1   
 45  21  22  ar  
 46  21  45  1   
 47  22  46  1   
@<TRIPOS>SUBSTRUCTURE
  1 ****  13 GROUP 4 **** **** 0

# MOE 2024.06 (io_trps.svl 2023.06)
