@<TRIPOS>MOLECULE
NONAME
43 45 1 0 0 
SMALL
USER_CHARGES


@<TRIPOS>ATOM
  1 S       -0.5020     0.2710    -0.0580 S.3   1 <1>  -0.2860 
  2 C        1.1020     1.0500    -0.2600 C.2   1 <1>   0.2420 
  3 C       -1.6790     1.6490    -0.4870 C.3   1 <1>   0.1310 
  4 N        1.2470     2.2830    -0.5880 N.2   1 <1>  -0.3380 
  5 N        2.2510     0.4020    -0.0940 N.pl3 1 <1>   0.0480 
  6 C       -3.1320     1.2130    -0.3750 C.2   1 <1>   0.5690 
  7 N        2.5620     2.4860    -0.6570 N.2   1 <1>  -0.3380 
  8 C        3.1590     1.3630    -0.3600 C.2   1 <1>   0.1330 
  9 C        2.4670    -1.0310     0.2160 C.3   1 <1>   0.0960 
 10 O       -3.9790     1.9320    -0.8490 O.2   1 <1>  -0.5700 
 11 N       -3.4390     0.0450     0.2530 N.am  1 <1>  -0.5790 
 12 C        4.5870     1.1640    -0.3440 C.ar  1 <1>   0.0530 
 13 C        2.6960    -1.8310    -1.0690 C.3   1 <1>  -0.2400 
 14 C       -4.7880    -0.5060     0.4410 C.3   1 <1>   0.0490 
 15 C        5.2570     0.7470     0.8020 C.ar  1 <1>  -0.1500 
 16 C        5.3410     1.3840    -1.4940 C.ar  1 <1>  -0.1500 
 17 C       -5.0630    -1.2740     1.6910 C.3   1 <1>  -0.2000 
 18 C       -4.9530    -1.9870     0.3760 C.3   1 <1>  -0.2000 
 19 C        6.6220     0.5260     0.8040 C.ar  1 <1>   0.0820 
 20 C        6.7080     1.1730    -1.5060 C.ar  1 <1>  -0.1500 
 21 O        7.1700     0.1050     1.9710 O.3   1 <1>  -0.3620 
 22 C        7.3530     0.7390    -0.3620 C.ar  1 <1>  -0.1500 
 23 C        8.5630    -0.0690     2.1050 C.3   1 <1>   0.0400 
 24 H       -1.4580     1.9530    -1.4930 H     1 <1>   0.0800 
 25 H       -1.4800     2.4610     0.1870 H     1 <1>   0.0800 
 26 H        1.6070    -1.4120     0.7360 H     1 <1>   0.0800 
 27 H        3.3180    -1.1290     0.8650 H     1 <1>   0.0800 
 28 H       -2.6760    -0.5310     0.6100 H     1 <1>   0.3700 
 29 H        1.8440    -1.7480    -1.7210 H     1 <1>   0.0800 
 30 H        2.8410    -2.8690    -0.8300 H     1 <1>   0.0800 
 31 H        3.5740    -1.4770    -1.5820 H     1 <1>   0.0800 
 32 H       -5.5670     0.1220     0.0360 H     1 <1>   0.1000 
 33 H        4.7120     0.5980     1.7160 H     1 <1>   0.1500 
 34 H        4.8430     1.7270    -2.3840 H     1 <1>   0.1500 
 35 H       -6.0350    -1.1890     2.1430 H     1 <1>   0.1000 
 36 H       -4.2770    -1.3860     2.4160 H     1 <1>   0.1000 
 37 H       -4.0900    -2.5990     0.1800 H     1 <1>   0.1000 
 38 H       -5.8510    -2.3850    -0.0630 H     1 <1>   0.1000 
 39 H        7.2690     1.3470    -2.4080 H     1 <1>   0.1500 
 40 H        8.4140     0.5790    -0.3960 H     1 <1>   0.1500 
 41 H        8.7660    -0.3720     3.1170 H     1 <1>   0.0800 
 42 H        9.0540     0.8660     1.8980 H     1 <1>   0.0800 
 43 H        8.8870    -0.8350     1.4230 H     1 <1>   0.0800 
@<TRIPOS>BOND
  1   1   2  1   
  2   1   3  1   
  3   2   4  2   
  4   2   5  1   
  5   3   6  1   
  6   3  24  1   
  7   3  25  1   
  8   4   7  1   
  9   5   8  1   
 10   5   9  1   
 11   6  10  2   
 12   6  11  am  
 13   7   8  2   
 14   8  12  1   
 15   9  13  1   
 16   9  26  1   
 17   9  27  1   
 18  11  14  1   
 19  11  28  1   
 20  12  15  ar  
 21  12  16  ar  
 22  13  29  1   
 23  13  30  1   
 24  13  31  1   
 25  14  17  1   
 26  14  18  1   
 27  14  32  1   
 28  15  19  ar  
 29  15  33  1   
 30  16  20  ar  
 31  16  34  1   
 32  17  18  1   
 33  17  35  1   
 34  17  36  1   
 35  18  37  1   
 36  18  38  1   
 37  19  21  1   
 38  19  22  ar  
 39  20  22  ar  
 40  20  39  1   
 41  21  23  1   
 42  22  40  1   
 43  23  41  1   
 44  23  42  1   
 45  23  43  1   
@<TRIPOS>SUBSTRUCTURE
  1 ****   5 GROUP 4 **** **** 0

# MOE 2024.06 (io_trps.svl 2023.06)
