@<TRIPOS>MOLECULE
NONAME
38 39 1 0 0 
SMALL
USER_CHARGES


@<TRIPOS>ATOM
  1 S        0.2550     0.0140    -0.4500 S.o2  1 <1>   1.3780 
  2 O        0.2840     1.4240    -0.1330 O.2   1 <1>  -0.6500 
  3 O        0.5090    -0.4740    -1.7890 O.2   1 <1>  -0.6500 
  4 O        1.1820    -0.8220     0.6180 O.3   1 <1>  -0.2660 
  5 C       -1.3620    -0.6000    -0.0280 C.3   1 <1>  -0.0550 
  6 C        2.5370    -0.7750     0.6500 C.ar  1 <1>   0.0830 
  7 C       -1.4230    -2.0680    -0.4310 C.3   1 <1>   0.3430 
  8 C        3.1700    -1.5540     1.6070 C.ar  1 <1>  -0.1500 
  9 C        3.2990     0.0030    -0.2190 C.ar  1 <1>  -0.1500 
 10 N       -2.7760    -2.6630    -0.1950 N.4   1 <1>  -0.9590 
 11 C        4.5510    -1.5650     1.6970 C.ar  1 <1>  -0.1500 
 12 C        4.6790    -0.0120    -0.1250 C.ar  1 <1>  -0.1500 
 13 C       -3.1130    -2.7960     1.2580 C.3   1 <1>   0.3430 
 14 C       -2.8740    -3.9850    -0.8880 C.3   1 <1>   0.3430 
 15 C        5.3060    -0.7940     0.8300 C.ar  1 <1>  -0.1500 
 16 C       -4.5480    -3.3030     1.4110 C.3   1 <1>  -0.1600 
 17 C       -4.3040    -4.5180    -0.7850 C.3   1 <1>  -0.1600 
 18 C       -4.7630    -4.6310     0.6740 C.3   1 <1>  -0.1600 
 19 H       -2.0970    -0.0430    -0.5740 H     1 <1>   0.0800 
 20 H       -1.5260    -0.4770     1.0250 H     1 <1>   0.0800 
 21 H       -0.6780    -2.6270     0.1140 H     1 <1>   0.0800 
 22 H       -1.1820    -2.1420    -1.4810 H     1 <1>   0.0800 
 23 H        2.5890    -2.1520     2.2850 H     1 <1>   0.1500 
 24 H        2.8520     0.6260    -0.9720 H     1 <1>   0.1500 
 25 H       -3.4940    -2.0630    -0.6240 H     1 <1>   0.4500 
 26 H        5.0400    -2.1710     2.4410 H     1 <1>   0.1500 
 27 H        5.2690     0.5880    -0.7970 H     1 <1>   0.1500 
 28 H       -3.0210    -1.8440     1.7550 H     1 <1>   0.0800 
 29 H       -2.4360    -3.4920     1.7290 H     1 <1>   0.0800 
 30 H       -2.1940    -4.6890    -0.4340 H     1 <1>   0.0800 
 31 H       -2.6080    -3.8800    -1.9290 H     1 <1>   0.0800 
 32 H        6.3800    -0.8020     0.8990 H     1 <1>   0.1500 
 33 H       -5.2330    -2.5610     1.0370 H     1 <1>   0.0800 
 34 H       -4.7640    -3.4390     2.4570 H     1 <1>   0.0800 
 35 H       -4.3510    -5.4890    -1.2470 H     1 <1>   0.0800 
 36 H       -4.9690    -3.8720    -1.3310 H     1 <1>   0.0800 
 37 H       -5.8050    -4.9060     0.7100 H     1 <1>   0.0800 
 38 H       -4.2040    -5.4100     1.1680 H     1 <1>   0.0800 
@<TRIPOS>BOND
  1   1   2  2   
  2   1   3  2   
  3   1   4  1   
  4   1   5  1   
  5   4   6  1   
  6   5   7  1   
  7   5  19  1   
  8   5  20  1   
  9   6   8  ar  
 10   6   9  ar  
 11   7  10  1   
 12   7  21  1   
 13   7  22  1   
 14   8  11  ar  
 15   8  23  1   
 16   9  12  ar  
 17   9  24  1   
 18  10  13  1   
 19  10  14  1   
 20  10  25  1   
 21  11  15  ar  
 22  11  26  1   
 23  12  15  ar  
 24  12  27  1   
 25  13  16  1   
 26  13  28  1   
 27  13  29  1   
 28  14  17  1   
 29  14  30  1   
 30  14  31  1   
 31  15  32  1   
 32  16  18  1   
 33  16  33  1   
 34  16  34  1   
 35  17  18  1   
 36  17  35  1   
 37  17  36  1   
 38  18  37  1   
 39  18  38  1   
@<TRIPOS>SUBSTRUCTURE
  1 ****   4 GROUP 4 **** **** 0

# MOE 2024.06 (io_trps.svl 2023.06)
