@<TRIPOS>MOLECULE
NONAME
30 30 1 0 0 
SMALL
USER_CHARGES


@<TRIPOS>ATOM
  1 F       -0.1540    -0.6970    -0.4500 F     1 <1>  -0.1900 
  2 C       -1.3820    -1.1120    -0.2750 C.ar  1 <1>   0.1900 
  3 C       -1.6320    -2.4700    -0.2670 C.ar  1 <1>  -0.1500 
  4 C       -2.3820    -0.1780    -0.1030 C.ar  1 <1>  -0.1500 
  5 C       -2.9320    -2.9180    -0.0810 C.ar  1 <1>  -0.1440 
  6 C       -3.6760    -0.6290     0.0840 C.ar  1 <1>  -0.1500 
  7 C       -3.9700    -1.9930     0.0950 C.ar  1 <1>   0.1170 
  8 C       -3.1970    -4.4180    -0.0820 C.3   1 <1>  -0.0960 
  9 N       -5.2800    -2.4530     0.3040 N.am  1 <1>  -0.5470 
 10 C       -6.4820    -1.8850     0.0060 C.2   1 <1>   0.6900 
 11 O       -6.5730    -0.8550    -0.6300 O.2   1 <1>  -0.5700 
 12 N       -7.5960    -2.5240     0.4430 N.am  1 <1>  -0.7300 
 13 C       -8.9770    -2.0680     0.1820 C.3   1 <1>   0.1400 
 14 C       -9.8740    -3.2870    -0.0320 C.3   1 <1>  -0.1600 
 15 C      -11.3220    -2.8700    -0.3070 C.3   1 <1>  -0.2400 
 16 H       -0.8150    -3.1530    -0.4060 H     1 <1>   0.1500 
 17 H       -2.1540     0.8720    -0.1150 H     1 <1>   0.1500 
 18 H       -4.4650     0.0880     0.2240 H     1 <1>   0.1500 
 19 H       -2.3020    -4.9670    -0.3150 H     1 <1>   0.0800 
 20 H       -3.9390    -4.6610    -0.8230 H     1 <1>   0.0800 
 21 H       -3.5430    -4.7340     0.8860 H     1 <1>   0.0800 
 22 H       -5.3480    -3.4200     0.5930 H     1 <1>   0.3700 
 23 H       -7.5030    -3.2540     1.1440 H     1 <1>   0.3700 
 24 H       -8.9950    -1.4400    -0.6950 H     1 <1>   0.0800 
 25 H       -9.3240    -1.4900     1.0210 H     1 <1>   0.0800 
 26 H       -9.8500    -3.9120     0.8440 H     1 <1>   0.0800 
 27 H       -9.5070    -3.8530    -0.8710 H     1 <1>   0.0800 
 28 H      -11.7200    -2.3130     0.5230 H     1 <1>   0.0800 
 29 H      -11.9340    -3.7420    -0.4590 H     1 <1>   0.0800 
 30 H      -11.3750    -2.2580    -1.1910 H     1 <1>   0.0800 
@<TRIPOS>BOND
  1   1   2  1   
  2   2   3  ar  
  3   2   4  ar  
  4   3   5  ar  
  5   3  16  1   
  6   4   6  ar  
  7   4  17  1   
  8   5   7  ar  
  9   5   8  1   
 10   6   7  ar  
 11   6  18  1   
 12   7   9  1   
 13   8  19  1   
 14   8  20  1   
 15   8  21  1   
 16   9  10  am  
 17   9  22  1   
 18  10  11  2   
 19  10  12  am  
 20  12  13  1   
 21  12  23  1   
 22  13  14  1   
 23  13  24  1   
 24  13  25  1   
 25  14  15  1   
 26  14  26  1   
 27  14  27  1   
 28  15  28  1   
 29  15  29  1   
 30  15  30  1   
@<TRIPOS>SUBSTRUCTURE
  1 ****   9 GROUP 4 **** **** 0

# MOE 2024.06 (io_trps.svl 2023.06)
