@<TRIPOS>MOLECULE
NONAME
43 43 1 0 0 
SMALL
USER_CHARGES


@<TRIPOS>ATOM
  1 P        0.0650    -0.6310     0.2290 P.3   1 <1>   0.7000 
  2 O        0.3880    -0.8430     1.6350 O.2   1 <1>  -0.7000 
  3 C        1.5160    -0.6300    -0.7960 C.3   1 <1>  -0.0170 
  4 C       -0.8400     0.8690    -0.0860 C.3   1 <1>  -0.1600 
  5 C       -0.9340    -1.9410    -0.4430 C.3   1 <1>  -0.1600 
  6 C        2.5280     0.4880    -0.5480 C.ar  1 <1>  -0.1440 
  7 C       -0.2240     2.1450     0.5130 C.3   1 <1>  -0.1600 
  8 C       -2.2440    -2.2010     0.3180 C.3   1 <1>  -0.1600 
  9 C        3.1540     0.6820     0.6840 C.ar  1 <1>   0.0820 
 10 C        2.8620     1.3320    -1.6000 C.ar  1 <1>  -0.1500 
 11 C       -1.1270     3.3630     0.2900 C.3   1 <1>  -0.1600 
 12 C       -3.0160    -3.3810    -0.2840 C.3   1 <1>  -0.1600 
 13 O        2.8670    -0.0680     1.7640 O.3   1 <1>  -0.5320 
 14 C        4.1000     1.6800     0.8450 C.ar  1 <1>  -0.1500 
 15 C        3.8000     2.3370    -1.4340 C.ar  1 <1>  -0.1500 
 16 C       -0.4920     4.6260     0.8780 C.3   1 <1>  -0.2400 
 17 C       -4.3190    -3.6300     0.4800 C.3   1 <1>  -0.2400 
 18 C        4.4230     2.5110    -0.2110 C.ar  1 <1>  -0.1500 
 19 H        1.2330    -0.6050    -1.8310 H     1 <1>   0.0800 
 20 H        2.0500    -1.5530    -0.6630 H     1 <1>   0.0800 
 21 H       -1.8250     0.7820     0.3340 H     1 <1>   0.0800 
 22 H       -0.9700     1.0230    -1.1410 H     1 <1>   0.0800 
 23 H       -0.3720    -2.8570    -0.4290 H     1 <1>   0.0800 
 24 H       -1.1780    -1.7440    -1.4710 H     1 <1>   0.0800 
 25 H        0.7350     2.3380     0.0670 H     1 <1>   0.0800 
 26 H       -0.0700     2.0010     1.5700 H     1 <1>   0.0800 
 27 H       -2.8650    -1.3220     0.2910 H     1 <1>   0.0800 
 28 H       -2.0150    -2.4120     1.3500 H     1 <1>   0.0800 
 29 H        2.4010     1.2140    -2.5640 H     1 <1>   0.1500 
 30 H       -2.0830     3.1990     0.7580 H     1 <1>   0.0800 
 31 H       -1.2900     3.5090    -0.7640 H     1 <1>   0.0800 
 32 H       -2.4100    -4.2710    -0.2430 H     1 <1>   0.0800 
 33 H       -3.2460    -3.1790    -1.3170 H     1 <1>   0.0800 
 34 H        1.9370    -0.4380     1.7740 H     1 <1>   0.4500 
 35 H        4.5740     1.8020     1.8020 H     1 <1>   0.1500 
 36 H        4.0480     2.9840    -2.2570 H     1 <1>   0.1500 
 37 H       -0.3390     4.5110     1.9370 H     1 <1>   0.0800 
 38 H       -1.1340     5.4730     0.7150 H     1 <1>   0.0800 
 39 H        0.4580     4.8210     0.4120 H     1 <1>   0.0800 
 40 H       -4.1130    -3.8560     1.5120 H     1 <1>   0.0800 
 41 H       -4.8470    -4.4610     0.0470 H     1 <1>   0.0800 
 42 H       -4.9540    -2.7620     0.4360 H     1 <1>   0.0800 
 43 H        5.1550     3.2880    -0.0800 H     1 <1>   0.1500 
@<TRIPOS>BOND
  1   1   2  2   
  2   1   3  1   
  3   1   4  1   
  4   1   5  1   
  5   3   6  1   
  6   3  19  1   
  7   3  20  1   
  8   4   7  1   
  9   4  21  1   
 10   4  22  1   
 11   5   8  1   
 12   5  23  1   
 13   5  24  1   
 14   6   9  ar  
 15   6  10  ar  
 16   7  11  1   
 17   7  25  1   
 18   7  26  1   
 19   8  12  1   
 20   8  27  1   
 21   8  28  1   
 22   9  13  1   
 23   9  14  ar  
 24  10  15  ar  
 25  10  29  1   
 26  11  16  1   
 27  11  30  1   
 28  11  31  1   
 29  12  17  1   
 30  12  32  1   
 31  12  33  1   
 32  13  34  1   
 33  14  18  ar  
 34  14  35  1   
 35  15  18  ar  
 36  15  36  1   
 37  16  37  1   
 38  16  38  1   
 39  16  39  1   
 40  17  40  1   
 41  17  41  1   
 42  17  42  1   
 43  18  43  1   
@<TRIPOS>SUBSTRUCTURE
  1 ****   1 GROUP 4 **** **** 0

# MOE 2024.06 (io_trps.svl 2023.06)
