@<TRIPOS>MOLECULE
NONAME
44 45 1 0 0 
SMALL
USER_CHARGES


@<TRIPOS>ATOM
  1 CL       2.8770    -1.2640     1.3490 Cl    1 <1>  -0.1770 
  2 C        3.3190     0.3820     0.9720 C.ar  1 <1>   0.1770 
  3 C        4.1930     0.6240    -0.0690 C.ar  1 <1>  -0.1500 
  4 C        2.7830     1.4100     1.7260 C.ar  1 <1>  -0.1500 
  5 C        4.5430     1.9390    -0.3650 C.ar  1 <1>   0.0830 
  6 C        3.1300     2.7170     1.4280 C.ar  1 <1>  -0.1500 
  7 O        5.3970     2.2960    -1.3580 O.3   1 <1>  -0.3630 
  8 C        4.0060     2.9740     0.3860 C.ar  1 <1>  -0.1500 
  9 C        6.0680     1.3390    -2.1660 C.3   1 <1>   0.2610 
 10 C        7.1010     0.4910    -1.3880 C.2   1 <1>   0.5690 
 11 C        6.6850     2.0900    -3.3520 C.3   1 <1>  -0.2400 
 12 O        7.0640    -0.7010    -1.5970 O.2   1 <1>  -0.5700 
 13 N        8.0320     1.0190    -0.5170 N.am  1 <1>  -0.6600 
 14 C        9.0810     0.1410     0.0950 C.3   1 <1>   0.1400 
 15 C        8.0890     2.4670    -0.1180 C.3   1 <1>   0.1400 
 16 C       10.4700     0.7980     0.0310 C.3   1 <1>   0.1400 
 17 C        9.1530     2.7690     0.9510 C.3   1 <1>   0.1400 
 18 N       10.4770     2.1860     0.5830 N.am  1 <1>  -0.6600 
 19 C       11.6330     2.9100     0.6800 C.2   1 <1>   0.7800 
 20 O       11.6610     4.0520     1.1000 O.2   1 <1>  -0.5700 
 21 O       12.7630     2.3170     0.2920 O.3   1 <1>  -0.4300 
 22 C       13.9940     2.9980     0.3580 C.3   1 <1>   0.1200 
 23 C       15.0820     2.0600    -0.1540 C.3   1 <1>  -0.2400 
 24 H        4.5760    -0.2170    -0.6160 H     1 <1>   0.1500 
 25 H        2.1060     1.1870     2.5300 H     1 <1>   0.1500 
 26 H        2.7200     3.5290     2.0040 H     1 <1>   0.1500 
 27 H        4.2770     3.9880     0.1480 H     1 <1>   0.1500 
 28 H        5.3170     0.6760    -2.5560 H     1 <1>   0.0800 
 29 H        7.4220     2.7960    -3.0190 H     1 <1>   0.0800 
 30 H        5.9170     2.6050    -3.8990 H     1 <1>   0.0800 
 31 H        7.1610     1.3870    -4.0120 H     1 <1>   0.0800 
 32 H        9.1270    -0.8070    -0.4120 H     1 <1>   0.0800 
 33 H        8.8230    -0.0530     1.1220 H     1 <1>   0.0800 
 34 H        7.1360     2.7710     0.2730 H     1 <1>   0.0800 
 35 H        8.3030     3.0660    -0.9850 H     1 <1>   0.0800 
 36 H       10.7920     0.8290    -0.9950 H     1 <1>   0.0800 
 37 H       11.1730     0.1950     0.5800 H     1 <1>   0.0800 
 38 H        8.8390     2.3560     1.8930 H     1 <1>   0.0800 
 39 H        9.2340     3.8350     1.0740 H     1 <1>   0.0800 
 40 H       14.1740     3.2780     1.3830 H     1 <1>   0.0800 
 41 H       13.9270     3.8840    -0.2520 H     1 <1>   0.0800 
 42 H       15.1290     1.1780     0.4580 H     1 <1>   0.0800 
 43 H       16.0350     2.5560    -0.1150 H     1 <1>   0.0800 
 44 H       14.8820     1.7820    -1.1730 H     1 <1>   0.0800 
@<TRIPOS>BOND
  1   1   2  1   
  2   2   3  ar  
  3   2   4  ar  
  4   3   5  ar  
  5   3  24  1   
  6   4   6  ar  
  7   4  25  1   
  8   5   7  1   
  9   5   8  ar  
 10   6   8  ar  
 11   6  26  1   
 12   7   9  1   
 13   8  27  1   
 14   9  10  1   
 15   9  11  1   
 16   9  28  1   
 17  10  12  2   
 18  10  13  am  
 19  11  29  1   
 20  11  30  1   
 21  11  31  1   
 22  13  14  1   
 23  13  15  1   
 24  14  16  1   
 25  14  32  1   
 26  14  33  1   
 27  15  17  1   
 28  15  34  1   
 29  15  35  1   
 30  16  18  1   
 31  16  36  1   
 32  16  37  1   
 33  17  18  1   
 34  17  38  1   
 35  17  39  1   
 36  18  19  am  
 37  19  20  2   
 38  19  21  1   
 39  21  22  1   
 40  22  23  1   
 41  22  40  1   
 42  22  41  1   
 43  23  42  1   
 44  23  43  1   
 45  23  44  1   
@<TRIPOS>SUBSTRUCTURE
  1 ****  13 GROUP 4 **** **** 0

# MOE 2024.06 (io_trps.svl 2023.06)
