@<TRIPOS>MOLECULE
NONAME
41 42 1 0 0 
SMALL
USER_CHARGES


@<TRIPOS>ATOM
  1 S       -0.1030    -0.0870     0.1150 S.o2  1 <1>   1.4470 
  2 O       -0.2080    -1.2340    -0.7540 O.2   1 <1>  -0.6500 
  3 O       -0.3880    -0.2080     1.5260 O.2   1 <1>  -0.6500 
  4 N       -1.3020     0.9150    -0.5020 N.am  1 <1>  -0.9140 
  5 C        1.4240     0.8460    -0.1750 C.ar  1 <1>  -0.0090 
  6 C       -2.6300     0.5020    -0.0530 C.3   1 <1>   0.1960 
  7 C        2.3190     0.4740    -1.1740 C.ar  1 <1>  -0.1500 
  8 C        1.7250     1.9710     0.5880 C.ar  1 <1>  -0.1500 
  9 C       -3.7140     1.4680    -0.5640 C.3   1 <1>   0.3430 
 10 C        3.4740     1.2010    -1.4070 C.ar  1 <1>  -0.1500 
 11 C        2.8770     2.7070     0.3660 C.ar  1 <1>  -0.1500 
 12 N       -5.0630     1.1960     0.0330 N.4   1 <1>  -0.9590 
 13 C        3.7470     2.3140    -0.6370 C.ar  1 <1>   0.1020 
 14 C       -5.6400    -0.1570    -0.2950 C.3   1 <1>   0.3430 
 15 C       -6.0590     2.2750    -0.2880 C.3   1 <1>   0.3430 
 16 S        5.2660     3.2100    -0.9990 S.3   1 <1>  -0.3320 
 17 C       -7.0470    -0.3360     0.3220 C.3   1 <1>   0.1200 
 18 C       -7.4330     1.9860     0.3630 C.3   1 <1>   0.1200 
 19 C        5.3550     4.6160     0.1960 C.3   1 <1>  -0.0100 
 20 O       -7.4100     0.7830     1.0840 O.3   1 <1>  -0.5600 
 21 H       -1.2230     0.7400    -1.5050 H     1 <1>   0.4200 
 22 H       -2.6540     0.5120     1.0240 H     1 <1>   0.0800 
 23 H       -2.8260    -0.5010    -0.3960 H     1 <1>   0.0800 
 24 H        2.1150    -0.3950    -1.7780 H     1 <1>   0.1500 
 25 H        1.0470     2.2740     1.3690 H     1 <1>   0.1500 
 26 H       -3.7720     1.4000    -1.6380 H     1 <1>   0.0800 
 27 H       -3.4110     2.4700    -0.3050 H     1 <1>   0.0800 
 28 H        4.1630     0.9080    -2.1800 H     1 <1>   0.1500 
 29 H        3.0770     3.5690     0.9720 H     1 <1>   0.1500 
 30 H       -4.9970     1.2120     1.0650 H     1 <1>   0.4500 
 31 H       -4.9970    -0.9360     0.0800 H     1 <1>   0.0800 
 32 H       -5.7110    -0.2810    -1.3630 H     1 <1>   0.0800 
 33 H       -6.1890     2.3530    -1.3550 H     1 <1>   0.0800 
 34 H       -5.6990     3.2280     0.0650 H     1 <1>   0.0800 
 35 H       -7.0610    -1.1940     0.9720 H     1 <1>   0.0800 
 36 H       -7.7870    -0.4860    -0.4460 H     1 <1>   0.0800 
 37 H       -8.2060     1.9270    -0.3840 H     1 <1>   0.0800 
 38 H       -7.6910     2.7740     1.0500 H     1 <1>   0.0800 
 39 H        6.2640     5.1550    -0.0060 H     1 <1>   0.0800 
 40 H        5.3670     4.2080     1.1900 H     1 <1>   0.0800 
 41 H        4.4970     5.2440     0.0360 H     1 <1>   0.0800 
@<TRIPOS>BOND
  1   1   2  2   
  2   1   3  2   
  3   1   4  am  
  4   1   5  1   
  5   4   6  1   
  6   4  21  1   
  7   5   7  ar  
  8   5   8  ar  
  9   6   9  1   
 10   6  22  1   
 11   6  23  1   
 12   7  10  ar  
 13   7  24  1   
 14   8  11  ar  
 15   8  25  1   
 16   9  12  1   
 17   9  26  1   
 18   9  27  1   
 19  10  13  ar  
 20  10  28  1   
 21  11  13  ar  
 22  11  29  1   
 23  12  14  1   
 24  12  15  1   
 25  12  30  1   
 26  13  16  1   
 27  14  17  1   
 28  14  31  1   
 29  14  32  1   
 30  15  18  1   
 31  15  33  1   
 32  15  34  1   
 33  16  19  1   
 34  17  20  1   
 35  17  35  1   
 36  17  36  1   
 37  18  20  1   
 38  18  37  1   
 39  18  38  1   
 40  19  39  1   
 41  19  40  1   
 42  19  41  1   
@<TRIPOS>SUBSTRUCTURE
  1 ****   4 GROUP 4 **** **** 0

# MOE 2024.06 (io_trps.svl 2023.06)
