@<TRIPOS>MOLECULE
NONAME
39 40 1 0 0 
SMALL
USER_CHARGES


@<TRIPOS>ATOM
  1 S       -1.2480     1.4470     0.2650 S.3   1 <1>  -0.2860 
  2 C        0.5050     1.7840     0.0730 C.2   1 <1>   0.2420 
  3 C       -1.2510    -0.2480     1.0360 C.3   1 <1>   0.1310 
  4 N        1.4250     0.9420     0.3810 N.2   1 <1>  -0.3380 
  5 N        0.9710     2.9350    -0.4090 N.pl3 1 <1>   0.0480 
  6 C       -2.6630    -0.7970     1.1640 C.2   1 <1>   0.5690 
  7 N        2.5790     1.5490     0.0900 N.2   1 <1>  -0.3380 
  8 C        2.2970     2.7240    -0.3770 C.2   1 <1>   0.0060 
  9 C        0.2040     4.1140    -0.8600 C.3   1 <1>   0.0160 
 10 O       -2.8700    -1.6280     2.0140 O.2   1 <1>  -0.5700 
 11 N       -3.6230    -0.3280     0.3070 N.am  1 <1>  -0.5470 
 12 C        3.3210     3.7570    -0.8380 C.3   1 <1>   0.0200 
 13 C       -4.9830    -0.6380     0.1500 C.ar  1 <1>   0.1170 
 14 C        4.7630     3.2350    -0.8140 C.3   1 <1>  -0.2400 
 15 C       -5.7690     0.2250    -0.6030 C.ar  1 <1>  -0.1500 
 16 C       -5.5830    -1.7680     0.6970 C.ar  1 <1>  -0.1500 
 17 C       -7.1160    -0.0190    -0.8070 C.ar  1 <1>   0.0830 
 18 C       -6.9290    -2.0230     0.5010 C.ar  1 <1>  -0.1500 
 19 O       -7.7910     0.8880    -1.5580 O.3   1 <1>  -0.3630 
 20 C       -7.7000    -1.1530    -0.2500 C.ar  1 <1>  -0.1500 
 21 C       -9.1700     0.7430    -1.8130 C.3   1 <1>   0.0400 
 22 H       -0.7920    -0.1580     2.0030 H     1 <1>   0.0800 
 23 H       -0.6580    -0.8870     0.4100 H     1 <1>   0.0800 
 24 H       -0.1540     3.9420    -1.8590 H     1 <1>   0.0800 
 25 H        0.8290     4.9870    -0.8460 H     1 <1>   0.0800 
 26 H       -0.6320     4.2700    -0.2020 H     1 <1>   0.0800 
 27 H       -3.2970     0.4330    -0.2890 H     1 <1>   0.3700 
 28 H        3.2540     4.6200    -0.2000 H     1 <1>   0.0800 
 29 H        3.0820     4.0610    -1.8420 H     1 <1>   0.0800 
 30 H        5.0370     2.9490     0.1870 H     1 <1>   0.0800 
 31 H        5.4420     3.9960    -1.1540 H     1 <1>   0.0800 
 32 H        4.8560     2.3750    -1.4530 H     1 <1>   0.0800 
 33 H       -5.3390     1.1050    -1.0390 H     1 <1>   0.1500 
 34 H       -5.0030    -2.4600     1.2790 H     1 <1>   0.1500 
 35 H       -7.3740    -2.9010     0.9340 H     1 <1>   0.1500 
 36 H       -8.7410    -1.3730    -0.3880 H     1 <1>   0.1500 
 37 H       -9.4870     1.5740    -2.4160 H     1 <1>   0.0800 
 38 H       -9.7000     0.7470    -0.8770 H     1 <1>   0.0800 
 39 H       -9.3320    -0.1780    -2.3450 H     1 <1>   0.0800 
@<TRIPOS>BOND
  1   1   2  1   
  2   1   3  1   
  3   2   4  2   
  4   2   5  1   
  5   3   6  1   
  6   3  22  1   
  7   3  23  1   
  8   4   7  1   
  9   5   8  1   
 10   5   9  1   
 11   6  10  2   
 12   6  11  am  
 13   7   8  2   
 14   8  12  1   
 15   9  24  1   
 16   9  25  1   
 17   9  26  1   
 18  11  13  1   
 19  11  27  1   
 20  12  14  1   
 21  12  28  1   
 22  12  29  1   
 23  13  15  ar  
 24  13  16  ar  
 25  14  30  1   
 26  14  31  1   
 27  14  32  1   
 28  15  17  ar  
 29  15  33  1   
 30  16  18  ar  
 31  16  34  1   
 32  17  19  1   
 33  17  20  ar  
 34  18  20  ar  
 35  18  35  1   
 36  19  21  1   
 37  20  36  1   
 38  21  37  1   
 39  21  38  1   
 40  21  39  1   
@<TRIPOS>SUBSTRUCTURE
  1 ****   1 GROUP 4 **** **** 0

# MOE 2024.06 (io_trps.svl 2023.06)
