@<TRIPOS>MOLECULE
NONAME
39 43 1 0 0 
SMALL
USER_CHARGES


@<TRIPOS>ATOM
  1 O        0.7400    -1.2570     1.4270 O.2   1 <1>  -0.5700 
  2 C        0.4950    -2.2480     0.7870 C.2   1 <1>   0.5690 
  3 N        1.1890    -2.6890    -0.3140 N.am  1 <1>  -0.2370 
  4 C       -0.6820    -3.1510     1.1170 C.3   1 <1>  -0.0190 
  5 C        2.5180    -2.3090    -0.5690 C.ar  1 <1>   0.1170 
  6 C        0.6130    -3.7920    -0.8980 C.2   1 <1>   0.5690 
  7 C       -0.5950    -4.2830    -0.1190 C.3   1 <1>  -0.0190 
  8 C       -2.1750    -2.4500     1.0360 C.3   1 <1>   0.0580 
  9 C        3.5770    -2.9690     0.1100 C.ar  1 <1>   0.3100 
 10 C        2.7810    -1.3050    -1.4710 C.ar  1 <1>  -0.1500 
 11 O        0.9760    -4.3220    -1.9180 O.2   1 <1>  -0.5700 
 12 C       -2.0380    -4.2440    -0.9220 C.3   1 <1>   0.0580 
 13 C       -3.5860    -2.6330     0.2480 C.2   1 <1>  -0.2880 
 14 C       -2.0650    -3.3400     0.0530 C.3   1 <1>  -0.1600 
 15 N        3.2780    -3.9620     0.9980 N.ar  1 <1>  -0.6200 
 16 C        4.9110    -2.5720    -0.1600 C.ar  1 <1>   0.0000 
 17 C        4.0920    -0.9160    -1.7350 C.ar  1 <1>  -0.1500 
 18 C       -3.5140    -3.5760    -0.7820 C.2   1 <1>  -0.2880 
 19 C        4.2660    -4.5440     1.6020 C.ar  1 <1>   0.1600 
 20 C        5.9540    -3.2370     0.5230 C.ar  1 <1>  -0.1430 
 21 C        5.1300    -1.5350    -1.0940 C.ar  1 <1>  -0.1500 
 22 C        5.6110    -4.2210     1.4000 C.ar  1 <1>  -0.1500 
 23 C        7.4170    -2.8790     0.2980 C.3   1 <1>  -0.0970 
 24 H       -0.5130    -3.6050     2.0800 H     1 <1>   0.0800 
 25 H       -0.3850    -5.2690     0.2640 H     1 <1>   0.0800 
 26 H       -1.9550    -1.4040     0.8710 H     1 <1>   0.0800 
 27 H        1.9740    -0.8100    -1.9810 H     1 <1>   0.1500 
 28 H       -1.7580    -3.9710    -1.9310 H     1 <1>   0.0800 
 29 H       -4.4310    -2.0410     0.5610 H     1 <1>   0.1500 
 30 H       -2.4250    -4.2120     0.8270 H     1 <1>   0.0800 
 31 H       -1.6810    -2.5110    -0.6790 H     1 <1>   0.0800 
 32 H        4.2730    -0.1270    -2.4450 H     1 <1>   0.1500 
 33 H       -4.2890    -3.8930    -1.4610 H     1 <1>   0.1500 
 34 H        4.0390    -5.3280     2.3040 H     1 <1>   0.1500 
 35 H        6.1350    -1.2240    -1.3090 H     1 <1>   0.1500 
 36 H        6.3530    -4.7680     1.9530 H     1 <1>   0.1500 
 37 H        7.6800    -3.0330    -0.7330 H     1 <1>   0.0800 
 38 H        8.0600    -3.4920     0.9040 H     1 <1>   0.0800 
 39 H        7.5890    -1.8500     0.5570 H     1 <1>   0.0800 
@<TRIPOS>BOND
  1   1   2  2   
  2   2   3  am  
  3   2   4  1   
  4   3   5  1   
  5   3   6  am  
  6   4   7  1   
  7   4   8  1   
  8   4  24  1   
  9   5   9  ar  
 10   5  10  ar  
 11   6   7  1   
 12   6  11  2   
 13   7  12  1   
 14   7  25  1   
 15   8  13  1   
 16   8  14  1   
 17   8  26  1   
 18   9  15  ar  
 19   9  16  ar  
 20  10  17  ar  
 21  10  27  1   
 22  12  14  1   
 23  12  18  1   
 24  12  28  1   
 25  13  18  2   
 26  13  29  1   
 27  14  30  1   
 28  14  31  1   
 29  15  19  ar  
 30  16  20  ar  
 31  16  21  ar  
 32  17  21  ar  
 33  17  32  1   
 34  18  33  1   
 35  19  22  ar  
 36  19  34  1   
 37  20  22  ar  
 38  20  23  1   
 39  21  35  1   
 40  22  36  1   
 41  23  37  1   
 42  23  38  1   
 43  23  39  1   
@<TRIPOS>SUBSTRUCTURE
  1 ****   3 GROUP 4 **** **** 0

# MOE 2024.06 (io_trps.svl 2023.06)
