@<TRIPOS>MOLECULE
NONAME
41 42 1 0 0 
SMALL
USER_CHARGES


@<TRIPOS>ATOM
  1 O       -0.1750    -5.1030    -1.2830 O.2   1 <1>  -0.5700 
  2 C       -0.3750    -4.1880    -0.5250 C.2   1 <1>   0.5690 
  3 N       -1.6170    -3.8440    -0.1260 N.am  1 <1>  -0.7300 
  4 C        0.8030    -3.3970    -0.0070 C.3   1 <1>  -0.0990 
  5 C       -2.8490    -4.5040    -0.5900 C.3   1 <1>   0.2840 
  6 C        2.0990    -4.1190    -0.3790 C.3   1 <1>   0.3430 
  7 C       -4.0150    -3.6280    -0.1770 C.ar  1 <1>  -0.1440 
  8 N        3.3070    -3.4200     0.1540 N.4   1 <1>  -0.9590 
  9 C       -4.4570    -2.6120    -1.0120 C.ar  1 <1>  -0.1500 
 10 C       -4.6430    -3.8260     1.0440 C.ar  1 <1>  -0.1500 
 11 C        3.5730    -2.1290    -0.5520 C.3   1 <1>   0.3430 
 12 C        4.4890    -4.3280     0.0730 C.3   1 <1>   0.3430 
 13 C       -5.5140    -1.8040    -0.6320 C.ar  1 <1>  -0.1500 
 14 C       -5.7000    -3.0180     1.4250 C.ar  1 <1>  -0.1500 
 15 C        4.7590    -1.4170     0.1020 C.3   1 <1>  -0.1600 
 16 C        5.6960    -3.6680     0.7430 C.3   1 <1>  -0.1600 
 17 C       -6.1360    -2.0060     0.5880 C.ar  1 <1>  -0.1500 
 18 C        6.0120    -2.3020     0.1220 C.3   1 <1>  -0.1600 
 19 H       -1.8000    -3.0490     0.4910 H     1 <1>   0.3700 
 20 H        0.7180    -3.3150     1.0600 H     1 <1>   0.0800 
 21 H        0.7670    -2.4210    -0.4520 H     1 <1>   0.0800 
 22 H       -2.9300    -5.4790    -0.1400 H     1 <1>   0.0800 
 23 H       -2.8220    -4.6220    -1.6600 H     1 <1>   0.0800 
 24 H        2.1640    -4.2070    -1.4520 H     1 <1>   0.0800 
 25 H        2.0530    -5.1200     0.0230 H     1 <1>   0.0800 
 26 H        3.1610    -3.2090     1.1490 H     1 <1>   0.4500 
 27 H       -3.9800    -2.4460    -1.9630 H     1 <1>   0.1500 
 28 H       -4.3130    -4.6100     1.7040 H     1 <1>   0.1500 
 29 H        2.7070    -1.4890    -0.5040 H     1 <1>   0.0800 
 30 H        3.7970    -2.3200    -1.5900 H     1 <1>   0.0800 
 31 H        4.7210    -4.5360    -0.9600 H     1 <1>   0.0800 
 32 H        4.2730    -5.2630     0.5660 H     1 <1>   0.0800 
 33 H       -5.8540    -1.0180    -1.2840 H     1 <1>   0.1500 
 34 H       -6.1850    -3.1760     2.3730 H     1 <1>   0.1500 
 35 H        4.4960    -1.1300     1.1060 H     1 <1>   0.0800 
 36 H        4.9720    -0.5140    -0.4430 H     1 <1>   0.0800 
 37 H        6.5520    -4.3120     0.6380 H     1 <1>   0.0800 
 38 H        5.5050    -3.5580     1.7970 H     1 <1>   0.0800 
 39 H       -6.9580    -1.3780     0.8840 H     1 <1>   0.1500 
 40 H        6.7950    -1.8160     0.6810 H     1 <1>   0.0800 
 41 H        6.3690    -2.4400    -0.8860 H     1 <1>   0.0800 
@<TRIPOS>BOND
  1   1   2  2   
  2   2   3  am  
  3   2   4  1   
  4   3   5  1   
  5   3  19  1   
  6   4   6  1   
  7   4  20  1   
  8   4  21  1   
  9   5   7  1   
 10   5  22  1   
 11   5  23  1   
 12   6   8  1   
 13   6  24  1   
 14   6  25  1   
 15   7   9  ar  
 16   7  10  ar  
 17   8  11  1   
 18   8  12  1   
 19   8  26  1   
 20   9  13  ar  
 21   9  27  1   
 22  10  14  ar  
 23  10  28  1   
 24  11  15  1   
 25  11  29  1   
 26  11  30  1   
 27  12  16  1   
 28  12  31  1   
 29  12  32  1   
 30  13  17  ar  
 31  13  33  1   
 32  14  17  ar  
 33  14  34  1   
 34  15  18  1   
 35  15  35  1   
 36  15  36  1   
 37  16  18  1   
 38  16  37  1   
 39  16  38  1   
 40  17  39  1   
 41  18  40  1   
 42  18  41  1   
@<TRIPOS>SUBSTRUCTURE
  1 ****   2 GROUP 4 **** **** 0

# MOE 2024.06 (io_trps.svl 2023.06)
