@<TRIPOS>MOLECULE
NONAME
44 46 1 0 0 
SMALL
USER_CHARGES


@<TRIPOS>ATOM
  1 N        0.2840    -0.2720     0.3050 N.4   1 <1>  -0.9590 
  2 C        1.3280     0.7660     0.1480 C.3   1 <1>   0.4230 
  3 C       -1.0140     0.3970     0.0110 C.3   1 <1>   0.3430 
  4 C        0.2530    -0.9430     1.6440 C.3   1 <1>   0.2630 
  5 C        0.8400     1.5830    -1.0460 C.3   1 <1>  -0.1600 
  6 C        2.7210     0.1460    -0.0540 C.3   1 <1>  -0.1600 
  7 C       -0.6850     1.4650    -1.0250 C.3   1 <1>  -0.1600 
  8 C        3.7950     1.2210    -0.2690 C.3   1 <1>   0.3430 
  9 N        5.1250     0.5840    -0.4570 N.4   1 <1>  -0.9060 
 10 C        6.2160     1.5730    -0.6680 C.3   1 <1>   0.4230 
 11 C        7.6300     0.8390    -1.0410 C.3   1 <1>  -0.0800 
 12 C        6.4710     2.4880     0.7070 C.3   1 <1>  -0.1600 
 13 C        7.8530     1.6750    -0.0190 C.3   1 <1>  -0.1600 
 14 C        9.2390     0.8460    -0.7440 C.3   1 <1>  -0.1600 
 15 C        8.0760     2.4750     1.0270 C.3   1 <1>  -0.0800 
 16 C        9.5000     1.7780     0.6190 C.3   1 <1>  -0.1600 
 17 H        0.4160    -0.9820    -0.4300 H     1 <1>   0.4500 
 18 H        1.3230     1.3970     1.0240 H     1 <1>   0.0800 
 19 H       -1.3970     0.8700     0.9020 H     1 <1>   0.0800 
 20 H       -1.7470    -0.3030    -0.3600 H     1 <1>   0.0800 
 21 H        0.0980    -0.2180     2.4260 H     1 <1>   0.0800 
 22 H        1.1790    -1.4610     1.8300 H     1 <1>   0.0800 
 23 H       -0.5510    -1.6620     1.6820 H     1 <1>   0.0800 
 24 H        1.2150     1.1720    -1.9680 H     1 <1>   0.0800 
 25 H        1.1530     2.6100    -0.9730 H     1 <1>   0.0800 
 26 H        2.6970    -0.5070    -0.9090 H     1 <1>   0.0800 
 27 H        2.9760    -0.4250     0.8210 H     1 <1>   0.0800 
 28 H       -1.1500     2.3950    -0.7450 H     1 <1>   0.0800 
 29 H       -1.0630     1.1780    -1.9920 H     1 <1>   0.0800 
 30 H        3.8260     1.8800     0.5850 H     1 <1>   0.0800 
 31 H        3.5530     1.8100    -1.1400 H     1 <1>   0.0800 
 32 H        5.1190    -0.0450    -1.2700 H     1 <1>   0.4500 
 33 H        5.3870     0.0170     0.3600 H     1 <1>   0.4500 
 34 H        5.9570     2.2340    -1.4820 H     1 <1>   0.0800 
 35 H        7.4070    -0.2070    -0.8780 H     1 <1>   0.0800 
 36 H        5.9370     2.0930     1.5570 H     1 <1>   0.0800 
 37 H        6.1350     3.5010     0.5460 H     1 <1>   0.0800 
 38 H        8.0570     2.5750    -0.7540 H     1 <1>   0.0800 
 39 H        7.6740     0.7800     0.7280 H     1 <1>   0.0800 
 40 H        9.7740     1.2640    -1.5850 H     1 <1>   0.0800 
 41 H        9.6160    -0.1540    -0.5930 H     1 <1>   0.0800 
 42 H        8.3220     3.5230     0.9020 H     1 <1>   0.0800 
 43 H       10.2570     2.5230     0.4260 H     1 <1>   0.0800 
 44 H        9.8590     1.1620     1.4310 H     1 <1>   0.0800 
@<TRIPOS>BOND
  1   1   2  1   
  2   1   3  1   
  3   1   4  1   
  4   1  17  1   
  5   2   5  1   
  6   2   6  1   
  7   2  18  1   
  8   3   7  1   
  9   3  19  1   
 10   3  20  1   
 11   4  21  1   
 12   4  22  1   
 13   4  23  1   
 14   5   7  1   
 15   5  24  1   
 16   5  25  1   
 17   6   8  1   
 18   6  26  1   
 19   6  27  1   
 20   7  28  1   
 21   7  29  1   
 22   8   9  1   
 23   8  30  1   
 24   8  31  1   
 25   9  10  1   
 26   9  32  1   
 27   9  33  1   
 28  10  11  1   
 29  10  12  1   
 30  10  34  1   
 31  11  13  1   
 32  11  14  1   
 33  11  35  1   
 34  12  15  1   
 35  12  36  1   
 36  12  37  1   
 37  13  15  1   
 38  13  38  1   
 39  13  39  1   
 40  14  16  1   
 41  14  40  1   
 42  14  41  1   
 43  15  16  1   
 44  15  42  1   
 45  16  43  1   
 46  16  44  1   
@<TRIPOS>SUBSTRUCTURE
  1 ****   8 GROUP 4 **** **** 0

# MOE 2024.06 (io_trps.svl 2023.06)
