@<TRIPOS>MOLECULE
NONAME
36 38 1 0 0 
SMALL
USER_CHARGES


@<TRIPOS>ATOM
  1 CL       0.2770     0.3820    -0.7310 Cl    1 <1>  -0.1770 
  2 C        1.7090    -0.5870    -0.5350 C.ar  1 <1>   0.1770 
  3 C        2.9070     0.0230    -0.2670 C.ar  1 <1>  -0.1500 
  4 C        1.6110    -1.9670    -0.6540 C.ar  1 <1>  -0.1500 
  5 C        4.0570    -0.7540    -0.1090 C.ar  1 <1>   0.3610 
  6 C        2.7370    -2.7400    -0.5010 C.ar  1 <1>  -0.1500 
  7 N        5.2810    -0.1650     0.1570 N.ar  1 <1>  -0.1790 
  8 C        3.9880    -2.1570    -0.2240 C.ar  1 <1>   0.0000 
  9 C        6.4310    -0.8210     0.3160 C.ar  1 <1>   0.4610 
 10 C        5.1980    -2.8960    -0.0490 C.ar  1 <1>  -0.1430 
 11 N        7.5660    -0.1190     0.5440 N.pl3 1 <1>  -0.8380 
 12 C        6.3610    -2.2360     0.2130 C.ar  1 <1>  -0.1500 
 13 C        5.1860    -4.4170    -0.1450 C.3   1 <1>  -0.0970 
 14 C        8.9500    -0.6830     0.3910 C.3   1 <1>   0.2090 
 15 C        7.6390     1.3220     0.9600 C.3   1 <1>   0.2090 
 16 C        9.6890     0.0880    -0.7090 C.3   1 <1>  -0.1600 
 17 C        8.3210     2.1340    -0.1440 C.3   1 <1>  -0.1600 
 18 C        9.7300     1.5970    -0.4300 C.3   1 <1>  -0.1600 
 19 H        2.9400     1.0930    -0.1820 H     1 <1>   0.1500 
 20 H        0.6520    -2.4100    -0.8660 H     1 <1>   0.1500 
 21 H        2.6500    -3.8090    -0.5950 H     1 <1>   0.1500 
 22 H        5.3390     0.8450     0.1860 H     1 <1>   0.4570 
 23 H        7.2590    -2.8020     0.3640 H     1 <1>   0.1500 
 24 H        4.8520    -4.7270    -1.1200 H     1 <1>   0.0800 
 25 H        4.5290    -4.8340     0.5980 H     1 <1>   0.0800 
 26 H        6.1680    -4.8260     0.0140 H     1 <1>   0.0800 
 27 H        8.9430    -1.7220     0.1240 H     1 <1>   0.0800 
 28 H        9.4820    -0.5860     1.3240 H     1 <1>   0.0800 
 29 H        8.2200     1.3970     1.8650 H     1 <1>   0.0800 
 30 H        6.6680     1.7320     1.1720 H     1 <1>   0.0800 
 31 H        9.2000    -0.0940    -1.6500 H     1 <1>   0.0800 
 32 H       10.6940    -0.2870    -0.7890 H     1 <1>   0.0800 
 33 H        8.3900     3.1640     0.1590 H     1 <1>   0.0800 
 34 H        7.7280     2.0930    -1.0410 H     1 <1>   0.0800 
 35 H       10.1550     2.1130    -1.2740 H     1 <1>   0.0800 
 36 H       10.3620     1.7830     0.4220 H     1 <1>   0.0800 
@<TRIPOS>BOND
  1   1   2  1   
  2   2   3  ar  
  3   2   4  ar  
  4   3   5  ar  
  5   3  19  1   
  6   4   6  ar  
  7   4  20  1   
  8   5   7  ar  
  9   5   8  ar  
 10   6   8  ar  
 11   6  21  1   
 12   7   9  ar  
 13   7  22  1   
 14   8  10  ar  
 15   9  11  1   
 16   9  12  ar  
 17  10  12  ar  
 18  10  13  1   
 19  11  14  1   
 20  11  15  1   
 21  12  23  1   
 22  13  24  1   
 23  13  25  1   
 24  13  26  1   
 25  14  16  1   
 26  14  27  1   
 27  14  28  1   
 28  15  17  1   
 29  15  29  1   
 30  15  30  1   
 31  16  18  1   
 32  16  31  1   
 33  16  32  1   
 34  17  18  1   
 35  17  33  1   
 36  17  34  1   
 37  18  35  1   
 38  18  36  1   
@<TRIPOS>SUBSTRUCTURE
  1 ****   7 GROUP 4 **** **** 0

# MOE 2024.06 (io_trps.svl 2023.06)
