@<TRIPOS>MOLECULE
NONAME
43 45 1 0 0 
SMALL
USER_CHARGES


@<TRIPOS>ATOM
  1 O        2.4890     1.4160    -0.9830 O.2   1 <1>  -0.5700 
  2 C        2.5390     0.7590     0.0250 C.2   1 <1>   0.5690 
  3 N        2.2900     1.3330     1.2190 N.am  1 <1>  -0.8000 
  4 C        2.9090    -0.7280    -0.0620 C.3   1 <1>   0.1710 
  5 N        4.3430    -1.0330     0.2320 N.3   1 <1>  -0.8100 
  6 C        4.6120    -2.4850     0.1320 C.3   1 <1>   0.1100 
  7 C        5.2390    -0.2750    -0.6870 C.3   1 <1>   0.1100 
  8 C        6.0820    -2.8350     0.4780 C.3   1 <1>   0.3430 
  9 C        6.7270    -0.6800    -0.5570 C.3   1 <1>   0.3430 
 10 N        6.9280    -1.6040     0.6100 N.4   1 <1>  -0.9590 
 11 C        8.3510    -1.8820     0.9430 C.3   1 <1>   0.4860 
 12 C        9.0660    -0.5690     1.1920 C.ar  1 <1>  -0.1440 
 13 C        9.8240     0.0490     0.1620 C.ar  1 <1>   0.0000 
 14 C        8.9500     0.0160     2.4270 C.ar  1 <1>  -0.1500 
 15 C       10.4200     1.3020     0.4330 C.ar  1 <1>   0.0000 
 16 C       10.0210    -0.5050    -1.1280 C.ar  1 <1>  -0.1500 
 17 C        9.5600     1.2450     2.6910 C.ar  1 <1>  -0.1500 
 18 C       10.2740     1.8720     1.7120 C.ar  1 <1>  -0.1500 
 19 C       11.1480     1.9550    -0.5820 C.ar  1 <1>  -0.1500 
 20 C       10.7360     0.1500    -2.0910 C.ar  1 <1>  -0.1500 
 21 C       11.3030     1.3970    -1.8180 C.ar  1 <1>  -0.1500 
 22 H        2.0470     2.3250     1.2560 H     1 <1>   0.3700 
 23 H        2.3690     0.8500     2.1130 H     1 <1>   0.3700 
 24 H        2.6650    -1.0670    -1.0540 H     1 <1>   0.0800 
 25 H        2.2850    -1.2640     0.6290 H     1 <1>   0.0800 
 26 H        4.3960    -2.8250    -0.8680 H     1 <1>   0.0800 
 27 H        3.9610    -3.0210     0.8020 H     1 <1>   0.0800 
 28 H        5.1580     0.7780    -0.4730 H     1 <1>   0.0800 
 29 H        4.9270    -0.4140    -1.7090 H     1 <1>   0.0800 
 30 H        6.4780    -3.4790    -0.2900 H     1 <1>   0.0800 
 31 H        6.0960    -3.3840     1.4040 H     1 <1>   0.0800 
 32 H        7.3160     0.2140    -0.4350 H     1 <1>   0.0800 
 33 H        7.0450    -1.1600    -1.4670 H     1 <1>   0.0800 
 34 H        6.5090    -1.0770     1.3900 H     1 <1>   0.4500 
 35 H        8.8270    -2.4310     0.1500 H     1 <1>   0.0800 
 36 H        8.4020    -2.4810     1.8380 H     1 <1>   0.0800 
 37 H        8.3910    -0.4430     3.2240 H     1 <1>   0.1500 
 38 H        9.6130    -1.4640    -1.3750 H     1 <1>   0.1500 
 39 H        9.4590     1.6870     3.6680 H     1 <1>   0.1500 
 40 H       10.7430     2.8210     1.9070 H     1 <1>   0.1500 
 41 H       11.5880     2.9120    -0.3630 H     1 <1>   0.1500 
 42 H       10.8800    -0.2790    -3.0690 H     1 <1>   0.1500 
 43 H       11.8620     1.9010    -2.5880 H     1 <1>   0.1500 
@<TRIPOS>BOND
  1   1   2  2   
  2   2   3  am  
  3   2   4  1   
  4   3  22  1   
  5   3  23  1   
  6   4   5  1   
  7   4  24  1   
  8   4  25  1   
  9   5   6  1   
 10   5   7  1   
 11   6   8  1   
 12   6  26  1   
 13   6  27  1   
 14   7   9  1   
 15   7  28  1   
 16   7  29  1   
 17   8  10  1   
 18   8  30  1   
 19   8  31  1   
 20   9  10  1   
 21   9  32  1   
 22   9  33  1   
 23  10  11  1   
 24  10  34  1   
 25  11  12  1   
 26  11  35  1   
 27  11  36  1   
 28  12  13  ar  
 29  12  14  ar  
 30  13  15  ar  
 31  13  16  ar  
 32  14  17  ar  
 33  14  37  1   
 34  15  18  ar  
 35  15  19  ar  
 36  16  20  ar  
 37  16  38  1   
 38  17  18  ar  
 39  17  39  1   
 40  18  40  1   
 41  19  21  ar  
 42  19  41  1   
 43  20  21  ar  
 44  20  42  1   
 45  21  43  1   
@<TRIPOS>SUBSTRUCTURE
  1 ****   9 GROUP 4 **** **** 0

# MOE 2024.06 (io_trps.svl 2023.06)
