@<TRIPOS>MOLECULE
NONAME
42 44 1 0 0 
SMALL
USER_CHARGES


@<TRIPOS>ATOM
  1 S        0.2430    -0.0850    -0.1730 S.3   1 <1>  -0.0800 
  2 C        1.4010     0.9560     0.6500 C.2   1 <1>  -0.0450 
  3 C       -0.7170     1.2620    -0.7100 C.2   1 <1>  -0.1400 
  4 C        1.0060     2.2530     0.4970 C.2   1 <1>   0.1250 
  5 C        2.5000     0.3300     1.3220 C.2   1 <1>   0.8050 
  6 C       -0.1890     2.4370    -0.2760 C.2   1 <1>  -0.0860 
  7 C       -1.9420     0.9120    -1.5380 C.3   1 <1>  -0.0600 
  8 N        1.6530     3.3390     1.0460 N.2   1 <1>  -0.5750 
  9 O        2.3670    -0.6810     1.9810 O.2   1 <1>  -0.5700 
 10 O        3.7510     0.7950     1.2150 O.3   1 <1>  -0.4300 
 11 C       -0.6500     3.7900    -0.4700 C.2   1 <1>   0.7160 
 12 C        1.1830     4.5110     0.8600 C.2   1 <1>   0.4500 
 13 C        4.1930     1.5730     0.1280 C.3   1 <1>   0.1200 
 14 O       -1.6330     4.0370    -1.1430 O.2   1 <1>  -0.5700 
 15 N        0.0570     4.8130     0.1270 N.am  1 <1>  -0.4200 
 16 C        5.6980     1.3710    -0.0080 C.3   1 <1>  -0.2400 
 17 C       -0.3890     6.2300    -0.0120 C.3   1 <1>   0.2200 
 18 C        0.6750     7.0690    -0.7400 C.3   1 <1>  -0.1600 
 19 C       -0.7380     6.8310     1.3600 C.3   1 <1>  -0.1600 
 20 C        0.2220     8.5300    -0.8760 C.3   1 <1>  -0.1600 
 21 C       -1.1880     8.2920     1.2190 C.3   1 <1>  -0.1600 
 22 C       -0.1300     9.1320     0.4910 C.3   1 <1>  -0.1600 
 23 H       -1.6430     0.3900    -2.4280 H     1 <1>   0.0800 
 24 H       -2.4870     1.7910    -1.8250 H     1 <1>   0.0800 
 25 H       -2.5960     0.2770    -0.9680 H     1 <1>   0.0800 
 26 H        1.6990     5.3460     1.3020 H     1 <1>   0.0600 
 27 H        3.9720     2.6060     0.3310 H     1 <1>   0.0800 
 28 H        3.6860     1.2540    -0.7670 H     1 <1>   0.0800 
 29 H        6.1950     1.6850     0.8920 H     1 <1>   0.0800 
 30 H        6.0720     1.9550    -0.8290 H     1 <1>   0.0800 
 31 H        5.9170     0.3350    -0.1960 H     1 <1>   0.0800 
 32 H       -1.2840     6.2700    -0.6090 H     1 <1>   0.0800 
 33 H        0.8430     6.6600    -1.7210 H     1 <1>   0.0800 
 34 H        1.6040     7.0510    -0.1980 H     1 <1>   0.0800 
 35 H        0.1150     6.8010     2.0130 H     1 <1>   0.0800 
 36 H       -1.5330     6.2600     1.8080 H     1 <1>   0.0800 
 37 H       -0.6410     8.5780    -1.5190 H     1 <1>   0.0800 
 38 H        1.0050     9.1100    -1.3350 H     1 <1>   0.0800 
 39 H       -1.3710     8.7100     2.1940 H     1 <1>   0.0800 
 40 H       -2.1130     8.3310     0.6680 H     1 <1>   0.0800 
 41 H       -0.4980    10.1350     0.3570 H     1 <1>   0.0800 
 42 H        0.7590     9.1900     1.0960 H     1 <1>   0.0800 
@<TRIPOS>BOND
  1   1   2  1   
  2   1   3  1   
  3   2   4  2   
  4   2   5  1   
  5   3   6  2   
  6   3   7  1   
  7   4   6  1   
  8   4   8  1   
  9   5   9  2   
 10   5  10  1   
 11   6  11  1   
 12   7  23  1   
 13   7  24  1   
 14   7  25  1   
 15   8  12  2   
 16  10  13  1   
 17  11  14  2   
 18  11  15  am  
 19  12  15  1   
 20  12  26  1   
 21  13  16  1   
 22  13  27  1   
 23  13  28  1   
 24  15  17  1   
 25  16  29  1   
 26  16  30  1   
 27  16  31  1   
 28  17  18  1   
 29  17  19  1   
 30  17  32  1   
 31  18  20  1   
 32  18  33  1   
 33  18  34  1   
 34  19  21  1   
 35  19  35  1   
 36  19  36  1   
 37  20  22  1   
 38  20  37  1   
 39  20  38  1   
 40  21  22  1   
 41  21  39  1   
 42  21  40  1   
 43  22  41  1   
 44  22  42  1   
@<TRIPOS>SUBSTRUCTURE
  1 ****   8 GROUP 4 **** **** 0

# MOE 2024.06 (io_trps.svl 2023.06)
