@<TRIPOS>MOLECULE
NONAME
44 46 1 0 0 
SMALL
USER_CHARGES


@<TRIPOS>ATOM
  1 S       -1.1530    -0.4840     0.3850 S.o2  1 <1>   1.2570 
  2 O       -1.9560    -0.4740     1.5870 O.2   1 <1>  -0.6500 
  3 O       -1.7170     0.0870    -0.8220 O.2   1 <1>  -0.6500 
  4 C       -0.5890    -2.1800     0.0200 C.2   1 <1>   0.1240 
  5 C        0.3900     0.3720     0.7390 C.3   1 <1>  -0.0550 
  6 N        0.5780    -2.6700     0.3140 N.2   1 <1>  -0.5650 
  7 N       -1.3990    -3.0880    -0.6060 N.pl3 1 <1>   0.0480 
  8 C        0.2280     1.8690     1.0580 C.3   1 <1>  -0.2400 
  9 C        0.5460    -3.9550    -0.1210 C.ar  1 <1>   0.2270 
 10 C       -0.6770    -4.2380    -0.6910 C.ar  1 <1>  -0.1520 
 11 C       -2.7240    -2.8750    -1.2400 C.3   1 <1>   0.1570 
 12 C        1.5360    -4.9340    -0.0580 C.ar  1 <1>  -0.1500 
 13 C       -0.9550    -5.5120    -1.1970 C.ar  1 <1>  -0.1500 
 14 C       -3.8540    -3.0420    -0.2360 C.2   1 <1>   0.5690 
 15 C        1.2740    -6.1880    -0.5650 C.ar  1 <1>  -0.1500 
 16 C        0.0270    -6.4760    -1.1330 C.ar  1 <1>  -0.1500 
 17 O       -3.9090    -4.1120     0.3240 O.2   1 <1>  -0.5700 
 18 N       -4.7930    -2.0620     0.0030 N.am  1 <1>  -0.6600 
 19 C       -5.7740    -2.2290     1.1170 C.3   1 <1>   0.1400 
 20 C       -5.0300    -0.8320    -0.8160 C.3   1 <1>   0.1400 
 21 C       -5.7590    -0.9930     2.0210 C.3   1 <1>  -0.1600 
 22 C       -5.0580     0.4200     0.0680 C.3   1 <1>  -0.1600 
 23 C       -6.0520     0.2840     1.2270 C.3   1 <1>  -0.1600 
 24 H        1.0460     0.2700    -0.1040 H     1 <1>   0.0800 
 25 H        0.8660    -0.1060     1.5740 H     1 <1>   0.0800 
 26 H       -0.2210     2.3800     0.2240 H     1 <1>   0.0800 
 27 H        1.1870     2.3120     1.2610 H     1 <1>   0.0800 
 28 H       -0.4030     1.9970     1.9210 H     1 <1>   0.0800 
 29 H       -2.8560    -3.6100    -2.0090 H     1 <1>   0.0800 
 30 H       -2.7330    -1.9180    -1.7120 H     1 <1>   0.0800 
 31 H        2.4810    -4.6870     0.3870 H     1 <1>   0.1500 
 32 H       -1.9200    -5.7340    -1.6170 H     1 <1>   0.1500 
 33 H        2.0250    -6.9580    -0.5260 H     1 <1>   0.1500 
 34 H       -0.1590    -7.4650    -1.5140 H     1 <1>   0.1500 
 35 H       -5.5390    -3.0970     1.7100 H     1 <1>   0.0800 
 36 H       -6.7570    -2.3680     0.7010 H     1 <1>   0.0800 
 37 H       -5.9830    -0.9320    -1.3090 H     1 <1>   0.0800 
 38 H       -4.2860    -0.7010    -1.5770 H     1 <1>   0.0800 
 39 H       -4.7910    -0.9190     2.4890 H     1 <1>   0.0800 
 40 H       -6.4910    -1.1130     2.7990 H     1 <1>   0.0800 
 41 H       -5.3190     1.2730    -0.5320 H     1 <1>   0.0800 
 42 H       -4.0740     0.5950     0.4620 H     1 <1>   0.0800 
 43 H       -5.9730     1.1410     1.8750 H     1 <1>   0.0800 
 44 H       -7.0550     0.2460     0.8400 H     1 <1>   0.0800 
@<TRIPOS>BOND
  1   1   2  2   
  2   1   3  2   
  3   1   4  1   
  4   1   5  1   
  5   4   6  2   
  6   4   7  1   
  7   5   8  1   
  8   5  24  1   
  9   5  25  1   
 10   6   9  1   
 11   7  10  1   
 12   7  11  1   
 13   8  26  1   
 14   8  27  1   
 15   8  28  1   
 16   9  10  ar  
 17   9  12  ar  
 18  10  13  ar  
 19  11  14  1   
 20  11  29  1   
 21  11  30  1   
 22  12  15  ar  
 23  12  31  1   
 24  13  16  ar  
 25  13  32  1   
 26  14  17  2   
 27  14  18  am  
 28  15  16  ar  
 29  15  33  1   
 30  16  34  1   
 31  18  19  1   
 32  18  20  1   
 33  19  21  1   
 34  19  35  1   
 35  19  36  1   
 36  20  22  1   
 37  20  37  1   
 38  20  38  1   
 39  21  23  1   
 40  21  39  1   
 41  21  40  1   
 42  22  23  1   
 43  22  41  1   
 44  22  42  1   
 45  23  43  1   
 46  23  44  1   
@<TRIPOS>SUBSTRUCTURE
  1 ****   7 GROUP 4 **** **** 0

# MOE 2024.06 (io_trps.svl 2023.06)
