@<TRIPOS>MOLECULE
NONAME
50 52 1 0 0 
SMALL
USER_CHARGES


@<TRIPOS>ATOM
  1 F       -1.4440     0.7420    -0.9510 F     1 <1>  -0.1900 
  2 C       -1.2690     1.7310    -0.1060 C.ar  1 <1>   0.1900 
  3 C       -2.2800     2.0690     0.8040 C.ar  1 <1>   0.1000 
  4 C       -0.0660     2.4060    -0.1760 C.ar  1 <1>  -0.1500 
  5 N       -3.5240     1.4270     0.9250 N.pl3 1 <1>  -0.8380 
  6 C       -2.0170     3.1390     1.6520 C.ar  1 <1>  -0.1500 
  7 C        0.1610     3.4670     0.6850 C.ar  1 <1>  -0.1500 
  8 C       -4.7460     2.1420     0.4540 C.3   1 <1>   0.2090 
  9 C       -3.6350    -0.0650     0.9160 C.3   1 <1>   0.2090 
 10 C       -0.8170     3.8300     1.5960 C.ar  1 <1>  -0.1500 
 11 C       -5.3040     1.5250    -0.8410 C.3   1 <1>   0.1100 
 12 C       -4.2820    -0.6050    -0.3790 C.3   1 <1>   0.1100 
 13 N       -5.5590     0.0690    -0.7060 N.3   1 <1>  -0.8100 
 14 C       -6.1350    -0.4850    -1.9690 C.3   1 <1>   0.1710 
 15 C       -7.6080    -0.1280    -2.1770 C.2   1 <1>   0.5690 
 16 O       -8.0600    -0.1290    -3.2970 O.2   1 <1>  -0.5700 
 17 N       -8.3160     0.1760    -1.0500 N.am  1 <1>  -0.5470 
 18 C       -9.6480     0.5490    -0.8130 C.ar  1 <1>   0.1170 
 19 C      -10.0130     0.9050     0.4800 C.ar  1 <1>  -0.1500 
 20 C      -10.6230     0.5780    -1.8060 C.ar  1 <1>  -0.1500 
 21 C      -11.3100     1.2830     0.7810 C.ar  1 <1>  -0.1500 
 22 C      -11.9210     0.9560    -1.5110 C.ar  1 <1>  -0.1500 
 23 C      -12.2760     1.3110    -0.2210 C.ar  1 <1>   0.0830 
 24 O      -13.5710     1.6690    -0.0190 O.3   1 <1>  -0.3620 
 25 C      -14.0320     2.0350     1.2610 C.3   1 <1>   0.1200 
 26 C      -15.5160     2.3700     1.1500 C.3   1 <1>  -0.2400 
 27 H        0.6790     2.1070    -0.8910 H     1 <1>   0.1500 
 28 H       -2.7660     3.4230     2.3680 H     1 <1>   0.1500 
 29 H        1.0920     4.0060     0.6460 H     1 <1>   0.1500 
 30 H       -4.5150     3.1780     0.2810 H     1 <1>   0.0800 
 31 H       -5.4980     2.0930     1.2220 H     1 <1>   0.0800 
 32 H       -4.2360    -0.3690     1.7550 H     1 <1>   0.0800 
 33 H       -2.6600    -0.5020     1.0400 H     1 <1>   0.0800 
 34 H       -0.6430     4.6530     2.2680 H     1 <1>   0.1500 
 35 H       -4.5960     1.7010    -1.6340 H     1 <1>   0.0800 
 36 H       -6.2170     2.0340    -1.0960 H     1 <1>   0.0800 
 37 H       -4.4560    -1.6600    -0.2550 H     1 <1>   0.0800 
 38 H       -3.5890    -0.4810    -1.1920 H     1 <1>   0.0800 
 39 H       -6.0750    -1.5580    -1.9460 H     1 <1>   0.0800 
 40 H       -5.5680    -0.1410    -2.8160 H     1 <1>   0.0800 
 41 H       -7.7000     0.1660    -0.2310 H     1 <1>   0.3700 
 42 H       -9.2760     0.8860     1.2610 H     1 <1>   0.1500 
 43 H      -10.3780     0.3060    -2.8150 H     1 <1>   0.1500 
 44 H      -11.5480     1.5510     1.7920 H     1 <1>   0.1500 
 45 H      -12.6680     0.9760    -2.2840 H     1 <1>   0.1500 
 46 H      -13.4720     2.8930     1.5920 H     1 <1>   0.0800 
 47 H      -13.8780     1.2050     1.9290 H     1 <1>   0.0800 
 48 H      -15.6590     3.1880     0.4670 H     1 <1>   0.0800 
 49 H      -15.8980     2.6540     2.1130 H     1 <1>   0.0800 
 50 H      -16.0630     1.5120     0.8020 H     1 <1>   0.0800 
@<TRIPOS>BOND
  1   1   2  1   
  2   2   3  ar  
  3   2   4  ar  
  4   3   5  1   
  5   3   6  ar  
  6   4   7  ar  
  7   4  27  1   
  8   5   8  1   
  9   5   9  1   
 10   6  10  ar  
 11   6  28  1   
 12   7  10  ar  
 13   7  29  1   
 14   8  11  1   
 15   8  30  1   
 16   8  31  1   
 17   9  12  1   
 18   9  32  1   
 19   9  33  1   
 20  10  34  1   
 21  11  13  1   
 22  11  35  1   
 23  11  36  1   
 24  12  13  1   
 25  12  37  1   
 26  12  38  1   
 27  13  14  1   
 28  14  15  1   
 29  14  39  1   
 30  14  40  1   
 31  15  16  2   
 32  15  17  am  
 33  17  18  1   
 34  17  41  1   
 35  18  19  ar  
 36  18  20  ar  
 37  19  21  ar  
 38  19  42  1   
 39  20  22  ar  
 40  20  43  1   
 41  21  23  ar  
 42  21  44  1   
 43  22  23  ar  
 44  22  45  1   
 45  23  24  1   
 46  24  25  1   
 47  25  26  1   
 48  25  46  1   
 49  25  47  1   
 50  26  48  1   
 51  26  49  1   
 52  26  50  1   
@<TRIPOS>SUBSTRUCTURE
  1 ****  11 GROUP 4 **** **** 0

# MOE 2024.06 (io_trps.svl 2023.06)
