@<TRIPOS>MOLECULE
NONAME
28 29 1 0 0 
SMALL
USER_CHARGES


@<TRIPOS>ATOM
  1 O        0.4630     0.4100     0.8380 O.2   1 <1>  -0.5700 
  2 C        1.5320     0.9630     0.6990 C.2   1 <1>   0.6900 
  3 N        1.7720     2.1650     1.2710 N.am  1 <1>  -0.4900 
  4 N        2.5230     0.3940    -0.0360 N.am  1 <1>  -0.5390 
  5 C        2.9570     2.8260     1.1430 C.2   1 <1>   0.6160 
  6 C        3.7670     0.9980    -0.2200 C.2   1 <1>  -0.0290 
  7 O        3.0430     3.9010     1.7090 O.2   1 <1>  -0.5700 
  8 C        4.0220     2.2120     0.3530 C.2   1 <1>   0.1140 
  9 C        4.7410     0.2010    -1.0740 C.3   1 <1>  -0.1020 
 10 N        5.2960     2.8340     0.1660 N.pl3 1 <1>  -0.8380 
 11 C        5.2380     4.1370    -0.5670 C.3   1 <1>   0.2090 
 12 C        6.0760     3.0200     1.4290 C.3   1 <1>   0.2090 
 13 C        6.6560     4.6910    -0.7980 C.3   1 <1>   0.1200 
 14 C        7.4640     3.6150     1.1260 C.3   1 <1>   0.1200 
 15 O        7.3520     4.8160     0.4120 O.3   1 <1>  -0.5600 
 16 H        1.0370     2.5940     1.8190 H     1 <1>   0.3700 
 17 H        2.2980    -0.5120    -0.4480 H     1 <1>   0.3700 
 18 H        4.3270     0.0480    -2.0540 H     1 <1>   0.0800 
 19 H        4.9290    -0.7540    -0.6200 H     1 <1>   0.0800 
 20 H        5.6800     0.7120    -1.1830 H     1 <1>   0.0800 
 21 H        4.6690     4.8570    -0.0040 H     1 <1>   0.0800 
 22 H        4.7520     3.9900    -1.5160 H     1 <1>   0.0800 
 23 H        6.1930     2.0690     1.9190 H     1 <1>   0.0800 
 24 H        5.5510     3.6810     2.0980 H     1 <1>   0.0800 
 25 H        6.6040     5.6660    -1.2480 H     1 <1>   0.0800 
 26 H        7.2110     4.0370    -1.4480 H     1 <1>   0.0800 
 27 H        8.0470     2.9230     0.5440 H     1 <1>   0.0800 
 28 H        7.9850     3.8250     2.0420 H     1 <1>   0.0800 
@<TRIPOS>BOND
  1   1   2  2   
  2   2   3  am  
  3   2   4  am  
  4   3   5  am  
  5   3  16  1   
  6   4   6  1   
  7   4  17  1   
  8   5   7  2   
  9   5   8  1   
 10   6   8  2   
 11   6   9  1   
 12   8  10  1   
 13   9  18  1   
 14   9  19  1   
 15   9  20  1   
 16  10  11  1   
 17  10  12  1   
 18  11  13  1   
 19  11  21  1   
 20  11  22  1   
 21  12  14  1   
 22  12  23  1   
 23  12  24  1   
 24  13  15  1   
 25  13  25  1   
 26  13  26  1   
 27  14  15  1   
 28  14  27  1   
 29  14  28  1   
@<TRIPOS>SUBSTRUCTURE
  1 ****   8 GROUP 4 **** **** 0

# MOE 2024.06 (io_trps.svl 2023.06)
