@<TRIPOS>MOLECULE
Structure1683
40 40 1 0 0 
SMALL
USER_CHARGES


@<TRIPOS>ATOM
  1 F       -0.7390     1.0130     2.2870 F     1 <1>  -0.3400 
  2 C       -0.9860     2.1100     1.5740 C.3   1 <1>   1.1640 
  3 F       -1.5430     2.9640     2.4210 F     1 <1>  -0.3400 
  4 F        0.2070     2.6040     1.2700 F     1 <1>  -0.3400 
  5 C       -1.8450     1.8380     0.3200 C.ar  1 <1>  -0.1440 
  6 C       -2.1640     2.8430    -0.6040 C.ar  1 <1>  -0.1440 
  7 C       -2.3190     0.5450     0.0900 C.ar  1 <1>  -0.1500 
  8 C       -2.9350     2.5200    -1.7170 C.ar  1 <1>  -0.1500 
  9 C       -1.7040     4.3060    -0.4560 C.3   1 <1>   0.3640 
 10 C       -3.0830     0.2440    -1.0220 C.ar  1 <1>  -0.1500 
 11 C       -3.3920     1.2350    -1.9290 C.ar  1 <1>  -0.1500 
 12 N       -2.8410     5.2130    -0.6380 N.am  1 <1>  -0.7300 
 13 C       -0.6460     4.6290    -1.5000 C.3   1 <1>  -0.2660 
 14 C       -3.8530     5.3610     0.2350 C.2   1 <1>   0.7800 
 15 C       -0.2160     6.0550    -1.3620 C.2   1 <1>   0.9060 
 16 O       -4.0570     4.5840     1.1470 O.2   1 <1>  -0.5700 
 17 O       -4.6250     6.4290     0.0420 O.3   1 <1>  -0.4300 
 18 O       -0.9780     6.9310    -1.7860 O.co2 1 <1>  -0.9000 
 19 O        0.8560     6.3000    -0.8090 O.co2 1 <1>  -0.9000 
 20 C       -5.7180     6.8470     0.8270 C.3   1 <1>   0.2800 
 21 C       -6.8320     5.7940     0.7890 C.3   1 <1>  -0.2400 
 22 C       -6.2150     8.1330     0.1650 C.3   1 <1>  -0.2400 
 23 C       -5.2550     7.1600     2.2550 C.3   1 <1>  -0.2400 
 24 H       -2.1000    -0.2540     0.7770 H     1 <1>   0.1500 
 25 H       -3.1880     3.2870    -2.4290 H     1 <1>   0.1500 
 26 H       -1.2900     4.5000     0.5170 H     1 <1>   0.0800 
 27 H       -3.4380    -0.7600    -1.1780 H     1 <1>   0.1500 
 28 H       -3.9880     1.0120    -2.7960 H     1 <1>   0.1500 
 29 H       -2.5560     6.0630    -1.1580 H     1 <1>   0.3700 
 30 H       -1.0230     4.4770    -2.4920 H     1 <1>   0.0800 
 31 H        0.2110     4.0000    -1.3570 H     1 <1>   0.0800 
 32 H       -7.7140     6.1740     1.2710 H     1 <1>   0.0800 
 33 H       -7.0750     5.5470    -0.2280 H     1 <1>   0.0800 
 34 H       -6.5370     4.9000     1.3080 H     1 <1>   0.0800 
 35 H       -6.5190     7.9350    -0.8470 H     1 <1>   0.0800 
 36 H       -5.4330     8.8700     0.1560 H     1 <1>   0.0800 
 37 H       -7.0550     8.5320     0.7030 H     1 <1>   0.0800 
 38 H       -4.9630     6.2650     2.7730 H     1 <1>   0.0800 
 39 H       -6.0550     7.6120     2.8110 H     1 <1>   0.0800 
 40 H       -4.4230     7.8410     2.2340 H     1 <1>   0.0800 
@<TRIPOS>BOND
  1   1   2  1   
  2   2   3  1   
  3   2   4  1   
  4   2   5  1   
  5   5   6  ar  
  6   5   7  ar  
  7   6   8  ar  
  8   6   9  1   
  9   7  10  ar  
 10   7  24  1   
 11   8  11  ar  
 12   8  25  1   
 13   9  12  1   
 14   9  13  1   
 15   9  26  1   
 16  10  11  ar  
 17  10  27  1   
 18  11  28  1   
 19  12  14  am  
 20  12  29  1   
 21  13  15  1   
 22  13  30  1   
 23  13  31  1   
 24  14  16  2   
 25  14  17  1   
 26  15  18  ar  
 27  15  19  ar  
 28  17  20  1   
 29  20  21  1   
 30  20  22  1   
 31  20  23  1   
 32  21  32  1   
 33  21  33  1   
 34  21  34  1   
 35  22  35  1   
 36  22  36  1   
 37  22  37  1   
 38  23  38  1   
 39  23  39  1   
 40  23  40  1   
@<TRIPOS>SUBSTRUCTURE
  1 ****   9 GROUP 4 **** **** 0

# MOE 2024.06 (io_trps.svl 2023.06)
