@<TRIPOS>MOLECULE
NONAME
43 43 1 0 0 
SMALL
USER_CHARGES


@<TRIPOS>ATOM
  1 O       -9.7300    -0.4480    -0.0010 O.3   1 <1>  -0.3630 
  2 C      -11.0200    -0.7150    -0.3400 C.ar  1 <1>   0.0830 
  3 C       -8.9100     0.3720    -0.7910 C.3   1 <1>   0.1200 
  4 C      -11.7930    -1.4420     0.5640 C.ar  1 <1>  -0.1440 
  5 C      -11.5860    -0.2880    -1.5400 C.ar  1 <1>  -0.1500 
  6 C       -7.5790     0.5130    -0.0550 C.3   1 <1>  -0.1600 
  7 C      -13.1150    -1.7250     0.2600 C.ar  1 <1>  -0.1500 
  8 C      -11.2200    -1.9350     1.8890 C.3   1 <1>  -0.0160 
  9 C      -12.9060    -0.5780    -1.8320 C.ar  1 <1>  -0.1500 
 10 C       -6.6200     1.4100    -0.8350 C.3   1 <1>   0.3430 
 11 C      -13.6720    -1.2960    -0.9320 C.ar  1 <1>  -0.1500 
 12 C      -11.3170    -0.8460     2.9590 C.3   1 <1>  -0.2400 
 13 N       -5.2990     1.4770    -0.1430 N.4   1 <1>  -0.9590 
 14 C       -5.3590     2.3550     1.0600 C.3   1 <1>   0.3430 
 15 C       -4.2190     1.9110    -1.0730 C.3   1 <1>   0.3430 
 16 C       -4.2220     1.9960     2.0090 C.3   1 <1>  -0.2400 
 17 C       -3.8380     0.7520    -1.9870 C.3   1 <1>  -0.2400 
 18 H       -9.3980     1.3250    -0.9040 H     1 <1>   0.0800 
 19 H       -8.7820    -0.1040    -1.7490 H     1 <1>   0.0800 
 20 H      -11.0220     0.2680    -2.2620 H     1 <1>   0.1500 
 21 H       -7.1490    -0.4670     0.0560 H     1 <1>   0.0800 
 22 H       -7.7780     0.9290     0.9160 H     1 <1>   0.0800 
 23 H      -13.7220    -2.2810     0.9530 H     1 <1>   0.1500 
 24 H      -10.1930    -2.2290     1.7590 H     1 <1>   0.0800 
 25 H      -11.7600    -2.8060     2.2170 H     1 <1>   0.0800 
 26 H      -13.3400    -0.2470    -2.7600 H     1 <1>   0.1500 
 27 H       -7.0370     2.3990    -0.9380 H     1 <1>   0.0800 
 28 H       -6.4950     0.9960    -1.8220 H     1 <1>   0.0800 
 29 H      -14.7000    -1.5220    -1.1580 H     1 <1>   0.1500 
 30 H      -10.7600     0.0220     2.6540 H     1 <1>   0.0800 
 31 H      -10.9180    -1.2050     3.8910 H     1 <1>   0.0800 
 32 H      -12.3440    -0.5620     3.1060 H     1 <1>   0.0800 
 33 H       -5.0650     0.5290     0.1800 H     1 <1>   0.4500 
 34 H       -6.2940     2.2110     1.5770 H     1 <1>   0.0800 
 35 H       -5.2930     3.3920     0.7710 H     1 <1>   0.0800 
 36 H       -3.3470     2.2060    -0.5130 H     1 <1>   0.0800 
 37 H       -4.5440     2.7570    -1.6570 H     1 <1>   0.0800 
 38 H       -4.2820     0.9630     2.3040 H     1 <1>   0.0800 
 39 H       -3.2600     2.1940     1.5720 H     1 <1>   0.0800 
 40 H       -4.3050     2.5970     2.8980 H     1 <1>   0.0800 
 41 H       -3.5130    -0.0970    -1.4120 H     1 <1>   0.0800 
 42 H       -3.0180     1.0560    -2.6140 H     1 <1>   0.0800 
 43 H       -4.6500     0.4660    -2.6300 H     1 <1>   0.0800 
@<TRIPOS>BOND
  1   1   2  1   
  2   1   3  1   
  3   2   4  ar  
  4   2   5  ar  
  5   3   6  1   
  6   3  18  1   
  7   3  19  1   
  8   4   7  ar  
  9   4   8  1   
 10   5   9  ar  
 11   5  20  1   
 12   6  10  1   
 13   6  21  1   
 14   6  22  1   
 15   7  11  ar  
 16   7  23  1   
 17   8  12  1   
 18   8  24  1   
 19   8  25  1   
 20   9  11  ar  
 21   9  26  1   
 22  10  13  1   
 23  10  27  1   
 24  10  28  1   
 25  11  29  1   
 26  12  30  1   
 27  12  31  1   
 28  12  32  1   
 29  13  14  1   
 30  13  15  1   
 31  13  33  1   
 32  14  16  1   
 33  14  34  1   
 34  14  35  1   
 35  15  17  1   
 36  15  36  1   
 37  15  37  1   
 38  16  38  1   
 39  16  39  1   
 40  16  40  1   
 41  17  41  1   
 42  17  42  1   
 43  17  43  1   
@<TRIPOS>SUBSTRUCTURE
  1 ****   3 GROUP 4 **** **** 0

# MOE 2024.06 (io_trps.svl 2023.06)
