@<TRIPOS>MOLECULE
NONAME
47 49 1 0 0 
SMALL
USER_CHARGES


@<TRIPOS>ATOM
  1 CL       0.7650     3.2930    -1.8630 Cl    1 <1>  -0.1770 
  2 C        2.1350     3.0190    -0.8160 C.ar  1 <1>   0.1770 
  3 C        3.4140     3.1680    -1.3210 C.ar  1 <1>  -0.1500 
  4 C        1.9180     2.6580     0.5020 C.ar  1 <1>  -0.1500 
  5 C        4.5000     2.9490    -0.4910 C.ar  1 <1>  -0.1500 
  6 C        3.0060     2.4390     1.3310 C.ar  1 <1>  -0.1500 
  7 C        4.2960     2.5760     0.8360 C.ar  1 <1>   0.0830 
  8 O        5.3300     2.3540     1.6850 O.3   1 <1>  -0.1650 
  9 C        6.4830     1.7720     1.2620 C.ar  1 <1>   0.0830 
 10 C        6.4800     0.6930     0.3870 C.ar  1 <1>  -0.1500 
 11 C        7.6850     2.2670     1.7380 C.ar  1 <1>  -0.1500 
 12 C        7.6780     0.1290    -0.0150 C.ar  1 <1>  -0.1500 
 13 C        8.8790     1.6980     1.3310 C.ar  1 <1>  -0.1500 
 14 C        8.8940     0.6200     0.4500 C.ar  1 <1>   0.1170 
 15 N       10.0790     0.0150    -0.0030 N.am  1 <1>  -0.5470 
 16 C       11.3370    -0.0080     0.5350 C.2   1 <1>   0.5690 
 17 O       11.6220     0.5200     1.5820 O.2   1 <1>  -0.5700 
 18 C       12.4220    -0.7490    -0.2490 C.3   1 <1>  -0.0190 
 19 C       13.4660    -1.4180     0.6690 C.3   1 <1>  -0.1600 
 20 C       13.1250     0.1960    -1.2410 C.3   1 <1>  -0.1600 
 21 C       14.5580    -2.1250    -0.1380 C.3   1 <1>   0.1400 
 22 C       14.2240    -0.5230    -2.0290 C.3   1 <1>   0.1400 
 23 N       15.1830    -1.1580    -1.0820 N.am  1 <1>  -0.6600 
 24 C       16.5140    -0.8230    -1.1030 C.2   1 <1>   0.5690 
 25 O       16.9730    -0.0550    -1.9120 O.2   1 <1>  -0.5700 
 26 C       17.4740    -1.4140    -0.0970 C.3   1 <1>  -0.1790 
 27 H        3.5520     3.4540    -2.3480 H     1 <1>   0.1500 
 28 H        0.9130     2.5530     0.8700 H     1 <1>   0.1500 
 29 H        5.4990     3.0730    -0.8700 H     1 <1>   0.1500 
 30 H        2.8610     2.1600     2.3590 H     1 <1>   0.1500 
 31 H        5.5480     0.2950     0.0280 H     1 <1>   0.1500 
 32 H        7.6840     3.0960     2.4230 H     1 <1>   0.1500 
 33 H        7.6620    -0.7060    -0.6910 H     1 <1>   0.1500 
 34 H        9.8020     2.1020     1.7050 H     1 <1>   0.1500 
 35 H        9.9700    -0.5180    -0.8620 H     1 <1>   0.3700 
 36 H       11.9430    -1.5300    -0.8130 H     1 <1>   0.0800 
 37 H       12.9790    -2.1290     1.3120 H     1 <1>   0.0800 
 38 H       13.9300    -0.6760     1.2970 H     1 <1>   0.0800 
 39 H       13.5680     1.0190    -0.7040 H     1 <1>   0.0800 
 40 H       12.4090     0.6060    -1.9300 H     1 <1>   0.0800 
 41 H       14.1290    -2.9350    -0.7030 H     1 <1>   0.0800 
 42 H       15.2840    -2.5430     0.5350 H     1 <1>   0.0800 
 43 H       14.7280     0.1860    -2.6650 H     1 <1>   0.0800 
 44 H       13.7960    -1.2840    -2.6570 H     1 <1>   0.0800 
 45 H       17.5170    -2.4800    -0.2150 H     1 <1>   0.0800 
 46 H       17.1580    -1.1650     0.8980 H     1 <1>   0.0800 
 47 H       18.4570    -1.0100    -0.2550 H     1 <1>   0.0800 
@<TRIPOS>BOND
  1   1   2  1   
  2   2   3  ar  
  3   2   4  ar  
  4   3   5  ar  
  5   3  27  1   
  6   4   6  ar  
  7   4  28  1   
  8   5   7  ar  
  9   5  29  1   
 10   6   7  ar  
 11   6  30  1   
 12   7   8  1   
 13   8   9  1   
 14   9  10  ar  
 15   9  11  ar  
 16  10  12  ar  
 17  10  31  1   
 18  11  13  ar  
 19  11  32  1   
 20  12  14  ar  
 21  12  33  1   
 22  13  14  ar  
 23  13  34  1   
 24  14  15  1   
 25  15  16  am  
 26  15  35  1   
 27  16  17  2   
 28  16  18  1   
 29  18  19  1   
 30  18  20  1   
 31  18  36  1   
 32  19  21  1   
 33  19  37  1   
 34  19  38  1   
 35  20  22  1   
 36  20  39  1   
 37  20  40  1   
 38  21  23  1   
 39  21  41  1   
 40  21  42  1   
 41  22  23  1   
 42  22  43  1   
 43  22  44  1   
 44  23  24  am  
 45  24  25  2   
 46  24  26  1   
 47  26  45  1   
 48  26  46  1   
 49  26  47  1   
@<TRIPOS>SUBSTRUCTURE
  1 ****  14 GROUP 4 **** **** 0

# MOE 2024.06 (io_trps.svl 2023.06)
