@<TRIPOS>MOLECULE
NONAME
41 43 1 0 0 
SMALL
USER_CHARGES


@<TRIPOS>ATOM
  1 S       -0.6290    -1.0990    -0.7450 S.3   1 <1>  -0.0800 
  2 C       -2.1460    -1.2040     0.0950 C.2   1 <1>   0.4420 
  3 C        0.0990    -1.8580     0.6300 C.2   1 <1>   0.1980 
  4 N       -2.0230    -1.7470     1.2510 N.2   1 <1>  -0.3380 
  5 N       -3.3230    -0.7480    -0.4560 N.am  1 <1>  -0.4940 
  6 N       -0.7400    -2.1150     1.5510 N.2   1 <1>  -0.3380 
  7 C        1.5970    -2.1100     0.5970 C.3   1 <1>   0.1580 
  8 C       -3.6080    -0.1300    -1.6410 C.2   1 <1>   0.5690 
  9 C        2.0300    -3.2460    -0.3350 C.2   1 <1>  -0.2760 
 10 O       -2.7760     0.1530    -2.4640 O.2   1 <1>  -0.5700 
 11 C       -5.0560     0.2270    -1.9400 C.3   1 <1>   0.0450 
 12 C        1.1960    -4.0970    -0.9450 C.2   1 <1>  -0.2880 
 13 C        3.5440    -3.3270    -0.5120 C.3   1 <1>  -0.0220 
 14 C       -6.0090    -0.1770    -0.8190 C.ar  1 <1>  -0.1440 
 15 C        1.6300    -5.2030    -1.8930 C.3   1 <1>  -0.0220 
 16 C        3.9820    -4.6560    -1.1460 C.3   1 <1>  -0.1600 
 17 C       -6.2810     0.7030     0.2180 C.ar  1 <1>  -0.1500 
 18 C       -6.5880    -1.4360    -0.8150 C.ar  1 <1>  -0.1500 
 19 C        3.0870    -5.0190    -2.3380 C.3   1 <1>  -0.1600 
 20 C       -7.1210     0.3250     1.2500 C.ar  1 <1>  -0.1500 
 21 C       -7.4280    -1.8140     0.2180 C.ar  1 <1>  -0.1500 
 22 C       -7.6940    -0.9340     1.2520 C.ar  1 <1>  -0.1500 
 23 H       -4.1340    -0.9070     0.1440 H     1 <1>   0.3700 
 24 H        1.9240    -2.3360     1.5950 H     1 <1>   0.0800 
 25 H        2.0770    -1.1980     0.2920 H     1 <1>   0.0800 
 26 H       -5.3420    -0.2580    -2.8550 H     1 <1>   0.0800 
 27 H       -5.1160     1.2870    -2.1060 H     1 <1>   0.0800 
 28 H        0.1260    -4.0780    -0.8150 H     1 <1>   0.1500 
 29 H        4.0340    -3.2290     0.4420 H     1 <1>   0.0800 
 30 H        3.8640    -2.5110    -1.1360 H     1 <1>   0.0800 
 31 H        0.9950    -5.2040    -2.7620 H     1 <1>   0.0800 
 32 H        1.5170    -6.1500    -1.3940 H     1 <1>   0.0800 
 33 H        3.9140    -5.4360    -0.4080 H     1 <1>   0.0800 
 34 H        5.0070    -4.5840    -1.4630 H     1 <1>   0.0800 
 35 H       -5.8430     1.6870     0.2310 H     1 <1>   0.1500 
 36 H       -6.3900    -2.1320    -1.6130 H     1 <1>   0.1500 
 37 H        3.1350    -4.2290    -3.0670 H     1 <1>   0.0800 
 38 H        3.4390    -5.9240    -2.8020 H     1 <1>   0.0800 
 39 H       -7.3300     1.0100     2.0540 H     1 <1>   0.1500 
 40 H       -7.8760    -2.7930     0.2180 H     1 <1>   0.1500 
 41 H       -8.3470    -1.2280     2.0550 H     1 <1>   0.1500 
@<TRIPOS>BOND
  1   1   2  1   
  2   1   3  1   
  3   2   4  2   
  4   2   5  1   
  5   3   6  2   
  6   3   7  1   
  7   4   6  1   
  8   5   8  am  
  9   5  23  1   
 10   7   9  1   
 11   7  24  1   
 12   7  25  1   
 13   8  10  2   
 14   8  11  1   
 15   9  12  2   
 16   9  13  1   
 17  11  14  1   
 18  11  26  1   
 19  11  27  1   
 20  12  15  1   
 21  12  28  1   
 22  13  16  1   
 23  13  29  1   
 24  13  30  1   
 25  14  17  ar  
 26  14  18  ar  
 27  15  19  1   
 28  15  31  1   
 29  15  32  1   
 30  16  19  1   
 31  16  33  1   
 32  16  34  1   
 33  17  20  ar  
 34  17  35  1   
 35  18  21  ar  
 36  18  36  1   
 37  19  37  1   
 38  19  38  1   
 39  20  22  ar  
 40  20  39  1   
 41  21  22  ar  
 42  21  40  1   
 43  22  41  1   
@<TRIPOS>SUBSTRUCTURE
  1 ****   2 GROUP 4 **** **** 0

# MOE 2024.06 (io_trps.svl 2023.06)
