@<TRIPOS>MOLECULE
NONAME
53 58 1 0 0 
SMALL
USER_CHARGES


@<TRIPOS>ATOM
  1 S       -0.6960    -0.8070     0.5740 S.3   1 <1>  -0.0800 
  2 C       -1.8700     0.4700     0.2440 C.ar  1 <1>   0.2970 
  3 C        0.6700     0.3000     0.3270 C.ar  1 <1>   0.0400 
  4 N       -3.1550     0.2010     0.2880 N.ar  1 <1>  -0.5670 
  5 C       -1.2320     1.6700    -0.0420 C.ar  1 <1>   0.0000 
  6 C        2.0310     0.0410     0.4250 C.ar  1 <1>   0.4100 
  7 C        0.2110     1.5590     0.0280 C.ar  1 <1>   0.2560 
  8 C       -3.9250     1.2460     0.0250 C.ar  1 <1>   0.4100 
  9 C       -2.0640     2.7550    -0.3320 C.ar  1 <1>  -0.1430 
 10 N        2.8810     1.0390     0.2480 N.ar  1 <1>  -0.6200 
 11 N        2.5640    -1.2080     0.7080 N.pl3 1 <1>  -0.8380 
 12 N        1.0810     2.5510    -0.1570 N.ar  1 <1>  -0.5660 
 13 N       -5.2830     0.9980     0.0360 N.pl3 1 <1>  -0.8380 
 14 C       -3.4300     2.5300    -0.2750 C.ar  1 <1>  -0.1430 
 15 C       -1.4770     4.1230    -0.6810 C.3   1 <1>  -0.0170 
 16 C        2.3520     2.2210    -0.0300 C.ar  1 <1>   0.4700 
 17 C        3.9970    -1.3830     1.0560 C.3   1 <1>   0.2090 
 18 C        2.0320    -2.4480     0.0960 C.3   1 <1>   0.2090 
 19 C       -5.8710     0.3240     1.2350 C.3   1 <1>   0.2090 
 20 C       -5.8940     0.5330    -1.2430 C.3   1 <1>   0.2090 
 21 C       -4.4280     3.6610    -0.5380 C.3   1 <1>  -0.0170 
 22 C       -2.5060     5.0990    -1.2590 C.3   1 <1>  -0.1600 
 23 C        4.2490    -2.8800     0.9350 C.3   1 <1>  -0.1600 
 24 C        3.2470    -3.3430    -0.1160 C.3   1 <1>  -0.1600 
 25 C       -6.0040    -1.1990     1.0330 C.3   1 <1>   0.1200 
 26 C       -6.0000    -1.0020    -1.2920 C.3   1 <1>   0.1200 
 27 C       -3.7990     5.0540    -0.4460 C.3   1 <1>  -0.1600 
 28 O       -6.6690    -1.4940    -0.1650 O.3   1 <1>  -0.5600 
 29 H       -0.6880     4.0080    -1.4020 H     1 <1>   0.0800 
 30 H       -1.0500     4.5450     0.2130 H     1 <1>   0.0800 
 31 H        3.0600     3.0210    -0.1730 H     1 <1>   0.1500 
 32 H        4.1940    -1.0230     2.0520 H     1 <1>   0.0800 
 33 H        4.6100    -0.8490     0.3500 H     1 <1>   0.0800 
 34 H        1.5310    -2.2430    -0.8350 H     1 <1>   0.0800 
 35 H        1.3470    -2.9130     0.7850 H     1 <1>   0.0800 
 36 H       -6.8430     0.7400     1.4300 H     1 <1>   0.0800 
 37 H       -5.2520     0.5140     2.0950 H     1 <1>   0.0800 
 38 H       -5.2980     0.8740    -2.0710 H     1 <1>   0.0800 
 39 H       -6.8760     0.9600    -1.3410 H     1 <1>   0.0800 
 40 H       -5.2360     3.6070     0.1710 H     1 <1>   0.0800 
 41 H       -4.8450     3.5220    -1.5190 H     1 <1>   0.0800 
 42 H       -2.7170     4.8300    -2.2800 H     1 <1>   0.0800 
 43 H       -2.0990     6.0950    -1.2540 H     1 <1>   0.0800 
 44 H        4.0330    -3.3460     1.8800 H     1 <1>   0.0800 
 45 H        5.2660    -3.0920     0.6590 H     1 <1>   0.0800 
 46 H        3.6420    -3.1650    -1.1010 H     1 <1>   0.0800 
 47 H        2.9990    -4.3840    -0.0180 H     1 <1>   0.0800 
 48 H       -6.5690    -1.6310     1.8390 H     1 <1>   0.0800 
 49 H       -5.0310    -1.6580     1.0090 H     1 <1>   0.0800 
 50 H       -5.0180    -1.4420    -1.3300 H     1 <1>   0.0800 
 51 H       -6.5510    -1.3090    -2.1620 H     1 <1>   0.0800 
 52 H       -3.5840     5.2820     0.5840 H     1 <1>   0.0800 
 53 H       -4.4940     5.7890    -0.8150 H     1 <1>   0.0800 
@<TRIPOS>BOND
  1   1   2  1   
  2   1   3  1   
  3   2   4  ar  
  4   2   5  ar  
  5   3   6  ar  
  6   3   7  ar  
  7   4   8  ar  
  8   5   7  1   
  9   5   9  ar  
 10   6  10  ar  
 11   6  11  1   
 12   7  12  ar  
 13   8  13  1   
 14   8  14  ar  
 15   9  14  ar  
 16   9  15  1   
 17  10  16  ar  
 18  11  17  1   
 19  11  18  1   
 20  12  16  ar  
 21  13  19  1   
 22  13  20  1   
 23  14  21  1   
 24  15  22  1   
 25  15  29  1   
 26  15  30  1   
 27  16  31  1   
 28  17  23  1   
 29  17  32  1   
 30  17  33  1   
 31  18  24  1   
 32  18  34  1   
 33  18  35  1   
 34  19  25  1   
 35  19  36  1   
 36  19  37  1   
 37  20  26  1   
 38  20  38  1   
 39  20  39  1   
 40  21  27  1   
 41  21  40  1   
 42  21  41  1   
 43  22  27  1   
 44  22  42  1   
 45  22  43  1   
 46  23  24  1   
 47  23  44  1   
 48  23  45  1   
 49  24  46  1   
 50  24  47  1   
 51  25  28  1   
 52  25  48  1   
 53  25  49  1   
 54  26  28  1   
 55  26  50  1   
 56  26  51  1   
 57  27  52  1   
 58  27  53  1   
@<TRIPOS>SUBSTRUCTURE
  1 ****   2 GROUP 4 **** **** 0

# MOE 2024.06 (io_trps.svl 2023.06)
