@<TRIPOS>MOLECULE
NONAME
41 42 1 0 0 
SMALL
USER_CHARGES


@<TRIPOS>ATOM
  1 S       -0.0110     0.5480    -1.3160 S.o2  1 <1>   1.4470 
  2 O        0.7980    -0.0130    -2.3790 O.2   1 <1>  -0.6500 
  3 O       -0.5810     1.8600    -1.5620 O.2   1 <1>  -0.6500 
  4 N        0.9780     0.7380     0.0470 N.am  1 <1>  -0.8490 
  5 C       -1.3730    -0.5570    -0.8390 C.ar  1 <1>  -0.0090 
  6 C        1.9050    -0.3980     0.3110 C.3   1 <1>   0.1700 
  7 C        1.8300     1.9060    -0.0340 C.3   1 <1>   0.1960 
  8 C       -1.3530    -1.9140    -1.1230 C.ar  1 <1>  -0.1500 
  9 C       -2.4850    -0.0670    -0.1690 C.ar  1 <1>  -0.1500 
 10 C        1.3390    -1.7760     0.7560 C.2   1 <1>   0.9060 
 11 C        2.8970     0.1950     1.3150 C.3   1 <1>  -0.1600 
 12 C        2.9010     1.6970     1.0310 C.3   1 <1>  -0.1600 
 13 C       -2.3990    -2.7460    -0.7640 C.ar  1 <1>  -0.1500 
 14 C       -3.5370    -0.8920     0.1880 C.ar  1 <1>  -0.1500 
 15 O        0.8320    -1.9190     1.8770 O.co2 1 <1>  -0.9000 
 16 O        1.4510    -2.7320    -0.0250 O.co2 1 <1>  -0.9000 
 17 C       -3.5190    -2.2510    -0.1030 C.ar  1 <1>  -0.1440 
 18 C       -4.7050    -3.1410     0.3270 C.3   1 <1>   0.1430 
 19 C       -4.5320    -4.6140    -0.0790 C.3   1 <1>  -0.2400 
 20 C       -5.9980    -2.6280    -0.3250 C.3   1 <1>  -0.2400 
 21 C       -4.8470    -3.0940     1.8550 C.3   1 <1>  -0.2400 
 22 H        2.4520    -0.5940    -0.5940 H     1 <1>   0.0800 
 23 H        1.2610     2.8050     0.1360 H     1 <1>   0.0800 
 24 H        2.2890     1.9520    -1.0090 H     1 <1>   0.0800 
 25 H       -0.4930    -2.3350    -1.6190 H     1 <1>   0.1500 
 26 H       -2.5230     0.9800     0.0790 H     1 <1>   0.1500 
 27 H        3.8670    -0.2540     1.2010 H     1 <1>   0.0800 
 28 H        2.5430     0.0090     2.3150 H     1 <1>   0.0800 
 29 H        2.6400     2.2410     1.9210 H     1 <1>   0.0800 
 30 H        3.8570     2.0350     0.6760 H     1 <1>   0.0800 
 31 H       -2.2960    -3.7860    -1.0070 H     1 <1>   0.1500 
 32 H       -4.3710    -0.4580     0.7070 H     1 <1>   0.1500 
 33 H       -4.4400    -4.7020    -1.1470 H     1 <1>   0.0800 
 34 H       -5.3790    -5.1970     0.2350 H     1 <1>   0.0800 
 35 H       -3.6530    -5.0280     0.3820 H     1 <1>   0.0800 
 36 H       -5.8910    -2.6220    -1.3950 H     1 <1>   0.0800 
 37 H       -6.2230    -1.6280    -0.0030 H     1 <1>   0.0800 
 38 H       -6.8300    -3.2580    -0.0650 H     1 <1>   0.0800 
 39 H       -3.9270    -3.4120     2.3150 H     1 <1>   0.0800 
 40 H       -5.6390    -3.7400     2.1860 H     1 <1>   0.0800 
 41 H       -5.0610    -2.0970     2.1940 H     1 <1>   0.0800 
@<TRIPOS>BOND
  1   1   2  2   
  2   1   3  2   
  3   1   4  am  
  4   1   5  1   
  5   4   6  1   
  6   4   7  1   
  7   5   8  ar  
  8   5   9  ar  
  9   6  10  1   
 10   6  11  1   
 11   6  22  1   
 12   7  12  1   
 13   7  23  1   
 14   7  24  1   
 15   8  13  ar  
 16   8  25  1   
 17   9  14  ar  
 18   9  26  1   
 19  10  15  ar  
 20  10  16  ar  
 21  11  12  1   
 22  11  27  1   
 23  11  28  1   
 24  12  29  1   
 25  12  30  1   
 26  13  17  ar  
 27  13  31  1   
 28  14  17  ar  
 29  14  32  1   
 30  17  18  1   
 31  18  19  1   
 32  18  20  1   
 33  18  21  1   
 34  19  33  1   
 35  19  34  1   
 36  19  35  1   
 37  20  36  1   
 38  20  37  1   
 39  20  38  1   
 40  21  39  1   
 41  21  40  1   
 42  21  41  1   
@<TRIPOS>SUBSTRUCTURE
  1 ****   5 GROUP 4 **** **** 0

# MOE 2024.06 (io_trps.svl 2023.06)
