@<TRIPOS>MOLECULE
NONAME
49 51 1 0 0 
SMALL
USER_CHARGES


@<TRIPOS>ATOM
  1 O        0.1520     1.6300     1.6730 O.2   1 <1>  -0.5700 
  2 C       -0.0560     2.0200     0.5430 C.2   1 <1>   0.5440 
  3 N        0.9160     1.9010    -0.4200 N.am  1 <1>  -0.5470 
  4 C       -1.3270     2.6370     0.2120 C.ar  1 <1>   0.0860 
  5 C        2.1940     1.3300    -0.3090 C.ar  1 <1>   0.1170 
  6 C       -2.0090     3.4070     1.1530 C.ar  1 <1>  -0.1500 
  7 C       -1.9230     2.4850    -1.0400 C.ar  1 <1>  -0.1500 
  8 C        3.3180     2.1470    -0.4630 C.ar  1 <1>  -0.1440 
  9 C        2.3680    -0.0390    -0.0820 C.ar  1 <1>  -0.1430 
 10 C       -3.2250     3.9980     0.8650 C.ar  1 <1>  -0.1500 
 11 C       -3.1410     3.0710    -1.3370 C.ar  1 <1>  -0.1500 
 12 C        4.5870     1.5980    -0.3890 C.ar  1 <1>  -0.1500 
 13 C        3.1800     3.6460    -0.6990 C.3   1 <1>  -0.0970 
 14 C        3.6460    -0.5670    -0.0070 C.ar  1 <1>  -0.1500 
 15 C        1.1840    -0.9850     0.0840 C.3   1 <1>  -0.0970 
 16 C       -3.8060     3.8270    -0.3820 C.ar  1 <1>  -0.1430 
 17 C        4.7530     0.2450    -0.1610 C.ar  1 <1>  -0.1500 
 18 C       -5.1570     4.4460    -0.6920 C.3   1 <1>   0.4860 
 19 N       -6.2050     3.6910     0.0470 N.4   1 <1>  -0.9590 
 20 C       -6.2680     2.2490    -0.3840 C.3   1 <1>   0.3430 
 21 C       -7.5550     4.3430    -0.0690 C.3   1 <1>   0.3430 
 22 C       -7.4250     1.5030     0.3080 C.3   1 <1>   0.1200 
 23 C       -8.6500     3.4950     0.6070 C.3   1 <1>   0.1200 
 24 O       -8.6270     2.1890     0.1100 O.3   1 <1>  -0.5600 
 25 H        0.7950     2.4820    -1.2440 H     1 <1>   0.3700 
 26 H       -1.5660     3.5370     2.1280 H     1 <1>   0.1500 
 27 H       -1.4300     1.8900    -1.7900 H     1 <1>   0.1500 
 28 H       -3.7030     4.5900     1.6280 H     1 <1>   0.1500 
 29 H       -3.5610     2.9270    -2.3190 H     1 <1>   0.1500 
 30 H        5.4570     2.2190    -0.5040 H     1 <1>   0.1500 
 31 H        2.5750     4.0840     0.0760 H     1 <1>   0.0800 
 32 H        2.7210     3.8300    -1.6530 H     1 <1>   0.0800 
 33 H        4.1400     4.1290    -0.6840 H     1 <1>   0.0800 
 34 H        3.7880    -1.6180     0.1740 H     1 <1>   0.1500 
 35 H        0.4270    -0.7710    -0.6470 H     1 <1>   0.0800 
 36 H        0.7650    -0.8690     1.0670 H     1 <1>   0.0800 
 37 H        1.4890    -2.0080    -0.0380 H     1 <1>   0.0800 
 38 H        5.7420    -0.1750    -0.1010 H     1 <1>   0.1500 
 39 H       -5.3470     4.4080    -1.7530 H     1 <1>   0.0800 
 40 H       -5.1540     5.4790    -0.3830 H     1 <1>   0.0800 
 41 H       -5.9300     3.6890     1.0370 H     1 <1>   0.4500 
 42 H       -5.3390     1.7530    -0.1550 H     1 <1>   0.0800 
 43 H       -6.4190     2.1920    -1.4500 H     1 <1>   0.0800 
 44 H       -7.8160     4.4600    -1.1080 H     1 <1>   0.0800 
 45 H       -7.5350     5.3220     0.3800 H     1 <1>   0.0800 
 46 H       -7.2490     1.4040     1.3650 H     1 <1>   0.0800 
 47 H       -7.5360     0.5190    -0.1140 H     1 <1>   0.0800 
 48 H       -9.6220     3.9070     0.3950 H     1 <1>   0.0800 
 49 H       -8.5180     3.4630     1.6750 H     1 <1>   0.0800 
@<TRIPOS>BOND
  1   1   2  2   
  2   2   3  am  
  3   2   4  1   
  4   3   5  1   
  5   3  25  1   
  6   4   6  ar  
  7   4   7  ar  
  8   5   8  ar  
  9   5   9  ar  
 10   6  10  ar  
 11   6  26  1   
 12   7  11  ar  
 13   7  27  1   
 14   8  12  ar  
 15   8  13  1   
 16   9  14  ar  
 17   9  15  1   
 18  10  16  ar  
 19  10  28  1   
 20  11  16  ar  
 21  11  29  1   
 22  12  17  ar  
 23  12  30  1   
 24  13  31  1   
 25  13  32  1   
 26  13  33  1   
 27  14  17  ar  
 28  14  34  1   
 29  15  35  1   
 30  15  36  1   
 31  15  37  1   
 32  16  18  1   
 33  17  38  1   
 34  18  19  1   
 35  18  39  1   
 36  18  40  1   
 37  19  20  1   
 38  19  21  1   
 39  19  41  1   
 40  20  22  1   
 41  20  42  1   
 42  20  43  1   
 43  21  23  1   
 44  21  44  1   
 45  21  45  1   
 46  22  24  1   
 47  22  46  1   
 48  22  47  1   
 49  23  24  1   
 50  23  48  1   
 51  23  49  1   
@<TRIPOS>SUBSTRUCTURE
  1 ****   4 GROUP 4 **** **** 0

# MOE 2024.06 (io_trps.svl 2023.06)
