@<TRIPOS>MOLECULE
NONAME
54 57 1 0 0 
SMALL
USER_CHARGES


@<TRIPOS>ATOM
  1 O       -0.3480     0.5940     0.2720 O.2   1 <1>  -0.5740 
  2 C       -1.4540     1.0500     0.0660 C.2   1 <1>   0.6870 
  3 N       -2.4820     0.2170    -0.3650 N.am  1 <1>  -0.4250 
  4 N       -1.6900     2.4040     0.2600 N.am  1 <1>  -0.4410 
  5 C       -3.7580     0.7120    -0.6000 C.2   1 <1>   0.7000 
  6 C       -2.1970    -1.2410    -0.5460 C.3   1 <1>   0.0530 
  7 C       -2.9520     2.8890    -0.0210 C.2   1 <1>   0.4210 
  8 C       -0.5980     3.3070     0.7350 C.3   1 <1>   0.0530 
  9 O       -4.6680    -0.0350    -0.9180 O.2   1 <1>  -0.5740 
 10 C       -3.9760     2.1210    -0.4440 C.2   1 <1>   0.2710 
 11 N       -3.3860     4.1740     0.0710 N.pl3 1 <1>  -0.7030 
 12 N       -5.0770     2.9860    -0.6210 N.pl3 1 <1>  -0.7670 
 13 C       -4.6650     4.2240    -0.3050 C.cat 1 <1>   1.0690 
 14 C       -6.4520     2.4600    -0.8880 C.3   1 <1>   0.3480 
 15 N       -5.3640     5.3780    -0.3330 N.pl3 1 <1>  -0.5960 
 16 C       -7.0980     1.9230     0.3960 C.3   1 <1>   0.1030 
 17 C       -6.4420     5.6890    -1.3290 C.3   1 <1>   0.1610 
 18 C       -5.0960     6.5230     0.5990 C.3   1 <1>   0.1610 
 19 N       -8.5380     1.7320     0.1950 N.3   1 <1>  -0.8130 
 20 C       -6.2410     7.0760    -1.9640 C.3   1 <1>   0.1130 
 21 C       -4.9420     7.8450    -0.1670 C.3   1 <1>   0.1130 
 22 C       -8.8560     0.5790    -0.6890 C.3   1 <1>   0.1030 
 23 C       -9.2800     1.6250     1.4640 C.3   1 <1>   0.1030 
 24 O       -6.0560     8.0450    -0.9790 O.3   1 <1>  -0.5640 
 25 C      -10.2460    -0.0480    -0.4280 C.3   1 <1>   0.1130 
 26 C      -10.8060     1.5410     1.2210 C.3   1 <1>   0.1130 
 27 O      -11.1530     0.9160     0.0120 O.3   1 <1>  -0.5640 
 28 H       -1.2330    -1.3760    -1.0060 H     1 <1>   0.0730 
 29 H       -2.9360    -1.7080    -1.1750 H     1 <1>   0.0730 
 30 H       -2.1940    -1.7300     0.4130 H     1 <1>   0.0730 
 31 H        0.1560     2.7450     1.2600 H     1 <1>   0.0730 
 32 H       -0.9880     4.0470     1.4100 H     1 <1>   0.0730 
 33 H       -0.1380     3.7920    -0.1080 H     1 <1>   0.0730 
 34 H       -2.8250     4.9830     0.3140 H     1 <1>   0.4450 
 35 H       -6.4040     1.6760    -1.6240 H     1 <1>   0.0730 
 36 H       -7.0900     3.2270    -1.2760 H     1 <1>   0.0730 
 37 H       -6.9570     2.6480     1.1780 H     1 <1>   0.0730 
 38 H       -6.6410     0.9940     0.6950 H     1 <1>   0.0730 
 39 H       -7.4030     5.6590    -0.8420 H     1 <1>   0.0730 
 40 H       -6.4390     4.9690    -2.1270 H     1 <1>   0.0730 
 41 H       -4.2160     6.3490     1.1930 H     1 <1>   0.0730 
 42 H       -5.9280     6.6210     1.2770 H     1 <1>   0.0730 
 43 H       -7.1100     7.3530    -2.5350 H     1 <1>   0.0730 
 44 H       -5.3860     7.0830    -2.6190 H     1 <1>   0.0730 
 45 H       -4.0590     7.8470    -0.7810 H     1 <1>   0.0730 
 46 H       -4.8890     8.6720     0.5200 H     1 <1>   0.0730 
 47 H       -8.1180    -0.1970    -0.5760 H     1 <1>   0.0730 
 48 H       -8.8230     0.9110    -1.7120 H     1 <1>   0.0730 
 49 H       -9.0760     2.4780     2.0870 H     1 <1>   0.0730 
 50 H       -8.9600     0.7440     1.9950 H     1 <1>   0.0730 
 51 H      -10.1800    -0.8150     0.3230 H     1 <1>   0.0730 
 52 H      -10.6340    -0.4860    -1.3300 H     1 <1>   0.0730 
 53 H      -11.2220     2.5320     1.1910 H     1 <1>   0.0730 
 54 H      -11.2780     1.0020     2.0230 H     1 <1>   0.0730 
@<TRIPOS>BOND
  1   1   2  2   
  2   2   3  am  
  3   2   4  am  
  4   3   5  am  
  5   3   6  1   
  6   4   7  1   
  7   4   8  1   
  8   5   9  2   
  9   5  10  1   
 10   6  28  1   
 11   6  29  1   
 12   6  30  1   
 13   7  10  2   
 14   7  11  1   
 15   8  31  1   
 16   8  32  1   
 17   8  33  1   
 18  10  12  1   
 19  11  13  ar  
 20  11  34  1   
 21  12  13  ar  
 22  12  14  1   
 23  13  15  ar  
 24  14  16  1   
 25  14  35  1   
 26  14  36  1   
 27  15  17  1   
 28  15  18  1   
 29  16  19  1   
 30  16  37  1   
 31  16  38  1   
 32  17  20  1   
 33  17  39  1   
 34  17  40  1   
 35  18  21  1   
 36  18  41  1   
 37  18  42  1   
 38  19  22  1   
 39  19  23  1   
 40  20  24  1   
 41  20  43  1   
 42  20  44  1   
 43  21  24  1   
 44  21  45  1   
 45  21  46  1   
 46  22  25  1   
 47  22  47  1   
 48  22  48  1   
 49  23  26  1   
 50  23  49  1   
 51  23  50  1   
 52  25  27  1   
 53  25  51  1   
 54  25  52  1   
 55  26  27  1   
 56  26  53  1   
 57  26  54  1   
@<TRIPOS>SUBSTRUCTURE
  1 ****  12 GROUP 4 **** **** 0

# MOE 2024.06 (io_trps.svl 2023.06)
