@<TRIPOS>MOLECULE
NONAME
38 38 1 0 0 
SMALL
USER_CHARGES


@<TRIPOS>ATOM
  1 CL       0.8500    -0.9440     0.5750 Cl    1 <1>  -0.1770 
  2 C        2.1160     0.2450     0.4170 C.ar  1 <1>   0.1770 
  3 C        2.7300     0.7350     1.5540 C.ar  1 <1>  -0.1500 
  4 C        2.4890     0.6750    -0.8420 C.ar  1 <1>  -0.1500 
  5 C        3.7430     1.6710     1.4250 C.ar  1 <1>  -0.1500 
  6 C        3.5030     1.6110    -0.9650 C.ar  1 <1>  -0.1500 
  7 C        4.1360     2.1090     0.1670 C.ar  1 <1>  -0.1430 
  8 C        5.2650     3.1140     0.0340 C.3   1 <1>   0.2640 
  9 O        6.4430     2.3840     0.1830 O.3   1 <1>  -0.5600 
 10 C        7.6230     3.0560    -0.1310 C.3   1 <1>   0.1200 
 11 C        8.8120     2.1070     0.1200 C.3   1 <1>   0.2000 
 12 O        9.9580     2.6620    -0.4300 O.3   1 <1>  -0.6800 
 13 C        8.6300     0.6810    -0.4530 C.3   1 <1>   0.3430 
 14 N        7.5330    -0.0680     0.2350 N.4   1 <1>  -0.9060 
 15 C        7.0520    -1.2590    -0.4660 C.3   1 <1>   0.4230 
 16 C        5.7410    -1.6710     0.1880 C.3   1 <1>  -0.2400 
 17 C        8.0960    -2.3650    -0.3490 C.3   1 <1>  -0.2400 
 18 H        2.4150     0.3890     2.5220 H     1 <1>   0.1500 
 19 H        1.9880     0.2830    -1.7090 H     1 <1>   0.1500 
 20 H        4.2240     2.0560     2.3090 H     1 <1>   0.1500 
 21 H        3.7920     1.9470    -1.9470 H     1 <1>   0.1500 
 22 H        5.2150     3.8640     0.8060 H     1 <1>   0.0800 
 23 H        5.2520     3.5830    -0.9360 H     1 <1>   0.0800 
 24 H        7.7030     3.9290     0.4950 H     1 <1>   0.0800 
 25 H        7.5770     3.3450    -1.1680 H     1 <1>   0.0800 
 26 H        8.9930     2.0380     1.1790 H     1 <1>   0.0800 
 27 H        9.8170     3.0320    -1.3260 H     1 <1>   0.4000 
 28 H        9.5560     0.1400    -0.3440 H     1 <1>   0.0800 
 29 H        8.4000     0.7630    -1.5020 H     1 <1>   0.0800 
 30 H        6.7410     0.6020     0.3170 H     1 <1>   0.4500 
 31 H        7.7950    -0.3130     1.1930 H     1 <1>   0.4500 
 32 H        6.8730    -1.0300    -1.5060 H     1 <1>   0.0800 
 33 H        5.8780    -1.9100     1.2280 H     1 <1>   0.0800 
 34 H        5.3490    -2.5430    -0.3050 H     1 <1>   0.0800 
 35 H        5.0100    -0.8890     0.0940 H     1 <1>   0.0800 
 36 H        8.2990    -2.6020     0.6810 H     1 <1>   0.0800 
 37 H        9.0100    -2.0900    -0.8420 H     1 <1>   0.0800 
 38 H        7.7280    -3.2570    -0.8270 H     1 <1>   0.0800 
@<TRIPOS>BOND
  1   1   2  1   
  2   2   3  ar  
  3   2   4  ar  
  4   3   5  ar  
  5   3  18  1   
  6   4   6  ar  
  7   4  19  1   
  8   5   7  ar  
  9   5  20  1   
 10   6   7  ar  
 11   6  21  1   
 12   7   8  1   
 13   8   9  1   
 14   8  22  1   
 15   8  23  1   
 16   9  10  1   
 17  10  11  1   
 18  10  24  1   
 19  10  25  1   
 20  11  12  1   
 21  11  13  1   
 22  11  26  1   
 23  12  27  1   
 24  13  14  1   
 25  13  28  1   
 26  13  29  1   
 27  14  15  1   
 28  14  30  1   
 29  14  31  1   
 30  15  16  1   
 31  15  17  1   
 32  15  32  1   
 33  16  33  1   
 34  16  34  1   
 35  16  35  1   
 36  17  36  1   
 37  17  37  1   
 38  17  38  1   
@<TRIPOS>SUBSTRUCTURE
  1 ****   9 GROUP 4 **** **** 0

# MOE 2024.06 (io_trps.svl 2023.06)
