@<TRIPOS>MOLECULE
NONAME
38 39 1 0 0 
SMALL
USER_CHARGES


@<TRIPOS>ATOM
  1 O       -0.2350     1.1270     0.3860 O.2   1 <1>  -0.5700 
  2 C       -1.0840     1.6160    -0.3330 C.2   1 <1>   0.6340 
  3 O       -0.6980     2.4920    -1.2700 O.3   1 <1>  -0.4300 
  4 C       -2.4940     1.3000    -0.2330 C.ar  1 <1>   0.0860 
  5 C        0.6580     2.8560    -1.4340 C.3   1 <1>   0.0400 
  6 C       -2.9680     0.4290     0.7510 C.ar  1 <1>  -0.1500 
  7 C       -3.4420     1.8410    -1.1060 C.ar  1 <1>  -0.1500 
  8 C       -4.3070     0.1080     0.8640 C.ar  1 <1>   0.1000 
  9 C       -4.7860     1.5300    -1.0000 C.ar  1 <1>  -0.1500 
 10 N       -4.7340    -0.7850     1.8390 N.pl3 1 <1>  -0.9000 
 11 C       -5.2470     0.6630    -0.0200 C.ar  1 <1>   0.1000 
 12 N       -6.6100     0.3530     0.0930 N.pl3 1 <1>  -0.8380 
 13 C       -7.3780     0.9880     1.1970 C.3   1 <1>   0.2090 
 14 C       -7.3920    -0.1050    -1.0870 C.3   1 <1>   0.2090 
 15 C       -8.2660     2.1080     0.6500 C.3   1 <1>  -0.1600 
 16 C       -8.3240     1.0000    -1.6000 C.3   1 <1>  -0.1600 
 17 C       -9.1790     1.6060    -0.4770 C.3   1 <1>  -0.0800 
 18 C      -10.0500     2.7460    -1.0170 C.3   1 <1>  -0.2400 
 19 H        0.7260     3.5660    -2.2390 H     1 <1>   0.0800 
 20 H        1.2290     1.9740    -1.6680 H     1 <1>   0.0800 
 21 H        1.0130     3.2970    -0.5190 H     1 <1>   0.0800 
 22 H       -2.2720    -0.0040     1.4470 H     1 <1>   0.1500 
 23 H       -3.1260     2.5190    -1.8790 H     1 <1>   0.1500 
 24 H       -5.4880     1.9710    -1.6800 H     1 <1>   0.1500 
 25 H       -5.7240    -0.9850     1.6450 H     1 <1>   0.4000 
 26 H       -4.2040    -1.6580     1.8460 H     1 <1>   0.4000 
 27 H       -6.6970     1.3890     1.9290 H     1 <1>   0.0800 
 28 H       -7.9850     0.2400     1.6760 H     1 <1>   0.0800 
 29 H       -7.9750    -0.9620    -0.7980 H     1 <1>   0.0800 
 30 H       -6.7190    -0.4110    -1.8710 H     1 <1>   0.0800 
 31 H       -7.6330     2.9000     0.2890 H     1 <1>   0.0800 
 32 H       -8.8600     2.5030     1.4540 H     1 <1>   0.0800 
 33 H       -8.9630     0.5870    -2.3600 H     1 <1>   0.0800 
 34 H       -7.7320     1.7690    -2.0590 H     1 <1>   0.0800 
 35 H       -9.8250     0.8390    -0.0820 H     1 <1>   0.0800 
 36 H       -9.4370     3.5350    -1.4170 H     1 <1>   0.0800 
 37 H      -10.6610     3.1520    -0.2300 H     1 <1>   0.0800 
 38 H      -10.6970     2.3850    -1.7960 H     1 <1>   0.0800 
@<TRIPOS>BOND
  1   1   2  2   
  2   2   3  1   
  3   2   4  1   
  4   3   5  1   
  5   4   6  ar  
  6   4   7  ar  
  7   5  19  1   
  8   5  20  1   
  9   5  21  1   
 10   6   8  ar  
 11   6  22  1   
 12   7   9  ar  
 13   7  23  1   
 14   8  10  1   
 15   8  11  ar  
 16   9  11  ar  
 17   9  24  1   
 18  10  25  1   
 19  10  26  1   
 20  11  12  1   
 21  12  13  1   
 22  12  14  1   
 23  13  15  1   
 24  13  27  1   
 25  13  28  1   
 26  14  16  1   
 27  14  29  1   
 28  14  30  1   
 29  15  17  1   
 30  15  31  1   
 31  15  32  1   
 32  16  17  1   
 33  16  33  1   
 34  16  34  1   
 35  17  18  1   
 36  17  35  1   
 37  18  36  1   
 38  18  37  1   
 39  18  38  1   
@<TRIPOS>SUBSTRUCTURE
  1 ****  11 GROUP 4 **** **** 0

# MOE 2024.06 (io_trps.svl 2023.06)
