@<TRIPOS>MOLECULE
NONAME
37 39 1 0 0 
SMALL
USER_CHARGES


@<TRIPOS>ATOM
  1 O        0.4640     0.4930     0.4050 O.3   1 <1>  -0.2800 
  2 C        0.1340     1.6780    -0.0820 C.2   1 <1>  -0.0400 
  3 C       -0.2700     0.2800     1.4790 C.2   1 <1>  -0.0100 
  4 C       -0.8290     2.2420     0.6840 C.2   1 <1>  -0.1500 
  5 C        0.8330     2.1940    -1.3430 C.3   1 <1>   0.6600 
  6 C       -1.0920     1.3250     1.7090 C.2   1 <1>  -0.1500 
  7 O        2.2170     2.0800    -1.2320 O.3   1 <1>  -0.5600 
  8 O        0.6460     3.5650    -1.4960 O.3   1 <1>  -0.5600 
  9 C        2.6830     3.1690    -0.5250 C.3   1 <1>   0.2000 
 10 C        1.5730     4.2020    -0.6960 C.3   1 <1>   0.1200 
 11 C        4.0370     3.5630    -1.1390 C.3   1 <1>   0.3430 
 12 N        4.9360     4.3430    -0.2170 N.4   1 <1>  -0.9590 
 13 C        4.4230     5.7110     0.1010 C.3   1 <1>   0.3430 
 14 C        6.3110     4.4050    -0.7960 C.3   1 <1>   0.3430 
 15 C        5.3390     6.3830     1.1260 C.3   1 <1>  -0.1600 
 16 C        7.2690     5.0470     0.2100 C.3   1 <1>  -0.1600 
 17 C        6.7920     6.4400     0.6380 C.3   1 <1>  -0.1600 
 18 H       -0.1450    -0.6440     2.0180 H     1 <1>   0.1500 
 19 H       -1.3170     3.1920     0.5570 H     1 <1>   0.1500 
 20 H        0.4970     1.6750    -2.2240 H     1 <1>   0.0800 
 21 H       -1.8110     1.4550     2.4990 H     1 <1>   0.1500 
 22 H        2.7890     2.8670     0.5030 H     1 <1>   0.0800 
 23 H        1.1120     4.4430     0.2470 H     1 <1>   0.0800 
 24 H        1.8950     5.1000    -1.1930 H     1 <1>   0.0800 
 25 H        3.8630     4.1210    -2.0440 H     1 <1>   0.0800 
 26 H        4.5380     2.6470    -1.4080 H     1 <1>   0.0800 
 27 H        5.0200     3.8270     0.6700 H     1 <1>   0.4500 
 28 H        3.4270     5.6530     0.5080 H     1 <1>   0.0800 
 29 H        4.3910     6.3070    -0.7970 H     1 <1>   0.0800 
 30 H        6.3000     4.9870    -1.7030 H     1 <1>   0.0800 
 31 H        6.6580     3.4120    -1.0340 H     1 <1>   0.0800 
 32 H        5.2860     5.8490     2.0590 H     1 <1>   0.0800 
 33 H        4.9880     7.3830     1.3100 H     1 <1>   0.0800 
 34 H        8.2450     5.1280    -0.2380 H     1 <1>   0.0800 
 35 H        7.3650     4.4090     1.0710 H     1 <1>   0.0800 
 36 H        7.4280     6.8210     1.4210 H     1 <1>   0.0800 
 37 H        6.8650     7.1170    -0.1970 H     1 <1>   0.0800 
@<TRIPOS>BOND
  1   1   2  1   
  2   1   3  1   
  3   2   4  2   
  4   2   5  1   
  5   3   6  2   
  6   3  18  1   
  7   4   6  1   
  8   4  19  1   
  9   5   7  1   
 10   5   8  1   
 11   5  20  1   
 12   6  21  1   
 13   7   9  1   
 14   8  10  1   
 15   9  10  1   
 16   9  11  1   
 17   9  22  1   
 18  10  23  1   
 19  10  24  1   
 20  11  12  1   
 21  11  25  1   
 22  11  26  1   
 23  12  13  1   
 24  12  14  1   
 25  12  27  1   
 26  13  15  1   
 27  13  28  1   
 28  13  29  1   
 29  14  16  1   
 30  14  30  1   
 31  14  31  1   
 32  15  17  1   
 33  15  32  1   
 34  15  33  1   
 35  16  17  1   
 36  16  34  1   
 37  16  35  1   
 38  17  36  1   
 39  17  37  1   
@<TRIPOS>SUBSTRUCTURE
  1 ****   9 GROUP 4 **** **** 0

# MOE 2024.06 (io_trps.svl 2023.06)
