@<TRIPOS>MOLECULE
NONAME
35 36 1 0 0 
SMALL
USER_CHARGES


@<TRIPOS>ATOM
  1 CL      -2.0850    -1.1340     1.5810 Cl    1 <1>  -0.1770 
  2 C       -2.9250     0.2690     0.9740 C.ar  1 <1>   0.1770 
  3 C       -3.0890     1.3690     1.7960 C.ar  1 <1>  -0.1500 
  4 C       -3.4150     0.2610    -0.3180 C.ar  1 <1>  -0.1500 
  5 C       -3.7560     2.4820     1.3130 C.ar  1 <1>  -0.1500 
  6 C       -4.0820     1.3760    -0.7950 C.ar  1 <1>  -0.1500 
  7 C       -4.2540     2.4910     0.0160 C.ar  1 <1>  -0.1430 
  8 C       -4.9890     3.7070    -0.5190 C.3   1 <1>   0.2840 
  9 N       -6.4310     3.4190    -0.4890 N.am  1 <1>  -0.7300 
 10 C       -7.3370     3.8940    -1.3800 C.2   1 <1>   0.5690 
 11 O       -7.0160     4.6710    -2.2460 O.2   1 <1>  -0.5700 
 12 C       -8.7900     3.4550    -1.2900 C.3   1 <1>   0.1310 
 13 S       -8.9430     1.7760    -0.5030 S.3   1 <1>  -0.2860 
 14 C      -10.7220     1.5450    -0.4190 C.2   1 <1>   0.2420 
 15 N      -11.5750     2.4230    -0.8100 N.2   1 <1>  -0.3380 
 16 N      -11.2790     0.4350     0.0620 N.pl3 1 <1>   0.0480 
 17 N      -12.7770     1.8840    -0.5820 N.2   1 <1>  -0.3380 
 18 C      -12.5850     0.7140    -0.0690 C.2   1 <1>   0.0060 
 19 C      -10.6020    -0.7650     0.5920 C.3   1 <1>   0.0160 
 20 C      -13.7080    -0.2230     0.3340 C.3   1 <1>  -0.0600 
 21 H       -2.6970     1.3500     2.7970 H     1 <1>   0.1500 
 22 H       -3.2750    -0.6070    -0.9370 H     1 <1>   0.1500 
 23 H       -3.8860     3.3400     1.9510 H     1 <1>   0.1500 
 24 H       -4.4710     1.3770    -1.8000 H     1 <1>   0.1500 
 25 H       -4.6760     3.9190    -1.5280 H     1 <1>   0.0800 
 26 H       -4.7850     4.5720     0.0890 H     1 <1>   0.0800 
 27 H       -6.7120     2.6990     0.1810 H     1 <1>   0.3700 
 28 H       -9.2250     3.3880    -2.2690 H     1 <1>   0.0800 
 29 H       -9.3530     4.1450    -0.6890 H     1 <1>   0.0800 
 30 H      -10.0800    -0.5070     1.4950 H     1 <1>   0.0800 
 31 H       -9.8990    -1.1260    -0.1360 H     1 <1>   0.0800 
 32 H      -11.3230    -1.5340     0.8020 H     1 <1>   0.0800 
 33 H      -13.6510    -1.1340    -0.2320 H     1 <1>   0.0800 
 34 H      -14.6570     0.2440     0.1380 H     1 <1>   0.0800 
 35 H      -13.6460    -0.4460     1.3830 H     1 <1>   0.0800 
@<TRIPOS>BOND
  1   1   2  1   
  2   2   3  ar  
  3   2   4  ar  
  4   3   5  ar  
  5   3  21  1   
  6   4   6  ar  
  7   4  22  1   
  8   5   7  ar  
  9   5  23  1   
 10   6   7  ar  
 11   6  24  1   
 12   7   8  1   
 13   8   9  1   
 14   8  25  1   
 15   8  26  1   
 16   9  10  am  
 17   9  27  1   
 18  10  11  2   
 19  10  12  1   
 20  12  13  1   
 21  12  28  1   
 22  12  29  1   
 23  13  14  1   
 24  14  15  2   
 25  14  16  1   
 26  15  17  1   
 27  16  18  1   
 28  16  19  1   
 29  17  18  2   
 30  18  20  1   
 31  19  30  1   
 32  19  31  1   
 33  19  32  1   
 34  20  33  1   
 35  20  34  1   
 36  20  35  1   
@<TRIPOS>SUBSTRUCTURE
  1 ****  13 GROUP 4 **** **** 0

# MOE 2024.06 (io_trps.svl 2023.06)
