@<TRIPOS>MOLECULE
NONAME
30 30 1 0 0 
SMALL
USER_CHARGES


@<TRIPOS>ATOM
  1 CL      -0.5470    -0.1470    -0.5300 Cl    1 <1>  -0.1770 
  2 C       -2.2050    -0.6510    -0.3100 C.ar  1 <1>   0.1770 
  3 C       -2.4740    -1.9630     0.0320 C.ar  1 <1>  -0.1500 
  4 C       -3.2220     0.2690    -0.4810 C.ar  1 <1>  -0.1500 
  5 C       -3.7890    -2.3580     0.2040 C.ar  1 <1>  -0.1500 
  6 C       -4.5370    -0.1300    -0.3100 C.ar  1 <1>  -0.1500 
  7 C       -4.8260    -1.4510     0.0330 C.ar  1 <1>   0.0830 
  8 O       -6.0820    -1.9340     0.2130 O.3   1 <1>  -0.3630 
  9 C       -7.2470    -1.1320     0.0270 C.3   1 <1>   0.0940 
 10 C       -7.4660    -0.0800     1.1070 C.2   1 <1>   0.9060 
 11 C       -8.4510    -2.0810     0.0170 C.3   1 <1>   0.3430 
 12 O       -7.9460    -0.4250     2.1980 O.co2 1 <1>  -0.9000 
 13 O       -7.4390     1.1020     0.7610 O.co2 1 <1>  -0.9000 
 14 N       -9.7410    -1.4420     0.4560 N.4   1 <1>  -0.9590 
 15 C      -10.8040    -2.4330     0.7560 C.3   1 <1>   0.2630 
 16 C      -10.1930    -0.3230    -0.4250 C.3   1 <1>   0.2630 
 17 H       -1.6650    -2.6590     0.1630 H     1 <1>   0.1500 
 18 H       -2.9890     1.2860    -0.7410 H     1 <1>   0.1500 
 19 H       -4.0200    -3.3720     0.4750 H     1 <1>   0.1500 
 20 H       -5.3110     0.6040    -0.4400 H     1 <1>   0.1500 
 21 H       -7.1670    -0.6460    -0.9260 H     1 <1>   0.0800 
 22 H       -8.2240    -2.8760     0.7090 H     1 <1>   0.0800 
 23 H       -8.5640    -2.5050    -0.9650 H     1 <1>   0.0800 
 24 H       -9.4480    -0.9910     1.3700 H     1 <1>   0.4500 
 25 H      -11.1010    -2.9470    -0.1440 H     1 <1>   0.0800 
 26 H      -11.6630    -1.9370     1.1760 H     1 <1>   0.0800 
 27 H      -10.4430    -3.1560     1.4700 H     1 <1>   0.0800 
 28 H      -10.4230    -0.6880    -1.4120 H     1 <1>   0.0800 
 29 H       -9.4220     0.4280    -0.5010 H     1 <1>   0.0800 
 30 H      -11.0700     0.1440    -0.0090 H     1 <1>   0.0800 
@<TRIPOS>BOND
  1   1   2  1   
  2   2   3  ar  
  3   2   4  ar  
  4   3   5  ar  
  5   3  17  1   
  6   4   6  ar  
  7   4  18  1   
  8   5   7  ar  
  9   5  19  1   
 10   6   7  ar  
 11   6  20  1   
 12   7   8  1   
 13   8   9  1   
 14   9  10  1   
 15   9  11  1   
 16   9  21  1   
 17  10  12  ar  
 18  10  13  ar  
 19  11  14  1   
 20  11  22  1   
 21  11  23  1   
 22  14  15  1   
 23  14  16  1   
 24  14  24  1   
 25  15  25  1   
 26  15  26  1   
 27  15  27  1   
 28  16  28  1   
 29  16  29  1   
 30  16  30  1   
@<TRIPOS>SUBSTRUCTURE
  1 ****   8 GROUP 4 **** **** 0

# MOE 2024.06 (io_trps.svl 2023.06)
