@<TRIPOS>MOLECULE
NONAME
31 32 1 0 0 
SMALL
USER_CHARGES


@<TRIPOS>ATOM
  1 O        0.6860     0.8020     1.5690 O.2   1 <1>  -0.5700 
  2 C        0.2830     1.5990     0.7540 C.2   1 <1>   0.5690 
  3 N        0.9870     1.9100    -0.3690 N.am  1 <1>  -0.4940 
  4 C       -1.0520     2.2820     0.9800 C.3   1 <1>  -0.0990 
  5 C        2.2180     1.4040    -0.7730 C.2   1 <1>   0.2510 
  6 C       -2.1510     1.7150     0.0640 C.3   1 <1>  -0.1600 
  7 N        2.8230     1.7500    -1.8620 N.2   1 <1>  -0.3380 
  8 N        2.9260     0.5020    -0.0930 N.pl3 1 <1>   0.0330 
  9 C       -3.5210     2.3590     0.3270 C.3   1 <1>  -0.0800 
 10 N        3.9690     1.0570    -1.9070 N.2   1 <1>  -0.3380 
 11 C        4.0100     0.3240    -0.8500 C.2   1 <1>   0.0370 
 12 C       -4.6220     1.7660    -0.5460 C.3   1 <1>  -0.1600 
 13 C       -3.5840     3.8530     0.0110 C.3   1 <1>  -0.1600 
 14 C       -5.7400     2.8090    -0.5250 C.3   1 <1>  -0.1600 
 15 C       -5.0650     4.1530    -0.2300 C.3   1 <1>  -0.1600 
 16 H        0.5830     2.5840    -1.0170 H     1 <1>   0.3700 
 17 H       -0.9320     3.3360     0.8140 H     1 <1>   0.0800 
 18 H       -1.3360     2.1410     2.0080 H     1 <1>   0.0800 
 19 H       -2.2300     0.6540     0.2350 H     1 <1>   0.0800 
 20 H       -1.8780     1.8590    -0.9670 H     1 <1>   0.0800 
 21 H        2.6400     0.0860     0.7980 H     1 <1>   0.2700 
 22 H       -3.7970     2.2140     1.3600 H     1 <1>   0.0800 
 23 H        4.8060    -0.3510    -0.5920 H     1 <1>   0.1500 
 24 H       -4.9580     0.8110    -0.1810 H     1 <1>   0.0800 
 25 H       -4.2680     1.6520    -1.5570 H     1 <1>   0.0800 
 26 H       -3.0350     4.0580    -0.8930 H     1 <1>   0.0800 
 27 H       -3.1840     4.4530     0.8100 H     1 <1>   0.0800 
 28 H       -6.4350     2.5770     0.2640 H     1 <1>   0.0800 
 29 H       -6.2710     2.8280    -1.4610 H     1 <1>   0.0800 
 30 H       -5.1850     4.8380    -1.0530 H     1 <1>   0.0800 
 31 H       -5.5020     4.5910     0.6510 H     1 <1>   0.0800 
@<TRIPOS>BOND
  1   1   2  2   
  2   2   3  am  
  3   2   4  1   
  4   3   5  1   
  5   3  16  1   
  6   4   6  1   
  7   4  17  1   
  8   4  18  1   
  9   5   7  2   
 10   5   8  1   
 11   6   9  1   
 12   6  19  1   
 13   6  20  1   
 14   7  10  1   
 15   8  11  1   
 16   8  21  1   
 17   9  12  1   
 18   9  13  1   
 19   9  22  1   
 20  10  11  2   
 21  11  23  1   
 22  12  14  1   
 23  12  24  1   
 24  12  25  1   
 25  13  15  1   
 26  13  26  1   
 27  13  27  1   
 28  14  15  1   
 29  14  28  1   
 30  14  29  1   
 31  15  30  1   
 32  15  31  1   
@<TRIPOS>SUBSTRUCTURE
  1 ****   2 GROUP 4 **** **** 0

# MOE 2024.06 (io_trps.svl 2023.06)
