@<TRIPOS>MOLECULE
NONAME
30 31 1 0 0 
SMALL
USER_CHARGES


@<TRIPOS>ATOM
  1 O        0.1220     1.3880     0.8910 O.co2 1 <1>  -0.9000 
  2 C        0.0280     1.9390    -0.2080 C.2   1 <1>   0.9060 
  3 O        1.0160     2.1380    -0.9250 O.co2 1 <1>  -0.9000 
  4 C       -1.3020     2.4820    -0.7020 C.3   1 <1>  -0.1860 
  5 C       -1.5830     4.1280    -0.3520 C.3   1 <1>  -0.0190 
  6 C       -2.6260     1.6400    -0.1800 C.3   1 <1>   0.0580 
  7 C       -0.4830     4.9360     0.3600 C.2   1 <1>   0.5690 
  8 C       -3.0640     4.1990     0.3890 C.3   1 <1>   0.0580 
  9 C       -4.1220     1.9120     0.3920 C.2   1 <1>  -0.2880 
 10 C       -2.8020     2.9260     0.1070 C.3   1 <1>  -0.1600 
 11 O       -0.7990     5.8190     1.1260 O.2   1 <1>  -0.5700 
 12 N        0.8190     4.7150     0.0640 N.am  1 <1>  -0.7300 
 13 C       -4.3530     3.2570     0.6890 C.2   1 <1>  -0.2880 
 14 C        1.9640     5.2720     0.7850 C.3   1 <1>   0.2780 
 15 C        2.7790     6.1030    -0.1850 C.2   1 <1>  -0.2880 
 16 C        4.0490     5.8700    -0.5320 C.2   1 <1>  -0.3000 
 17 H       -1.2500     2.3780    -1.7730 H     1 <1>   0.0800 
 18 H       -1.6800     4.6310    -1.3010 H     1 <1>   0.0800 
 19 H       -2.2360     0.9540     0.5600 H     1 <1>   0.0800 
 20 H       -2.8570     4.5850     1.3770 H     1 <1>   0.0800 
 21 H       -4.7870     1.0730     0.4970 H     1 <1>   0.1500 
 22 H       -2.3110     2.7760     1.1550 H     1 <1>   0.0800 
 23 H       -3.2390     3.0980    -1.0180 H     1 <1>   0.0800 
 24 H        1.0610     3.8570    -0.4750 H     1 <1>   0.3700 
 25 H       -5.2430     3.7190     1.0810 H     1 <1>   0.1500 
 26 H        2.5530     4.4600     1.1780 H     1 <1>   0.0800 
 27 H        1.6290     5.8830     1.6060 H     1 <1>   0.0800 
 28 H        2.2040     6.9230    -0.5800 H     1 <1>   0.1500 
 29 H        4.6030     6.4750    -1.2270 H     1 <1>   0.1500 
 30 H        4.6340     5.0490    -0.1540 H     1 <1>   0.1500 
@<TRIPOS>BOND
  1   1   2  ar  
  2   2   3  ar  
  3   2   4  1   
  4   4   5  1   
  5   4   6  1   
  6   4  17  1   
  7   5   7  1   
  8   5   8  1   
  9   5  18  1   
 10   6   9  1   
 11   6  10  1   
 12   6  19  1   
 13   7  11  2   
 14   7  12  am  
 15   8  10  1   
 16   8  13  1   
 17   8  20  1   
 18   9  13  2   
 19   9  21  1   
 20  10  22  1   
 21  10  23  1   
 22  12  14  1   
 23  12  24  1   
 24  13  25  1   
 25  14  15  1   
 26  14  26  1   
 27  14  27  1   
 28  15  16  2   
 29  15  28  1   
 30  16  29  1   
 31  16  30  1   
@<TRIPOS>SUBSTRUCTURE
  1 ****   5 GROUP 4 **** **** 0

# MOE 2024.06 (io_trps.svl 2023.06)
