@<TRIPOS>MOLECULE
NONAME
55 58 1 0 0 
SMALL
USER_CHARGES


@<TRIPOS>ATOM
  1 O       -0.6010    -0.3640    -0.5410 O.2   1 <1>  -0.5700 
  2 C       -1.2050    -1.4000    -0.3540 C.2   1 <1>   0.6900 
  3 N       -0.5700    -2.4740     0.2620 N.am  1 <1>  -0.4200 
  4 N       -2.5310    -1.5050    -0.7450 N.am  1 <1>  -0.4360 
  5 C       -1.2590    -3.6420     0.5620 C.2   1 <1>   0.7030 
  6 C        0.8700    -2.3390     0.6450 C.3   1 <1>   0.0600 
  7 C       -3.2060    -2.6720    -0.4430 C.2   1 <1>   0.4260 
  8 C       -3.2150    -0.3770    -1.4430 C.3   1 <1>   0.0600 
  9 O       -0.7020    -4.5580     1.1420 O.2   1 <1>  -0.5700 
 10 C       -2.6410    -3.7330     0.1830 C.2   1 <1>   0.2770 
 11 N       -4.5050    -2.9690    -0.6860 N.pl3 1 <1>  -0.7000 
 12 N       -3.6450    -4.7030     0.3120 N.pl3 1 <1>  -0.7640 
 13 C       -4.7490    -4.1900    -0.2250 C.cat 1 <1>   0.6560 
 14 C       -3.4300    -6.0320     0.9390 C.3   1 <1>   0.3540 
 15 C       -6.1420    -4.8300    -0.3360 C.3   1 <1>   0.2540 
 16 C       -2.8450    -6.9810    -0.1000 C.3   1 <1>  -0.2400 
 17 N       -7.2100    -3.8060    -0.4910 N.3   1 <1>  -0.8100 
 18 C       -8.4530    -4.4140    -1.0380 C.3   1 <1>   0.1100 
 19 C       -7.5230    -3.1460     0.8090 C.3   1 <1>   0.1100 
 20 C       -9.5930    -3.3890    -1.1970 C.3   1 <1>   0.2090 
 21 C       -8.6350    -2.0890     0.6790 C.3   1 <1>   0.2090 
 22 N       -9.8570    -2.6970     0.0950 N.pl3 1 <1>  -0.8380 
 23 C      -11.0120    -1.9270     0.1610 C.ar  1 <1>   0.1000 
 24 C      -12.0170    -2.2770     1.0530 C.ar  1 <1>  -0.1500 
 25 C      -11.1920    -0.8050    -0.6410 C.ar  1 <1>  -0.1500 
 26 C      -13.1760    -1.5290     1.1440 C.ar  1 <1>  -0.1500 
 27 C      -12.3490    -0.0530    -0.5540 C.ar  1 <1>  -0.1500 
 28 C      -13.3440    -0.4140     0.3400 C.ar  1 <1>  -0.1500 
 29 H        0.9450    -1.8330     1.5920 H     1 <1>   0.0800 
 30 H        1.4020    -1.7670    -0.0970 H     1 <1>   0.0800 
 31 H        1.3410    -3.3030     0.7240 H     1 <1>   0.0800 
 32 H       -2.4960     0.2580    -1.9320 H     1 <1>   0.0800 
 33 H       -3.7630     0.2130    -0.7290 H     1 <1>   0.0800 
 34 H       -3.8900    -0.7530    -2.1920 H     1 <1>   0.0800 
 35 H       -5.2380    -2.4010    -1.1200 H     1 <1>   0.4500 
 36 H       -4.3630    -6.4260     1.3070 H     1 <1>   0.0800 
 37 H       -2.7570    -5.9410     1.7770 H     1 <1>   0.0800 
 38 H       -6.3410    -5.4390     0.5270 H     1 <1>   0.0800 
 39 H       -6.1340    -5.4670    -1.2030 H     1 <1>   0.0800 
 40 H       -3.5080    -7.0870    -0.9390 H     1 <1>   0.0800 
 41 H       -2.6990    -7.9500     0.3420 H     1 <1>   0.0800 
 42 H       -1.8890    -6.6240    -0.4390 H     1 <1>   0.0800 
 43 H       -8.7970    -5.1990    -0.3850 H     1 <1>   0.0800 
 44 H       -8.2500    -4.8470    -2.0020 H     1 <1>   0.0800 
 45 H       -6.6440    -2.6670     1.2020 H     1 <1>   0.0800 
 46 H       -7.8500    -3.8820     1.5250 H     1 <1>   0.0800 
 47 H      -10.4890    -3.8920    -1.5170 H     1 <1>   0.0800 
 48 H       -9.3260    -2.6670    -1.9490 H     1 <1>   0.0800 
 49 H       -8.2990    -1.2800     0.0540 H     1 <1>   0.0800 
 50 H       -8.8700    -1.6890     1.6500 H     1 <1>   0.0800 
 51 H      -11.8760    -3.1440     1.6710 H     1 <1>   0.1500 
 52 H      -10.4210    -0.5250    -1.3320 H     1 <1>   0.1500 
 53 H      -13.9460    -1.8120     1.8390 H     1 <1>   0.1500 
 54 H      -12.4780     0.8130    -1.1790 H     1 <1>   0.1500 
 55 H      -14.2440     0.1700     0.4090 H     1 <1>   0.1500 
@<TRIPOS>BOND
  1   1   2  2   
  2   2   3  am  
  3   2   4  am  
  4   3   5  am  
  5   3   6  1   
  6   4   7  1   
  7   4   8  1   
  8   5   9  2   
  9   5  10  1   
 10   6  29  1   
 11   6  30  1   
 12   6  31  1   
 13   7  10  2   
 14   7  11  1   
 15   8  32  1   
 16   8  33  1   
 17   8  34  1   
 18  10  12  1   
 19  11  13  ar  
 20  11  35  1   
 21  12  13  ar  
 22  12  14  1   
 23  13  15  1   
 24  14  16  1   
 25  14  36  1   
 26  14  37  1   
 27  15  17  1   
 28  15  38  1   
 29  15  39  1   
 30  16  40  1   
 31  16  41  1   
 32  16  42  1   
 33  17  18  1   
 34  17  19  1   
 35  18  20  1   
 36  18  43  1   
 37  18  44  1   
 38  19  21  1   
 39  19  45  1   
 40  19  46  1   
 41  20  22  1   
 42  20  47  1   
 43  20  48  1   
 44  21  22  1   
 45  21  49  1   
 46  21  50  1   
 47  22  23  1   
 48  23  24  ar  
 49  23  25  ar  
 50  24  26  ar  
 51  24  51  1   
 52  25  27  ar  
 53  25  52  1   
 54  26  28  ar  
 55  26  53  1   
 56  27  28  ar  
 57  27  54  1   
 58  28  55  1   
@<TRIPOS>SUBSTRUCTURE
  1 ****  11 GROUP 4 **** **** 0

# MOE 2024.06 (io_trps.svl 2023.06)
