@<TRIPOS>MOLECULE
NONAME
43 44 1 0 0 
SMALL
USER_CHARGES


@<TRIPOS>ATOM
  1 CL      -0.0820     0.2530     0.0060 Cl    1 <1>  -0.1770 
  2 C        1.5220     0.9620     0.0600 C.ar  1 <1>   0.1770 
  3 C        2.6270     0.1550    -0.1820 C.ar  1 <1>  -0.1440 
  4 C        1.6540     2.3150     0.3440 C.ar  1 <1>  -0.1440 
  5 C        3.8920     0.7230    -0.1380 C.ar  1 <1>  -0.1500 
  6 C        2.4650    -1.3260    -0.4910 C.3   1 <1>  -0.0960 
  7 C        2.9260     2.8620     0.3830 C.ar  1 <1>  -0.1500 
  8 C        0.4370     3.1900     0.6080 C.3   1 <1>  -0.0960 
  9 C        4.0440     2.0790     0.1440 C.ar  1 <1>   0.0830 
 10 O        5.2460     2.7070     0.2040 O.3   1 <1>  -0.3630 
 11 C        6.4500     2.0150    -0.0260 C.3   1 <1>   0.1200 
 12 C        7.5990     3.0130     0.1110 C.3   1 <1>  -0.1600 
 13 C        8.9440     2.3430    -0.1820 C.3   1 <1>   0.1100 
 14 N       10.0600     3.2460     0.1460 N.3   1 <1>  -0.8100 
 15 C       11.3210     2.4960     0.3100 C.3   1 <1>   0.1100 
 16 C       10.2070     4.3550    -0.8220 C.3   1 <1>   0.1100 
 17 C       12.4730     3.4260     0.7410 C.3   1 <1>   0.3430 
 18 C       11.3460     5.3100    -0.4100 C.3   1 <1>   0.3430 
 19 N       12.6380     4.5740    -0.2100 N.4   1 <1>  -0.9060 
 20 H        4.7450     0.1010    -0.3240 H     1 <1>   0.1500 
 21 H        1.8690    -1.4530    -1.3780 H     1 <1>   0.0800 
 22 H        1.9740    -1.8200     0.3290 H     1 <1>   0.0800 
 23 H        3.4170    -1.7970    -0.6510 H     1 <1>   0.0800 
 24 H        3.0670     3.9050     0.5990 H     1 <1>   0.1500 
 25 H       -0.1060     2.8160     1.4570 H     1 <1>   0.0800 
 26 H       -0.2120     3.1840    -0.2500 H     1 <1>   0.0800 
 27 H        0.7280     4.2050     0.8090 H     1 <1>   0.0800 
 28 H        6.4160     1.6020    -1.0200 H     1 <1>   0.0800 
 29 H        6.5340     1.2290     0.7050 H     1 <1>   0.0800 
 30 H        7.6050     3.3950     1.1170 H     1 <1>   0.0800 
 31 H        7.4260     3.8180    -0.5780 H     1 <1>   0.0800 
 32 H        8.9960     2.0380    -1.2140 H     1 <1>   0.0800 
 33 H        9.0150     1.4590     0.4320 H     1 <1>   0.0800 
 34 H       11.5770     1.9960    -0.6090 H     1 <1>   0.0800 
 35 H       11.1880     1.7430     1.0700 H     1 <1>   0.0800 
 36 H        9.2950     4.9260    -0.8620 H     1 <1>   0.0800 
 37 H       10.3940     3.9640    -1.8080 H     1 <1>   0.0800 
 38 H       13.3880     2.8580     0.8000 H     1 <1>   0.0800 
 39 H       12.2510     3.8010     1.7270 H     1 <1>   0.0800 
 40 H       11.0590     5.7940     0.5100 H     1 <1>   0.0800 
 41 H       11.4650     6.0710    -1.1630 H     1 <1>   0.0800 
 42 H       12.9570     4.2120    -1.1160 H     1 <1>   0.4500 
 43 H       13.3570     5.2190     0.1400 H     1 <1>   0.4500 
@<TRIPOS>BOND
  1   1   2  1   
  2   2   3  ar  
  3   2   4  ar  
  4   3   5  ar  
  5   3   6  1   
  6   4   7  ar  
  7   4   8  1   
  8   5   9  ar  
  9   5  20  1   
 10   6  21  1   
 11   6  22  1   
 12   6  23  1   
 13   7   9  ar  
 14   7  24  1   
 15   8  25  1   
 16   8  26  1   
 17   8  27  1   
 18   9  10  1   
 19  10  11  1   
 20  11  12  1   
 21  11  28  1   
 22  11  29  1   
 23  12  13  1   
 24  12  30  1   
 25  12  31  1   
 26  13  14  1   
 27  13  32  1   
 28  13  33  1   
 29  14  15  1   
 30  14  16  1   
 31  15  17  1   
 32  15  34  1   
 33  15  35  1   
 34  16  18  1   
 35  16  36  1   
 36  16  37  1   
 37  17  19  1   
 38  17  38  1   
 39  17  39  1   
 40  18  19  1   
 41  18  40  1   
 42  18  41  1   
 43  19  42  1   
 44  19  43  1   
@<TRIPOS>SUBSTRUCTURE
  1 ****  11 GROUP 4 **** **** 0

# MOE 2024.06 (io_trps.svl 2023.06)
