@<TRIPOS>MOLECULE
NONAME
48 50 1 0 0 
SMALL
USER_CHARGES


@<TRIPOS>ATOM
  1 F        0.0610    -5.3260     1.7970 F     1 <1>  -0.1900 
  2 C       -0.8460    -4.5240     1.2890 C.ar  1 <1>   0.1900 
  3 C       -0.5080    -3.6940     0.2130 C.ar  1 <1>   0.1000 
  4 C       -2.1050    -4.5460     1.8550 C.ar  1 <1>  -0.1500 
  5 N        0.7560    -3.6420    -0.3900 N.pl3 1 <1>  -0.8380 
  6 C       -1.5120    -2.8690    -0.2790 C.ar  1 <1>  -0.1500 
  7 C       -3.0830    -3.7100     1.3400 C.ar  1 <1>  -0.1500 
  8 C        1.1530    -4.8620    -1.1550 C.3   1 <1>   0.2090 
  9 C        1.8560    -3.1020     0.4650 C.3   1 <1>   0.2090 
 10 C       -2.7820    -2.8750     0.2750 C.ar  1 <1>  -0.1500 
 11 C        2.4160    -4.5930    -2.0010 C.3   1 <1>   0.3430 
 12 C        3.1220    -2.8340    -0.3730 C.3   1 <1>   0.3430 
 13 N        3.5440    -4.0390    -1.1750 N.4   1 <1>  -0.9590 
 14 C        4.7750    -3.7870    -1.9670 C.3   1 <1>   0.4860 
 15 C        5.9230    -3.5180    -1.0100 C.ar  1 <1>  -0.1430 
 16 C        6.2750    -4.4700    -0.0580 C.ar  1 <1>   0.0820 
 17 C        6.6240    -2.3230    -1.0750 C.ar  1 <1>  -0.1500 
 18 O        5.5470    -5.6120    -0.0190 O.3   1 <1>  -0.3630 
 19 C        7.3290    -4.2260     0.8150 C.ar  1 <1>  -0.1500 
 20 C        7.6660    -2.0790    -0.1980 C.ar  1 <1>  -0.1500 
 21 C        5.3830    -6.3290     1.1840 C.3   1 <1>   0.2580 
 22 C        8.0190    -3.0290     0.7440 C.ar  1 <1>  -0.1500 
 23 C        4.0610    -7.0580     1.0600 C.2   1 <1>  -0.2880 
 24 C        2.9700    -6.8140     1.7930 C.2   1 <1>  -0.3000 
 25 H       -2.3180    -5.2010     2.6800 H     1 <1>   0.1500 
 26 H       -1.2900    -2.2170    -1.1040 H     1 <1>   0.1500 
 27 H       -4.0720    -3.7100     1.7650 H     1 <1>   0.1500 
 28 H        0.3430    -5.1520    -1.8030 H     1 <1>   0.0800 
 29 H        1.3400    -5.6760    -0.4750 H     1 <1>   0.0800 
 30 H        2.0860    -3.8010     1.2510 H     1 <1>   0.0800 
 31 H        1.5300    -2.1840     0.9240 H     1 <1>   0.0800 
 32 H       -3.5430    -2.2260    -0.1250 H     1 <1>   0.1500 
 33 H        2.1550    -3.8900    -2.7740 H     1 <1>   0.0800 
 34 H        2.7230    -5.5110    -2.4730 H     1 <1>   0.0800 
 35 H        3.9220    -2.5340     0.2850 H     1 <1>   0.0800 
 36 H        2.9150    -2.0130    -1.0390 H     1 <1>   0.0800 
 37 H        3.8280    -4.7690    -0.4980 H     1 <1>   0.4500 
 38 H        4.6320    -2.9470    -2.6260 H     1 <1>   0.0800 
 39 H        5.0150    -4.6550    -2.5590 H     1 <1>   0.0800 
 40 H        6.3750    -1.5700    -1.8050 H     1 <1>   0.1500 
 41 H        7.6300    -4.9550     1.5450 H     1 <1>   0.1500 
 42 H        8.2110    -1.1510    -0.2500 H     1 <1>   0.1500 
 43 H        5.3580    -5.6360     2.0080 H     1 <1>   0.0800 
 44 H        6.2070    -7.0130     1.2970 H     1 <1>   0.0800 
 45 H        8.8360    -2.8370     1.4190 H     1 <1>   0.1500 
 46 H        4.0900    -7.8210     0.3000 H     1 <1>   0.1500 
 47 H        2.0420    -7.3540     1.6880 H     1 <1>   0.1500 
 48 H        2.9010    -6.0680     2.5660 H     1 <1>   0.1500 
@<TRIPOS>BOND
  1   1   2  1   
  2   2   3  ar  
  3   2   4  ar  
  4   3   5  1   
  5   3   6  ar  
  6   4   7  ar  
  7   4  25  1   
  8   5   8  1   
  9   5   9  1   
 10   6  10  ar  
 11   6  26  1   
 12   7  10  ar  
 13   7  27  1   
 14   8  11  1   
 15   8  28  1   
 16   8  29  1   
 17   9  12  1   
 18   9  30  1   
 19   9  31  1   
 20  10  32  1   
 21  11  13  1   
 22  11  33  1   
 23  11  34  1   
 24  12  13  1   
 25  12  35  1   
 26  12  36  1   
 27  13  14  1   
 28  13  37  1   
 29  14  15  1   
 30  14  38  1   
 31  14  39  1   
 32  15  16  ar  
 33  15  17  ar  
 34  16  18  1   
 35  16  19  ar  
 36  17  20  ar  
 37  17  40  1   
 38  18  21  1   
 39  19  22  ar  
 40  19  41  1   
 41  20  22  ar  
 42  20  42  1   
 43  21  23  1   
 44  21  43  1   
 45  21  44  1   
 46  22  45  1   
 47  23  24  2   
 48  23  46  1   
 49  24  47  1   
 50  24  48  1   
@<TRIPOS>SUBSTRUCTURE
  1 ****   9 GROUP 4 **** **** 0

# MOE 2024.06 (io_trps.svl 2023.06)
