@<TRIPOS>MOLECULE
NONAME
53 55 1 0 0 
SMALL
USER_CHARGES


@<TRIPOS>ATOM
  1 CL       6.7180     0.6420     2.9460 Cl    1 <1>  -0.1770 
  2 C        6.1590    -0.6030     1.8610 C.ar  1 <1>   0.1770 
  3 C        6.6250    -0.6300     0.5620 C.ar  1 <1>  -0.1500 
  4 C        5.2590    -1.5470     2.3140 C.ar  1 <1>  -0.1500 
  5 C        6.1850    -1.6270    -0.2930 C.ar  1 <1>  -0.1500 
  6 C        4.8250    -2.5370     1.4470 C.ar  1 <1>  -0.1500 
  7 C        5.2860    -2.6010     0.1350 C.ar  1 <1>  -0.0090 
  8 S        4.7210    -3.9030    -0.9990 S.o2  1 <1>   1.4470 
  9 O        3.3480    -3.6240    -1.3580 O.2   1 <1>  -0.6500 
 10 O        5.6740    -4.0930    -2.0720 O.2   1 <1>  -0.6500 
 11 N        4.7110    -5.3520    -0.1230 N.am  1 <1>  -0.8490 
 12 C        3.8700    -6.3340    -0.8150 C.3   1 <1>   0.3390 
 13 C        6.0810    -5.8930     0.1350 C.3   1 <1>   0.2570 
 14 C        3.7840    -7.6550    -0.0590 C.ar  1 <1>  -0.1430 
 15 C        6.9870    -5.0150     1.0180 C.2   1 <1>   0.5690 
 16 C        4.0840    -8.8500    -0.6970 C.ar  1 <1>  -0.1500 
 17 C        3.4070    -7.6750     1.2760 C.ar  1 <1>  -0.1500 
 18 O        6.6740    -4.9050     2.1830 O.2   1 <1>  -0.5700 
 19 N        8.1010    -4.3790     0.5210 N.am  1 <1>  -0.6600 
 20 C        4.0100   -10.0490    -0.0080 C.ar  1 <1>  -0.1500 
 21 C        3.3340    -8.8730     1.9660 C.ar  1 <1>  -0.1500 
 22 C        8.8810    -3.4450     1.3790 C.3   1 <1>   0.1400 
 23 C        8.7100    -4.6050    -0.8160 C.3   1 <1>   0.1400 
 24 C        3.6350   -10.0600     1.3240 C.ar  1 <1>  -0.1500 
 25 C       10.0640    -4.1560     2.0440 C.3   1 <1>  -0.1600 
 26 C        9.5840    -5.8660    -0.8280 C.3   1 <1>  -0.1600 
 27 C       11.0300    -4.8790     1.0850 C.3   1 <1>  -0.1600 
 28 C       10.4080    -6.1320     0.4460 C.3   1 <1>  -0.1600 
 29 H        7.3210     0.1190     0.2290 H     1 <1>   0.1500 
 30 H        4.9080    -1.5130     3.3300 H     1 <1>   0.1500 
 31 H        6.5470    -1.6530    -1.3070 H     1 <1>   0.1500 
 32 H        4.1300    -3.2810     1.7980 H     1 <1>   0.1500 
 33 H        4.2520    -6.5020    -1.8080 H     1 <1>   0.0800 
 34 H        2.8680    -5.9510    -0.9080 H     1 <1>   0.0800 
 35 H        6.5640    -6.1120    -0.7970 H     1 <1>   0.0800 
 36 H        6.0000    -6.8240     0.6660 H     1 <1>   0.0800 
 37 H        4.3760    -8.8580    -1.7330 H     1 <1>   0.1500 
 38 H        3.1770    -6.7530     1.7820 H     1 <1>   0.1500 
 39 H        4.2420   -10.9730    -0.5080 H     1 <1>   0.1500 
 40 H        3.0440    -8.8780     3.0020 H     1 <1>   0.1500 
 41 H        8.2420    -3.0330     2.1420 H     1 <1>   0.0800 
 42 H        9.2360    -2.6210     0.7850 H     1 <1>   0.0800 
 43 H        9.3210    -3.7560    -1.0730 H     1 <1>   0.0800 
 44 H        7.9560    -4.6800    -1.5760 H     1 <1>   0.0800 
 45 H        3.5770   -10.9910     1.8600 H     1 <1>   0.1500 
 46 H        9.6790    -4.8560     2.7660 H     1 <1>   0.0800 
 47 H       10.6200    -3.4180     2.5950 H     1 <1>   0.0800 
 48 H       10.2560    -5.7850    -1.6640 H     1 <1>   0.0800 
 49 H        8.9610    -6.7220    -1.0160 H     1 <1>   0.0800 
 50 H       11.8830    -5.1930     1.6630 H     1 <1>   0.0800 
 51 H       11.3910    -4.2040     0.3280 H     1 <1>   0.0800 
 52 H       11.1970    -6.8200     0.1930 H     1 <1>   0.0800 
 53 H        9.7870    -6.6260     1.1740 H     1 <1>   0.0800 
@<TRIPOS>BOND
  1   1   2  1   
  2   2   3  ar  
  3   2   4  ar  
  4   3   5  ar  
  5   3  29  1   
  6   4   6  ar  
  7   4  30  1   
  8   5   7  ar  
  9   5  31  1   
 10   6   7  ar  
 11   6  32  1   
 12   7   8  1   
 13   8   9  2   
 14   8  10  2   
 15   8  11  am  
 16  11  12  1   
 17  11  13  1   
 18  12  14  1   
 19  12  33  1   
 20  12  34  1   
 21  13  15  1   
 22  13  35  1   
 23  13  36  1   
 24  14  16  ar  
 25  14  17  ar  
 26  15  18  2   
 27  15  19  am  
 28  16  20  ar  
 29  16  37  1   
 30  17  21  ar  
 31  17  38  1   
 32  19  22  1   
 33  19  23  1   
 34  20  24  ar  
 35  20  39  1   
 36  21  24  ar  
 37  21  40  1   
 38  22  25  1   
 39  22  41  1   
 40  22  42  1   
 41  23  26  1   
 42  23  43  1   
 43  23  44  1   
 44  24  45  1   
 45  25  27  1   
 46  25  46  1   
 47  25  47  1   
 48  26  28  1   
 49  26  48  1   
 50  26  49  1   
 51  27  28  1   
 52  27  50  1   
 53  27  51  1   
 54  28  52  1   
 55  28  53  1   
@<TRIPOS>SUBSTRUCTURE
  1 ****  15 GROUP 4 **** **** 0

# MOE 2024.06 (io_trps.svl 2023.06)
