@<TRIPOS>MOLECULE
NONAME
40 42 1 0 0 
SMALL
USER_CHARGES


@<TRIPOS>ATOM
  1 O        0.9640    -0.5700    -1.0730 O.2   1 <1>  -0.5700 
  2 C        1.1160    -1.5920    -0.4550 C.2   1 <1>   0.5690 
  3 N        2.3100    -2.1070    -0.0580 N.am  1 <1>  -0.4200 
  4 C       -0.0310    -2.4760    -0.0060 C.3   1 <1>  -0.0190 
  5 C        2.1490    -3.2630     0.6390 C.2   1 <1>   0.5690 
  6 C        3.6290    -1.5070    -0.3630 C.3   1 <1>   0.1400 
  7 C        0.6830    -3.6320     0.7480 C.3   1 <1>  -0.0190 
  8 C       -0.9440    -2.8830    -1.1780 C.3   1 <1>  -0.0220 
  9 O        3.0400    -3.9110     1.1270 O.2   1 <1>  -0.5700 
 10 C        4.1720    -0.7700     0.8600 C.3   1 <1>  -0.0990 
 11 C        0.4050    -5.0590     0.2370 C.3   1 <1>  -0.0220 
 12 C       -1.6390    -4.1990    -0.8930 C.2   1 <1>  -0.2880 
 13 C        5.5920    -0.3400     0.5950 C.2   1 <1>   0.5690 
 14 C       -1.0250    -5.1910    -0.2490 C.2   1 <1>  -0.2880 
 15 O        5.7960     0.7240     0.0670 O.2   1 <1>  -0.5700 
 16 N        6.5960    -1.1750     0.9420 N.am  1 <1>  -0.7300 
 17 C        8.0230    -0.9330     0.6660 C.3   1 <1>   0.3200 
 18 C        8.6620    -2.2450     0.2500 C.2   1 <1>  -0.0400 
 19 O        8.6530    -3.2580     1.0980 O.3   1 <1>  -0.2800 
 20 C        9.2720    -2.5990    -0.9020 C.2   1 <1>  -0.1500 
 21 C        9.2550    -4.2730     0.5110 C.2   1 <1>  -0.0100 
 22 C        9.6630    -3.9330    -0.7300 C.2   1 <1>  -0.1500 
 23 H       -0.6200    -1.9220     0.7030 H     1 <1>   0.0800 
 24 H        3.5370    -0.8230    -1.1910 H     1 <1>   0.0800 
 25 H        4.3090    -2.2920    -0.6490 H     1 <1>   0.0800 
 26 H        0.4030    -3.5850     1.7850 H     1 <1>   0.0800 
 27 H       -0.3710    -2.9890    -2.0840 H     1 <1>   0.0800 
 28 H       -1.6720    -2.1060    -1.3400 H     1 <1>   0.0800 
 29 H        4.1550    -1.4090     1.7230 H     1 <1>   0.0800 
 30 H        3.5740     0.1010     1.0560 H     1 <1>   0.0800 
 31 H        0.5930    -5.7580     1.0330 H     1 <1>   0.0800 
 32 H        1.0650    -5.3040    -0.5780 H     1 <1>   0.0800 
 33 H       -2.6450    -4.2630    -1.2750 H     1 <1>   0.1500 
 34 H       -1.4760    -6.1490    -0.0490 H     1 <1>   0.1500 
 35 H        6.4100    -2.0970     1.3440 H     1 <1>   0.3700 
 36 H        8.5020    -0.5640     1.5550 H     1 <1>   0.0800 
 37 H        8.1330    -0.2030    -0.1180 H     1 <1>   0.0800 
 38 H        9.4390    -2.0100    -1.7870 H     1 <1>   0.1500 
 39 H        9.3490    -5.2010     1.0470 H     1 <1>   0.1500 
 40 H       10.1790    -4.5340    -1.4580 H     1 <1>   0.1500 
@<TRIPOS>BOND
  1   1   2  2   
  2   2   3  am  
  3   2   4  1   
  4   3   5  am  
  5   3   6  1   
  6   4   7  1   
  7   4   8  1   
  8   4  23  1   
  9   5   7  1   
 10   5   9  2   
 11   6  10  1   
 12   6  24  1   
 13   6  25  1   
 14   7  11  1   
 15   7  26  1   
 16   8  12  1   
 17   8  27  1   
 18   8  28  1   
 19  10  13  1   
 20  10  29  1   
 21  10  30  1   
 22  11  14  1   
 23  11  31  1   
 24  11  32  1   
 25  12  14  2   
 26  12  33  1   
 27  13  15  2   
 28  13  16  am  
 29  14  34  1   
 30  16  17  1   
 31  16  35  1   
 32  17  18  1   
 33  17  36  1   
 34  17  37  1   
 35  18  19  1   
 36  18  20  2   
 37  19  21  1   
 38  20  22  1   
 39  20  38  1   
 40  21  22  2   
 41  21  39  1   
 42  22  40  1   
@<TRIPOS>SUBSTRUCTURE
  1 ****   6 GROUP 4 **** **** 0

# MOE 2024.06 (io_trps.svl 2023.06)
