@<TRIPOS>MOLECULE
NONAME
60 63 1 0 0 
SMALL
USER_CHARGES


@<TRIPOS>ATOM
  1 O       -0.6630    -0.6090    -1.0050 O.3   1 <1>  -0.3630 
  2 C       -0.5620    -1.1130     0.2570 C.ar  1 <1>   0.0830 
  3 C        0.4350    -0.5000    -1.8870 C.3   1 <1>   0.1200 
  4 C       -1.6980    -1.0660     1.0630 C.ar  1 <1>  -0.1440 
  5 C        0.6110    -1.6720     0.7610 C.ar  1 <1>  -0.1500 
  6 C        0.6180    -1.8250    -2.6290 C.3   1 <1>  -0.2400 
  7 C       -1.6500    -1.5800     2.3490 C.ar  1 <1>  -0.1500 
  8 C       -3.0060    -0.4600     0.5640 C.3   1 <1>   0.2530 
  9 C        0.6480    -2.1790     2.0470 C.ar  1 <1>  -0.1500 
 10 C       -0.4820    -2.1350     2.8420 C.ar  1 <1>  -0.1500 
 11 N       -4.0050    -1.5150     0.2570 N.3   1 <1>  -0.8100 
 12 C       -5.3720    -1.0480    -0.1590 C.3   1 <1>   0.1900 
 13 C       -3.4260    -2.4420    -0.7580 C.3   1 <1>   0.1100 
 14 C       -5.9450     0.0710     0.7760 C.3   1 <1>  -0.0800 
 15 C       -6.3170    -2.2970    -0.2790 C.3   1 <1>   0.4230 
 16 C       -4.4290    -3.4610    -1.3320 C.3   1 <1>   0.3430 
 17 C       -7.4710     0.0220     1.0490 C.3   1 <1>  -0.1600 
 18 C       -5.6120     1.4730     0.2070 C.3   1 <1>  -0.1600 
 19 N       -5.6120    -3.6040    -0.4340 N.4   1 <1>  -0.9590 
 20 C       -7.2830    -2.2780    -1.4650 C.3   1 <1>  -0.1600 
 21 C       -7.9190     1.1440     1.9960 C.3   1 <1>  -0.1600 
 22 C       -6.0440     2.5990     1.1530 C.3   1 <1>  -0.1600 
 23 C       -6.6110    -4.5760    -0.9320 C.3   1 <1>   0.3430 
 24 C       -7.5920    -3.7500    -1.7610 C.3   1 <1>  -0.1600 
 25 C       -7.5440     2.5230     1.4470 C.3   1 <1>  -0.1600 
 26 H        1.3120    -0.2080    -1.3370 H     1 <1>   0.0800 
 27 H        0.2010     0.2820    -2.5880 H     1 <1>   0.0800 
 28 H        1.5050    -1.7260     0.1720 H     1 <1>   0.1500 
 29 H        0.8240    -2.6250    -1.9420 H     1 <1>   0.0800 
 30 H        1.4440    -1.7430    -3.3120 H     1 <1>   0.0800 
 31 H       -0.2670    -2.0560    -3.1940 H     1 <1>   0.0800 
 32 H       -2.5270    -1.5500     2.9720 H     1 <1>   0.1500 
 33 H       -2.8340     0.1480    -0.3070 H     1 <1>   0.0800 
 34 H       -3.3690     0.1830     1.3450 H     1 <1>   0.0800 
 35 H        1.5570    -2.6090     2.4310 H     1 <1>   0.1500 
 36 H       -0.4540    -2.5290     3.8430 H     1 <1>   0.1500 
 37 H       -5.2830    -0.6220    -1.1430 H     1 <1>   0.0800 
 38 H       -2.6220    -2.9970    -0.3060 H     1 <1>   0.0800 
 39 H       -3.0020    -1.8800    -1.5740 H     1 <1>   0.0800 
 40 H       -5.4780    -0.0360     1.7400 H     1 <1>   0.0800 
 41 H       -6.8980    -2.3690     0.6220 H     1 <1>   0.0800 
 42 H       -3.9350    -4.4100    -1.4610 H     1 <1>   0.0800 
 43 H       -4.7510    -3.1220    -2.3020 H     1 <1>   0.0800 
 44 H       -7.7510    -0.9030     1.5190 H     1 <1>   0.0800 
 45 H       -8.0150     0.1230     0.1270 H     1 <1>   0.0800 
 46 H       -6.1150     1.6050    -0.7360 H     1 <1>   0.0800 
 47 H       -4.5620     1.5840     0.0190 H     1 <1>   0.0800 
 48 H       -5.2390    -3.8410     0.4960 H     1 <1>   0.4500 
 49 H       -6.8150    -1.8230    -2.3200 H     1 <1>   0.0800 
 50 H       -8.1780    -1.7280    -1.2340 H     1 <1>   0.0800 
 51 H       -7.4560     1.0090     2.9590 H     1 <1>   0.0800 
 52 H       -8.9860     1.0960     2.1370 H     1 <1>   0.0800 
 53 H       -5.8150     3.5530     0.7090 H     1 <1>   0.0800 
 54 H       -5.4930     2.5260     2.0760 H     1 <1>   0.0800 
 55 H       -7.1320    -5.0190    -0.0980 H     1 <1>   0.0800 
 56 H       -6.1500    -5.3560    -1.5160 H     1 <1>   0.0800 
 57 H       -7.4700    -3.9640    -2.8090 H     1 <1>   0.0800 
 58 H       -8.6010    -4.0010    -1.4800 H     1 <1>   0.0800 
 59 H       -7.8110     3.2830     2.1620 H     1 <1>   0.0800 
 60 H       -8.0970     2.7140     0.5430 H     1 <1>   0.0800 
@<TRIPOS>BOND
  1   1   2  1   
  2   1   3  1   
  3   2   4  ar  
  4   2   5  ar  
  5   3   6  1   
  6   3  26  1   
  7   3  27  1   
  8   4   7  ar  
  9   4   8  1   
 10   5   9  ar  
 11   5  28  1   
 12   6  29  1   
 13   6  30  1   
 14   6  31  1   
 15   7  10  ar  
 16   7  32  1   
 17   8  11  1   
 18   8  33  1   
 19   8  34  1   
 20   9  10  ar  
 21   9  35  1   
 22  10  36  1   
 23  11  12  1   
 24  11  13  1   
 25  12  14  1   
 26  12  15  1   
 27  12  37  1   
 28  13  16  1   
 29  13  38  1   
 30  13  39  1   
 31  14  17  1   
 32  14  18  1   
 33  14  40  1   
 34  15  19  1   
 35  15  20  1   
 36  15  41  1   
 37  16  19  1   
 38  16  42  1   
 39  16  43  1   
 40  17  21  1   
 41  17  44  1   
 42  17  45  1   
 43  18  22  1   
 44  18  46  1   
 45  18  47  1   
 46  19  23  1   
 47  19  48  1   
 48  20  24  1   
 49  20  49  1   
 50  20  50  1   
 51  21  25  1   
 52  21  51  1   
 53  21  52  1   
 54  22  25  1   
 55  22  53  1   
 56  22  54  1   
 57  23  24  1   
 58  23  55  1   
 59  23  56  1   
 60  24  57  1   
 61  24  58  1   
 62  25  59  1   
 63  25  60  1   
@<TRIPOS>SUBSTRUCTURE
  1 ****  11 GROUP 4 **** **** 0

# MOE 2024.06 (io_trps.svl 2023.06)
