@<TRIPOS>MOLECULE
NONAME
35 37 1 0 0 
SMALL
USER_CHARGES


@<TRIPOS>ATOM
  1 F        1.1750     1.0260    -0.3110 F     1 <1>  -0.3400 
  2 C        1.3750     0.1030     0.6190 C.3   1 <1>   1.1640 
  3 F        1.8990     0.7320     1.6640 F     1 <1>  -0.3400 
  4 F        0.1750    -0.3150     1.0000 F     1 <1>  -0.3400 
  5 C        2.2690    -1.0390     0.1040 C.ar  1 <1>  -0.1440 
  6 C        3.6390    -1.0470     0.3410 C.ar  1 <1>  -0.1500 
  7 C        1.7140    -2.0890    -0.6200 C.ar  1 <1>  -0.1500 
  8 C        4.4630    -2.0720    -0.1270 C.ar  1 <1>   0.0280 
  9 C        2.5100    -3.1210    -1.0820 C.ar  1 <1>  -0.1500 
 10 C        5.8860    -2.0880     0.1090 C.2   1 <1>  -0.0410 
 11 C        3.8680    -3.1120    -0.8340 C.ar  1 <1>  -0.1500 
 12 N        6.7060    -1.0680    -0.3410 N.2   1 <1>   1.5890 
 13 C        6.4920    -3.1140     0.7640 C.2   1 <1>  -0.0500 
 14 O        6.1780    -0.0810    -0.9680 O.2   1 <1>  -0.5640 
 15 C        8.0770    -1.0530    -0.1510 C.2   1 <1>  -0.1510 
 16 N        7.8330    -3.1090     0.9430 N.pl3 1 <1>  -0.5080 
 17 C        8.6460    -2.1030     0.4860 C.2   1 <1>  -0.0380 
 18 C        8.9090     0.1310    -0.6680 C.3   1 <1>  -0.0220 
 19 O        8.3210    -4.0760     1.5700 O.3   1 <1>  -0.6920 
 20 C       10.1460    -2.2290     0.7330 C.3   1 <1>  -0.0220 
 21 C       10.3140     0.1660    -0.0520 C.3   1 <1>  -0.1600 
 22 C       10.9620    -1.2220    -0.0870 C.3   1 <1>  -0.1600 
 23 H        4.0770    -0.2410     0.9070 H     1 <1>   0.1500 
 24 H        0.6560    -2.1130    -0.8260 H     1 <1>   0.1500 
 25 H        2.0680    -3.9340    -1.6340 H     1 <1>   0.1500 
 26 H        4.4720    -3.9310    -1.1930 H     1 <1>   0.1500 
 27 H        5.9600    -3.9630     1.1660 H     1 <1>   0.1500 
 28 H        8.4250     1.0680    -0.4430 H     1 <1>   0.0800 
 29 H        8.9980     0.0550    -1.7390 H     1 <1>   0.0800 
 30 H       10.4640    -3.2280     0.4860 H     1 <1>   0.0800 
 31 H       10.3230    -2.0890     1.7850 H     1 <1>   0.0800 
 32 H       10.2510     0.4950     0.9720 H     1 <1>   0.0800 
 33 H       10.9290     0.8690    -0.5880 H     1 <1>   0.0800 
 34 H       11.0230    -1.5650    -1.1050 H     1 <1>   0.0800 
 35 H       11.9630    -1.1750     0.3060 H     1 <1>   0.0800 
@<TRIPOS>BOND
  1   1   2  1   
  2   2   3  1   
  3   2   4  1   
  4   2   5  1   
  5   5   6  ar  
  6   5   7  ar  
  7   6   8  ar  
  8   6  23  1   
  9   7   9  ar  
 10   7  24  1   
 11   8  10  1   
 12   8  11  ar  
 13   9  11  ar  
 14   9  25  1   
 15  10  12  1   
 16  10  13  2   
 17  11  26  1   
 18  12  14  2   
 19  12  15  1   
 20  13  16  1   
 21  13  27  1   
 22  15  17  2   
 23  15  18  1   
 24  16  17  1   
 25  16  19  1   
 26  17  20  1   
 27  18  21  1   
 28  18  28  1   
 29  18  29  1   
 30  20  22  1   
 31  20  30  1   
 32  20  31  1   
 33  21  22  1   
 34  21  32  1   
 35  21  33  1   
 36  22  34  1   
 37  22  35  1   
@<TRIPOS>SUBSTRUCTURE
  1 ****  10 GROUP 4 **** **** 0

# MOE 2024.06 (io_trps.svl 2023.06)
