@<TRIPOS>MOLECULE
NONAME
42 43 1 0 0 
SMALL
USER_CHARGES


@<TRIPOS>ATOM
  1 O        2.1140     2.2800     3.3060 O.2   1 <1>  -0.5700 
  2 C        1.9720     2.8630     2.2630 C.2   1 <1>   0.6590 
  3 O        2.9750     2.9980     1.4010 O.3   1 <1>  -0.4300 
  4 C        0.6410     3.4710     1.8490 C.3   1 <1>   0.1810 
  5 C        4.2360     2.3810     1.5840 C.3   1 <1>   0.2000 
  6 O        0.4010     3.2380     0.4670 O.3   1 <1>  -0.3630 
  7 C        5.2320     3.0980     0.6550 C.3   1 <1>   0.3430 
  8 C        4.1370     0.8980     1.1710 C.3   1 <1>  -0.1600 
  9 C       -0.7200     3.7120    -0.1360 C.ar  1 <1>   0.0820 
 10 N        4.7350     3.1290    -0.7750 N.4   1 <1>  -0.9590 
 11 C        4.3400     0.6820    -0.3460 C.3   1 <1>  -0.1600 
 12 C       -1.6660     4.5130     0.5000 C.ar  1 <1>  -0.1500 
 13 C       -0.9060     3.3620    -1.4640 C.ar  1 <1>  -0.1500 
 14 C        3.9460     1.9100    -1.1770 C.3   1 <1>   0.3430 
 15 C        5.8470     3.4100    -1.7310 C.3   1 <1>   0.2630 
 16 C       -2.7780     4.9600    -0.1950 C.ar  1 <1>  -0.1500 
 17 C       -2.0170     3.8090    -2.1560 C.ar  1 <1>  -0.1500 
 18 C       -2.9580     4.6090    -1.5300 C.ar  1 <1>   0.0820 
 19 O       -4.0180     5.0060    -2.2820 O.3   1 <1>  -0.3620 
 20 C       -5.0340     5.8200    -1.7410 C.3   1 <1>   0.0400 
 21 H        0.6670     4.5310     2.0180 H     1 <1>   0.0800 
 22 H       -0.1550     3.0220     2.4150 H     1 <1>   0.0800 
 23 H        4.5270     2.4800     2.6170 H     1 <1>   0.0800 
 24 H        6.1700     2.5710     0.7000 H     1 <1>   0.0800 
 25 H        5.3990     4.1010     1.0130 H     1 <1>   0.0800 
 26 H        3.1870     0.4970     1.4820 H     1 <1>   0.0800 
 27 H        4.8930     0.3390     1.6950 H     1 <1>   0.0800 
 28 H        4.0590     3.9070    -0.8180 H     1 <1>   0.4500 
 29 H        3.7530    -0.1630    -0.6630 H     1 <1>   0.0800 
 30 H        5.3700     0.4440    -0.5490 H     1 <1>   0.0800 
 31 H       -1.5620     4.8020     1.5280 H     1 <1>   0.1500 
 32 H       -0.1830     2.7380    -1.9560 H     1 <1>   0.1500 
 33 H        4.0810     1.7060    -2.2270 H     1 <1>   0.0800 
 34 H        2.8970     2.1020    -1.0100 H     1 <1>   0.0800 
 35 H        6.5640     2.6050    -1.7160 H     1 <1>   0.0800 
 36 H        6.3490     4.3260    -1.4640 H     1 <1>   0.0800 
 37 H        5.4620     3.5100    -2.7330 H     1 <1>   0.0800 
 38 H       -3.4920     5.5770     0.3170 H     1 <1>   0.1500 
 39 H       -2.1650     3.5390    -3.1870 H     1 <1>   0.1500 
 40 H       -5.7600     6.0030    -2.5130 H     1 <1>   0.0800 
 41 H       -4.6010     6.7510    -1.4200 H     1 <1>   0.0800 
 42 H       -5.4960     5.3030    -0.9200 H     1 <1>   0.0800 
@<TRIPOS>BOND
  1   1   2  2   
  2   2   3  1   
  3   2   4  1   
  4   3   5  1   
  5   4   6  1   
  6   4  21  1   
  7   4  22  1   
  8   5   7  1   
  9   5   8  1   
 10   5  23  1   
 11   6   9  1   
 12   7  10  1   
 13   7  24  1   
 14   7  25  1   
 15   8  11  1   
 16   8  26  1   
 17   8  27  1   
 18   9  12  ar  
 19   9  13  ar  
 20  10  14  1   
 21  10  15  1   
 22  10  28  1   
 23  11  14  1   
 24  11  29  1   
 25  11  30  1   
 26  12  16  ar  
 27  12  31  1   
 28  13  17  ar  
 29  13  32  1   
 30  14  33  1   
 31  14  34  1   
 32  15  35  1   
 33  15  36  1   
 34  15  37  1   
 35  16  18  ar  
 36  16  38  1   
 37  17  18  ar  
 38  17  39  1   
 39  18  19  1   
 40  19  20  1   
 41  20  40  1   
 42  20  41  1   
 43  20  42  1   
@<TRIPOS>SUBSTRUCTURE
  1 ****   6 GROUP 4 **** **** 0

# MOE 2024.06 (io_trps.svl 2023.06)
