@<TRIPOS>MOLECULE
NONAME
36 37 1 0 0 
SMALL
USER_CHARGES


@<TRIPOS>ATOM
  1 CL       0.4850    -1.3870     1.4230 Cl    1 <1>  -0.1770 
  2 C       -1.1670    -1.6020     0.8830 C.ar  1 <1>   0.1770 
  3 C       -1.4810    -2.3720    -0.2350 C.ar  1 <1>  -0.1790 
  4 C       -2.1500    -0.9920     1.6400 C.ar  1 <1>  -0.1500 
  5 C       -0.4900    -3.0190    -1.0670 C.2   1 <1>   0.9790 
  6 C       -2.8340    -2.5150    -0.5400 C.ar  1 <1>  -0.1500 
  7 C       -3.4830    -1.1480     1.3050 C.ar  1 <1>  -0.1500 
  8 O        0.5310    -2.4270    -1.4490 O.co2 1 <1>  -0.9000 
  9 O       -0.7040    -4.1740    -1.4750 O.co2 1 <1>  -0.9000 
 10 C       -3.8440    -1.9200     0.2050 C.ar  1 <1>   0.1170 
 11 N       -5.1700    -2.1510    -0.1870 N.am  1 <1>  -0.5470 
 12 C       -6.3550    -1.5790     0.1730 C.2   1 <1>   0.6900 
 13 O       -6.4190    -0.6190     0.9130 O.2   1 <1>  -0.5700 
 14 N       -7.4840    -2.1280    -0.3380 N.am  1 <1>  -0.7300 
 15 C       -8.8520    -1.6580    -0.0690 C.3   1 <1>   0.2200 
 16 C       -9.5870    -2.7200     0.7560 C.3   1 <1>  -0.1600 
 17 C       -9.5590    -1.4030    -1.4050 C.3   1 <1>  -0.1600 
 18 C      -11.0570    -2.3330     0.9750 C.3   1 <1>  -0.1600 
 19 C      -11.0300    -1.0140    -1.1890 C.3   1 <1>  -0.1600 
 20 C      -11.7690    -2.0740    -0.3600 C.3   1 <1>  -0.1600 
 21 H       -1.8680    -0.4010     2.4920 H     1 <1>   0.1500 
 22 H       -3.0850    -3.1210    -1.3930 H     1 <1>   0.1500 
 23 H       -4.2340    -0.6720     1.9060 H     1 <1>   0.1500 
 24 H       -5.2590    -2.8460    -0.9190 H     1 <1>   0.3700 
 25 H       -7.4230    -2.9890    -0.8730 H     1 <1>   0.3700 
 26 H       -8.8210    -0.7370     0.4910 H     1 <1>   0.0800 
 27 H       -9.1020    -2.8240     1.7100 H     1 <1>   0.0800 
 28 H       -9.5470    -3.6660     0.2460 H     1 <1>   0.0800 
 29 H       -9.5190    -2.2910    -2.0110 H     1 <1>   0.0800 
 30 H       -9.0550    -0.6080    -1.9260 H     1 <1>   0.0800 
 31 H      -11.1040    -1.4440     1.5810 H     1 <1>   0.0800 
 32 H      -11.5630    -3.1210     1.5070 H     1 <1>   0.0800 
 33 H      -11.5160    -0.8960    -2.1420 H     1 <1>   0.0800 
 34 H      -11.0750    -0.0670    -0.6770 H     1 <1>   0.0800 
 35 H      -12.7770    -1.7460    -0.1730 H     1 <1>   0.0800 
 36 H      -11.8210    -2.9920    -0.9210 H     1 <1>   0.0800 
@<TRIPOS>BOND
  1   1   2  1   
  2   2   3  ar  
  3   2   4  ar  
  4   3   5  1   
  5   3   6  ar  
  6   4   7  ar  
  7   4  21  1   
  8   5   8  ar  
  9   5   9  ar  
 10   6  10  ar  
 11   6  22  1   
 12   7  10  ar  
 13   7  23  1   
 14  10  11  1   
 15  11  12  am  
 16  11  24  1   
 17  12  13  2   
 18  12  14  am  
 19  14  15  1   
 20  14  25  1   
 21  15  16  1   
 22  15  17  1   
 23  15  26  1   
 24  16  18  1   
 25  16  27  1   
 26  16  28  1   
 27  17  19  1   
 28  17  29  1   
 29  17  30  1   
 30  18  20  1   
 31  18  31  1   
 32  18  32  1   
 33  19  20  1   
 34  19  33  1   
 35  19  34  1   
 36  20  35  1   
 37  20  36  1   
@<TRIPOS>SUBSTRUCTURE
  1 ****  11 GROUP 4 **** **** 0

# MOE 2024.06 (io_trps.svl 2023.06)
