@<TRIPOS>MOLECULE
NONAME
46 48 1 0 0 
SMALL
USER_CHARGES


@<TRIPOS>ATOM
  1 O        0.9130    -0.4160     1.1660 O.2   1 <1>  -0.5700 
  2 C        1.8180    -1.0060     0.6250 C.2   1 <1>   0.5690 
  3 N        1.7590    -2.2530     0.0630 N.am  1 <1>  -0.2370 
  4 C        3.2190    -0.4030     0.4980 C.3   1 <1>   0.2510 
  5 C        0.6080    -3.0740     0.0210 C.ar  1 <1>   0.1170 
  6 C        2.9870    -2.5800    -0.4500 C.2   1 <1>   0.5690 
  7 N        3.2320     0.8740    -0.2450 N.3   1 <1>  -0.9000 
  8 C        3.9950    -1.4720    -0.2730 C.3   1 <1>  -0.0990 
  9 C       -0.6220    -2.5580    -0.3730 C.ar  1 <1>  -0.1500 
 10 C        0.6750    -4.4180     0.3720 C.ar  1 <1>  -0.1500 
 11 O        3.2930    -3.6230    -0.9670 O.2   1 <1>  -0.5700 
 12 C        4.2030     1.8470     0.2510 C.3   1 <1>   0.1900 
 13 C       -1.7500    -3.3590    -0.4120 C.ar  1 <1>  -0.1500 
 14 C       -0.4510    -5.2210     0.3340 C.ar  1 <1>  -0.1500 
 15 C        3.7900     3.2530    -0.2350 C.3   1 <1>  -0.0800 
 16 C        5.6090     1.4790    -0.2450 C.3   1 <1>  -0.1600 
 17 C       -1.6720    -4.6950    -0.0570 C.ar  1 <1>  -0.1430 
 18 C        4.8390     4.3010     0.1780 C.3   1 <1>  -0.1600 
 19 C        2.4100     3.6760     0.3010 C.3   1 <1>  -0.2400 
 20 C        6.6470     2.5340     0.1590 C.3   1 <1>  -0.1600 
 21 C       -2.9070    -5.5750    -0.1010 C.3   1 <1>  -0.0970 
 22 C        6.2380     3.9270    -0.3280 C.3   1 <1>  -0.1600 
 23 H        3.6190    -0.2770     1.4900 H     1 <1>   0.0800 
 24 H        2.3090     1.3040    -0.0860 H     1 <1>   0.3600 
 25 H        4.8330    -1.8310     0.2930 H     1 <1>   0.0800 
 26 H        4.3160    -1.1230    -1.2380 H     1 <1>   0.0800 
 27 H       -0.7020    -1.5220    -0.6490 H     1 <1>   0.1500 
 28 H        1.6150    -4.8450     0.6740 H     1 <1>   0.1500 
 29 H        4.1970     1.8540     1.3290 H     1 <1>   0.0800 
 30 H       -2.6900    -2.9350    -0.7190 H     1 <1>   0.1500 
 31 H       -0.3720    -6.2580     0.6070 H     1 <1>   0.1500 
 32 H        3.7480     3.2360    -1.3120 H     1 <1>   0.0800 
 33 H        5.5910     1.3960    -1.3180 H     1 <1>   0.0800 
 34 H        5.9090     0.5340     0.1660 H     1 <1>   0.0800 
 35 H        4.8620     4.3860     1.2510 H     1 <1>   0.0800 
 36 H        4.5680     5.2630    -0.2230 H     1 <1>   0.0800 
 37 H        2.3960     3.6450     1.3760 H     1 <1>   0.0800 
 38 H        1.6360     3.0310    -0.0730 H     1 <1>   0.0800 
 39 H        2.1810     4.6780    -0.0150 H     1 <1>   0.0800 
 40 H        7.6060     2.2740    -0.2570 H     1 <1>   0.0800 
 41 H        6.7460     2.5470     1.2310 H     1 <1>   0.0800 
 42 H       -3.7910    -4.9930     0.0930 H     1 <1>   0.0800 
 43 H       -2.8440    -6.3500     0.6420 H     1 <1>   0.0800 
 44 H       -2.9960    -6.0300    -1.0710 H     1 <1>   0.0800 
 45 H        6.9530     4.6550     0.0160 H     1 <1>   0.0800 
 46 H        6.2440     3.9450    -1.4050 H     1 <1>   0.0800 
@<TRIPOS>BOND
  1   1   2  2   
  2   2   3  am  
  3   2   4  1   
  4   3   5  1   
  5   3   6  am  
  6   4   7  1   
  7   4   8  1   
  8   4  23  1   
  9   5   9  ar  
 10   5  10  ar  
 11   6   8  1   
 12   6  11  2   
 13   7  12  1   
 14   7  24  1   
 15   8  25  1   
 16   8  26  1   
 17   9  13  ar  
 18   9  27  1   
 19  10  14  ar  
 20  10  28  1   
 21  12  15  1   
 22  12  16  1   
 23  12  29  1   
 24  13  17  ar  
 25  13  30  1   
 26  14  17  ar  
 27  14  31  1   
 28  15  18  1   
 29  15  19  1   
 30  15  32  1   
 31  16  20  1   
 32  16  33  1   
 33  16  34  1   
 34  17  21  1   
 35  18  22  1   
 36  18  35  1   
 37  18  36  1   
 38  19  37  1   
 39  19  38  1   
 40  19  39  1   
 41  20  22  1   
 42  20  40  1   
 43  20  41  1   
 44  21  42  1   
 45  21  43  1   
 46  21  44  1   
 47  22  45  1   
 48  22  46  1   
@<TRIPOS>SUBSTRUCTURE
  1 ****   2 GROUP 4 **** **** 0

# MOE 2024.06 (io_trps.svl 2023.06)
