@<TRIPOS>MOLECULE
NONAME
38 39 1 0 0 
SMALL
USER_CHARGES


@<TRIPOS>ATOM
  1 O        0.2690     0.3730    -1.3290 O.2   1 <1>  -0.5700 
  2 C        0.2230     1.4040    -0.6820 C.2   1 <1>   0.5440 
  3 N        1.3820     1.9010    -0.1110 N.am  1 <1>  -0.6600 
  4 C       -1.0560     2.0670    -0.5140 C.ar  1 <1>   0.0860 
  5 C        1.3530     2.9060     0.9890 C.3   1 <1>   0.1400 
  6 C        2.7070     1.2840    -0.4070 C.3   1 <1>   0.1400 
  7 C       -1.2820     3.3480    -1.0110 C.ar  1 <1>  -0.1500 
  8 C       -2.1010     1.4390     0.1600 C.ar  1 <1>  -0.1500 
  9 C        1.8580     4.2600     0.4820 C.3   1 <1>  -0.1600 
 10 C        3.7520     2.3190    -0.8460 C.3   1 <1>  -0.1600 
 11 C       -2.4920     3.9940    -0.8240 C.ar  1 <1>  -0.1430 
 12 C       -3.3180     2.0680     0.3530 C.ar  1 <1>  -0.1430 
 13 C        3.3820     4.4550     0.5680 C.3   1 <1>  -0.1600 
 14 C        4.2450     3.2120     0.3040 C.3   1 <1>  -0.1600 
 15 C       -3.5070     3.3480    -0.1390 C.ar  1 <1>  -0.1500 
 16 C       -2.7170     5.3930    -1.3690 C.3   1 <1>  -0.0970 
 17 C       -4.4450     1.3700     1.0940 C.3   1 <1>  -0.0970 
 18 H        1.9510     2.5630     1.8160 H     1 <1>   0.0800 
 19 H        0.3470     3.0210     1.3520 H     1 <1>   0.0800 
 20 H        2.6050     0.5610    -1.1980 H     1 <1>   0.0800 
 21 H        3.0510     0.7550     0.4650 H     1 <1>   0.0800 
 22 H       -0.4910     3.8320    -1.5540 H     1 <1>   0.1500 
 23 H       -1.9390     0.4420     0.5310 H     1 <1>   0.1500 
 24 H        1.3920     5.0360     1.0620 H     1 <1>   0.0800 
 25 H        1.5380     4.3940    -0.5360 H     1 <1>   0.0800 
 26 H        3.3720     2.9080    -1.6620 H     1 <1>   0.0800 
 27 H        4.5970     1.7690    -1.2190 H     1 <1>   0.0800 
 28 H        3.6290     4.8260     1.5480 H     1 <1>   0.0800 
 29 H        3.6560     5.2230    -0.1350 H     1 <1>   0.0800 
 30 H        5.2420     3.5480     0.0750 H     1 <1>   0.0800 
 31 H        4.3160     2.6240     1.2030 H     1 <1>   0.0800 
 32 H       -4.4510     3.8430     0.0090 H     1 <1>   0.1500 
 33 H       -1.7850     5.8490    -1.6500 H     1 <1>   0.0800 
 34 H       -3.1870     6.0090    -0.6240 H     1 <1>   0.0800 
 35 H       -3.3530     5.3470    -2.2350 H     1 <1>   0.0800 
 36 H       -4.2000     0.3400     1.2810 H     1 <1>   0.0800 
 37 H       -5.3460     1.4040     0.5080 H     1 <1>   0.0800 
 38 H       -4.6210     1.8590     2.0340 H     1 <1>   0.0800 
@<TRIPOS>BOND
  1   1   2  2   
  2   2   3  am  
  3   2   4  1   
  4   3   5  1   
  5   3   6  1   
  6   4   7  ar  
  7   4   8  ar  
  8   5   9  1   
  9   5  18  1   
 10   5  19  1   
 11   6  10  1   
 12   6  20  1   
 13   6  21  1   
 14   7  11  ar  
 15   7  22  1   
 16   8  12  ar  
 17   8  23  1   
 18   9  13  1   
 19   9  24  1   
 20   9  25  1   
 21  10  14  1   
 22  10  26  1   
 23  10  27  1   
 24  11  15  ar  
 25  11  16  1   
 26  12  15  ar  
 27  12  17  1   
 28  13  14  1   
 29  13  28  1   
 30  13  29  1   
 31  14  30  1   
 32  14  31  1   
 33  15  32  1   
 34  16  33  1   
 35  16  34  1   
 36  16  35  1   
 37  17  36  1   
 38  17  37  1   
 39  17  38  1   
@<TRIPOS>SUBSTRUCTURE
  1 ****   4 GROUP 4 **** **** 0

# MOE 2024.06 (io_trps.svl 2023.06)
