@<TRIPOS>MOLECULE
NONAME
51 53 1 0 0 
SMALL
USER_CHARGES


@<TRIPOS>ATOM
  1 O        0.4790     0.0900    -0.5670 O.3   1 <1>  -0.6800 
  2 C        1.5070    -0.4940     0.1380 C.3   1 <1>   0.2000 
  3 C        2.8260     0.0730    -0.4190 C.3   1 <1>   0.3430 
  4 C        1.4140    -2.0080    -0.0490 C.3   1 <1>  -0.1600 
  5 N        4.0580    -0.6250     0.1250 N.4   1 <1>  -0.9590 
  6 C        2.6900    -2.6870     0.4680 C.3   1 <1>  -0.1600 
  7 C        5.3350    -0.0130    -0.3820 C.3   1 <1>   0.4230 
  8 C        3.9520    -2.0970    -0.1700 C.3   1 <1>   0.3430 
  9 C        6.5570    -0.7220     0.2260 C.3   1 <1>  -0.1600 
 10 C        5.3950     1.4850    -0.0390 C.3   1 <1>  -0.1600 
 11 C        7.8720    -0.0590    -0.1870 C.3   1 <1>   0.3430 
 12 C        6.7260     2.1150    -0.4520 C.3   1 <1>   0.3430 
 13 N        7.8590     1.3860     0.1820 N.4   1 <1>  -0.9590 
 14 C        9.1500     2.0620    -0.1910 C.3   1 <1>   0.3430 
 15 C       10.3260     1.5960     0.6700 C.3   1 <1>  -0.0170 
 16 C       11.5420     2.4140     0.2870 C.ar  1 <1>  -0.1430 
 17 C       11.8130     3.6090     0.9370 C.ar  1 <1>  -0.1500 
 18 C       12.3860     1.9830    -0.7260 C.ar  1 <1>  -0.1500 
 19 C       12.9120     4.3680     0.5720 C.ar  1 <1>  -0.1500 
 20 C       13.4850     2.7420    -1.0890 C.ar  1 <1>  -0.1500 
 21 C       13.7470     3.9350    -0.4420 C.ar  1 <1>  -0.1500 
 22 H       -0.3940    -0.2300    -0.2570 H     1 <1>   0.4000 
 23 H        1.3930    -0.2250     1.1750 H     1 <1>   0.0800 
 24 H        2.8510     1.1220    -0.1770 H     1 <1>   0.0800 
 25 H        2.8030    -0.0280    -1.4910 H     1 <1>   0.0800 
 26 H        1.2950    -2.2370    -1.0960 H     1 <1>   0.0800 
 27 H        0.5600    -2.3930     0.4820 H     1 <1>   0.0800 
 28 H        4.0260    -0.5270     1.1480 H     1 <1>   0.4500 
 29 H        2.6430    -3.7380     0.2370 H     1 <1>   0.0800 
 30 H        2.7500    -2.6010     1.5390 H     1 <1>   0.0800 
 31 H        5.3720    -0.1220    -1.4550 H     1 <1>   0.0800 
 32 H        4.8060    -2.6240     0.2240 H     1 <1>   0.0800 
 33 H        3.9180    -2.2570    -1.2360 H     1 <1>   0.0800 
 34 H        6.6060    -1.7400    -0.1150 H     1 <1>   0.0800 
 35 H        6.4940    -0.7290     1.3000 H     1 <1>   0.0800 
 36 H        5.2490     1.6390     1.0150 H     1 <1>   0.0800 
 37 H        4.6290     2.0220    -0.5680 H     1 <1>   0.0800 
 38 H        8.0140    -0.1600    -1.2520 H     1 <1>   0.0800 
 39 H        8.6920    -0.5590     0.3050 H     1 <1>   0.0800 
 40 H        6.7420     3.1510    -0.1490 H     1 <1>   0.0800 
 41 H        6.8280     2.0830    -1.5260 H     1 <1>   0.0800 
 42 H        7.7720     1.4720     1.2060 H     1 <1>   0.4500 
 43 H        9.0490     3.1280    -0.0600 H     1 <1>   0.0800 
 44 H        9.3790     1.8840    -1.2290 H     1 <1>   0.0800 
 45 H       10.5400     0.5560     0.5060 H     1 <1>   0.0800 
 46 H       10.1140     1.7480     1.7140 H     1 <1>   0.0800 
 47 H       11.1810     3.9640     1.7320 H     1 <1>   0.1500 
 48 H       12.2070     1.0550    -1.2410 H     1 <1>   0.1500 
 49 H       13.1210     5.2950     1.0780 H     1 <1>   0.1500 
 50 H       14.1400     2.4050    -1.8750 H     1 <1>   0.1500 
 51 H       14.6030     4.5250    -0.7240 H     1 <1>   0.1500 
@<TRIPOS>BOND
  1   1   2  1   
  2   1  22  1   
  3   2   3  1   
  4   2   4  1   
  5   2  23  1   
  6   3   5  1   
  7   3  24  1   
  8   3  25  1   
  9   4   6  1   
 10   4  26  1   
 11   4  27  1   
 12   5   7  1   
 13   5   8  1   
 14   5  28  1   
 15   6   8  1   
 16   6  29  1   
 17   6  30  1   
 18   7   9  1   
 19   7  10  1   
 20   7  31  1   
 21   8  32  1   
 22   8  33  1   
 23   9  11  1   
 24   9  34  1   
 25   9  35  1   
 26  10  12  1   
 27  10  36  1   
 28  10  37  1   
 29  11  13  1   
 30  11  38  1   
 31  11  39  1   
 32  12  13  1   
 33  12  40  1   
 34  12  41  1   
 35  13  14  1   
 36  13  42  1   
 37  14  15  1   
 38  14  43  1   
 39  14  44  1   
 40  15  16  1   
 41  15  45  1   
 42  15  46  1   
 43  16  17  ar  
 44  16  18  ar  
 45  17  19  ar  
 46  17  47  1   
 47  18  20  ar  
 48  18  48  1   
 49  19  21  ar  
 50  19  49  1   
 51  20  21  ar  
 52  20  50  1   
 53  21  51  1   
@<TRIPOS>SUBSTRUCTURE
  1 ****  13 GROUP 4 **** **** 0

# MOE 2024.06 (io_trps.svl 2023.06)
