@<TRIPOS>MOLECULE
NONAME
25 26 1 0 0 
SMALL
USER_CHARGES


@<TRIPOS>ATOM
  1 CL       1.2130    -0.0170     2.4180 Cl    1 <1>  -0.1770 
  2 C        1.9520     0.8940     1.1160 C.ar  1 <1>   0.1770 
  3 C        1.1450     1.6770     0.2880 C.ar  1 <1>   0.1170 
  4 C        3.3200     0.8110     0.9530 C.ar  1 <1>  -0.1500 
  5 N       -0.2450     1.7170     0.5140 N.am  1 <1>  -0.5470 
  6 C        1.7720     2.4020    -0.7260 C.ar  1 <1>  -0.1500 
  7 C        3.9040     1.5370    -0.0660 C.ar  1 <1>   0.1770 
  8 C       -1.2840     2.0540    -0.3060 C.2   1 <1>   0.6900 
  9 C        3.1440     2.3320    -0.9060 C.ar  1 <1>  -0.1500 
 10 CL       5.6320     1.4520    -0.2970 Cl    1 <1>  -0.1770 
 11 O       -1.1100     2.3200    -1.4790 O.2   1 <1>  -0.5700 
 12 N       -2.5320     2.0700     0.2310 N.am  1 <1>  -0.5790 
 13 C       -3.7710     2.3840    -0.4970 C.3   1 <1>   0.0490 
 14 C       -4.8220     3.1690     0.2140 C.3   1 <1>  -0.2000 
 15 C       -5.0290     1.7100    -0.0610 C.3   1 <1>  -0.2000 
 16 H        3.9190     0.2000     1.6020 H     1 <1>   0.1500 
 17 H       -0.5320     1.2840     1.3890 H     1 <1>   0.3700 
 18 H        1.1920     3.0280    -1.3810 H     1 <1>   0.1500 
 19 H        3.6220     2.8890    -1.6910 H     1 <1>   0.1500 
 20 H       -2.6490     1.9350     1.2310 H     1 <1>   0.3700 
 21 H       -3.6170     2.5600    -1.5510 H     1 <1>   0.1000 
 22 H       -5.4000     3.8800    -0.3500 H     1 <1>   0.1000 
 23 H       -4.6390     3.4930     1.2230 H     1 <1>   0.1000 
 24 H       -4.9900     1.0100     0.7550 H     1 <1>   0.1000 
 25 H       -5.7480     1.4310    -0.8120 H     1 <1>   0.1000 
@<TRIPOS>BOND
  1   1   2  1   
  2   2   3  ar  
  3   2   4  ar  
  4   3   5  1   
  5   3   6  ar  
  6   4   7  ar  
  7   4  16  1   
  8   5   8  am  
  9   5  17  1   
 10   6   9  ar  
 11   6  18  1   
 12   7   9  ar  
 13   7  10  1   
 14   8  11  2   
 15   8  12  am  
 16   9  19  1   
 17  12  13  1   
 18  12  20  1   
 19  13  14  1   
 20  13  15  1   
 21  13  21  1   
 22  14  15  1   
 23  14  22  1   
 24  14  23  1   
 25  15  24  1   
 26  15  25  1   
@<TRIPOS>SUBSTRUCTURE
  1 ****   5 GROUP 4 **** **** 0

# MOE 2024.06 (io_trps.svl 2023.06)
