@<TRIPOS>MOLECULE
NONAME
40 41 1 0 0 
SMALL
USER_CHARGES


@<TRIPOS>ATOM
  1 O       -0.2810     0.0120    -0.2030 O.2   1 <1>  -0.5700 
  2 C       -0.1650    -1.1820    -0.4040 C.2   1 <1>   0.6900 
  3 N       -1.2730    -1.9560    -0.6420 N.am  1 <1>  -0.6600 
  4 N        1.0570    -1.7910    -0.3670 N.am  1 <1>  -0.5470 
  5 C       -2.6390    -1.4600    -0.3160 C.3   1 <1>   0.1400 
  6 C       -1.2560    -3.2390    -1.3950 C.3   1 <1>   0.1400 
  7 C        2.3580    -1.2760    -0.2830 C.ar  1 <1>   0.1170 
  8 C       -3.4010    -2.5190     0.4990 C.3   1 <1>  -0.0800 
  9 C       -1.9790    -4.3160    -0.5800 C.3   1 <1>  -0.1600 
 10 C        3.3750    -2.0980     0.1860 C.ar  1 <1>  -0.1500 
 11 C        2.6860     0.0170    -0.6690 C.ar  1 <1>  -0.1500 
 12 C       -3.4070    -3.8790    -0.2210 C.3   1 <1>  -0.1600 
 13 C       -4.8370    -2.0570     0.7800 C.3   1 <1>  -0.2400 
 14 C        4.6860    -1.6540     0.2760 C.ar  1 <1>  -0.1430 
 15 C        3.9880     0.4710    -0.5830 C.ar  1 <1>  -0.1500 
 16 C        4.9960    -0.3550    -0.1120 C.ar  1 <1>  -0.1430 
 17 C        5.7550    -2.6010     0.8010 C.3   1 <1>  -0.0970 
 18 C        6.4170     0.1840    -0.0330 C.3   1 <1>  -0.0970 
 19 H        0.9780    -2.7950    -0.2670 H     1 <1>   0.3700 
 20 H       -3.1610    -1.2500    -1.2330 H     1 <1>   0.0800 
 21 H       -2.5810    -0.5470     0.2520 H     1 <1>   0.0800 
 22 H       -0.2510    -3.5530    -1.6130 H     1 <1>   0.0800 
 23 H       -1.7650    -3.0940    -2.3330 H     1 <1>   0.0800 
 24 H       -2.8950    -2.6300     1.4440 H     1 <1>   0.0800 
 25 H       -1.4210    -4.5100     0.3200 H     1 <1>   0.0800 
 26 H       -2.0140    -5.2280    -1.1480 H     1 <1>   0.0800 
 27 H        3.1330    -3.0990     0.4880 H     1 <1>   0.1500 
 28 H        1.9220     0.6750    -1.0400 H     1 <1>   0.1500 
 29 H       -3.9910    -3.8050    -1.1230 H     1 <1>   0.0800 
 30 H       -3.8630    -4.6230     0.4090 H     1 <1>   0.0800 
 31 H       -5.3800    -1.9240    -0.1390 H     1 <1>   0.0800 
 32 H       -4.8290    -1.1230     1.3130 H     1 <1>   0.0800 
 33 H       -5.3520    -2.7850     1.3820 H     1 <1>   0.0800 
 34 H        4.2080     1.4790    -0.8870 H     1 <1>   0.1500 
 35 H        5.3360    -3.5580     1.0530 H     1 <1>   0.0800 
 36 H        6.2090    -2.1900     1.6840 H     1 <1>   0.0800 
 37 H        6.5130    -2.7510     0.0530 H     1 <1>   0.0800 
 38 H        6.7650     0.1540     0.9830 H     1 <1>   0.0800 
 39 H        6.4630     1.2020    -0.3760 H     1 <1>   0.0800 
 40 H        7.0710    -0.4080    -0.6480 H     1 <1>   0.0800 
@<TRIPOS>BOND
  1   1   2  2   
  2   2   3  am  
  3   2   4  am  
  4   3   5  1   
  5   3   6  1   
  6   4   7  1   
  7   4  19  1   
  8   5   8  1   
  9   5  20  1   
 10   5  21  1   
 11   6   9  1   
 12   6  22  1   
 13   6  23  1   
 14   7  10  ar  
 15   7  11  ar  
 16   8  12  1   
 17   8  13  1   
 18   8  24  1   
 19   9  12  1   
 20   9  25  1   
 21   9  26  1   
 22  10  14  ar  
 23  10  27  1   
 24  11  15  ar  
 25  11  28  1   
 26  12  29  1   
 27  12  30  1   
 28  13  31  1   
 29  13  32  1   
 30  13  33  1   
 31  14  16  ar  
 32  14  17  1   
 33  15  16  ar  
 34  15  34  1   
 35  16  18  1   
 36  17  35  1   
 37  17  36  1   
 38  17  37  1   
 39  18  38  1   
 40  18  39  1   
 41  18  40  1   
@<TRIPOS>SUBSTRUCTURE
  1 ****   4 GROUP 4 **** **** 0

# MOE 2024.06 (io_trps.svl 2023.06)
