@<TRIPOS>MOLECULE
NONAME
53 56 1 0 0 
SMALL
USER_CHARGES


@<TRIPOS>ATOM
  1 S        0.2590     0.5630    -0.3790 S.3   1 <1>  -0.3320 
  2 C        1.3110     1.9080     0.1530 C.ar  1 <1>   0.7220 
  3 C       -1.4700     1.2210    -0.3520 C.3   1 <1>   0.0700 
  4 N        0.7080     3.0380     0.5160 N.ar  1 <1>  -0.3100 
  5 N        2.5900     1.6510     0.1410 N.ar  1 <1>  -0.6200 
  6 C       -1.7160     2.0000    -1.6470 C.3   1 <1>  -0.1600 
  7 N        1.4380     4.0440     0.9050 N.ar  1 <1>  -0.3100 
  8 C        3.3270     2.6700     0.5360 C.ar  1 <1>   0.3930 
  9 C       -3.1420     2.5600    -1.6920 C.3   1 <1>  -0.1600 
 10 C        2.7710     3.9090     0.9330 C.ar  1 <1>   0.3100 
 11 O        4.6340     2.3550     0.5030 O.3   1 <1>  -0.3620 
 12 C       -3.3870     3.3370    -2.9880 C.3   1 <1>  -0.2400 
 13 C        3.4960     5.1010     1.3690 C.ar  1 <1>   0.0000 
 14 C        5.6550     3.2000     0.9550 C.3   1 <1>   0.6440 
 15 C        4.7970     5.4030     0.9350 C.ar  1 <1>   0.1170 
 16 C        2.8910     6.0290     2.2260 C.ar  1 <1>  -0.1500 
 17 N        5.5150     4.4610     0.2070 N.am  1 <1>  -0.4770 
 18 C        7.0650     2.5770     0.8770 C.ar  1 <1>   0.1670 
 19 C        5.4060     6.6030     1.2820 C.ar  1 <1>  -0.1500 
 20 C        3.5110     7.2090     2.5920 C.ar  1 <1>  -0.1500 
 21 C        5.9300     4.6410    -1.0950 C.2   1 <1>   0.5690 
 22 N        7.1900     1.2990     0.5270 N.ar  1 <1>  -0.6200 
 23 C        8.1540     3.3840     1.1850 C.ar  1 <1>  -0.1500 
 24 C        4.7710     7.5050     2.1090 C.ar  1 <1>  -0.1500 
 25 O        5.9300     5.7330    -1.6040 O.2   1 <1>  -0.5700 
 26 C        6.3940     3.4920    -1.9670 C.3   1 <1>  -0.1790 
 27 C        8.4170     0.8120     0.4740 C.ar  1 <1>   0.1670 
 28 C        9.4310     2.8700     1.1280 C.ar  1 <1>  -0.1500 
 29 C        9.5540     1.5490     0.7610 C.ar  1 <1>  -0.1500 
 30 C        8.5300    -0.6420     0.0700 C.3   1 <1>  -0.0970 
 31 H       -1.5820     1.8380     0.5230 H     1 <1>   0.0800 
 32 H       -2.1250     0.3700    -0.2810 H     1 <1>   0.0800 
 33 H       -1.5600     1.3440    -2.4870 H     1 <1>   0.0800 
 34 H       -1.0120     2.8110    -1.7170 H     1 <1>   0.0800 
 35 H       -3.2990     3.2160    -0.8520 H     1 <1>   0.0800 
 36 H       -3.8520     1.7530    -1.6230 H     1 <1>   0.0800 
 37 H       -2.7020     4.1640    -3.0650 H     1 <1>   0.0800 
 38 H       -4.3910     3.7240    -3.0020 H     1 <1>   0.0800 
 39 H       -3.2550     2.6970    -3.8420 H     1 <1>   0.0800 
 40 H        5.4600     3.3790     1.9980 H     1 <1>   0.0800 
 41 H        1.9040     5.8400     2.6140 H     1 <1>   0.1500 
 42 H        6.3870     6.8270     0.9000 H     1 <1>   0.1500 
 43 H        3.0100     7.9030     3.2460 H     1 <1>   0.1500 
 44 H        8.0100     4.4120     1.4650 H     1 <1>   0.1500 
 45 H        5.2510     8.4320     2.3750 H     1 <1>   0.1500 
 46 H        7.4210     3.2590    -1.7570 H     1 <1>   0.0800 
 47 H        6.3170     3.7750    -3.0010 H     1 <1>   0.0800 
 48 H        5.7880     2.6180    -1.8160 H     1 <1>   0.0800 
 49 H       10.2930     3.4720     1.3580 H     1 <1>   0.1500 
 50 H       10.5270     1.0960     0.7000 H     1 <1>   0.1500 
 51 H        7.9870    -1.2510     0.7700 H     1 <1>   0.0800 
 52 H        9.5550    -0.9630     0.0500 H     1 <1>   0.0800 
 53 H        8.1020    -0.7770    -0.9060 H     1 <1>   0.0800 
@<TRIPOS>BOND
  1   1   2  1   
  2   1   3  1   
  3   2   4  ar  
  4   2   5  ar  
  5   3   6  1   
  6   3  31  1   
  7   3  32  1   
  8   4   7  ar  
  9   5   8  ar  
 10   6   9  1   
 11   6  33  1   
 12   6  34  1   
 13   7  10  ar  
 14   8  10  ar  
 15   8  11  1   
 16   9  12  1   
 17   9  35  1   
 18   9  36  1   
 19  10  13  1   
 20  11  14  1   
 21  12  37  1   
 22  12  38  1   
 23  12  39  1   
 24  13  15  ar  
 25  13  16  ar  
 26  14  17  1   
 27  14  18  1   
 28  14  40  1   
 29  15  17  1   
 30  15  19  ar  
 31  16  20  ar  
 32  16  41  1   
 33  17  21  am  
 34  18  22  ar  
 35  18  23  ar  
 36  19  24  ar  
 37  19  42  1   
 38  20  24  ar  
 39  20  43  1   
 40  21  25  2   
 41  21  26  1   
 42  22  27  ar  
 43  23  28  ar  
 44  23  44  1   
 45  24  45  1   
 46  26  46  1   
 47  26  47  1   
 48  26  48  1   
 49  27  29  ar  
 50  27  30  1   
 51  28  29  ar  
 52  28  49  1   
 53  29  50  1   
 54  30  51  1   
 55  30  52  1   
 56  30  53  1   
@<TRIPOS>SUBSTRUCTURE
  1 ****   8 GROUP 4 **** **** 0

# MOE 2024.06 (io_trps.svl 2023.06)
