@<TRIPOS>MOLECULE
NONAME
33 34 1 0 0 
SMALL
USER_CHARGES


@<TRIPOS>ATOM
  1 I        0.3570     0.1500    -0.4970 I     1 <1>  -0.0810 
  2 C       -1.5070    -0.8610    -0.3930 C.ar  1 <1>   0.0810 
  3 C       -1.7220    -1.7610     0.6330 C.ar  1 <1>  -0.1500 
  4 C       -2.4630    -0.5970    -1.3570 C.ar  1 <1>  -0.1500 
  5 C       -2.9410    -2.4110     0.6930 C.ar  1 <1>  -0.1500 
  6 C       -3.6750    -1.2590    -1.2780 C.ar  1 <1>  -0.1500 
  7 C       -3.9440    -2.1690    -0.2500 C.ar  1 <1>   0.0860 
  8 C       -5.2210    -2.8510    -0.1580 C.2   1 <1>   0.5440 
  9 O       -5.2460    -4.0620    -0.0430 O.2   1 <1>  -0.5700 
 10 N       -6.4160    -2.1660    -0.1800 N.am  1 <1>  -0.6600 
 11 C       -6.5290    -0.6940     0.0530 C.3   1 <1>   0.1400 
 12 C       -7.7190    -2.8970    -0.2110 C.3   1 <1>   0.1400 
 13 C       -7.8720    -0.3380     0.7240 C.3   1 <1>   0.2000 
 14 C       -8.8620    -1.9950    -0.7240 C.3   1 <1>   0.2000 
 15 O       -8.9630    -0.7720    -0.0390 O.3   1 <1>  -0.5600 
 16 C       -8.0380     1.1660     0.9170 C.3   1 <1>  -0.2400 
 17 C      -10.2240    -2.6760    -0.6120 C.3   1 <1>  -0.2400 
 18 H       -0.9560    -1.9520     1.3650 H     1 <1>   0.1500 
 19 H       -2.2630     0.1030    -2.1490 H     1 <1>   0.1500 
 20 H       -3.1320    -3.1240     1.4770 H     1 <1>   0.1500 
 21 H       -4.4290    -1.0790    -2.0250 H     1 <1>   0.1500 
 22 H       -6.4590    -0.1760    -0.8870 H     1 <1>   0.0800 
 23 H       -5.7230    -0.3630     0.6840 H     1 <1>   0.0800 
 24 H       -7.9500    -3.2480     0.7790 H     1 <1>   0.0800 
 25 H       -7.6310    -3.7580    -0.8520 H     1 <1>   0.0800 
 26 H       -7.9290    -0.8280     1.6810 H     1 <1>   0.0800 
 27 H       -8.6710    -1.7590    -1.7570 H     1 <1>   0.0800 
 28 H       -8.0170     1.6700    -0.0320 H     1 <1>   0.0800 
 29 H       -7.2450     1.5510     1.5330 H     1 <1>   0.0800 
 30 H       -8.9750     1.3680     1.4040 H     1 <1>   0.0800 
 31 H      -10.4480    -2.8910     0.4170 H     1 <1>   0.0800 
 32 H      -10.2230    -3.5960    -1.1670 H     1 <1>   0.0800 
 33 H      -10.9860    -2.0340    -1.0150 H     1 <1>   0.0800 
@<TRIPOS>BOND
  1   1   2  1   
  2   2   3  ar  
  3   2   4  ar  
  4   3   5  ar  
  5   3  18  1   
  6   4   6  ar  
  7   4  19  1   
  8   5   7  ar  
  9   5  20  1   
 10   6   7  ar  
 11   6  21  1   
 12   7   8  1   
 13   8   9  2   
 14   8  10  am  
 15  10  11  1   
 16  10  12  1   
 17  11  13  1   
 18  11  22  1   
 19  11  23  1   
 20  12  14  1   
 21  12  24  1   
 22  12  25  1   
 23  13  15  1   
 24  13  16  1   
 25  13  26  1   
 26  14  15  1   
 27  14  17  1   
 28  14  27  1   
 29  16  28  1   
 30  16  29  1   
 31  16  30  1   
 32  17  31  1   
 33  17  32  1   
 34  17  33  1   
@<TRIPOS>SUBSTRUCTURE
  1 ****  10 GROUP 4 **** **** 0

# MOE 2024.06 (io_trps.svl 2023.06)
