@<TRIPOS>MOLECULE
NONAME
33 34 1 0 0 
SMALL
USER_CHARGES


@<TRIPOS>ATOM
  1 O       -1.1680    -1.0310     0.5850 O.2   1 <1>  -0.5700 
  2 C       -2.0090    -0.2720     0.1710 C.2   1 <1>   0.5690 
  3 N       -3.1600    -0.0100     0.8670 N.am  1 <1>  -0.6600 
  4 C       -1.7410     0.3890    -1.1620 C.3   1 <1>  -0.1790 
  5 C       -4.2150     0.9520     0.4220 C.3   1 <1>   0.3200 
  6 C       -3.4870    -0.7390     2.1280 C.3   1 <1>   0.0600 
  7 C       -5.4150     0.2420    -0.1870 C.2   1 <1>   0.2980 
  8 O       -5.2600    -0.3800    -1.3260 O.3   1 <1>  -0.0190 
  9 N       -6.5850     0.1930     0.3060 N.2   1 <1>  -0.5650 
 10 N       -6.4320    -0.8680    -1.5810 N.2   1 <1>  -0.4100 
 11 C       -7.2190    -0.5380    -0.6180 C.2   1 <1>   0.4620 
 12 C       -8.6240    -0.8930    -0.5110 C.ar  1 <1>   0.0540 
 13 C       -9.2490    -1.6780    -1.4820 C.ar  1 <1>  -0.1500 
 14 C       -9.4110    -0.4700     0.5620 C.ar  1 <1>  -0.1500 
 15 C      -10.5850    -2.0220    -1.3880 C.ar  1 <1>  -0.1500 
 16 C      -10.7480    -0.8110     0.6610 C.ar  1 <1>  -0.1500 
 17 C      -11.3440    -1.5920    -0.3130 C.ar  1 <1>  -0.1440 
 18 C      -12.8110    -1.9670    -0.2080 C.3   1 <1>  -0.0970 
 19 H       -1.6090     1.4460    -1.0290 H     1 <1>   0.0800 
 20 H       -2.5510     0.1990    -1.8400 H     1 <1>   0.0800 
 21 H       -0.8410    -0.0150    -1.5880 H     1 <1>   0.0800 
 22 H       -3.8220     1.6480    -0.2950 H     1 <1>   0.0800 
 23 H       -4.5470     1.5210     1.2720 H     1 <1>   0.0800 
 24 H       -2.7110    -1.4410     2.3800 H     1 <1>   0.0800 
 25 H       -4.4090    -1.2830     2.0090 H     1 <1>   0.0800 
 26 H       -3.5910    -0.0400     2.9390 H     1 <1>   0.0800 
 27 H       -8.6800    -2.0250    -2.3260 H     1 <1>   0.1500 
 28 H       -8.9710     0.1370     1.3330 H     1 <1>   0.1500 
 29 H      -11.0330    -2.6280    -2.1560 H     1 <1>   0.1500 
 30 H      -11.3230    -0.4650     1.5020 H     1 <1>   0.1500 
 31 H      -12.9910    -2.9190    -0.6740 H     1 <1>   0.0800 
 32 H      -13.4130    -1.2220    -0.6970 H     1 <1>   0.0800 
 33 H      -13.1100    -2.0330     0.8230 H     1 <1>   0.0800 
@<TRIPOS>BOND
  1   1   2  2   
  2   2   3  am  
  3   2   4  1   
  4   3   5  1   
  5   3   6  1   
  6   4  19  1   
  7   4  20  1   
  8   4  21  1   
  9   5   7  1   
 10   5  22  1   
 11   5  23  1   
 12   6  24  1   
 13   6  25  1   
 14   6  26  1   
 15   7   8  1   
 16   7   9  2   
 17   8  10  1   
 18   9  11  1   
 19  10  11  2   
 20  11  12  1   
 21  12  13  ar  
 22  12  14  ar  
 23  13  15  ar  
 24  13  27  1   
 25  14  16  ar  
 26  14  28  1   
 27  15  17  ar  
 28  15  29  1   
 29  16  17  ar  
 30  16  30  1   
 31  17  18  1   
 32  18  31  1   
 33  18  32  1   
 34  18  33  1   
@<TRIPOS>SUBSTRUCTURE
  1 ****  11 GROUP 4 **** **** 0

# MOE 2024.06 (io_trps.svl 2023.06)
