@<TRIPOS>MOLECULE
NONAME
42 44 1 0 0 
SMALL
USER_CHARGES


@<TRIPOS>ATOM
  1 CL      -0.2050     1.0800     2.2710 Cl    1 <1>  -0.1770 
  2 C        1.1150     1.4430     1.1730 C.ar  1 <1>   0.1770 
  3 C        0.9840     2.4320     0.1880 C.ar  1 <1>   0.1000 
  4 C        2.2810     0.7160     1.3210 C.ar  1 <1>  -0.1500 
  5 N       -0.1610     3.2080    -0.0240 N.pl3 1 <1>  -0.8380 
  6 C        2.0770     2.6570    -0.6400 C.ar  1 <1>  -0.1500 
  7 C        3.3540     0.9610     0.4820 C.ar  1 <1>  -0.1500 
  8 C       -1.3700     2.5080    -0.5520 C.3   1 <1>   0.2090 
  9 C       -0.5110     4.2090     1.0280 C.3   1 <1>   0.2090 
 10 C        3.2480     1.9330    -0.4990 C.ar  1 <1>  -0.1500 
 11 C       -2.4290     3.5240    -1.0200 C.3   1 <1>   0.1960 
 12 C       -1.6000     5.1800     0.5310 C.3   1 <1>   0.1960 
 13 N       -2.8040     4.4730     0.0500 N.am  1 <1>  -0.8490 
 14 S       -4.0060     5.5600    -0.4400 S.o2  1 <1>   1.5010 
 15 O       -3.6360     6.0300    -1.7570 O.2   1 <1>  -0.6500 
 16 O       -4.1810     6.5120     0.6360 O.2   1 <1>  -0.6500 
 17 C       -5.4580     4.5090    -0.5570 C.2   1 <1>  -0.0630 
 18 C       -6.2260     4.3660    -1.7050 C.2   1 <1>   0.1390 
 19 C       -6.0640     3.6910     0.3400 C.2   1 <1>  -0.3020 
 20 N       -7.2110     3.5350    -1.5500 N.2   1 <1>  -0.7070 
 21 N       -7.1130     3.1180    -0.2760 N.pl3 1 <1>   0.3140 
 22 C       -8.0660     2.1530     0.3100 C.3   1 <1>   0.0960 
 23 C       -7.4560     0.7470     0.3790 C.3   1 <1>  -0.2400 
 24 H        2.3470    -0.0360     2.0870 H     1 <1>   0.1500 
 25 H        1.9960     3.4110    -1.4010 H     1 <1>   0.1500 
 26 H        4.2660     0.3990     0.5900 H     1 <1>   0.1500 
 27 H       -1.7960     1.8850     0.2140 H     1 <1>   0.0800 
 28 H       -1.0840     1.8800    -1.3780 H     1 <1>   0.0800 
 29 H        0.3700     4.7660     1.2960 H     1 <1>   0.0800 
 30 H       -0.8690     3.7050     1.9080 H     1 <1>   0.0800 
 31 H        4.0800     2.1270    -1.1540 H     1 <1>   0.1500 
 32 H       -3.3010     2.9830    -1.3460 H     1 <1>   0.0800 
 33 H       -2.0340     4.0600    -1.8680 H     1 <1>   0.0800 
 34 H       -1.1920     5.7860    -0.2610 H     1 <1>   0.0800 
 35 H       -1.8670     5.8340     1.3440 H     1 <1>   0.0800 
 36 H       -6.0280     4.8850    -2.6300 H     1 <1>   0.1500 
 37 H       -5.7980     3.4960     1.3630 H     1 <1>   0.1500 
 38 H       -8.9500     2.1410    -0.3020 H     1 <1>   0.0800 
 39 H       -8.3340     2.4940     1.2930 H     1 <1>   0.0800 
 40 H       -7.1950     0.4100    -0.6090 H     1 <1>   0.0800 
 41 H       -8.1710     0.0610     0.7960 H     1 <1>   0.0800 
 42 H       -6.5790     0.7460     1.0010 H     1 <1>   0.0800 
@<TRIPOS>BOND
  1   1   2  1   
  2   2   3  ar  
  3   2   4  ar  
  4   3   5  1   
  5   3   6  ar  
  6   4   7  ar  
  7   4  24  1   
  8   5   8  1   
  9   5   9  1   
 10   6  10  ar  
 11   6  25  1   
 12   7  10  ar  
 13   7  26  1   
 14   8  11  1   
 15   8  27  1   
 16   8  28  1   
 17   9  12  1   
 18   9  29  1   
 19   9  30  1   
 20  10  31  1   
 21  11  13  1   
 22  11  32  1   
 23  11  33  1   
 24  12  13  1   
 25  12  34  1   
 26  12  35  1   
 27  13  14  am  
 28  14  15  2   
 29  14  16  2   
 30  14  17  1   
 31  17  18  1   
 32  17  19  2   
 33  18  20  2   
 34  18  36  1   
 35  19  21  1   
 36  19  37  1   
 37  20  21  1   
 38  21  22  1   
 39  22  23  1   
 40  22  38  1   
 41  22  39  1   
 42  23  40  1   
 43  23  41  1   
 44  23  42  1   
@<TRIPOS>SUBSTRUCTURE
  1 ****  11 GROUP 4 **** **** 0

# MOE 2024.06 (io_trps.svl 2023.06)
