@<TRIPOS>MOLECULE
NONAME
50 52 1 0 0 
SMALL
USER_CHARGES


@<TRIPOS>ATOM
  1 S       -0.1320     0.1030     0.7860 S.o2  1 <1>   1.4470 
  2 O       -0.2110     0.0560     2.2310 O.2   1 <1>  -0.6500 
  3 O       -0.0730    -1.1340     0.0390 O.2   1 <1>  -0.6500 
  4 N       -1.5060     0.9450     0.2560 N.am  1 <1>  -0.8490 
  5 C        1.2380     1.1740     0.2660 C.ar  1 <1>  -0.0090 
  6 C       -1.7380     2.1620     1.0410 C.3   1 <1>   0.1960 
  7 C       -2.6880     0.0800     0.2530 C.3   1 <1>   0.1960 
  8 C        2.2320     1.5590     1.1610 C.ar  1 <1>  -0.1500 
  9 C        1.3260     1.6350    -1.0430 C.ar  1 <1>  -0.1500 
 10 C       -2.8820     2.9700     0.4270 C.3   1 <1>  -0.1600 
 11 C       -3.8760     0.8110    -0.3770 C.3   1 <1>  -0.1600 
 12 C        3.2770     2.3770     0.7660 C.ar  1 <1>  -0.1500 
 13 C        2.3670     2.4520    -1.4490 C.ar  1 <1>  -0.1500 
 14 C       -4.1750     2.1350     0.3470 C.3   1 <1>  -0.0190 
 15 C        3.3510     2.8210    -0.5480 C.ar  1 <1>   0.0830 
 16 C       -5.3310     2.8820    -0.3160 C.2   1 <1>   0.6590 
 17 O        4.3530     3.6240    -0.9820 O.3   1 <1>  -0.1650 
 18 O       -5.1820     3.9190    -0.9120 O.2   1 <1>  -0.5700 
 19 O       -6.5220     2.3110    -0.1890 O.3   1 <1>  -0.4300 
 20 C        5.6200     3.4960    -0.5170 C.ar  1 <1>   0.0830 
 21 C       -7.6770     2.8880    -0.7530 C.3   1 <1>   0.1200 
 22 C        6.3490     4.6480    -0.2660 C.ar  1 <1>  -0.1500 
 23 C        6.1990     2.2490    -0.3040 C.ar  1 <1>  -0.1500 
 24 C       -8.8610     1.9790    -0.4370 C.3   1 <1>  -0.2400 
 25 C        7.6450     4.5580     0.2110 C.ar  1 <1>  -0.1500 
 26 C        7.4940     2.1620     0.1750 C.ar  1 <1>  -0.1500 
 27 C        8.2160     3.3160     0.4340 C.ar  1 <1>  -0.1500 
 28 H       -0.8480     2.7690     1.0450 H     1 <1>   0.0800 
 29 H       -1.9750     1.9050     2.0610 H     1 <1>   0.0800 
 30 H       -2.9240    -0.2210     1.2620 H     1 <1>   0.0800 
 31 H       -2.4890    -0.8090    -0.3240 H     1 <1>   0.0800 
 32 H        2.1860     1.2160     2.1820 H     1 <1>   0.1500 
 33 H        0.5670     1.3480    -1.7520 H     1 <1>   0.1500 
 34 H       -2.5900     3.2920    -0.5580 H     1 <1>   0.0800 
 35 H       -3.0560     3.8500     1.0200 H     1 <1>   0.0800 
 36 H       -4.7410     0.1720    -0.3390 H     1 <1>   0.0800 
 37 H       -3.6540     1.0030    -1.4120 H     1 <1>   0.0800 
 38 H        4.0280     2.6690     1.4790 H     1 <1>   0.1500 
 39 H        2.4210     2.8030    -2.4650 H     1 <1>   0.1500 
 40 H       -4.4860     1.9080     1.3510 H     1 <1>   0.0800 
 41 H       -7.5300     2.9770    -1.8160 H     1 <1>   0.0800 
 42 H       -7.8150     3.8660    -0.3240 H     1 <1>   0.0800 
 43 H        5.8990     5.6080    -0.4440 H     1 <1>   0.1500 
 44 H        5.6430     1.3530    -0.5140 H     1 <1>   0.1500 
 45 H       -8.7050     1.0040    -0.8630 H     1 <1>   0.0800 
 46 H       -9.7580     2.3960    -0.8570 H     1 <1>   0.0800 
 47 H       -8.9890     1.8920     0.6270 H     1 <1>   0.0800 
 48 H        8.2090     5.4530     0.4090 H     1 <1>   0.1500 
 49 H        7.9430     1.1980     0.3430 H     1 <1>   0.1500 
 50 H        9.2240     3.2470     0.8060 H     1 <1>   0.1500 
@<TRIPOS>BOND
  1   1   2  2   
  2   1   3  2   
  3   1   4  am  
  4   1   5  1   
  5   4   6  1   
  6   4   7  1   
  7   5   8  ar  
  8   5   9  ar  
  9   6  10  1   
 10   6  28  1   
 11   6  29  1   
 12   7  11  1   
 13   7  30  1   
 14   7  31  1   
 15   8  12  ar  
 16   8  32  1   
 17   9  13  ar  
 18   9  33  1   
 19  10  14  1   
 20  10  34  1   
 21  10  35  1   
 22  11  14  1   
 23  11  36  1   
 24  11  37  1   
 25  12  15  ar  
 26  12  38  1   
 27  13  15  ar  
 28  13  39  1   
 29  14  16  1   
 30  14  40  1   
 31  15  17  1   
 32  16  18  2   
 33  16  19  1   
 34  17  20  1   
 35  19  21  1   
 36  20  22  ar  
 37  20  23  ar  
 38  21  24  1   
 39  21  41  1   
 40  21  42  1   
 41  22  25  ar  
 42  22  43  1   
 43  23  26  ar  
 44  23  44  1   
 45  24  45  1   
 46  24  46  1   
 47  24  47  1   
 48  25  27  ar  
 49  25  48  1   
 50  26  27  ar  
 51  26  49  1   
 52  27  50  1   
@<TRIPOS>SUBSTRUCTURE
  1 ****   5 GROUP 4 **** **** 0

# MOE 2024.06 (io_trps.svl 2023.06)
