@<TRIPOS>MOLECULE
NONAME
30 30 1 0 0 
SMALL
USER_CHARGES


@<TRIPOS>ATOM
  1 O       -4.3150     5.3360     0.6870 O.2   1 <1>  -0.5700 
  2 C       -4.4590     4.2060     0.2940 C.2   1 <1>   0.4230 
  3 C       -5.7580     3.5830     0.1350 C.ar  1 <1>   0.0860 
  4 C       -3.1860     3.4410    -0.0390 C.3   1 <1>  -0.0990 
  5 C       -5.9270     2.2540    -0.2780 C.ar  1 <1>  -0.1500 
  6 C       -6.9220     4.3150     0.3980 C.ar  1 <1>  -0.1500 
  7 C       -1.9650     4.3540     0.1190 C.3   1 <1>   0.3430 
  8 C       -7.1830     1.6950    -0.4200 C.ar  1 <1>  -0.1500 
  9 C       -8.1820     3.7640     0.2590 C.ar  1 <1>  -0.1500 
 10 N       -0.6900     3.6630    -0.2550 N.4   1 <1>  -0.9590 
 11 C       -8.3100     2.4490    -0.1520 C.ar  1 <1>   0.0830 
 12 C       -0.2960     2.6180     0.7440 C.3   1 <1>   0.2630 
 13 C        0.4040     4.6750    -0.3940 C.3   1 <1>   0.2630 
 14 O       -9.5170     1.8940    -0.2940 O.3   1 <1>  -0.5330 
 15 H       -3.2480     3.0960    -1.0540 H     1 <1>   0.0800 
 16 H       -3.1140     2.6040     0.6300 H     1 <1>   0.0800 
 17 H       -5.0800     1.6310    -0.4950 H     1 <1>   0.1500 
 18 H       -6.8350     5.3400     0.7200 H     1 <1>   0.1500 
 19 H       -1.9110     4.7070     1.1370 H     1 <1>   0.0800 
 20 H       -2.1070     5.2170    -0.5130 H     1 <1>   0.0800 
 21 H       -7.3040     0.6740    -0.7380 H     1 <1>   0.1500 
 22 H       -9.0530     4.3570     0.4700 H     1 <1>   0.1500 
 23 H       -0.8230     3.2150    -1.1740 H     1 <1>   0.4500 
 24 H       -0.1680     3.0610     1.7190 H     1 <1>   0.0800 
 25 H        0.6330     2.1540     0.4530 H     1 <1>   0.0800 
 26 H       -1.0520     1.8530     0.8090 H     1 <1>   0.0800 
 27 H        0.5720     5.1770     0.5450 H     1 <1>   0.0800 
 28 H        0.1410     5.4120    -1.1360 H     1 <1>   0.0800 
 29 H        1.3210     4.1960    -0.6980 H     1 <1>   0.0800 
 30 H      -10.2580     2.4910    -0.0850 H     1 <1>   0.4500 
@<TRIPOS>BOND
  1   1   2  2   
  2   2   3  1   
  3   2   4  1   
  4   3   5  ar  
  5   3   6  ar  
  6   4   7  1   
  7   4  15  1   
  8   4  16  1   
  9   5   8  ar  
 10   5  17  1   
 11   6   9  ar  
 12   6  18  1   
 13   7  10  1   
 14   7  19  1   
 15   7  20  1   
 16   8  11  ar  
 17   8  21  1   
 18   9  11  ar  
 19   9  22  1   
 20  10  12  1   
 21  10  13  1   
 22  10  23  1   
 23  11  14  1   
 24  12  24  1   
 25  12  25  1   
 26  12  26  1   
 27  13  27  1   
 28  13  28  1   
 29  13  29  1   
 30  14  30  1   
@<TRIPOS>SUBSTRUCTURE
  1 ****   2 GROUP 4 **** **** 0

# MOE 2024.06 (io_trps.svl 2023.06)
