@<TRIPOS>MOLECULE
NONAME
36 36 1 0 0 
SMALL
USER_CHARGES


@<TRIPOS>ATOM
  1 CL      -0.5950     1.3370     2.5330 Cl    1 <1>  -0.1770 
  2 C       -1.8320     1.8700     1.4190 C.ar  1 <1>   0.1770 
  3 C       -1.5360     2.7060     0.3400 C.ar  1 <1>   0.0860 
  4 C       -3.1170     1.4310     1.6670 C.ar  1 <1>  -0.1500 
  5 C       -0.2060     3.1960     0.0330 C.2   1 <1>   0.5440 
  6 C       -2.6100     3.0820    -0.4710 C.ar  1 <1>  -0.1500 
  7 C       -4.1500     1.8250     0.8370 C.ar  1 <1>  -0.1500 
  8 O       -0.0640     4.3310    -0.3770 O.2   1 <1>  -0.5700 
  9 N        0.9020     2.4030     0.1570 N.am  1 <1>  -0.7300 
 10 C       -3.9150     2.6630    -0.2460 C.ar  1 <1>  -0.0090 
 11 C        2.2970     2.8080    -0.1550 C.3   1 <1>   0.0600 
 12 S       -5.2810     3.1740    -1.3320 S.o2  1 <1>   1.4470 
 13 O       -5.7870     1.9720    -1.9570 O.2   1 <1>  -0.6500 
 14 O       -4.8700     4.2750    -2.1770 O.2   1 <1>  -0.6500 
 15 N       -6.4650     3.7590    -0.2530 N.am  1 <1>  -0.8490 
 16 C       -7.8280     3.5290    -0.7540 C.3   1 <1>   0.1960 
 17 C       -6.2770     5.1730     0.1170 C.3   1 <1>   0.1960 
 18 C       -8.8410     3.5340     0.3920 C.3   1 <1>  -0.2400 
 19 C       -5.0670     5.3620     1.0290 C.3   1 <1>  -0.2400 
 20 H       -3.3090     0.7860     2.5070 H     1 <1>   0.1500 
 21 H       -2.4110     3.7320    -1.3100 H     1 <1>   0.1500 
 22 H       -5.1560     1.4840     1.0290 H     1 <1>   0.1500 
 23 H        0.7990     1.4880     0.6040 H     1 <1>   0.3700 
 24 H        2.3130     3.7770    -0.6250 H     1 <1>   0.0800 
 25 H        2.7430     2.0920    -0.8230 H     1 <1>   0.0800 
 26 H        2.8730     2.8550     0.7530 H     1 <1>   0.0800 
 27 H       -7.8990     2.5580    -1.2150 H     1 <1>   0.0800 
 28 H       -8.0840     4.2640    -1.5010 H     1 <1>   0.0800 
 29 H       -7.1330     5.5260     0.6630 H     1 <1>   0.0800 
 30 H       -6.1840     5.7890    -0.7630 H     1 <1>   0.0800 
 31 H       -8.5180     2.8690     1.1720 H     1 <1>   0.0800 
 32 H       -9.7900     3.1870     0.0250 H     1 <1>   0.0800 
 33 H       -8.9890     4.5180     0.7930 H     1 <1>   0.0800 
 34 H       -5.0850     4.6480     1.8330 H     1 <1>   0.0800 
 35 H       -5.0960     6.3490     1.4530 H     1 <1>   0.0800 
 36 H       -4.1500     5.2790     0.4780 H     1 <1>   0.0800 
@<TRIPOS>BOND
  1   1   2  1   
  2   2   3  ar  
  3   2   4  ar  
  4   3   5  1   
  5   3   6  ar  
  6   4   7  ar  
  7   4  20  1   
  8   5   8  2   
  9   5   9  am  
 10   6  10  ar  
 11   6  21  1   
 12   7  10  ar  
 13   7  22  1   
 14   9  11  1   
 15   9  23  1   
 16  10  12  1   
 17  11  24  1   
 18  11  25  1   
 19  11  26  1   
 20  12  13  2   
 21  12  14  2   
 22  12  15  am  
 23  15  16  1   
 24  15  17  1   
 25  16  18  1   
 26  16  27  1   
 27  16  28  1   
 28  17  19  1   
 29  17  29  1   
 30  17  30  1   
 31  18  31  1   
 32  18  32  1   
 33  18  33  1   
 34  19  34  1   
 35  19  35  1   
 36  19  36  1   
@<TRIPOS>SUBSTRUCTURE
  1 ****  10 GROUP 4 **** **** 0

# MOE 2024.06 (io_trps.svl 2023.06)
