@<TRIPOS>MOLECULE
NONAME
46 48 1 0 0 
SMALL
USER_CHARGES


@<TRIPOS>ATOM
  1 F       -2.9580     0.5810    -0.2380 F     1 <1>  -0.1900 
  2 C       -1.8370     1.2520    -0.2430 C.ar  1 <1>   0.1900 
  3 C       -1.7320     2.3810     0.5530 C.ar  1 <1>  -0.1440 
  4 C       -0.8100     0.8140    -1.0560 C.ar  1 <1>  -0.1500 
  5 C       -0.5370     3.0890     0.5290 C.ar  1 <1>  -0.1500 
  6 C       -2.8930     2.8130     1.4240 C.3   1 <1>   0.4870 
  7 C        0.3720     1.5330    -1.0720 C.ar  1 <1>  -0.1500 
  8 C        0.5050     2.6650    -0.2820 C.ar  1 <1>  -0.1500 
  9 N       -3.6180     3.9230     0.7480 N.4   1 <1>  -0.9590 
 10 C       -4.6130     4.5820     1.6700 C.3   1 <1>   0.3430 
 11 C       -4.2970     3.4540    -0.5180 C.3   1 <1>   0.3430 
 12 C       -5.3590     5.7530     0.9970 C.3   1 <1>   0.2090 
 13 C       -5.0590     4.5830    -1.2450 C.3   1 <1>   0.2090 
 14 N       -5.9380     5.3520    -0.3160 N.pl3 1 <1>  -0.8380 
 15 C       -7.3100     5.1020    -0.3560 C.ar  1 <1>   0.1000 
 16 C       -8.1990     6.0790    -0.8050 C.ar  1 <1>  -0.1430 
 17 C       -7.8120     3.8730     0.0610 C.ar  1 <1>  -0.1500 
 18 C       -9.5570     5.8120    -0.8250 C.ar  1 <1>  -0.1500 
 19 C       -7.6950     7.4360    -1.2760 C.3   1 <1>  -0.0970 
 20 C       -9.1690     3.6070     0.0380 C.ar  1 <1>  -0.1430 
 21 C      -10.0410     4.5850    -0.4070 C.ar  1 <1>  -0.1500 
 22 C       -9.7170     2.2660     0.4920 C.3   1 <1>  -0.0970 
 23 H       -0.9290    -0.0690    -1.6590 H     1 <1>   0.1500 
 24 H       -0.3960     3.9670     1.1380 H     1 <1>   0.1500 
 25 H       -2.5120     3.1450     2.3760 H     1 <1>   0.0800 
 26 H       -3.5580     1.9820     1.5960 H     1 <1>   0.0800 
 27 H        1.1910     1.2130    -1.6960 H     1 <1>   0.1500 
 28 H        1.4320     3.2150    -0.2980 H     1 <1>   0.1500 
 29 H       -2.9210     4.6250     0.4700 H     1 <1>   0.4500 
 30 H       -4.1140     4.9490     2.5520 H     1 <1>   0.0800 
 31 H       -5.3480     3.8590     1.9830 H     1 <1>   0.0800 
 32 H       -5.0010     2.6740    -0.2810 H     1 <1>   0.0800 
 33 H       -3.5690     3.0390    -1.1960 H     1 <1>   0.0800 
 34 H       -4.6860     6.5790     0.8470 H     1 <1>   0.0800 
 35 H       -6.1490     6.0920     1.6460 H     1 <1>   0.0800 
 36 H       -5.6570     4.1580    -2.0340 H     1 <1>   0.0800 
 37 H       -4.3570     5.2590    -1.7010 H     1 <1>   0.0800 
 38 H       -7.1350     3.1190     0.4070 H     1 <1>   0.1500 
 39 H      -10.2520     6.5580    -1.1690 H     1 <1>   0.1500 
 40 H       -6.9810     7.3030    -2.0680 H     1 <1>   0.0800 
 41 H       -7.2190     7.9500    -0.4620 H     1 <1>   0.0800 
 42 H       -8.5020     8.0440    -1.6420 H     1 <1>   0.0800 
 43 H      -11.1000     4.3960    -0.4300 H     1 <1>   0.1500 
 44 H       -8.9230     1.5730     0.7030 H     1 <1>   0.0800 
 45 H      -10.3400     1.8460    -0.2780 H     1 <1>   0.0800 
 46 H      -10.3070     2.3960     1.3810 H     1 <1>   0.0800 
@<TRIPOS>BOND
  1   1   2  1   
  2   2   3  ar  
  3   2   4  ar  
  4   3   5  ar  
  5   3   6  1   
  6   4   7  ar  
  7   4  23  1   
  8   5   8  ar  
  9   5  24  1   
 10   6   9  1   
 11   6  25  1   
 12   6  26  1   
 13   7   8  ar  
 14   7  27  1   
 15   8  28  1   
 16   9  10  1   
 17   9  11  1   
 18   9  29  1   
 19  10  12  1   
 20  10  30  1   
 21  10  31  1   
 22  11  13  1   
 23  11  32  1   
 24  11  33  1   
 25  12  14  1   
 26  12  34  1   
 27  12  35  1   
 28  13  14  1   
 29  13  36  1   
 30  13  37  1   
 31  14  15  1   
 32  15  16  ar  
 33  15  17  ar  
 34  16  18  ar  
 35  16  19  1   
 36  17  20  ar  
 37  17  38  1   
 38  18  21  ar  
 39  18  39  1   
 40  19  40  1   
 41  19  41  1   
 42  19  42  1   
 43  20  21  ar  
 44  20  22  1   
 45  21  43  1   
 46  22  44  1   
 47  22  45  1   
 48  22  46  1   
@<TRIPOS>SUBSTRUCTURE
  1 ****  11 GROUP 4 **** **** 0

# MOE 2024.06 (io_trps.svl 2023.06)
