@<TRIPOS>MOLECULE
NONAME
39 41 1 0 0 
SMALL
USER_CHARGES


@<TRIPOS>ATOM
  1 O       -0.3620     0.4250     0.6280 O.2   1 <1>  -0.5700 
  2 C       -0.5800     1.5440     1.0270 C.2   1 <1>   0.5690 
  3 N        0.2890     2.6010     0.9950 N.am  1 <1>  -0.2370 
  4 C       -1.9020     1.9490     1.6830 C.3   1 <1>   0.2510 
  5 C        1.5780     2.5770     0.4110 C.ar  1 <1>   0.1170 
  6 C       -0.2950     3.6970     1.5770 C.2   1 <1>   0.5690 
  7 N       -3.1560     1.6530     0.9330 N.3   1 <1>  -0.9000 
  8 C       -1.7040     3.4210     2.0440 C.3   1 <1>  -0.0990 
  9 C        1.9680     3.5800    -0.4780 C.ar  1 <1>  -0.1500 
 10 C        2.4770     1.5480     0.7140 C.ar  1 <1>  -0.1500 
 11 O        0.2110     4.7780     1.7250 O.2   1 <1>  -0.5700 
 12 C       -3.5190     2.2020    -0.3680 C.3   1 <1>   0.2700 
 13 C        3.2310     3.5190    -1.0290 C.ar  1 <1>   0.0830 
 14 C        3.7460     1.5030     0.1510 C.ar  1 <1>  -0.1500 
 15 C       -4.5700     3.2900    -0.1550 C.3   1 <1>  -0.2400 
 16 C       -4.1660     1.0400    -1.1170 C.3   1 <1>  -0.2400 
 17 C       -2.3500     2.7290    -1.2050 C.3   1 <1>  -0.2400 
 18 O        3.7990     4.3660    -1.8950 O.3   1 <1>  -0.3630 
 19 C        4.0970     2.5110    -0.7240 C.ar  1 <1>   0.0830 
 20 C        5.1120     3.8700    -2.1500 C.3   1 <1>   0.4000 
 21 O        5.2510     2.6770    -1.3810 O.3   1 <1>  -0.3630 
 22 H       -1.9560     1.3950     2.6040 H     1 <1>   0.0800 
 23 H       -3.1630     0.6330     0.7990 H     1 <1>   0.3600 
 24 H       -1.7650     3.5680     3.1060 H     1 <1>   0.0800 
 25 H       -2.3850     4.0790     1.5480 H     1 <1>   0.0800 
 26 H        1.3120     4.3910    -0.7330 H     1 <1>   0.1500 
 27 H        2.1810     0.7690     1.3950 H     1 <1>   0.1500 
 28 H        4.4400     0.7150     0.3790 H     1 <1>   0.1500 
 29 H       -5.3720     2.9180     0.4560 H     1 <1>   0.0800 
 30 H       -4.9810     3.5960    -1.1000 H     1 <1>   0.0800 
 31 H       -4.1520     4.1590     0.3110 H     1 <1>   0.0800 
 32 H       -3.4550     0.2480    -1.2740 H     1 <1>   0.0800 
 33 H       -4.5190     1.3650    -2.0790 H     1 <1>   0.0800 
 34 H       -5.0070     0.6550    -0.5670 H     1 <1>   0.0800 
 35 H       -1.6250     1.9570    -1.3880 H     1 <1>   0.0800 
 36 H       -1.8840     3.5790    -0.7470 H     1 <1>   0.0800 
 37 H       -2.7170     3.0530    -2.1630 H     1 <1>   0.0800 
 38 H        5.8390     4.5940    -1.8280 H     1 <1>   0.0800 
 39 H        5.2140     3.6400    -3.1960 H     1 <1>   0.0800 
@<TRIPOS>BOND
  1   1   2  2   
  2   2   3  am  
  3   2   4  1   
  4   3   5  1   
  5   3   6  am  
  6   4   7  1   
  7   4   8  1   
  8   4  22  1   
  9   5   9  ar  
 10   5  10  ar  
 11   6   8  1   
 12   6  11  2   
 13   7  12  1   
 14   7  23  1   
 15   8  24  1   
 16   8  25  1   
 17   9  13  ar  
 18   9  26  1   
 19  10  14  ar  
 20  10  27  1   
 21  12  15  1   
 22  12  16  1   
 23  12  17  1   
 24  13  18  1   
 25  13  19  ar  
 26  14  19  ar  
 27  14  28  1   
 28  15  29  1   
 29  15  30  1   
 30  15  31  1   
 31  16  32  1   
 32  16  33  1   
 33  16  34  1   
 34  17  35  1   
 35  17  36  1   
 36  17  37  1   
 37  18  20  1   
 38  19  21  1   
 39  20  21  1   
 40  20  38  1   
 41  20  39  1   
@<TRIPOS>SUBSTRUCTURE
  1 ****   3 GROUP 4 **** **** 0

# MOE 2024.06 (io_trps.svl 2023.06)
