@<TRIPOS>MOLECULE
NONAME
43 45 1 0 0 
SMALL
USER_CHARGES


@<TRIPOS>ATOM
  1 F       -5.4940     5.1270    -1.8940 F     1 <1>  -0.1900 
  2 C       -5.1780     5.8820    -0.8750 C.ar  1 <1>   0.1900 
  3 C       -4.9620     5.2980     0.3640 C.ar  1 <1>  -0.1440 
  4 C       -5.0930     7.2470    -1.0800 C.ar  1 <1>  -0.1500 
  5 C       -4.6570     6.1310     1.4310 C.ar  1 <1>  -0.1500 
  6 C       -5.0610     3.7950     0.5520 C.3   1 <1>   0.2640 
  7 C       -4.7880     8.0620    -0.0040 C.ar  1 <1>  -0.1500 
  8 C       -4.5720     7.5030     1.2460 C.ar  1 <1>  -0.1500 
  9 O       -6.4350     3.4710     0.6510 O.3   1 <1>  -0.3620 
 10 C       -6.8650     2.3390     0.0330 C.ar  1 <1>   0.0830 
 11 C       -6.3140     1.0830     0.3090 C.ar  1 <1>   0.0830 
 12 C       -7.9040     2.4700    -0.8820 C.ar  1 <1>  -0.1430 
 13 O       -5.3200     0.9990     1.2380 O.3   1 <1>  -0.3630 
 14 C       -6.8090    -0.0310    -0.3620 C.ar  1 <1>  -0.1500 
 15 C       -8.3860     1.3480    -1.5380 C.ar  1 <1>  -0.1500 
 16 C       -8.4970     3.8360    -1.1590 C.3   1 <1>   0.4860 
 17 C       -4.7590    -0.2410     1.6140 C.3   1 <1>   0.0400 
 18 C       -7.8380     0.1040    -1.2780 C.ar  1 <1>  -0.1500 
 19 N       -9.0410     4.3410     0.1140 N.4   1 <1>  -0.7990 
 20 C       -9.5420     5.7130     0.0440 C.3   1 <1>   0.2960 
 21 C       -8.5860     6.8200     0.3230 C.3   1 <1>  -0.2000 
 22 C       -9.6520     6.4720     1.3200 C.3   1 <1>  -0.2000 
 23 H       -5.2590     7.6600    -2.0590 H     1 <1>   0.1500 
 24 H       -4.4820     5.7190     2.4110 H     1 <1>   0.1500 
 25 H       -4.5730     3.4770     1.4570 H     1 <1>   0.0800 
 26 H       -4.6280     3.2750    -0.2870 H     1 <1>   0.0800 
 27 H       -4.7120     9.1280    -0.1380 H     1 <1>   0.1500 
 28 H       -4.3320     8.1410     2.0810 H     1 <1>   0.1500 
 29 H       -6.4120    -1.0130    -0.1870 H     1 <1>   0.1500 
 30 H       -9.1850     1.4220    -2.2570 H     1 <1>   0.1500 
 31 H       -9.2750     3.7660    -1.9010 H     1 <1>   0.0800 
 32 H       -7.7260     4.4980    -1.5190 H     1 <1>   0.0800 
 33 H       -4.0170    -0.0580     2.3700 H     1 <1>   0.0800 
 34 H       -4.2960    -0.6920     0.7530 H     1 <1>   0.0800 
 35 H       -5.5350    -0.8710     2.0110 H     1 <1>   0.0800 
 36 H       -8.2110    -0.7660    -1.7920 H     1 <1>   0.1500 
 37 H       -8.2490     4.2910     0.7750 H     1 <1>   0.4500 
 38 H       -9.7500     3.6910     0.4640 H     1 <1>   0.4500 
 39 H      -10.3110     5.8620    -0.7000 H     1 <1>   0.1000 
 40 H       -8.6850     7.7490    -0.2130 H     1 <1>   0.1000 
 41 H       -7.5660     6.6100     0.5910 H     1 <1>   0.1000 
 42 H       -9.3530     6.0180     2.2490 H     1 <1>   0.1000 
 43 H      -10.4610     7.1720     1.4470 H     1 <1>   0.1000 
@<TRIPOS>BOND
  1   1   2  1   
  2   2   3  ar  
  3   2   4  ar  
  4   3   5  ar  
  5   3   6  1   
  6   4   7  ar  
  7   4  23  1   
  8   5   8  ar  
  9   5  24  1   
 10   6   9  1   
 11   6  25  1   
 12   6  26  1   
 13   7   8  ar  
 14   7  27  1   
 15   8  28  1   
 16   9  10  1   
 17  10  11  ar  
 18  10  12  ar  
 19  11  13  1   
 20  11  14  ar  
 21  12  15  ar  
 22  12  16  1   
 23  13  17  1   
 24  14  18  ar  
 25  14  29  1   
 26  15  18  ar  
 27  15  30  1   
 28  16  19  1   
 29  16  31  1   
 30  16  32  1   
 31  17  33  1   
 32  17  34  1   
 33  17  35  1   
 34  18  36  1   
 35  19  20  1   
 36  19  37  1   
 37  19  38  1   
 38  20  21  1   
 39  20  22  1   
 40  20  39  1   
 41  21  22  1   
 42  21  40  1   
 43  21  41  1   
 44  22  42  1   
 45  22  43  1   
@<TRIPOS>SUBSTRUCTURE
  1 ****   9 GROUP 4 **** **** 0

# MOE 2024.06 (io_trps.svl 2023.06)
