@<TRIPOS>MOLECULE
NONAME
54 56 1 0 0 
SMALL
USER_CHARGES


@<TRIPOS>ATOM
  1 S       -0.6460     0.0730    -0.1050 S.o2  1 <1>   1.4470 
  2 O       -0.1240     0.0650    -1.4550 O.2   1 <1>  -0.6500 
  3 O       -0.0250     0.9180     0.8910 O.2   1 <1>  -0.6500 
  4 N       -0.5720    -1.5240     0.4620 N.am  1 <1>  -0.8490 
  5 C       -2.4260     0.4140    -0.1370 C.ar  1 <1>  -0.0090 
  6 C        0.7740    -1.8580     0.9360 C.3   1 <1>   0.1960 
  7 C       -1.0250    -2.4870    -0.5480 C.3   1 <1>   0.1960 
  8 C       -3.2250     0.1360     0.9670 C.ar  1 <1>  -0.1500 
  9 C       -3.0350     0.9650    -1.2590 C.ar  1 <1>  -0.1500 
 10 C        0.7800    -3.2470     1.5850 C.3   1 <1>  -0.1600 
 11 C       -1.0980    -3.8930     0.0560 C.3   1 <1>  -0.1600 
 12 C       -4.5850     0.3870     0.9470 C.ar  1 <1>  -0.1500 
 13 C       -4.3950     1.2210    -1.2890 C.ar  1 <1>  -0.1500 
 14 C        0.2600    -4.3220     0.6240 C.3   1 <1>  -0.1600 
 15 C       -5.1800     0.9240    -0.1810 C.ar  1 <1>   0.0830 
 16 O       -6.5160     1.1230    -0.1280 O.3   1 <1>  -0.3630 
 17 C       -7.2580     1.4560    -1.2900 C.3   1 <1>   0.1810 
 18 C       -8.7640     1.3780    -1.0450 C.2   1 <1>   0.5690 
 19 O       -9.3940     2.3890    -1.2630 O.2   1 <1>  -0.5700 
 20 N       -9.3880     0.2130    -0.6520 N.am  1 <1>  -0.6600 
 21 C      -10.8770     0.2070    -0.5080 C.3   1 <1>   0.1400 
 22 C       -8.6660    -1.0750    -0.4390 C.3   1 <1>   0.1400 
 23 C      -11.4410    -0.8360     0.4680 C.3   1 <1>  -0.1600 
 24 C       -8.3490    -1.2750     1.0480 C.3   1 <1>  -0.1600 
 25 C      -10.7610    -0.8500     1.8450 C.3   1 <1>  -0.1600 
 26 C       -9.5340    -1.7700     1.8880 C.3   1 <1>  -0.1600 
 27 H        1.0920    -1.1370     1.6710 H     1 <1>   0.0800 
 28 H        1.4700    -1.8290     0.1130 H     1 <1>   0.0800 
 29 H       -0.3490    -2.4860    -1.3880 H     1 <1>   0.0800 
 30 H       -2.0040    -2.2100    -0.9040 H     1 <1>   0.0800 
 31 H       -2.7720    -0.2830     1.8500 H     1 <1>   0.1500 
 32 H       -2.4330     1.1980    -2.1220 H     1 <1>   0.1500 
 33 H        0.1630    -3.2180     2.4660 H     1 <1>   0.0800 
 34 H        1.7810    -3.4910     1.8940 H     1 <1>   0.0800 
 35 H       -1.4100    -4.5910    -0.7000 H     1 <1>   0.0800 
 36 H       -1.8380    -3.8970     0.8370 H     1 <1>   0.0800 
 37 H       -5.1920     0.1680     1.8080 H     1 <1>   0.1500 
 38 H       -4.8180     1.6540    -2.1770 H     1 <1>   0.1500 
 39 H        0.1650    -5.2630     1.1380 H     1 <1>   0.0800 
 40 H        0.9610    -4.4500    -0.1830 H     1 <1>   0.0800 
 41 H       -6.9940     0.7750    -2.0770 H     1 <1>   0.0800 
 42 H       -6.9950     2.4580    -1.5750 H     1 <1>   0.0800 
 43 H      -11.3140     0.0560    -1.4790 H     1 <1>   0.0800 
 44 H      -11.1900     1.1790    -0.1650 H     1 <1>   0.0800 
 45 H       -7.7440    -1.0710    -0.9910 H     1 <1>   0.0800 
 46 H       -9.2530    -1.8950    -0.8140 H     1 <1>   0.0800 
 47 H      -11.4140    -1.8130     0.0210 H     1 <1>   0.0800 
 48 H      -12.4800    -0.5970     0.6110 H     1 <1>   0.0800 
 49 H       -7.9730    -0.3550     1.4610 H     1 <1>   0.0800 
 50 H       -7.5620    -2.0030     1.1250 H     1 <1>   0.0800 
 51 H      -11.4700    -1.2140     2.5680 H     1 <1>   0.0800 
 52 H      -10.4870     0.1500     2.1370 H     1 <1>   0.0800 
 53 H       -9.2070    -1.8530     2.9110 H     1 <1>   0.0800 
 54 H       -9.8150    -2.7570     1.5640 H     1 <1>   0.0800 
@<TRIPOS>BOND
  1   1   2  2   
  2   1   3  2   
  3   1   4  am  
  4   1   5  1   
  5   4   6  1   
  6   4   7  1   
  7   5   8  ar  
  8   5   9  ar  
  9   6  10  1   
 10   6  27  1   
 11   6  28  1   
 12   7  11  1   
 13   7  29  1   
 14   7  30  1   
 15   8  12  ar  
 16   8  31  1   
 17   9  13  ar  
 18   9  32  1   
 19  10  14  1   
 20  10  33  1   
 21  10  34  1   
 22  11  14  1   
 23  11  35  1   
 24  11  36  1   
 25  12  15  ar  
 26  12  37  1   
 27  13  15  ar  
 28  13  38  1   
 29  14  39  1   
 30  14  40  1   
 31  15  16  1   
 32  16  17  1   
 33  17  18  1   
 34  17  41  1   
 35  17  42  1   
 36  18  19  2   
 37  18  20  am  
 38  20  21  1   
 39  20  22  1   
 40  21  23  1   
 41  21  43  1   
 42  21  44  1   
 43  22  24  1   
 44  22  45  1   
 45  22  46  1   
 46  23  25  1   
 47  23  47  1   
 48  23  48  1   
 49  24  26  1   
 50  24  49  1   
 51  24  50  1   
 52  25  26  1   
 53  25  51  1   
 54  25  52  1   
 55  26  53  1   
 56  26  54  1   
@<TRIPOS>SUBSTRUCTURE
  1 ****  12 GROUP 4 **** **** 0

# MOE 2024.06 (io_trps.svl 2023.06)
