@<TRIPOS>MOLECULE
NONAME
42 43 1 0 0 
SMALL
USER_CHARGES


@<TRIPOS>ATOM
  1 S       -0.1520    -0.4950    -0.1110 S.3   1 <1>  -0.2860 
  2 C       -1.6400     0.4700     0.1410 C.2   1 <1>   0.2420 
  3 C        1.1910     0.7430     0.1900 C.3   1 <1>   0.0700 
  4 N       -2.8420    -0.0820     0.0910 N.pl3 1 <1>   0.0330 
  5 N       -1.6670     1.7340     0.3810 N.2   1 <1>  -0.3380 
  6 C        2.5610     0.1250    -0.1090 C.3   1 <1>   0.2000 
  7 C       -3.6390     0.9640     0.3240 C.2   1 <1>   0.0360 
  8 N       -2.9630     2.0520     0.4980 N.2   1 <1>  -0.3380 
  9 O        2.8350    -0.8690     0.8190 O.3   1 <1>  -0.6800 
 10 C        3.6790     1.1710    -0.0450 C.3   1 <1>   0.1200 
 11 O        4.9300     0.5290    -0.2070 O.3   1 <1>  -0.3630 
 12 C        6.0880     1.2350    -0.1870 C.ar  1 <1>   0.0830 
 13 C        7.2570     0.5260    -0.3920 C.ar  1 <1>  -0.1500 
 14 C        6.1590     2.6060     0.0250 C.ar  1 <1>  -0.1500 
 15 C        8.4820     1.1680    -0.3880 C.ar  1 <1>  -0.1500 
 16 C        7.3880     3.2420     0.0290 C.ar  1 <1>  -0.1500 
 17 C        8.5740     2.5420    -0.1770 C.ar  1 <1>  -0.1430 
 18 C        9.9180     3.3040    -0.1620 C.3   1 <1>   0.1430 
 19 C       11.1340     2.3920    -0.4030 C.3   1 <1>  -0.2400 
 20 C        9.9150     4.3720    -1.2660 C.3   1 <1>  -0.2400 
 21 C       10.1110     3.9810     1.2030 C.3   1 <1>  -0.2400 
 22 H        1.1160     1.0620     1.2140 H     1 <1>   0.0800 
 23 H        0.9910     1.5720    -0.4640 H     1 <1>   0.0800 
 24 H       -3.0660    -1.0620    -0.0820 H     1 <1>   0.2700 
 25 H        2.5490    -0.3240    -1.0870 H     1 <1>   0.0800 
 26 H       -4.7110     0.8940     0.3590 H     1 <1>   0.1500 
 27 H        3.7800    -1.1160     0.7360 H     1 <1>   0.4000 
 28 H        3.6700     1.6670     0.9100 H     1 <1>   0.0800 
 29 H        3.5620     1.8920    -0.8340 H     1 <1>   0.0800 
 30 H        7.2050    -0.5350    -0.5570 H     1 <1>   0.1500 
 31 H        5.2780     3.1950     0.1900 H     1 <1>   0.1500 
 32 H        9.3560     0.5660    -0.5530 H     1 <1>   0.1500 
 33 H        7.4110     4.3040     0.1960 H     1 <1>   0.1500 
 34 H       11.0620     1.9130    -1.3630 H     1 <1>   0.0800 
 35 H       11.1970     1.6390     0.3620 H     1 <1>   0.0800 
 36 H       12.0450     2.9630    -0.3840 H     1 <1>   0.0800 
 37 H        9.7450     3.9110    -2.2230 H     1 <1>   0.0800 
 38 H       10.8570     4.8890    -1.2970 H     1 <1>   0.0800 
 39 H        9.1420     5.0990    -1.1010 H     1 <1>   0.0800 
 40 H        9.3390     4.7040     1.3900 H     1 <1>   0.0800 
 41 H       10.0780     3.2440     1.9850 H     1 <1>   0.0800 
 42 H       11.0590     4.4860     1.2470 H     1 <1>   0.0800 
@<TRIPOS>BOND
  1   1   2  1   
  2   1   3  1   
  3   2   4  1   
  4   2   5  2   
  5   3   6  1   
  6   3  22  1   
  7   3  23  1   
  8   4   7  1   
  9   4  24  1   
 10   5   8  1   
 11   6   9  1   
 12   6  10  1   
 13   6  25  1   
 14   7   8  2   
 15   7  26  1   
 16   9  27  1   
 17  10  11  1   
 18  10  28  1   
 19  10  29  1   
 20  11  12  1   
 21  12  13  ar  
 22  12  14  ar  
 23  13  15  ar  
 24  13  30  1   
 25  14  16  ar  
 26  14  31  1   
 27  15  17  ar  
 28  15  32  1   
 29  16  17  ar  
 30  16  33  1   
 31  17  18  1   
 32  18  19  1   
 33  18  20  1   
 34  18  21  1   
 35  19  34  1   
 36  19  35  1   
 37  19  36  1   
 38  20  37  1   
 39  20  38  1   
 40  20  39  1   
 41  21  40  1   
 42  21  41  1   
 43  21  42  1   
@<TRIPOS>SUBSTRUCTURE
  1 ****  10 GROUP 4 **** **** 0

# MOE 2024.06 (io_trps.svl 2023.06)
