@<TRIPOS>MOLECULE
NONAME
32 33 1 0 0 
SMALL
USER_CHARGES


@<TRIPOS>ATOM
  1 BR       0.0360     1.7100     1.4620 Br    1 <1>  -0.0580 
  2 C       -1.3310     1.8080     0.1160 C.2   1 <1>   0.1980 
  3 O       -2.3540     2.5930     0.3370 O.3   1 <1>  -0.2800 
  4 C       -1.4000     1.1690    -1.0670 C.2   1 <1>  -0.1500 
  5 C       -3.1590     2.4990    -0.7260 C.2   1 <1>   0.0550 
  6 C       -2.6020     1.6210    -1.6170 C.2   1 <1>  -0.1500 
  7 C       -4.4070     3.2300    -0.8130 C.2   1 <1>   0.7150 
  8 O       -5.2060     2.9260    -1.6820 O.2   1 <1>  -0.5700 
  9 N       -4.7340     4.2680     0.0470 N.am  1 <1>  -0.6600 
 10 C       -6.1600     4.6240     0.3910 C.3   1 <1>   0.3000 
 11 C       -3.6650     5.2570     0.4030 C.3   1 <1>   0.0600 
 12 C       -7.0010     3.3570     0.6800 C.3   1 <1>  -0.0550 
 13 C       -6.7870     5.4150    -0.7910 C.3   1 <1>  -0.1600 
 14 C       -6.2030     5.4900     1.6670 C.3   1 <1>  -0.2400 
 15 S       -8.5660     3.5770    -0.1210 S.o2  1 <1>   1.0900 
 16 C       -7.8790     4.5530    -1.4340 C.3   1 <1>  -0.0550 
 17 O       -9.0720     2.3190    -0.6170 O.2   1 <1>  -0.6500 
 18 O       -9.3810     4.4370     0.7080 O.2   1 <1>  -0.6500 
 19 H       -0.7080     0.4710    -1.5020 H     1 <1>   0.1500 
 20 H       -3.0080     1.3230    -2.5680 H     1 <1>   0.1500 
 21 H       -3.4420     5.1940     1.4540 H     1 <1>   0.0800 
 22 H       -3.9860     6.2550     0.1610 H     1 <1>   0.0800 
 23 H       -2.7620     5.0640    -0.1510 H     1 <1>   0.0800 
 24 H       -7.1430     3.2050     1.7320 H     1 <1>   0.0800 
 25 H       -6.5400     2.4760     0.2860 H     1 <1>   0.0800 
 26 H       -6.0520     5.7020    -1.5210 H     1 <1>   0.0800 
 27 H       -7.2580     6.3100    -0.4230 H     1 <1>   0.0800 
 28 H       -7.2230     5.6490     1.9720 H     1 <1>   0.0800 
 29 H       -5.6910     4.9980     2.4750 H     1 <1>   0.0800 
 30 H       -5.7700     6.4600     1.5080 H     1 <1>   0.0800 
 31 H       -7.4390     3.9060    -2.1690 H     1 <1>   0.0800 
 32 H       -8.6280     5.1570    -1.9110 H     1 <1>   0.0800 
@<TRIPOS>BOND
  1   1   2  1   
  2   2   3  1   
  3   2   4  2   
  4   3   5  1   
  5   4   6  1   
  6   4  19  1   
  7   5   6  2   
  8   5   7  1   
  9   6  20  1   
 10   7   8  2   
 11   7   9  am  
 12   9  10  1   
 13   9  11  1   
 14  10  12  1   
 15  10  13  1   
 16  10  14  1   
 17  11  21  1   
 18  11  22  1   
 19  11  23  1   
 20  12  15  1   
 21  12  24  1   
 22  12  25  1   
 23  13  16  1   
 24  13  26  1   
 25  13  27  1   
 26  14  28  1   
 27  14  29  1   
 28  14  30  1   
 29  15  16  1   
 30  15  17  2   
 31  15  18  2   
 32  16  31  1   
 33  16  32  1   
@<TRIPOS>SUBSTRUCTURE
  1 ****   7 GROUP 4 **** **** 0

# MOE 2024.06 (io_trps.svl 2023.06)
