@<TRIPOS>MOLECULE
NONAME
38 38 1 0 0 
SMALL
USER_CHARGES


@<TRIPOS>ATOM
  1 CL      -0.4800    -0.0330    -0.5370 Cl    1 <1>  -0.1770 
  2 C       -0.3710     1.6950    -0.2730 C.ar  1 <1>   0.1770 
  3 C       -1.5250     2.4540    -0.1140 C.ar  1 <1>   0.0820 
  4 C        0.8830     2.2720    -0.2280 C.ar  1 <1>  -0.1500 
  5 O       -2.7260     1.8170    -0.1710 O.3   1 <1>  -0.3630 
  6 C       -1.3950     3.8260     0.0940 C.ar  1 <1>  -0.1500 
  7 C        0.9970     3.6360    -0.0200 C.ar  1 <1>  -0.1500 
  8 C       -3.9430     2.5130    -0.0250 C.3   1 <1>   0.1200 
  9 C       -0.1390     4.4150     0.1430 C.ar  1 <1>  -0.1440 
 10 C       -5.0760     1.5000    -0.1460 C.3   1 <1>   0.1200 
 11 C       -0.0100     5.9110     0.3690 C.3   1 <1>  -0.0960 
 12 O       -6.2960     2.1660    -0.0020 O.3   1 <1>  -0.5600 
 13 C       -7.4080     1.3400    -0.0950 C.3   1 <1>   0.1200 
 14 C       -8.6510     2.2250     0.0690 C.3   1 <1>   0.3430 
 15 N       -9.9390     1.4610    -0.0670 N.4   1 <1>  -0.9590 
 16 C      -11.0900     2.4150    -0.1400 C.3   1 <1>   0.2630 
 17 C      -10.1440     0.4910     1.0560 C.3   1 <1>   0.2630 
 18 H        1.7570     1.6600    -0.3550 H     1 <1>   0.1500 
 19 H       -2.2590     4.4500     0.2200 H     1 <1>   0.1500 
 20 H        1.9740     4.0880     0.0130 H     1 <1>   0.1500 
 21 H       -4.0090     3.2480    -0.8080 H     1 <1>   0.0800 
 22 H       -3.9530     2.9780     0.9450 H     1 <1>   0.0800 
 23 H       -4.9880     0.7590     0.6310 H     1 <1>   0.0800 
 24 H       -5.0460     1.0320    -1.1160 H     1 <1>   0.0800 
 25 H       -0.7890     6.2610     1.0220 H     1 <1>   0.0800 
 26 H       -0.0850     6.4290    -0.5710 H     1 <1>   0.0800 
 27 H        0.9380     6.1450     0.8190 H     1 <1>   0.0800 
 28 H       -7.3470     0.6050     0.6890 H     1 <1>   0.0800 
 29 H       -7.4000     0.8680    -1.0620 H     1 <1>   0.0800 
 30 H       -8.6110     2.9920    -0.6870 H     1 <1>   0.0800 
 31 H       -8.6120     2.7010     1.0350 H     1 <1>   0.0800 
 32 H       -9.9090     0.9380    -0.9560 H     1 <1>   0.4500 
 33 H      -11.1570     2.9920     0.7690 H     1 <1>   0.0800 
 34 H      -12.0150     1.8780    -0.2760 H     1 <1>   0.0800 
 35 H      -10.9630     3.0930    -0.9690 H     1 <1>   0.0800 
 36 H      -10.1640     1.0100     2.0010 H     1 <1>   0.0800 
 37 H       -9.3490    -0.2360     1.0780 H     1 <1>   0.0800 
 38 H      -11.0790    -0.0320     0.9320 H     1 <1>   0.0800 
@<TRIPOS>BOND
  1   1   2  1   
  2   2   3  ar  
  3   2   4  ar  
  4   3   5  1   
  5   3   6  ar  
  6   4   7  ar  
  7   4  18  1   
  8   5   8  1   
  9   6   9  ar  
 10   6  19  1   
 11   7   9  ar  
 12   7  20  1   
 13   8  10  1   
 14   8  21  1   
 15   8  22  1   
 16   9  11  1   
 17  10  12  1   
 18  10  23  1   
 19  10  24  1   
 20  11  25  1   
 21  11  26  1   
 22  11  27  1   
 23  12  13  1   
 24  13  14  1   
 25  13  28  1   
 26  13  29  1   
 27  14  15  1   
 28  14  30  1   
 29  14  31  1   
 30  15  16  1   
 31  15  17  1   
 32  15  32  1   
 33  16  33  1   
 34  16  34  1   
 35  16  35  1   
 36  17  36  1   
 37  17  37  1   
 38  17  38  1   
@<TRIPOS>SUBSTRUCTURE
  1 ****   8 GROUP 4 **** **** 0

# MOE 2024.06 (io_trps.svl 2023.06)
