@<TRIPOS>MOLECULE
NONAME
56 59 1 0 0 
SMALL
USER_CHARGES


@<TRIPOS>ATOM
  1 O        1.2070     0.5440    -0.0510 O.2   1 <1>  -0.5700 
  2 C        2.4060     0.4010    -0.1010 C.2   1 <1>   0.5690 
  3 N        3.2340     1.4780    -0.1490 N.am  1 <1>  -0.7300 
  4 C        3.0310    -1.0110    -0.1180 C.3   1 <1>   0.0610 
  5 C        2.7830     2.8690    -0.2420 C.3   1 <1>   0.2810 
  6 C        3.9960    -1.1900     1.0820 C.3   1 <1>  -0.1600 
  7 C        3.8310    -1.2300    -1.4290 C.3   1 <1>  -0.1600 
  8 C        1.9490    -2.1210    -0.0290 C.3   1 <1>  -0.1600 
  9 C        3.8770     3.7890    -0.8410 C.2   1 <1>   0.5690 
 10 C        2.3530     3.3380     1.1540 C.3   1 <1>  -0.2400 
 11 C        4.6460    -2.5870     1.0650 C.3   1 <1>  -0.0800 
 12 C        4.4790    -2.6270    -1.4530 C.3   1 <1>  -0.0800 
 13 C        2.5860    -3.5230    -0.0490 C.3   1 <1>  -0.0800 
 14 O        3.6420     4.4620    -1.8390 O.2   1 <1>  -0.5700 
 15 N        5.0990     3.8180    -0.2370 N.am  1 <1>  -0.7300 
 16 C        5.4290    -2.7660    -0.2490 C.3   1 <1>  -0.1600 
 17 C        3.5440    -3.6590     1.1480 C.3   1 <1>  -0.1600 
 18 C        3.3780    -3.6980    -1.3570 C.3   1 <1>  -0.1600 
 19 C        6.2480     4.6220    -0.6800 C.3   1 <1>   0.2200 
 20 C        7.4300     3.6860    -0.9520 C.3   1 <1>  -0.1600 
 21 C        6.5860     5.6450     0.4090 C.3   1 <1>  -0.1600 
 22 C        8.6940     4.4800    -1.3140 C.3   1 <1>  -0.1600 
 23 C        7.8480     6.4420     0.0500 C.3   1 <1>  -0.1600 
 24 C        9.0350     5.5080    -0.2270 C.3   1 <1>  -0.1600 
 25 H        4.2140     1.3080    -0.2910 H     1 <1>   0.3700 
 26 H        1.9170     2.9200    -0.9060 H     1 <1>   0.0800 
 27 H        3.4520    -1.0570     2.0010 H     1 <1>   0.0800 
 28 H        4.7700    -0.4450     1.0530 H     1 <1>   0.0800 
 29 H        4.6000    -0.4850    -1.5260 H     1 <1>   0.0800 
 30 H        3.1700    -1.1240    -2.2720 H     1 <1>   0.0800 
 31 H        1.2650    -2.0260    -0.8540 H     1 <1>   0.0800 
 32 H        1.3780    -1.9980     0.8750 H     1 <1>   0.0800 
 33 H        3.1820     3.2530     1.8550 H     1 <1>   0.0800 
 34 H        1.5210     2.7250     1.5050 H     1 <1>   0.0800 
 35 H        2.0260     4.3760     1.1010 H     1 <1>   0.0800 
 36 H        5.3130    -2.6890     1.9040 H     1 <1>   0.0800 
 37 H        5.0310    -2.7560    -2.3690 H     1 <1>   0.0800 
 38 H        1.8160    -4.2730     0.0140 H     1 <1>   0.0800 
 39 H        5.2380     3.3140     0.6380 H     1 <1>   0.3700 
 40 H        5.8940    -3.7360    -0.2640 H     1 <1>   0.0800 
 41 H        6.2110    -2.0290    -0.3120 H     1 <1>   0.0800 
 42 H        3.9870    -4.6390     1.1500 H     1 <1>   0.0800 
 43 H        2.9950    -3.5490     2.0680 H     1 <1>   0.0800 
 44 H        3.8200    -4.6790    -1.3860 H     1 <1>   0.0800 
 45 H        2.7130    -3.6150    -2.1990 H     1 <1>   0.0800 
 46 H        5.9990     5.1460    -1.5900 H     1 <1>   0.0800 
 47 H        7.1820     3.0280    -1.7650 H     1 <1>   0.0800 
 48 H        7.6310     3.0930    -0.0780 H     1 <1>   0.0800 
 49 H        6.7480     5.1390     1.3440 H     1 <1>   0.0800 
 50 H        5.7600     6.3250     0.5250 H     1 <1>   0.0800 
 51 H        8.5370     4.9910    -2.2500 H     1 <1>   0.0800 
 52 H        9.5220     3.8040    -1.4440 H     1 <1>   0.0800 
 53 H        8.0960     7.1120     0.8560 H     1 <1>   0.0800 
 54 H        7.6550     7.0400    -0.8260 H     1 <1>   0.0800 
 55 H        9.8860     6.0910    -0.5360 H     1 <1>   0.0800 
 56 H        9.3020     4.9930     0.6800 H     1 <1>   0.0800 
@<TRIPOS>BOND
  1   1   2  2   
  2   2   3  am  
  3   2   4  1   
  4   3   5  1   
  5   3  25  1   
  6   4   6  1   
  7   4   7  1   
  8   4   8  1   
  9   5   9  1   
 10   5  10  1   
 11   5  26  1   
 12   6  11  1   
 13   6  27  1   
 14   6  28  1   
 15   7  12  1   
 16   7  29  1   
 17   7  30  1   
 18   8  13  1   
 19   8  31  1   
 20   8  32  1   
 21   9  14  2   
 22   9  15  am  
 23  10  33  1   
 24  10  34  1   
 25  10  35  1   
 26  11  16  1   
 27  11  17  1   
 28  11  36  1   
 29  12  16  1   
 30  12  18  1   
 31  12  37  1   
 32  13  17  1   
 33  13  18  1   
 34  13  38  1   
 35  15  19  1   
 36  15  39  1   
 37  16  40  1   
 38  16  41  1   
 39  17  42  1   
 40  17  43  1   
 41  18  44  1   
 42  18  45  1   
 43  19  20  1   
 44  19  21  1   
 45  19  46  1   
 46  20  22  1   
 47  20  47  1   
 48  20  48  1   
 49  21  23  1   
 50  21  49  1   
 51  21  50  1   
 52  22  24  1   
 53  22  51  1   
 54  22  52  1   
 55  23  24  1   
 56  23  53  1   
 57  23  54  1   
 58  24  55  1   
 59  24  56  1   
@<TRIPOS>SUBSTRUCTURE
  1 ****   3 GROUP 4 **** **** 0

# MOE 2024.06 (io_trps.svl 2023.06)
