@<TRIPOS>MOLECULE
NONAME
41 41 1 0 0 
SMALL
USER_CHARGES


@<TRIPOS>ATOM
  1 O       -4.8230     3.8870    -0.2750 O.3   1 <1>  -0.3630 
  2 C       -4.5030     2.6060     0.0630 C.ar  1 <1>   0.0830 
  3 C       -3.8740     4.8240    -0.7430 C.3   1 <1>   0.2000 
  4 C       -5.4460     1.8870     0.7930 C.ar  1 <1>  -0.1440 
  5 C       -3.3040     1.9960    -0.2960 C.ar  1 <1>  -0.1500 
  6 C       -2.9990     5.2750     0.4290 C.3   1 <1>  -0.2400 
  7 C       -4.6560     5.9990    -1.3250 C.3   1 <1>  -0.2400 
  8 C       -5.1890     0.5730     1.1530 C.ar  1 <1>  -0.1500 
  9 C       -6.7460     2.5460     1.1960 C.3   1 <1>   0.4860 
 10 C       -3.0550     0.6860     0.0690 C.ar  1 <1>  -0.1500 
 11 C       -3.9960    -0.0260     0.7920 C.ar  1 <1>  -0.1500 
 12 N       -7.4620     2.8790    -0.0440 N.4   1 <1>  -0.9060 
 13 C       -8.6580     3.7240     0.1030 C.3   1 <1>   0.4230 
 14 C       -9.6240     3.4090    -1.0620 C.3   1 <1>   0.1200 
 15 C       -8.2320     5.1980     0.1470 C.3   1 <1>  -0.1600 
 16 O       -9.5670     2.0450    -1.3700 O.3   1 <1>  -0.6800 
 17 C       -9.4080     6.1510     0.4120 C.3   1 <1>  -0.2400 
 18 H       -3.2860     4.3740    -1.5240 H     1 <1>   0.0800 
 19 H       -2.5510     2.5140    -0.8590 H     1 <1>   0.1500 
 20 H       -3.6020     5.7080     1.2070 H     1 <1>   0.0800 
 21 H       -2.2950     6.0150     0.0940 H     1 <1>   0.0800 
 22 H       -2.4430     4.4480     0.8310 H     1 <1>   0.0800 
 23 H       -5.2670     6.4610    -0.5700 H     1 <1>   0.0800 
 24 H       -5.2740     5.6670    -2.1400 H     1 <1>   0.0800 
 25 H       -3.9720     6.7370    -1.7040 H     1 <1>   0.0800 
 26 H       -5.9050     0.0010     1.7190 H     1 <1>   0.1500 
 27 H       -6.5270     3.4420     1.7530 H     1 <1>   0.0800 
 28 H       -7.3350     1.8820     1.8070 H     1 <1>   0.0800 
 29 H       -2.1270     0.2160    -0.2090 H     1 <1>   0.1500 
 30 H       -3.7950    -1.0460     1.0720 H     1 <1>   0.1500 
 31 H       -7.7820     2.0190    -0.5200 H     1 <1>   0.4500 
 32 H       -6.7700     3.3170    -0.6670 H     1 <1>   0.4500 
 33 H       -9.1600     3.4720     1.0240 H     1 <1>   0.0800 
 34 H       -9.3500     3.9620    -1.9450 H     1 <1>   0.0800 
 35 H      -10.6350     3.6620    -0.7910 H     1 <1>   0.0800 
 36 H       -7.7680     5.4720    -0.7850 H     1 <1>   0.0800 
 37 H       -7.5100     5.3400     0.9330 H     1 <1>   0.0800 
 38 H      -10.2270     1.8110    -2.0600 H     1 <1>   0.4000 
 39 H      -10.1280     6.1190    -0.3870 H     1 <1>   0.0800 
 40 H       -9.0460     7.1630     0.4880 H     1 <1>   0.0800 
 41 H       -9.9020     5.9040     1.3360 H     1 <1>   0.0800 
@<TRIPOS>BOND
  1   1   2  1   
  2   1   3  1   
  3   2   4  ar  
  4   2   5  ar  
  5   3   6  1   
  6   3   7  1   
  7   3  18  1   
  8   4   8  ar  
  9   4   9  1   
 10   5  10  ar  
 11   5  19  1   
 12   6  20  1   
 13   6  21  1   
 14   6  22  1   
 15   7  23  1   
 16   7  24  1   
 17   7  25  1   
 18   8  11  ar  
 19   8  26  1   
 20   9  12  1   
 21   9  27  1   
 22   9  28  1   
 23  10  11  ar  
 24  10  29  1   
 25  11  30  1   
 26  12  13  1   
 27  12  31  1   
 28  12  32  1   
 29  13  14  1   
 30  13  15  1   
 31  13  33  1   
 32  14  16  1   
 33  14  34  1   
 34  14  35  1   
 35  15  17  1   
 36  15  36  1   
 37  15  37  1   
 38  16  38  1   
 39  17  39  1   
 40  17  40  1   
 41  17  41  1   
@<TRIPOS>SUBSTRUCTURE
  1 ****   1 GROUP 4 **** **** 0

# MOE 2024.06 (io_trps.svl 2023.06)
