@<TRIPOS>MOLECULE
NONAME
50 52 1 0 0 
SMALL
USER_CHARGES


@<TRIPOS>ATOM
  1 O       -5.2730    -1.7710     0.6890 O.2   1 <1>  -0.5750 
  2 C       -4.1440    -2.0370     0.3380 C.2   1 <1>   0.7900 
  3 O       -3.3110    -1.0160     0.0910 O.3   1 <1>  -0.4350 
  4 C       -3.6620    -3.3960     0.1600 C.2   1 <1>   0.2710 
  5 C       -3.7440     0.3280     0.2360 C.3   1 <1>   0.1120 
  6 N       -4.4770    -4.5470     0.1270 N.pl3 1 <1>  -0.6410 
  7 C       -2.3870    -3.8610    -0.0110 C.2   1 <1>   0.1750 
  8 C       -2.6030     1.2740    -0.1610 C.3   1 <1>   0.3370 
  9 C       -3.6930    -5.5960    -0.0600 C.cat 1 <1>   1.0690 
 10 C       -5.7790    -5.0450     0.2070 C.ar  1 <1>   0.3810 
 11 N       -2.4240    -5.2240    -0.1510 N.pl3 1 <1>  -0.7040 
 12 C       -1.0340    -3.1680    -0.0570 C.3   1 <1>  -0.0800 
 13 N       -2.9380     2.7170     0.0590 N.4   1 <1>  -0.9610 
 14 N       -4.3560    -6.7600    -0.1110 N.pl3 1 <1>  -0.5800 
 15 C       -5.6940    -6.4260     0.0580 C.ar  1 <1>   0.3050 
 16 C       -7.0150    -4.4350     0.3910 C.ar  1 <1>  -0.1570 
 17 C       -4.0440     3.1920    -0.8180 C.3   1 <1>   0.3370 
 18 C       -1.7170     3.5450    -0.1200 C.3   1 <1>   0.3370 
 19 C       -3.8280    -8.1350    -0.3050 C.3   1 <1>   0.0800 
 20 C       -6.8350    -7.2200     0.0910 C.ar  1 <1>  -0.1570 
 21 C       -8.1490    -5.2240     0.4230 C.ar  1 <1>  -0.1570 
 22 C       -5.2760     3.4200     0.0460 C.3   1 <1>  -0.2470 
 23 C       -1.9170     4.8960     0.5550 C.3   1 <1>  -0.2470 
 24 C       -8.0600    -6.6090     0.2740 C.ar  1 <1>  -0.1570 
 25 H       -4.0220     0.4790     1.2650 H     1 <1>   0.0720 
 26 H       -4.5990     0.4720    -0.4020 H     1 <1>   0.0720 
 27 H       -2.3620     1.1210    -1.2000 H     1 <1>   0.0720 
 28 H       -1.7370     1.0260     0.4300 H     1 <1>   0.0720 
 29 H       -1.6440    -5.8660    -0.2940 H     1 <1>   0.4450 
 30 H       -1.1040    -2.1270     0.1930 H     1 <1>   0.0720 
 31 H       -0.6100    -3.2550    -1.0420 H     1 <1>   0.0720 
 32 H       -0.3620    -3.6300     0.6450 H     1 <1>   0.0720 
 33 H       -3.2420     2.8520     1.0330 H     1 <1>   0.4450 
 34 H       -7.0960    -3.3710     0.5070 H     1 <1>   0.1430 
 35 H       -4.2550     2.4680    -1.5880 H     1 <1>   0.0720 
 36 H       -3.7700     4.1200    -1.2950 H     1 <1>   0.0720 
 37 H       -1.5060     3.6770    -1.1690 H     1 <1>   0.0720 
 38 H       -0.8740     3.0520     0.3370 H     1 <1>   0.0720 
 39 H       -2.7580    -8.1210    -0.4110 H     1 <1>   0.0720 
 40 H       -4.2600    -8.5700    -1.1910 H     1 <1>   0.0720 
 41 H       -4.0860    -8.7470     0.5440 H     1 <1>   0.0720 
 42 H       -6.7630    -8.2870    -0.0240 H     1 <1>   0.1430 
 43 H       -9.1170    -4.7710     0.5650 H     1 <1>   0.1430 
 44 H       -5.5980     2.5120     0.5220 H     1 <1>   0.0720 
 45 H       -6.0810     3.7700    -0.5760 H     1 <1>   0.0720 
 46 H       -5.0850     4.1720     0.7900 H     1 <1>   0.0720 
 47 H       -2.7060     5.4580     0.0900 H     1 <1>   0.0720 
 48 H       -1.0110     5.4690     0.4670 H     1 <1>   0.0720 
 49 H       -2.1290     4.7730     1.6030 H     1 <1>   0.0720 
 50 H       -8.9620    -7.1990     0.3040 H     1 <1>   0.1430 
@<TRIPOS>BOND
  1   1   2  2   
  2   2   3  1   
  3   2   4  1   
  4   3   5  1   
  5   4   6  1   
  6   4   7  2   
  7   5   8  1   
  8   5  25  1   
  9   5  26  1   
 10   6   9  ar  
 11   6  10  1   
 12   7  11  1   
 13   7  12  1   
 14   8  13  1   
 15   8  27  1   
 16   8  28  1   
 17   9  11  ar  
 18   9  14  ar  
 19  10  15  ar  
 20  10  16  ar  
 21  11  29  1   
 22  12  30  1   
 23  12  31  1   
 24  12  32  1   
 25  13  17  1   
 26  13  18  1   
 27  13  33  1   
 28  14  15  1   
 29  14  19  1   
 30  15  20  ar  
 31  16  21  ar  
 32  16  34  1   
 33  17  22  1   
 34  17  35  1   
 35  17  36  1   
 36  18  23  1   
 37  18  37  1   
 38  18  38  1   
 39  19  39  1   
 40  19  40  1   
 41  19  41  1   
 42  20  24  ar  
 43  20  42  1   
 44  21  24  ar  
 45  21  43  1   
 46  22  44  1   
 47  22  45  1   
 48  22  46  1   
 49  23  47  1   
 50  23  48  1   
 51  23  49  1   
 52  24  50  1   
@<TRIPOS>SUBSTRUCTURE
  1 ****   2 GROUP 4 **** **** 0

# MOE 2024.06 (io_trps.svl 2023.06)
