@<TRIPOS>MOLECULE
NONAME
52 56 1 0 0 
SMALL
USER_CHARGES


@<TRIPOS>ATOM
  1 O        0.3260    -0.9820    -1.3180 O.2   1 <1>  -0.5700 
  2 C        1.3520    -0.6760    -0.7600 C.2   1 <1>   0.5690 
  3 N        1.9330     0.5500    -0.9200 N.am  1 <1>  -0.5470 
  4 C        2.0270    -1.7130     0.1670 C.3   1 <1>   0.0610 
  5 C        1.6020     1.6730    -1.6440 C.ar  1 <1>   0.4270 
  6 C        2.4570    -2.9470    -0.6630 C.3   1 <1>  -0.1600 
  7 C        3.2870    -1.1600     0.8900 C.3   1 <1>  -0.1600 
  8 C        1.0230    -2.1790     1.2500 C.3   1 <1>  -0.1600 
  9 N        2.4530     2.6670    -1.4410 N.ar  1 <1>  -0.6200 
 10 C        0.5030     1.7690    -2.4980 C.ar  1 <1>  -0.1500 
 11 C        3.0980    -4.0480     0.2170 C.3   1 <1>   0.0610 
 12 C        3.9170    -2.2290     1.7990 C.3   1 <1>  -0.0800 
 13 C        1.6470    -3.2520     2.1580 C.3   1 <1>  -0.0800 
 14 C        2.2070     3.7870    -2.1010 C.ar  1 <1>   0.1600 
 15 C        0.2600     2.9410    -3.1780 C.ar  1 <1>  -0.1500 
 16 C        3.5490    -5.2260    -0.6750 C.2   1 <1>   0.5690 
 17 C        4.3240    -3.4410     0.9430 C.3   1 <1>  -0.1600 
 18 C        2.0600    -4.4600     1.2980 C.3   1 <1>  -0.1600 
 19 C        2.8900    -2.6730     2.8530 C.3   1 <1>  -0.1600 
 20 C        1.1450     3.9770    -2.9660 C.ar  1 <1>  -0.1500 
 21 O        4.4050    -5.0290    -1.5030 O.2   1 <1>  -0.5700 
 22 N        2.9700    -6.4510    -0.5010 N.am  1 <1>  -0.5470 
 23 C        3.1380    -7.6780    -1.1040 C.ar  1 <1>   0.4270 
 24 N        2.3790    -8.6130    -0.5520 N.ar  1 <1>  -0.6200 
 25 C        4.0000    -7.9240    -2.1720 C.ar  1 <1>  -0.1500 
 26 C        2.4800    -9.8250    -1.0720 C.ar  1 <1>   0.1600 
 27 C        4.0950    -9.1900    -2.7030 C.ar  1 <1>  -0.1500 
 28 C        3.3060   -10.1640    -2.1290 C.ar  1 <1>  -0.1500 
 29 H        2.7870     0.7120    -0.3970 H     1 <1>   0.3700 
 30 H        3.1580    -2.6380    -1.4200 H     1 <1>   0.0800 
 31 H        1.6010    -3.3540    -1.1730 H     1 <1>   0.0800 
 32 H        3.0220    -0.3050     1.4890 H     1 <1>   0.0800 
 33 H        4.0200    -0.8460     0.1670 H     1 <1>   0.0800 
 34 H        0.1410    -2.5790     0.7800 H     1 <1>   0.0800 
 35 H        0.7140    -1.3360     1.8440 H     1 <1>   0.0800 
 36 H       -0.1570     0.9360    -2.6330 H     1 <1>   0.1500 
 37 H        4.7870    -1.8240     2.2890 H     1 <1>   0.0800 
 38 H        0.9290    -3.5620     2.8990 H     1 <1>   0.0800 
 39 H        2.8920     4.6030    -1.9430 H     1 <1>   0.1500 
 40 H       -0.5810     3.0420    -3.8430 H     1 <1>   0.1500 
 41 H        5.0600    -3.1330     0.2190 H     1 <1>   0.0800 
 42 H        4.7830    -4.1880     1.5660 H     1 <1>   0.0800 
 43 H        2.4770    -5.2180     1.9390 H     1 <1>   0.0800 
 44 H        1.1800    -4.8660     0.8290 H     1 <1>   0.0800 
 45 H        3.3260    -3.4140     3.5000 H     1 <1>   0.0800 
 46 H        2.6080    -1.8330     3.4650 H     1 <1>   0.0800 
 47 H        1.0130     4.9190    -3.4660 H     1 <1>   0.1500 
 48 H        2.2700    -6.5150     0.2310 H     1 <1>   0.3700 
 49 H        4.5930    -7.1330    -2.5870 H     1 <1>   0.1500 
 50 H        1.8690   -10.5950    -0.6320 H     1 <1>   0.1500 
 51 H        4.7520    -9.4080    -3.5270 H     1 <1>   0.1500 
 52 H        3.3320   -11.1750    -2.4950 H     1 <1>   0.1500 
@<TRIPOS>BOND
  1   1   2  2   
  2   2   3  am  
  3   2   4  1   
  4   3   5  1   
  5   3  29  1   
  6   4   6  1   
  7   4   7  1   
  8   4   8  1   
  9   5   9  ar  
 10   5  10  ar  
 11   6  11  1   
 12   6  30  1   
 13   6  31  1   
 14   7  12  1   
 15   7  32  1   
 16   7  33  1   
 17   8  13  1   
 18   8  34  1   
 19   8  35  1   
 20   9  14  ar  
 21  10  15  ar  
 22  10  36  1   
 23  11  16  1   
 24  11  17  1   
 25  11  18  1   
 26  12  17  1   
 27  12  19  1   
 28  12  37  1   
 29  13  18  1   
 30  13  19  1   
 31  13  38  1   
 32  14  20  ar  
 33  14  39  1   
 34  15  20  ar  
 35  15  40  1   
 36  16  21  2   
 37  16  22  am  
 38  17  41  1   
 39  17  42  1   
 40  18  43  1   
 41  18  44  1   
 42  19  45  1   
 43  19  46  1   
 44  20  47  1   
 45  22  23  1   
 46  22  48  1   
 47  23  24  ar  
 48  23  25  ar  
 49  24  26  ar  
 50  25  27  ar  
 51  25  49  1   
 52  26  28  ar  
 53  26  50  1   
 54  27  28  ar  
 55  27  51  1   
 56  28  52  1   
@<TRIPOS>SUBSTRUCTURE
  1 ****   6 GROUP 4 **** **** 0

# MOE 2024.06 (io_trps.svl 2023.06)
