@<TRIPOS>MOLECULE
NONAME
34 34 1 0 0 
SMALL
USER_CHARGES


@<TRIPOS>ATOM
  1 CL      -0.8340     1.3600    -2.7570 Cl    1 <1>  -0.1770 
  2 C       -1.8330     1.5390    -1.3310 C.ar  1 <1>   0.1770 
  3 C       -1.4740     2.4320    -0.3290 C.ar  1 <1>   0.0820 
  4 C       -2.9770     0.7700    -1.2390 C.ar  1 <1>  -0.1500 
  5 O       -0.3350     3.1560    -0.4840 O.3   1 <1>  -0.3630 
  6 C       -2.3030     2.5390     0.7840 C.ar  1 <1>  -0.1500 
  7 C       -3.8100     0.8710    -0.1310 C.ar  1 <1>  -0.0090 
  8 C        0.1110     4.0660     0.4940 C.3   1 <1>   0.1200 
  9 C       -3.4510     1.7680     0.8710 C.ar  1 <1>  -0.1500 
 10 S       -5.3310    -0.1070    -0.0020 S.o2  1 <1>   1.4470 
 11 C        1.4150     4.6850     0.0010 C.3   1 <1>  -0.2400 
 12 O       -5.4290    -1.0390    -1.1000 O.2   1 <1>  -0.6500 
 13 O       -5.5220    -0.5450     1.3610 O.2   1 <1>  -0.6500 
 14 N       -6.5250     1.0190    -0.3420 N.am  1 <1>  -0.9140 
 15 C       -7.8350     0.6270     0.1750 C.3   1 <1>   0.1960 
 16 C       -8.8830     1.6760    -0.1990 C.3   1 <1>   0.1200 
 17 O      -10.1290     1.2260     0.2280 O.3   1 <1>  -0.5600 
 18 C      -11.1680     2.1170    -0.0200 C.3   1 <1>   0.0400 
 19 H       -3.2160     0.0900    -2.0380 H     1 <1>   0.1500 
 20 H       -2.0750     3.2140     1.5890 H     1 <1>   0.1500 
 21 H        0.2690     3.5300     1.4140 H     1 <1>   0.0800 
 22 H       -0.6430     4.8240     0.6260 H     1 <1>   0.0800 
 23 H       -4.0860     1.8610     1.7380 H     1 <1>   0.1500 
 24 H        2.1560     3.9190    -0.1440 H     1 <1>   0.0800 
 25 H        1.7840     5.3870     0.7270 H     1 <1>   0.0800 
 26 H        1.2510     5.2040    -0.9260 H     1 <1>   0.0800 
 27 H       -6.5890     0.9810    -1.3580 H     1 <1>   0.4200 
 28 H       -7.7940     0.5480     1.2490 H     1 <1>   0.0800 
 29 H       -8.1180    -0.3280    -0.2350 H     1 <1>   0.0800 
 30 H       -8.9190     1.8100    -1.2660 H     1 <1>   0.0800 
 31 H       -8.6640     2.6080     0.2910 H     1 <1>   0.0800 
 32 H      -12.0800     1.6770     0.3430 H     1 <1>   0.0800 
 33 H      -11.2450     2.2890    -1.0800 H     1 <1>   0.0800 
 34 H      -10.9780     3.0400     0.5010 H     1 <1>   0.0800 
@<TRIPOS>BOND
  1   1   2  1   
  2   2   3  ar  
  3   2   4  ar  
  4   3   5  1   
  5   3   6  ar  
  6   4   7  ar  
  7   4  19  1   
  8   5   8  1   
  9   6   9  ar  
 10   6  20  1   
 11   7   9  ar  
 12   7  10  1   
 13   8  11  1   
 14   8  21  1   
 15   8  22  1   
 16   9  23  1   
 17  10  12  2   
 18  10  13  2   
 19  10  14  am  
 20  11  24  1   
 21  11  25  1   
 22  11  26  1   
 23  14  15  1   
 24  14  27  1   
 25  15  16  1   
 26  15  28  1   
 27  15  29  1   
 28  16  17  1   
 29  16  30  1   
 30  16  31  1   
 31  17  18  1   
 32  18  32  1   
 33  18  33  1   
 34  18  34  1   
@<TRIPOS>SUBSTRUCTURE
  1 ****   7 GROUP 4 **** **** 0

# MOE 2024.06 (io_trps.svl 2023.06)
