@<TRIPOS>MOLECULE
NONAME
40 41 1 0 0 
SMALL
USER_CHARGES


@<TRIPOS>ATOM
  1 S        0.4540    -0.7320    -1.4090 S.3   1 <1>  -0.4600 
  2 C        2.1290    -0.0500    -1.5310 C.3   1 <1>   0.0700 
  3 C        0.7410    -2.3250    -0.5950 C.3   1 <1>   0.0700 
  4 C        2.7760    -0.0620    -0.1400 C.3   1 <1>   0.3430 
  5 C        1.5380    -2.0910     0.6960 C.3   1 <1>   0.3430 
  6 N        2.8680    -1.4490     0.4360 N.4   1 <1>  -0.9590 
  7 C        3.7430    -1.4830     1.6370 C.3   1 <1>   0.4860 
  8 C        5.1500    -1.1200     1.2040 C.ar  1 <1>  -0.1430 
  9 C        5.7930    -1.8580     0.2130 C.ar  1 <1>   0.0830 
 10 C        5.7940    -0.0370     1.7770 C.ar  1 <1>  -0.1500 
 11 O        5.1500    -2.9400    -0.2910 O.3   1 <1>  -0.3630 
 12 C        7.0480    -1.4750    -0.2580 C.ar  1 <1>  -0.1430 
 13 C        7.0590     0.3210     1.3510 C.ar  1 <1>  -0.1500 
 14 C        5.6360    -4.2050     0.1180 C.3   1 <1>   0.0400 
 15 C        7.6890    -0.3890     0.3330 C.ar  1 <1>   0.0830 
 16 C        7.7300    -2.2030    -1.4180 C.3   1 <1>  -0.0970 
 17 O        8.9280    -0.0620    -0.1200 O.3   1 <1>  -0.3630 
 18 C        9.7020     0.9600     0.4690 C.3   1 <1>   0.0400 
 19 H        2.0350     0.9540    -1.9070 H     1 <1>   0.0800 
 20 H        2.6830    -0.6470    -2.2340 H     1 <1>   0.0800 
 21 H        1.2710    -2.9590    -1.2840 H     1 <1>   0.0800 
 22 H       -0.2260    -2.7490    -0.3850 H     1 <1>   0.0800 
 23 H        2.2010     0.5690     0.5170 H     1 <1>   0.0800 
 24 H        3.7640     0.3610    -0.2260 H     1 <1>   0.0800 
 25 H        1.6850    -3.0420     1.1810 H     1 <1>   0.0800 
 26 H        0.9550    -1.4670     1.3540 H     1 <1>   0.0800 
 27 H        3.3930    -2.0240    -0.2490 H     1 <1>   0.4500 
 28 H        3.7540    -2.4740     2.0600 H     1 <1>   0.0800 
 29 H        3.3880    -0.7900     2.3820 H     1 <1>   0.0800 
 30 H        5.3260     0.5410     2.5570 H     1 <1>   0.1500 
 31 H        7.5380     1.1610     1.8190 H     1 <1>   0.1500 
 32 H        6.6600    -4.3170    -0.1930 H     1 <1>   0.0800 
 33 H        5.0350    -4.9680    -0.3430 H     1 <1>   0.0800 
 34 H        5.5710    -4.2780     1.1890 H     1 <1>   0.0800 
 35 H        7.0300    -2.7750    -1.9970 H     1 <1>   0.0800 
 36 H        8.4930    -2.8580    -1.0390 H     1 <1>   0.0800 
 37 H        8.1920    -1.4940    -2.0830 H     1 <1>   0.0800 
 38 H       10.6480     0.9970    -0.0400 H     1 <1>   0.0800 
 39 H        9.8560     0.7280     1.5080 H     1 <1>   0.0800 
 40 H        9.1900     1.8990     0.3520 H     1 <1>   0.0800 
@<TRIPOS>BOND
  1   1   2  1   
  2   1   3  1   
  3   2   4  1   
  4   2  19  1   
  5   2  20  1   
  6   3   5  1   
  7   3  21  1   
  8   3  22  1   
  9   4   6  1   
 10   4  23  1   
 11   4  24  1   
 12   5   6  1   
 13   5  25  1   
 14   5  26  1   
 15   6   7  1   
 16   6  27  1   
 17   7   8  1   
 18   7  28  1   
 19   7  29  1   
 20   8   9  ar  
 21   8  10  ar  
 22   9  11  1   
 23   9  12  ar  
 24  10  13  ar  
 25  10  30  1   
 26  11  14  1   
 27  12  15  ar  
 28  12  16  1   
 29  13  15  ar  
 30  13  31  1   
 31  14  32  1   
 32  14  33  1   
 33  14  34  1   
 34  15  17  1   
 35  16  35  1   
 36  16  36  1   
 37  16  37  1   
 38  17  18  1   
 39  18  38  1   
 40  18  39  1   
 41  18  40  1   
@<TRIPOS>SUBSTRUCTURE
  1 ****   9 GROUP 4 **** **** 0

# MOE 2024.06 (io_trps.svl 2023.06)
