@<TRIPOS>MOLECULE
NONAME
40 41 1 0 0 
SMALL
USER_CHARGES


@<TRIPOS>ATOM
  1 O       -0.1910     0.1270    -0.6330 O.2   1 <1>  -0.5700 
  2 C       -0.7590    -0.8700    -0.2280 C.2   1 <1>   0.6900 
  3 N       -2.0960    -0.8290     0.0770 N.am  1 <1>  -0.6600 
  4 N       -0.1020    -2.0590    -0.0990 N.am  1 <1>  -0.5470 
  5 C       -2.9630     0.2600    -0.4450 C.3   1 <1>   0.1400 
  6 C       -2.7400    -1.6980     1.0970 C.3   1 <1>   0.1400 
  7 C        1.2530    -2.4010    -0.2190 C.ar  1 <1>   0.1170 
  8 C       -4.2320    -0.3480    -1.0490 C.3   1 <1>  -0.1600 
  9 C       -3.9990    -2.3330     0.5010 C.3   1 <1>  -0.1600 
 10 C        1.6110    -3.7040    -0.5730 C.ar  1 <1>  -0.1440 
 11 C        2.2620    -1.4750     0.0300 C.ar  1 <1>  -0.1500 
 12 C       -4.9650    -1.2640    -0.0450 C.3   1 <1>  -0.0190 
 13 C        2.9490    -4.0510    -0.6700 C.ar  1 <1>  -0.1500 
 14 C        0.5530    -4.7630    -0.8650 C.3   1 <1>  -0.0970 
 15 C        3.5940    -1.8270    -0.0700 C.ar  1 <1>  -0.1500 
 16 C       -6.2140    -1.9120    -0.6400 C.2   1 <1>   0.6590 
 17 C        3.9400    -3.1180    -0.4200 C.ar  1 <1>  -0.1500 
 18 O       -6.3450    -2.1080    -1.8210 O.2   1 <1>  -0.5700 
 19 O       -7.1480    -2.2600     0.2380 O.3   1 <1>  -0.4300 
 20 C       -8.3530    -2.8750    -0.1680 C.3   1 <1>   0.0400 
 21 H       -0.7380    -2.8440    -0.0590 H     1 <1>   0.3700 
 22 H       -2.4430     0.8250    -1.2010 H     1 <1>   0.0800 
 23 H       -3.2130     0.9290     0.3600 H     1 <1>   0.0800 
 24 H       -3.0060    -1.0930     1.9470 H     1 <1>   0.0800 
 25 H       -2.0660    -2.4640     1.4390 H     1 <1>   0.0800 
 26 H       -3.9580    -0.9100    -1.9250 H     1 <1>   0.0800 
 27 H       -4.8890     0.4430    -1.3640 H     1 <1>   0.0800 
 28 H       -4.4950    -2.9130     1.2590 H     1 <1>   0.0800 
 29 H       -3.7140    -3.0030    -0.2920 H     1 <1>   0.0800 
 30 H        2.0050    -0.4690     0.3070 H     1 <1>   0.1500 
 31 H       -5.2910    -0.6530     0.7780 H     1 <1>   0.0800 
 32 H        3.2340    -5.0520    -0.9420 H     1 <1>   0.1500 
 33 H       -0.0160    -4.9690     0.0230 H     1 <1>   0.0800 
 34 H        1.0080    -5.6790    -1.1960 H     1 <1>   0.0800 
 35 H       -0.1070    -4.4180    -1.6410 H     1 <1>   0.0800 
 36 H        4.3590    -1.0950     0.1240 H     1 <1>   0.1500 
 37 H        4.9770    -3.3960    -0.4990 H     1 <1>   0.1500 
 38 H       -8.9530    -3.0640     0.7050 H     1 <1>   0.0800 
 39 H       -8.1210    -3.8010    -0.6660 H     1 <1>   0.0800 
 40 H       -8.8730    -2.2140    -0.8400 H     1 <1>   0.0800 
@<TRIPOS>BOND
  1   1   2  2   
  2   2   3  am  
  3   2   4  am  
  4   3   5  1   
  5   3   6  1   
  6   4   7  1   
  7   4  21  1   
  8   5   8  1   
  9   5  22  1   
 10   5  23  1   
 11   6   9  1   
 12   6  24  1   
 13   6  25  1   
 14   7  10  ar  
 15   7  11  ar  
 16   8  12  1   
 17   8  26  1   
 18   8  27  1   
 19   9  12  1   
 20   9  28  1   
 21   9  29  1   
 22  10  13  ar  
 23  10  14  1   
 24  11  15  ar  
 25  11  30  1   
 26  12  16  1   
 27  12  31  1   
 28  13  17  ar  
 29  13  32  1   
 30  14  33  1   
 31  14  34  1   
 32  14  35  1   
 33  15  17  ar  
 34  15  36  1   
 35  16  18  2   
 36  16  19  1   
 37  17  37  1   
 38  19  20  1   
 39  20  38  1   
 40  20  39  1   
 41  20  40  1   
@<TRIPOS>SUBSTRUCTURE
  1 ****   3 GROUP 4 **** **** 0

# MOE 2024.06 (io_trps.svl 2023.06)
