@<TRIPOS>MOLECULE
NONAME
49 50 1 0 0 
SMALL
USER_CHARGES


@<TRIPOS>ATOM
  1 O       -0.4980    -0.0620     0.0340 O.2   1 <1>  -0.5700 
  2 C       -1.5930    -0.5820     0.0790 C.2   1 <1>   0.5440 
  3 N       -1.6020    -1.9470    -0.0070 N.am  1 <1>  -0.5470 
  4 C       -2.7920     0.2230     0.2210 C.ar  1 <1>   0.0860 
  5 C       -2.6390    -2.8550    -0.2500 C.ar  1 <1>   0.1170 
  6 C       -2.9100     1.4430    -0.4480 C.ar  1 <1>  -0.1500 
  7 C       -3.8660    -0.1700     1.0230 C.ar  1 <1>  -0.1500 
  8 C       -2.6310    -4.0860     0.3870 C.ar  1 <1>  -0.1500 
  9 C       -3.6790    -2.5610    -1.1270 C.ar  1 <1>  -0.1500 
 10 C       -4.0440     2.2260    -0.3420 C.ar  1 <1>  -0.1500 
 11 C       -5.0040     0.6060     1.1340 C.ar  1 <1>  -0.1500 
 12 C       -3.6380    -5.0170     0.1700 C.ar  1 <1>   0.1170 
 13 C       -4.6940    -3.4750    -1.3450 C.ar  1 <1>  -0.1500 
 14 C       -5.1070     1.8070     0.4520 C.ar  1 <1>   0.0830 
 15 N       -3.6390    -6.2550     0.8190 N.am  1 <1>  -0.5470 
 16 C       -4.6750    -4.6960    -0.6970 C.ar  1 <1>  -0.1500 
 17 O       -6.2530     2.5040     0.6090 O.3   1 <1>  -0.3620 
 18 C       -2.6790    -7.2120     0.9220 C.2   1 <1>   0.5690 
 19 C       -6.4670     3.7410    -0.0370 C.3   1 <1>   0.1200 
 20 O       -2.8770    -8.1650     1.6310 O.2   1 <1>  -0.5700 
 21 C       -1.3650    -7.1000     0.1560 C.3   1 <1>  -0.0990 
 22 C       -7.8640     4.2710     0.3230 C.3   1 <1>  -0.0800 
 23 C       -0.8640    -8.4420    -0.4050 C.3   1 <1>  -0.2400 
 24 C       -8.9720     3.3140    -0.1410 C.3   1 <1>  -0.2400 
 25 C       -8.0820     5.6550    -0.3010 C.3   1 <1>  -0.2400 
 26 H       -0.6580    -2.3320     0.0410 H     1 <1>   0.3700 
 27 H       -2.0880     1.7750    -1.0600 H     1 <1>   0.1500 
 28 H       -3.8070    -1.0950     1.5680 H     1 <1>   0.1500 
 29 H       -1.8380    -4.3190     1.0720 H     1 <1>   0.1500 
 30 H       -3.6960    -1.6180    -1.6440 H     1 <1>   0.1500 
 31 H       -4.0820     3.1550    -0.8790 H     1 <1>   0.1500 
 32 H       -5.8250     0.2880     1.7530 H     1 <1>   0.1500 
 33 H       -5.4970    -3.2350    -2.0210 H     1 <1>   0.1500 
 34 H       -4.5020    -6.5220     1.2930 H     1 <1>   0.3700 
 35 H       -5.4640    -5.4060    -0.8690 H     1 <1>   0.1500 
 36 H       -6.3840     3.5880    -1.0980 H     1 <1>   0.0800 
 37 H       -5.7080     4.4270     0.2970 H     1 <1>   0.0800 
 38 H       -0.6230    -6.6970     0.8210 H     1 <1>   0.0800 
 39 H       -1.4840    -6.4180    -0.6660 H     1 <1>   0.0800 
 40 H       -7.9170     4.3740     1.3940 H     1 <1>   0.0800 
 41 H       -0.6870    -9.1380     0.3970 H     1 <1>   0.0800 
 42 H        0.0530    -8.3010    -0.9480 H     1 <1>   0.0800 
 43 H       -1.5990    -8.8650    -1.0680 H     1 <1>   0.0800 
 44 H       -8.9370     3.1800    -1.2070 H     1 <1>   0.0800 
 45 H       -9.9390     3.7030     0.1270 H     1 <1>   0.0800 
 46 H       -8.8560     2.3520     0.3280 H     1 <1>   0.0800 
 47 H       -8.0360     5.6000    -1.3750 H     1 <1>   0.0800 
 48 H       -7.3300     6.3430     0.0410 H     1 <1>   0.0800 
 49 H       -9.0450     6.0420    -0.0190 H     1 <1>   0.0800 
@<TRIPOS>BOND
  1   1   2  2   
  2   2   3  am  
  3   2   4  1   
  4   3   5  1   
  5   3  26  1   
  6   4   6  ar  
  7   4   7  ar  
  8   5   8  ar  
  9   5   9  ar  
 10   6  10  ar  
 11   6  27  1   
 12   7  11  ar  
 13   7  28  1   
 14   8  12  ar  
 15   8  29  1   
 16   9  13  ar  
 17   9  30  1   
 18  10  14  ar  
 19  10  31  1   
 20  11  14  ar  
 21  11  32  1   
 22  12  15  1   
 23  12  16  ar  
 24  13  16  ar  
 25  13  33  1   
 26  14  17  1   
 27  15  18  am  
 28  15  34  1   
 29  16  35  1   
 30  17  19  1   
 31  18  20  2   
 32  18  21  1   
 33  19  22  1   
 34  19  36  1   
 35  19  37  1   
 36  21  23  1   
 37  21  38  1   
 38  21  39  1   
 39  22  24  1   
 40  22  25  1   
 41  22  40  1   
 42  23  41  1   
 43  23  42  1   
 44  23  43  1   
 45  24  44  1   
 46  24  45  1   
 47  24  46  1   
 48  25  47  1   
 49  25  48  1   
 50  25  49  1   
@<TRIPOS>SUBSTRUCTURE
  1 ****   7 GROUP 4 **** **** 0

# MOE 2024.06 (io_trps.svl 2023.06)
