@<TRIPOS>MOLECULE
NONAME
41 42 1 0 0 
SMALL
USER_CHARGES


@<TRIPOS>ATOM
  1 O       -0.4810    -1.4920     2.7470 O.2   1 <1>  -0.5700 
  2 C       -0.0620    -1.8680     1.6690 C.2   1 <1>   0.5440 
  3 N        0.8350    -1.0750     0.9860 N.am  1 <1>  -0.6600 
  4 C       -0.5330    -3.1190     1.1220 C.ar  1 <1>   0.0860 
  5 C        1.1320     0.3290     1.3930 C.3   1 <1>   0.1400 
  6 C        1.5460    -1.4850    -0.2650 C.3   1 <1>   0.1400 
  7 C       -1.4060    -3.1360     0.0240 C.ar  1 <1>   0.1170 
  8 C       -0.1090    -4.3300     1.6660 C.ar  1 <1>  -0.1500 
  9 C        0.9630     1.2790     0.1960 C.3   1 <1>   0.1200 
 10 C        1.3660    -0.4260    -1.3650 C.3   1 <1>   0.1200 
 11 N       -1.8870    -1.9300    -0.5060 N.am  1 <1>  -0.5470 
 12 C       -1.7970    -4.3610    -0.5110 C.ar  1 <1>  -0.1500 
 13 C       -0.5110    -5.5370     1.1280 C.ar  1 <1>  -0.1500 
 14 O        1.7240     0.8430    -0.8970 O.3   1 <1>  -0.5600 
 15 C       -2.2310    -1.5660    -1.7760 C.2   1 <1>   0.5690 
 16 C       -1.3540    -5.5510     0.0310 C.ar  1 <1>  -0.1500 
 17 O       -2.1440    -2.3040    -2.7280 O.2   1 <1>  -0.5700 
 18 C       -2.7160    -0.1350    -1.9920 C.3   1 <1>   0.1810 
 19 O       -2.5480     0.6440    -0.8310 O.3   1 <1>  -0.5600 
 20 C       -3.0110     1.9460    -0.9550 C.3   1 <1>   0.1200 
 21 C       -2.8790     2.6140     0.4090 C.3   1 <1>  -0.2400 
 22 H        2.1420     0.3880     1.7570 H     1 <1>   0.0800 
 23 H        0.4740     0.6410     2.1860 H     1 <1>   0.0800 
 24 H        1.1870    -2.4330    -0.6240 H     1 <1>   0.0800 
 25 H        2.5950    -1.5910    -0.0510 H     1 <1>   0.0800 
 26 H        0.5450    -4.3130     2.5200 H     1 <1>   0.1500 
 27 H        1.2960     2.2670     0.4560 H     1 <1>   0.0800 
 28 H       -0.0690     1.3260    -0.1030 H     1 <1>   0.0800 
 29 H        0.3440    -0.3950    -1.6980 H     1 <1>   0.0800 
 30 H        1.9940    -0.6560    -2.2070 H     1 <1>   0.0800 
 31 H       -1.9110    -1.1300     0.1410 H     1 <1>   0.3700 
 32 H       -2.4600    -4.3820    -1.3580 H     1 <1>   0.1500 
 33 H       -0.1710    -6.4640     1.5580 H     1 <1>   0.1500 
 34 H       -1.6680    -6.4880    -0.3960 H     1 <1>   0.1500 
 35 H       -3.7600    -0.1560    -2.2490 H     1 <1>   0.0800 
 36 H       -2.1550     0.3120    -2.7920 H     1 <1>   0.0800 
 37 H       -4.0440     1.9250    -1.2610 H     1 <1>   0.0800 
 38 H       -2.4170     2.4600    -1.6930 H     1 <1>   0.0800 
 39 H       -3.4560     2.0780     1.1410 H     1 <1>   0.0800 
 40 H       -3.2460     3.6230     0.3560 H     1 <1>   0.0800 
 41 H       -1.8490     2.6410     0.7150 H     1 <1>   0.0800 
@<TRIPOS>BOND
  1   1   2  2   
  2   2   3  am  
  3   2   4  1   
  4   3   5  1   
  5   3   6  1   
  6   4   7  ar  
  7   4   8  ar  
  8   5   9  1   
  9   5  22  1   
 10   5  23  1   
 11   6  10  1   
 12   6  24  1   
 13   6  25  1   
 14   7  11  1   
 15   7  12  ar  
 16   8  13  ar  
 17   8  26  1   
 18   9  14  1   
 19   9  27  1   
 20   9  28  1   
 21  10  14  1   
 22  10  29  1   
 23  10  30  1   
 24  11  15  am  
 25  11  31  1   
 26  12  16  ar  
 27  12  32  1   
 28  13  16  ar  
 29  13  33  1   
 30  15  17  2   
 31  15  18  1   
 32  16  34  1   
 33  18  19  1   
 34  18  35  1   
 35  18  36  1   
 36  19  20  1   
 37  20  21  1   
 38  20  37  1   
 39  20  38  1   
 40  21  39  1   
 41  21  40  1   
 42  21  41  1   
@<TRIPOS>SUBSTRUCTURE
  1 ****  11 GROUP 4 **** **** 0

# MOE 2024.06 (io_trps.svl 2023.06)
