@<TRIPOS>MOLECULE
NONAME
41 44 1 0 0 
SMALL
USER_CHARGES


@<TRIPOS>ATOM
  1 O        0.9620     0.0390     1.4030 O.2   1 <1>  -0.5760 
  2 C        1.9210    -0.6040     1.0480 C.2   1 <1>   0.6850 
  3 N        3.1780    -0.0340     0.8900 N.am  1 <1>  -0.4430 
  4 N        1.7540    -1.9370     0.7980 N.am  1 <1>  -0.4960 
  5 C        4.2160    -0.8620     0.4910 C.2   1 <1>   0.4190 
  6 C        3.4080     1.4170     1.1540 C.3   1 <1>   0.0500 
  7 C        2.7600    -2.7700     0.4020 C.2   1 <1>   0.6980 
  8 N        5.5280    -0.5270     0.2860 N.pl3 1 <1>  -0.7050 
  9 C        4.0580    -2.1880     0.2430 C.2   1 <1>   0.2690 
 10 O        2.5210    -3.9450     0.2070 O.2   1 <1>  -0.5760 
 11 C        6.1520    -1.6390    -0.0800 C.cat 1 <1>   1.0680 
 12 N        5.3240    -2.6530    -0.1240 N.pl3 1 <1>  -0.7680 
 13 N        7.4070    -1.9560    -0.3920 N.pl3 1 <1>  -0.5810 
 14 C        6.0060    -3.9050    -0.5030 C.3   1 <1>   0.3460 
 15 C        8.5100    -1.1040    -0.4480 C.ar  1 <1>   0.3030 
 16 C        7.4680    -3.4220    -0.6800 C.3   1 <1>   0.1590 
 17 C        9.5920    -1.2980     0.3980 C.ar  1 <1>  -0.1590 
 18 C        8.5300    -0.0390    -1.3370 C.ar  1 <1>  -0.1590 
 19 C       10.6770    -0.4380     0.3750 C.ar  1 <1>  -0.1530 
 20 C        9.6090     0.8220    -1.3660 C.ar  1 <1>  -0.1590 
 21 C       10.6840     0.6320    -0.5130 C.ar  1 <1>  -0.1530 
 22 C       11.8420    -0.6860     1.3250 C.3   1 <1>  -0.1060 
 23 C       11.8550     1.6040    -0.5750 C.3   1 <1>  -0.1060 
 24 H        0.8190    -2.3230     0.9230 H     1 <1>   0.3630 
 25 H        2.4760     1.9270     1.3290 H     1 <1>   0.0700 
 26 H        3.8870     1.8730     0.3060 H     1 <1>   0.0700 
 27 H        4.0290     1.5340     2.0240 H     1 <1>   0.0700 
 28 H        5.9800     0.3770     0.4090 H     1 <1>   0.4430 
 29 H        5.6050    -4.2980    -1.4230 H     1 <1>   0.0700 
 30 H        5.9240    -4.6410     0.2790 H     1 <1>   0.0700 
 31 H        8.1230    -3.9190     0.0150 H     1 <1>   0.0700 
 32 H        7.8120    -3.5950    -1.6860 H     1 <1>   0.0700 
 33 H        9.5840    -2.1240     1.0850 H     1 <1>   0.1410 
 34 H        7.7120     0.1190    -2.0150 H     1 <1>   0.1410 
 35 H        9.6150     1.6450    -2.0620 H     1 <1>   0.1410 
 36 H       11.6710    -1.5550     1.9350 H     1 <1>   0.0700 
 37 H       11.9750     0.1600     1.9750 H     1 <1>   0.0700 
 38 H       12.7470    -0.8410     0.7660 H     1 <1>   0.0700 
 39 H       12.7560     1.0790    -0.8350 H     1 <1>   0.0700 
 40 H       11.9910     2.0810     0.3790 H     1 <1>   0.0700 
 41 H       11.6870     2.3680    -1.3120 H     1 <1>   0.0700 
@<TRIPOS>BOND
  1   1   2  2   
  2   2   3  am  
  3   2   4  am  
  4   3   5  1   
  5   3   6  1   
  6   4   7  am  
  7   4  24  1   
  8   5   8  1   
  9   5   9  2   
 10   6  25  1   
 11   6  26  1   
 12   6  27  1   
 13   7   9  1   
 14   7  10  2   
 15   8  11  ar  
 16   8  28  1   
 17   9  12  1   
 18  11  12  ar  
 19  11  13  ar  
 20  12  14  1   
 21  13  15  1   
 22  13  16  1   
 23  14  16  1   
 24  14  29  1   
 25  14  30  1   
 26  15  17  ar  
 27  15  18  ar  
 28  16  31  1   
 29  16  32  1   
 30  17  19  ar  
 31  17  33  1   
 32  18  20  ar  
 33  18  34  1   
 34  19  21  ar  
 35  19  22  1   
 36  20  21  ar  
 37  20  35  1   
 38  21  23  1   
 39  22  36  1   
 40  22  37  1   
 41  22  38  1   
 42  23  39  1   
 43  23  40  1   
 44  23  41  1   
@<TRIPOS>SUBSTRUCTURE
  1 ****  11 GROUP 4 **** **** 0

# MOE 2024.06 (io_trps.svl 2023.06)
