@<TRIPOS>MOLECULE
NONAME
46 47 1 0 0 
SMALL
USER_CHARGES


@<TRIPOS>ATOM
  1 O        2.1090    -1.1890    -0.9010 O.2   1 <1>  -0.5700 
  2 C        1.2740    -1.6220    -0.1430 C.2   1 <1>   0.5690 
  3 N        1.4080    -1.4770     1.1990 N.am  1 <1>  -0.7300 
  4 C        0.0680    -2.3740    -0.7020 C.3   1 <1>  -0.0190 
  5 C        2.5560    -0.7860     1.8710 C.3   1 <1>   0.2010 
  6 C       -1.2640    -1.7150    -0.2920 C.3   1 <1>  -0.1600 
  7 C        0.0930    -3.8620    -0.2960 C.3   1 <1>  -0.1600 
  8 C        3.8520    -1.5990     1.8630 C.2   1 <1>   0.5690 
  9 C       -2.4670    -2.4790    -0.8640 C.3   1 <1>  -0.1600 
 10 C       -1.1140    -4.6200    -0.8660 C.3   1 <1>  -0.1600 
 11 O        4.3610    -1.8750     2.9230 O.2   1 <1>  -0.5700 
 12 N        4.3560    -1.9660     0.6460 N.am  1 <1>  -0.5470 
 13 C       -2.4340    -3.9560    -0.4520 C.3   1 <1>  -0.1600 
 14 C        5.4870    -2.7000     0.2550 C.ar  1 <1>   0.1170 
 15 C        5.6140    -3.0380    -1.0870 C.ar  1 <1>  -0.1500 
 16 C        6.4880    -3.1020     1.1350 C.ar  1 <1>  -0.1500 
 17 C        6.7050    -3.7580    -1.5380 C.ar  1 <1>  -0.1500 
 18 C        7.5820    -3.8240     0.6900 C.ar  1 <1>  -0.1500 
 19 C        7.6960    -4.1570    -0.6570 C.ar  1 <1>   0.0820 
 20 O        8.7330    -4.8630    -1.1810 O.3   1 <1>  -0.3630 
 21 C        9.7830    -5.3190    -0.3620 C.3   1 <1>   0.1200 
 22 C       10.7750    -6.0730    -1.2430 C.3   1 <1>  -0.2400 
 23 H        0.7430    -1.9420     1.8200 H     1 <1>   0.3700 
 24 H        0.1390    -2.3280    -1.7760 H     1 <1>   0.0800 
 25 H        2.2910    -0.5680     2.8900 H     1 <1>   0.0800 
 26 H        2.7430     0.1480     1.3710 H     1 <1>   0.0800 
 27 H       -1.2850    -0.6990    -0.6480 H     1 <1>   0.0800 
 28 H       -1.3460    -1.6910     0.7800 H     1 <1>   0.0800 
 29 H        0.0840    -3.9480     0.7770 H     1 <1>   0.0800 
 30 H        1.0010    -4.3160    -0.6540 H     1 <1>   0.0800 
 31 H       -2.4560    -2.4090    -1.9390 H     1 <1>   0.0800 
 32 H       -3.3800    -2.0280    -0.5160 H     1 <1>   0.0800 
 33 H       -1.0980    -5.6390    -0.5180 H     1 <1>   0.0800 
 34 H       -1.0480    -4.6400    -1.9410 H     1 <1>   0.0800 
 35 H        3.7420    -1.6910    -0.1340 H     1 <1>   0.3700 
 36 H       -3.2570    -4.4760    -0.9120 H     1 <1>   0.0800 
 37 H       -2.5530    -4.0330     0.6150 H     1 <1>   0.0800 
 38 H        4.8540    -2.7350    -1.7840 H     1 <1>   0.1500 
 39 H        6.4220    -2.8520     2.1770 H     1 <1>   0.1500 
 40 H        6.7960    -4.0160    -2.5780 H     1 <1>   0.1500 
 41 H        8.3280    -4.1130     1.4040 H     1 <1>   0.1500 
 42 H        9.3710    -5.9700     0.3900 H     1 <1>   0.0800 
 43 H       10.2530    -4.4660     0.0970 H     1 <1>   0.0800 
 44 H       10.2910    -6.9120    -1.7090 H     1 <1>   0.0800 
 45 H       11.5910    -6.4350    -0.6450 H     1 <1>   0.0800 
 46 H       11.1670    -5.4180    -2.0000 H     1 <1>   0.0800 
@<TRIPOS>BOND
  1   1   2  2   
  2   2   3  am  
  3   2   4  1   
  4   3   5  1   
  5   3  23  1   
  6   4   6  1   
  7   4   7  1   
  8   4  24  1   
  9   5   8  1   
 10   5  25  1   
 11   5  26  1   
 12   6   9  1   
 13   6  27  1   
 14   6  28  1   
 15   7  10  1   
 16   7  29  1   
 17   7  30  1   
 18   8  11  2   
 19   8  12  am  
 20   9  13  1   
 21   9  31  1   
 22   9  32  1   
 23  10  13  1   
 24  10  33  1   
 25  10  34  1   
 26  12  14  1   
 27  12  35  1   
 28  13  36  1   
 29  13  37  1   
 30  14  15  ar  
 31  14  16  ar  
 32  15  17  ar  
 33  15  38  1   
 34  16  18  ar  
 35  16  39  1   
 36  17  19  ar  
 37  17  40  1   
 38  18  19  ar  
 39  18  41  1   
 40  19  20  1   
 41  20  21  1   
 42  21  22  1   
 43  21  42  1   
 44  21  43  1   
 45  22  44  1   
 46  22  45  1   
 47  22  46  1   
@<TRIPOS>SUBSTRUCTURE
  1 ****  12 GROUP 4 **** **** 0

# MOE 2024.06 (io_trps.svl 2023.06)
