@<TRIPOS>MOLECULE
NONAME
46 47 1 0 0 
SMALL
USER_CHARGES


@<TRIPOS>ATOM
  1 O        0.0300     0.0480     0.1720 O.2   1 <1>  -0.5700 
  2 C        0.0520    -1.1640     0.0950 C.2   1 <1>   0.5440 
  3 N        1.2490    -1.8370     0.0030 N.am  1 <1>  -0.5470 
  4 C       -1.1850    -1.9170     0.0700 C.ar  1 <1>   0.0860 
  5 C        2.5740    -1.3940     0.1320 C.ar  1 <1>   0.1170 
  6 C       -2.3050    -1.4320    -0.6030 C.ar  1 <1>  -0.1500 
  7 C       -1.3110    -3.1510     0.7120 C.ar  1 <1>  -0.1500 
  8 C        3.5880    -2.1400    -0.4580 C.ar  1 <1>  -0.1500 
  9 C        2.9270    -0.2530     0.8430 C.ar  1 <1>  -0.1500 
 10 C       -3.4900    -2.1410    -0.6460 C.ar  1 <1>   0.0830 
 11 C       -2.4880    -3.8770     0.6700 C.ar  1 <1>  -0.1500 
 12 C        4.9120    -1.7590    -0.3430 C.ar  1 <1>  -0.1500 
 13 C        4.2510     0.1310     0.9590 C.ar  1 <1>  -0.1500 
 14 O       -4.5200    -1.5910    -1.3360 O.3   1 <1>  -0.3630 
 15 C       -3.5950    -3.3850    -0.0170 C.ar  1 <1>   0.0830 
 16 C        5.2540    -0.6200     0.3680 C.ar  1 <1>  -0.1430 
 17 C       -5.6500    -1.1640    -0.6050 C.3   1 <1>   0.1200 
 18 O       -4.7660    -4.0690    -0.1080 O.3   1 <1>  -0.3620 
 19 C        6.7090    -0.1970     0.4940 C.3   1 <1>  -0.0170 
 20 C       -5.3700     0.2180    -0.0140 C.3   1 <1>  -0.2400 
 21 C       -4.9340    -5.3560     0.4370 C.3   1 <1>   0.1200 
 22 C        7.1010     0.7280    -0.6600 C.3   1 <1>  -0.2400 
 23 C       -6.3520    -5.8200     0.1200 C.3   1 <1>  -0.2400 
 24 H        1.1580    -2.8070    -0.2880 H     1 <1>   0.3700 
 25 H       -2.2480    -0.4800    -1.1020 H     1 <1>   0.1500 
 26 H       -0.4740    -3.5460     1.2620 H     1 <1>   0.1500 
 27 H        3.3430    -3.0250    -1.0160 H     1 <1>   0.1500 
 28 H        2.1670     0.3430     1.3140 H     1 <1>   0.1500 
 29 H       -2.5260    -4.8210     1.1790 H     1 <1>   0.1500 
 30 H        5.6800    -2.3500    -0.8110 H     1 <1>   0.1500 
 31 H        4.4960     1.0210     1.5110 H     1 <1>   0.1500 
 32 H       -5.8730    -1.8790     0.1670 H     1 <1>   0.0800 
 33 H       -6.4770    -1.1190    -1.2910 H     1 <1>   0.0800 
 34 H        7.3420    -1.0670     0.4920 H     1 <1>   0.0800 
 35 H        6.8580     0.3120     1.4300 H     1 <1>   0.0800 
 36 H       -4.5590     0.1680     0.6900 H     1 <1>   0.0800 
 37 H       -6.2440     0.5750     0.5000 H     1 <1>   0.0800 
 38 H       -5.1250     0.9120    -0.7980 H     1 <1>   0.0800 
 39 H       -4.7820    -5.3000     1.5010 H     1 <1>   0.0800 
 40 H       -4.2100    -6.0140    -0.0120 H     1 <1>   0.0800 
 41 H        6.9710     0.2220    -1.6010 H     1 <1>   0.0800 
 42 H        8.1300     1.0250    -0.5650 H     1 <1>   0.0800 
 43 H        6.4830     1.6080    -0.6560 H     1 <1>   0.0800 
 44 H       -7.0680    -5.1480     0.5600 H     1 <1>   0.0800 
 45 H       -6.5140    -6.8040     0.5200 H     1 <1>   0.0800 
 46 H       -6.4990    -5.8530    -0.9450 H     1 <1>   0.0800 
@<TRIPOS>BOND
  1   1   2  2   
  2   2   3  am  
  3   2   4  1   
  4   3   5  1   
  5   3  24  1   
  6   4   6  ar  
  7   4   7  ar  
  8   5   8  ar  
  9   5   9  ar  
 10   6  10  ar  
 11   6  25  1   
 12   7  11  ar  
 13   7  26  1   
 14   8  12  ar  
 15   8  27  1   
 16   9  13  ar  
 17   9  28  1   
 18  10  14  1   
 19  10  15  ar  
 20  11  15  ar  
 21  11  29  1   
 22  12  16  ar  
 23  12  30  1   
 24  13  16  ar  
 25  13  31  1   
 26  14  17  1   
 27  15  18  1   
 28  16  19  1   
 29  17  20  1   
 30  17  32  1   
 31  17  33  1   
 32  18  21  1   
 33  19  22  1   
 34  19  34  1   
 35  19  35  1   
 36  20  36  1   
 37  20  37  1   
 38  20  38  1   
 39  21  23  1   
 40  21  39  1   
 41  21  40  1   
 42  22  41  1   
 43  22  42  1   
 44  22  43  1   
 45  23  44  1   
 46  23  45  1   
 47  23  46  1   
@<TRIPOS>SUBSTRUCTURE
  1 ****   2 GROUP 4 **** **** 0

# MOE 2024.06 (io_trps.svl 2023.06)
