@<TRIPOS>MOLECULE
NONAME
53 56 1 0 0 
SMALL
USER_CHARGES


@<TRIPOS>ATOM
  1 BR       0.8350     0.6400     3.2710 Br    1 <1>  -0.1110 
  2 C        2.3900     1.0630     2.2170 C.ar  1 <1>   0.1110 
  3 C        3.1960     0.0350     1.7750 C.ar  1 <1>  -0.1500 
  4 C        2.6610     2.3790     1.9260 C.ar  1 <1>  -0.1500 
  5 C        4.3260     0.3000     1.0050 C.ar  1 <1>  -0.1440 
  6 C        3.7820     2.6560     1.1700 C.ar  1 <1>  -0.1500 
  7 C        4.6250     1.6480     0.7020 C.ar  1 <1>   0.1170 
  8 C        5.1080    -0.9770     0.6150 C.3   1 <1>   0.5070 
  9 N        5.7290     2.1210    -0.0310 N.am  1 <1>  -0.5470 
 10 N        6.3700    -0.7470    -0.1370 N.am  1 <1>  -0.6600 
 11 C        4.2710    -1.9730    -0.1950 C.ar  1 <1>  -0.1430 
 12 C        6.5150     1.5190    -0.9530 C.2   1 <1>   0.5690 
 13 C        7.5850    -1.0820     0.3930 C.2   1 <1>   0.5690 
 14 C        6.2130     0.0960    -1.3530 C.3   1 <1>   0.2010 
 15 C        4.5870    -3.3230    -0.1160 C.ar  1 <1>  -0.1500 
 16 C        3.2140    -1.5790    -1.0080 C.ar  1 <1>  -0.1500 
 17 O        7.5150     2.0450    -1.3720 O.2   1 <1>  -0.5700 
 18 O        7.6810    -1.7720     1.3820 O.2   1 <1>  -0.5700 
 19 C        8.9020    -0.5760    -0.2420 C.3   1 <1>   0.4040 
 20 C        3.8650    -4.2610    -0.8330 C.ar  1 <1>  -0.1500 
 21 C        2.4920    -2.5160    -1.7270 C.ar  1 <1>  -0.1500 
 22 N       10.1450    -1.2420     0.3000 N.4   1 <1>  -0.9590 
 23 C        2.8180    -3.8580    -1.6410 C.ar  1 <1>  -0.1500 
 24 C       11.3750    -0.4560     0.0020 C.3   1 <1>   0.3430 
 25 C       10.2430    -2.6640    -0.1420 C.3   1 <1>   0.3430 
 26 C       12.5760    -1.0970     0.7000 C.3   1 <1>  -0.1600 
 27 C       11.4280    -3.3360     0.5540 C.3   1 <1>  -0.1600 
 28 C       12.7380    -2.5740     0.3170 C.3   1 <1>  -0.1600 
 29 H        2.9240    -0.9730     2.0400 H     1 <1>   0.1500 
 30 H        2.0130     3.1610     2.2840 H     1 <1>   0.1500 
 31 H        4.0000     3.6840     0.9400 H     1 <1>   0.1500 
 32 H        5.3470    -1.4640     1.5450 H     1 <1>   0.0800 
 33 H        5.9910     3.0930     0.1380 H     1 <1>   0.3700 
 34 H        5.2130     0.0390    -1.7430 H     1 <1>   0.0800 
 35 H        6.8890    -0.2220    -2.1260 H     1 <1>   0.0800 
 36 H        5.4000    -3.6540     0.5080 H     1 <1>   0.1500 
 37 H        2.9340    -0.5430    -1.0920 H     1 <1>   0.1500 
 38 H        8.9590     0.4830    -0.0560 H     1 <1>   0.0800 
 39 H        8.8530    -0.7190    -1.3070 H     1 <1>   0.0800 
 40 H        4.1170    -5.3050    -0.7630 H     1 <1>   0.1500 
 41 H        1.6740    -2.2030    -2.3530 H     1 <1>   0.1500 
 42 H       10.0150    -1.2790     1.3240 H     1 <1>   0.4500 
 43 H        2.2550    -4.5860    -2.1990 H     1 <1>   0.1500 
 44 H       11.2600     0.5600     0.3460 H     1 <1>   0.0800 
 45 H       11.5470    -0.4370    -1.0620 H     1 <1>   0.0800 
 46 H       10.3820    -2.7070    -1.2100 H     1 <1>   0.0800 
 47 H        9.3360    -3.1920     0.1090 H     1 <1>   0.0800 
 48 H       12.4580    -1.0050     1.7660 H     1 <1>   0.0800 
 49 H       13.4690    -0.5590     0.4290 H     1 <1>   0.0800 
 50 H       11.5270    -4.3420     0.1840 H     1 <1>   0.0800 
 51 H       11.2270    -3.4030     1.6100 H     1 <1>   0.0800 
 52 H       13.5300    -3.0180     0.8980 H     1 <1>   0.0800 
 53 H       13.0140    -2.6480    -0.7220 H     1 <1>   0.0800 
@<TRIPOS>BOND
  1   1   2  1   
  2   2   3  ar  
  3   2   4  ar  
  4   3   5  ar  
  5   3  29  1   
  6   4   6  ar  
  7   4  30  1   
  8   5   7  ar  
  9   5   8  1   
 10   6   7  ar  
 11   6  31  1   
 12   7   9  1   
 13   8  10  1   
 14   8  11  1   
 15   8  32  1   
 16   9  12  am  
 17   9  33  1   
 18  10  13  am  
 19  10  14  1   
 20  11  15  ar  
 21  11  16  ar  
 22  12  14  1   
 23  12  17  2   
 24  13  18  2   
 25  13  19  1   
 26  14  34  1   
 27  14  35  1   
 28  15  20  ar  
 29  15  36  1   
 30  16  21  ar  
 31  16  37  1   
 32  19  22  1   
 33  19  38  1   
 34  19  39  1   
 35  20  23  ar  
 36  20  40  1   
 37  21  23  ar  
 38  21  41  1   
 39  22  24  1   
 40  22  25  1   
 41  22  42  1   
 42  23  43  1   
 43  24  26  1   
 44  24  44  1   
 45  24  45  1   
 46  25  27  1   
 47  25  46  1   
 48  25  47  1   
 49  26  28  1   
 50  26  48  1   
 51  26  49  1   
 52  27  28  1   
 53  27  50  1   
 54  27  51  1   
 55  28  52  1   
 56  28  53  1   
@<TRIPOS>SUBSTRUCTURE
  1 ****  10 GROUP 4 **** **** 0

# MOE 2024.06 (io_trps.svl 2023.06)
