@<TRIPOS>MOLECULE
NONAME
46 47 1 0 0 
SMALL
USER_CHARGES


@<TRIPOS>ATOM
  1 F       -0.7780     0.1030    -0.5250 F     1 <1>  -0.3400 
  2 C       -1.9510    -0.5120    -0.4320 C.3   1 <1>   1.1640 
  3 F       -2.5390    -0.0120     0.6530 F     1 <1>  -0.3400 
  4 F       -2.6720    -0.0900    -1.4620 F     1 <1>  -0.3400 
  5 C       -1.8470    -2.0400    -0.3800 C.ar  1 <1>  -0.1440 
  6 C       -2.9730    -2.8210    -0.0920 C.ar  1 <1>   0.1170 
  7 C       -0.6280    -2.6660    -0.6350 C.ar  1 <1>  -0.1500 
  8 N       -4.2230    -2.2350     0.1920 N.am  1 <1>  -0.5470 
  9 C       -2.8370    -4.2060    -0.0670 C.ar  1 <1>  -0.1500 
 10 C       -0.5160    -4.0440    -0.6040 C.ar  1 <1>  -0.1500 
 11 C       -5.4840    -2.6580    -0.1470 C.2   1 <1>   0.5690 
 12 C       -1.6240    -4.8150    -0.3200 C.ar  1 <1>  -0.1500 
 13 O       -5.6820    -3.6620    -0.7900 O.2   1 <1>  -0.5700 
 14 C       -6.6750    -1.7970     0.3200 C.3   1 <1>   0.1710 
 15 N       -8.0000    -2.4820     0.3950 N.3   1 <1>  -0.8100 
 16 C       -8.0160    -3.6340     1.3320 C.3   1 <1>   0.1100 
 17 C       -9.1240    -1.5600     0.6710 C.3   1 <1>   0.1100 
 18 C       -9.3720    -4.3820     1.3130 C.3   1 <1>   0.3430 
 19 C      -10.4920    -2.2900     0.6390 C.3   1 <1>   0.3430 
 20 N      -10.3240    -3.7540     0.3380 N.4   1 <1>  -0.9590 
 21 C      -11.5880    -4.5180     0.1880 C.3   1 <1>   0.3430 
 22 C      -12.3350    -4.0720    -1.0700 C.3   1 <1>  -0.1600 
 23 C      -13.5790    -4.9370    -1.3050 C.3   1 <1>  -0.2400 
 24 H        0.2540    -2.0910    -0.8640 H     1 <1>   0.1500 
 25 H       -4.1760    -1.3410     0.6850 H     1 <1>   0.3700 
 26 H       -3.6890    -4.8230     0.1530 H     1 <1>   0.1500 
 27 H        0.4320    -4.5160    -0.8030 H     1 <1>   0.1500 
 28 H       -1.5450    -5.8890    -0.2970 H     1 <1>   0.1500 
 29 H       -6.7550    -0.9790    -0.3740 H     1 <1>   0.0800 
 30 H       -6.4400    -1.3860     1.2860 H     1 <1>   0.0800 
 31 H       -7.8080    -3.2980     2.3330 H     1 <1>   0.0800 
 32 H       -7.2450    -4.3360     1.0610 H     1 <1>   0.0800 
 33 H       -9.1330    -0.7780    -0.0700 H     1 <1>   0.0800 
 34 H       -8.9910    -1.0950     1.6330 H     1 <1>   0.0800 
 35 H       -9.7960    -4.3730     2.3030 H     1 <1>   0.0800 
 36 H       -9.1950    -5.4090     1.0400 H     1 <1>   0.0800 
 37 H      -11.1090    -1.8280    -0.1140 H     1 <1>   0.0800 
 38 H      -10.9840    -2.1630     1.5880 H     1 <1>   0.0800 
 39 H       -9.7950    -3.7670    -0.5500 H     1 <1>   0.4500 
 40 H      -12.2120    -4.3800     1.0560 H     1 <1>   0.0800 
 41 H      -11.3620    -5.5690     0.0990 H     1 <1>   0.0800 
 42 H      -11.6890    -4.1610    -1.9270 H     1 <1>   0.0800 
 43 H      -12.6490    -3.0480    -0.9770 H     1 <1>   0.0800 
 44 H      -13.3080    -5.9710    -1.4350 H     1 <1>   0.0800 
 45 H      -14.0900    -4.6110    -2.1950 H     1 <1>   0.0800 
 46 H      -14.2620    -4.8590    -0.4770 H     1 <1>   0.0800 
@<TRIPOS>BOND
  1   1   2  1   
  2   2   3  1   
  3   2   4  1   
  4   2   5  1   
  5   5   6  ar  
  6   5   7  ar  
  7   6   8  1   
  8   6   9  ar  
  9   7  10  ar  
 10   7  24  1   
 11   8  11  am  
 12   8  25  1   
 13   9  12  ar  
 14   9  26  1   
 15  10  12  ar  
 16  10  27  1   
 17  11  13  2   
 18  11  14  1   
 19  12  28  1   
 20  14  15  1   
 21  14  29  1   
 22  14  30  1   
 23  15  16  1   
 24  15  17  1   
 25  16  18  1   
 26  16  31  1   
 27  16  32  1   
 28  17  19  1   
 29  17  33  1   
 30  17  34  1   
 31  18  20  1   
 32  18  35  1   
 33  18  36  1   
 34  19  20  1   
 35  19  37  1   
 36  19  38  1   
 37  20  21  1   
 38  20  39  1   
 39  21  22  1   
 40  21  40  1   
 41  21  41  1   
 42  22  23  1   
 43  22  42  1   
 44  22  43  1   
 45  23  44  1   
 46  23  45  1   
 47  23  46  1   
@<TRIPOS>SUBSTRUCTURE
  1 ****  11 GROUP 4 **** **** 0

# MOE 2024.06 (io_trps.svl 2023.06)
