@<TRIPOS>MOLECULE
NONAME
48 50 1 0 0 
SMALL
USER_CHARGES


@<TRIPOS>ATOM
  1 O        1.0510    -0.3550     2.2960 O.2   1 <1>  -0.5700 
  2 C        1.7040    -0.9130     1.4250 C.2   1 <1>   0.7060 
  3 O        2.8050    -0.2760     1.0140 O.3   1 <1>  -0.2320 
  4 C        1.4090    -2.2120     0.8910 C.2   1 <1>   0.1230 
  5 C        3.6780    -0.8160     0.1400 C.ar  1 <1>   0.0830 
  6 N        0.2280    -2.8970     1.2930 N.am  1 <1>  -0.5390 
  7 C        2.2790    -2.8150     0.0190 C.2   1 <1>   0.0720 
  8 C        3.4520    -2.0890    -0.3980 C.ar  1 <1>   0.0280 
  9 C        4.7950    -0.0720    -0.2120 C.ar  1 <1>  -0.1500 
 10 C       -1.0390    -2.4970     1.0360 C.2   1 <1>   0.6900 
 11 N        2.0400    -4.0980    -0.4780 N.pl3 1 <1>  -0.8690 
 12 C        4.3810    -2.5630    -1.3300 C.ar  1 <1>  -0.1500 
 13 C        5.7050    -0.5740    -1.1190 C.ar  1 <1>  -0.1500 
 14 O       -1.2610    -1.5760     0.2760 O.2   1 <1>  -0.5700 
 15 N       -2.0490    -3.1880     1.6170 N.am  1 <1>  -0.7300 
 16 C        2.8850    -5.2410    -0.0690 C.3   1 <1>   0.2090 
 17 C        5.4930    -1.8230    -1.6820 C.ar  1 <1>  -0.1500 
 18 C       -3.4910    -2.8430     1.4510 C.3   1 <1>   0.1400 
 19 C        2.1500    -6.0440     1.0040 C.3   1 <1>  -0.1600 
 20 C       -3.9800    -3.0190     0.0040 C.3   1 <1>   0.2000 
 21 C        2.9690    -7.2610     1.4490 C.3   1 <1>  -0.2400 
 22 O       -5.3690    -2.9640    -0.0190 O.3   1 <1>  -0.5600 
 23 C       -3.6600    -4.3680    -0.6310 C.3   1 <1>  -0.1600 
 24 C       -5.8410    -3.5280    -1.1980 C.3   1 <1>   0.1200 
 25 C       -4.8050    -4.5720    -1.6110 C.3   1 <1>  -0.1600 
 26 H        0.3420    -3.8760     1.5320 H     1 <1>   0.3700 
 27 H        4.9410     0.8990     0.2270 H     1 <1>   0.1500 
 28 H        1.0540    -4.3500    -0.6150 H     1 <1>   0.4000 
 29 H        4.2230    -3.5210    -1.7900 H     1 <1>   0.1500 
 30 H        6.5730     0.0010    -1.3940 H     1 <1>   0.1500 
 31 H       -1.8300    -3.6810     2.4800 H     1 <1>   0.3700 
 32 H        3.8250    -4.8820     0.3190 H     1 <1>   0.0800 
 33 H        3.0830    -5.8600    -0.9280 H     1 <1>   0.0800 
 34 H        6.1950    -2.2120    -2.3990 H     1 <1>   0.1500 
 35 H       -3.6440    -1.8190     1.7470 H     1 <1>   0.0800 
 36 H       -4.0740    -3.4790     2.0930 H     1 <1>   0.0800 
 37 H        1.2050    -6.3820     0.6150 H     1 <1>   0.0800 
 38 H        1.9740    -5.4140     1.8580 H     1 <1>   0.0800 
 39 H       -3.6150    -2.2150    -0.6130 H     1 <1>   0.0800 
 40 H        3.1500    -7.9200     0.6170 H     1 <1>   0.0800 
 41 H        2.4350    -7.8090     2.2060 H     1 <1>   0.0800 
 42 H        3.9150    -6.9510     1.8580 H     1 <1>   0.0800 
 43 H       -3.6710    -5.1370     0.1210 H     1 <1>   0.0800 
 44 H       -2.6980    -4.3520    -1.1130 H     1 <1>   0.0800 
 45 H       -5.9200    -2.7460    -1.9340 H     1 <1>   0.0800 
 46 H       -6.8080    -3.9610    -1.0110 H     1 <1>   0.0800 
 47 H       -5.2110    -5.5660    -1.5390 H     1 <1>   0.0800 
 48 H       -4.4910    -4.3920    -2.6240 H     1 <1>   0.0800 
@<TRIPOS>BOND
  1   1   2  2   
  2   2   3  1   
  3   2   4  1   
  4   3   5  1   
  5   4   6  1   
  6   4   7  2   
  7   5   8  ar  
  8   5   9  ar  
  9   6  10  am  
 10   6  26  1   
 11   7   8  1   
 12   7  11  1   
 13   8  12  ar  
 14   9  13  ar  
 15   9  27  1   
 16  10  14  2   
 17  10  15  am  
 18  11  16  1   
 19  11  28  1   
 20  12  17  ar  
 21  12  29  1   
 22  13  17  ar  
 23  13  30  1   
 24  15  18  1   
 25  15  31  1   
 26  16  19  1   
 27  16  32  1   
 28  16  33  1   
 29  17  34  1   
 30  18  20  1   
 31  18  35  1   
 32  18  36  1   
 33  19  21  1   
 34  19  37  1   
 35  19  38  1   
 36  20  22  1   
 37  20  23  1   
 38  20  39  1   
 39  21  40  1   
 40  21  41  1   
 41  21  42  1   
 42  22  24  1   
 43  23  25  1   
 44  23  43  1   
 45  23  44  1   
 46  24  25  1   
 47  24  45  1   
 48  24  46  1   
 49  25  47  1   
 50  25  48  1   
@<TRIPOS>SUBSTRUCTURE
  1 ****   6 GROUP 4 **** **** 0

# MOE 2024.06 (io_trps.svl 2023.06)
