@<TRIPOS>MOLECULE
NONAME
49 50 1 0 0 
SMALL
USER_CHARGES


@<TRIPOS>ATOM
  1 O       -0.4740     0.1870     1.0640 O.2   1 <1>  -0.5700 
  2 C       -1.3120     0.9030     0.5460 C.2   1 <1>   0.5440 
  3 N       -1.1970     2.2930     0.6380 N.am  1 <1>  -0.2980 
  4 C       -2.4290     0.2970    -0.1550 C.ar  1 <1>   0.0860 
  5 N       -2.2090     3.1710     0.3740 N.2   1 <1>  -0.5120 
  6 C        0.0050     2.9990     1.1650 C.3   1 <1>   0.5800 
  7 C       -3.7520     0.5480     0.2080 C.ar  1 <1>  -0.1500 
  8 C       -2.2020    -0.5730    -1.2210 C.ar  1 <1>  -0.1500 
  9 C       -1.9220     4.3430     0.8140 C.2   1 <1>   0.3890 
 10 O        0.3550     2.3890     2.3470 O.3   1 <1>  -0.6800 
 11 C        1.2380     3.0550     0.1640 C.3   1 <1>   0.0000 
 12 C       -0.5760     4.3720     1.5070 C.3   1 <1>  -0.0990 
 13 C       -4.8120    -0.0250    -0.4840 C.ar  1 <1>   0.0830 
 14 C       -3.2500    -1.1510    -1.9150 C.ar  1 <1>  -0.1500 
 15 C       -2.6880     5.5700     0.7460 C.2   1 <1>   0.7200 
 16 C        2.4250     3.8370     0.7770 C.3   1 <1>  -0.2400 
 17 C        1.7950     1.6610    -0.2030 C.3   1 <1>  -0.2400 
 18 C        0.8670     3.7420    -1.1700 C.3   1 <1>  -0.2400 
 19 O       -6.1160     0.1950    -0.1800 O.3   1 <1>  -0.3630 
 20 C       -4.5540    -0.8730    -1.5480 C.ar  1 <1>  -0.1500 
 21 O       -2.2700     6.6090     1.2230 O.2   1 <1>  -0.5700 
 22 O       -3.8940     5.6670     0.1570 O.3   1 <1>  -0.4300 
 23 C       -6.4900     0.9240     0.9670 C.3   1 <1>   0.0400 
 24 C       -4.5390     4.6460    -0.5710 C.3   1 <1>   0.1200 
 25 C       -5.8460     5.2110    -1.1150 C.3   1 <1>  -0.2400 
 26 H       -3.9260     1.2030     1.0390 H     1 <1>   0.1500 
 27 H       -1.1880    -0.7960    -1.5050 H     1 <1>   0.1500 
 28 H        0.3260     1.4200     2.1630 H     1 <1>   0.4000 
 29 H        0.0130     5.1880     1.1410 H     1 <1>   0.0800 
 30 H       -0.7160     4.4900     2.5660 H     1 <1>   0.0800 
 31 H       -3.0540    -1.8170    -2.7370 H     1 <1>   0.1500 
 32 H        2.7400     3.3790     1.6990 H     1 <1>   0.0800 
 33 H        2.1740     4.8600     0.9810 H     1 <1>   0.0800 
 34 H        3.2660     3.8390     0.1070 H     1 <1>   0.0800 
 35 H        1.0820     1.0960    -0.7740 H     1 <1>   0.0800 
 36 H        2.0480     1.1030     0.6820 H     1 <1>   0.0800 
 37 H        2.6840     1.7480    -0.8020 H     1 <1>   0.0800 
 38 H        0.0540     3.2250    -1.6500 H     1 <1>   0.0800 
 39 H        1.7060     3.7340    -1.8440 H     1 <1>   0.0800 
 40 H        0.5780     4.7660    -1.0250 H     1 <1>   0.0800 
 41 H       -5.3780    -1.3140    -2.0800 H     1 <1>   0.1500 
 42 H       -7.5640     0.9180     1.0310 H     1 <1>   0.0800 
 43 H       -6.1360     1.9350     0.8720 H     1 <1>   0.0800 
 44 H       -6.0710     0.4480     1.8360 H     1 <1>   0.0800 
 45 H       -4.7340     3.8180     0.0900 H     1 <1>   0.0800 
 46 H       -3.8960     4.3330    -1.3770 H     1 <1>   0.0800 
 47 H       -6.4770     5.5330    -0.3060 H     1 <1>   0.0800 
 48 H       -6.3640     4.4540    -1.6740 H     1 <1>   0.0800 
 49 H       -5.6470     6.0430    -1.7670 H     1 <1>   0.0800 
@<TRIPOS>BOND
  1   1   2  2   
  2   2   3  am  
  3   2   4  1   
  4   3   5  1   
  5   3   6  1   
  6   4   7  ar  
  7   4   8  ar  
  8   5   9  2   
  9   6  10  1   
 10   6  11  1   
 11   6  12  1   
 12   7  13  ar  
 13   7  26  1   
 14   8  14  ar  
 15   8  27  1   
 16   9  12  1   
 17   9  15  1   
 18  10  28  1   
 19  11  16  1   
 20  11  17  1   
 21  11  18  1   
 22  12  29  1   
 23  12  30  1   
 24  13  19  1   
 25  13  20  ar  
 26  14  20  ar  
 27  14  31  1   
 28  15  21  2   
 29  15  22  1   
 30  16  32  1   
 31  16  33  1   
 32  16  34  1   
 33  17  35  1   
 34  17  36  1   
 35  17  37  1   
 36  18  38  1   
 37  18  39  1   
 38  18  40  1   
 39  19  23  1   
 40  20  41  1   
 41  22  24  1   
 42  23  42  1   
 43  23  43  1   
 44  23  44  1   
 45  24  25  1   
 46  24  45  1   
 47  24  46  1   
 48  25  47  1   
 49  25  48  1   
 50  25  49  1   
@<TRIPOS>SUBSTRUCTURE
  1 ****   5 GROUP 4 **** **** 0

# MOE 2024.06 (io_trps.svl 2023.06)
