@<TRIPOS>MOLECULE
NONAME
38 40 1 0 0 
SMALL
USER_CHARGES


@<TRIPOS>ATOM
  1 O       -0.3460    -0.5220     0.2210 O.2   1 <1>  -0.5700 
  2 C       -0.8620     0.5390     0.4670 C.2   1 <1>   0.6300 
  3 N       -0.2230     1.7400     0.3640 N.am  1 <1>  -0.5470 
  4 C       -2.3180     0.5670     0.9070 C.3   1 <1>  -0.1000 
  5 C        1.0950     2.0460     0.0050 C.ar  1 <1>   0.1170 
  6 C       -3.4230     0.6480    -0.0970 C.3   1 <1>  -0.1950 
  7 C       -3.1460     1.8150     0.8110 C.3   1 <1>  -0.1950 
  8 C        2.1590     1.1880     0.2540 C.ar  1 <1>  -0.1500 
  9 C        1.3540     3.2630    -0.6100 C.ar  1 <1>  -0.1500 
 10 C       -4.9410     0.5450    -0.2110 C.3   1 <1>  -0.0650 
 11 C       -3.3590     3.0690    -0.0380 C.3   1 <1>  -0.0650 
 12 C        3.4720     1.5000    -0.0990 C.ar  1 <1>   0.0860 
 13 C        2.6420     3.6060    -0.9710 C.ar  1 <1>  -0.1500 
 14 C       -5.4180     1.8050    -0.9720 C.3   1 <1>  -0.1600 
 15 C       -4.8660     3.1290    -0.3790 C.3   1 <1>  -0.1600 
 16 C        4.5490     0.5710     0.1840 C.2   1 <1>   0.4230 
 17 C        3.6860     2.7350    -0.7190 C.ar  1 <1>  -0.1500 
 18 O        4.4620    -0.3180     0.9890 O.2   1 <1>  -0.5700 
 19 C        5.8700     0.6930    -0.5500 C.3   1 <1>  -0.1790 
 20 H       -0.8380     2.5340     0.5270 H     1 <1>   0.3700 
 21 H       -2.4790    -0.0940     1.7390 H     1 <1>   0.1000 
 22 H       -3.0140     0.6190    -1.0950 H     1 <1>   0.1000 
 23 H       -3.7090     1.9400     1.7220 H     1 <1>   0.1000 
 24 H        1.9700     0.2450     0.7370 H     1 <1>   0.1500 
 25 H        0.5470     3.9430    -0.8120 H     1 <1>   0.1500 
 26 H       -5.3950     0.5020     0.7640 H     1 <1>   0.0800 
 27 H       -5.2140    -0.3450    -0.7510 H     1 <1>   0.0800 
 28 H       -2.7770     3.0230    -0.9430 H     1 <1>   0.0800 
 29 H       -3.0700     3.9480     0.5120 H     1 <1>   0.0800 
 30 H        2.8320     4.5520    -1.4500 H     1 <1>   0.1500 
 31 H       -6.4940     1.8340    -0.9830 H     1 <1>   0.0800 
 32 H       -5.0880     1.7270    -1.9940 H     1 <1>   0.0800 
 33 H       -5.0500     3.9360    -1.0670 H     1 <1>   0.0800 
 34 H       -5.4100     3.3470     0.5240 H     1 <1>   0.0800 
 35 H        4.6790     3.0310    -1.0050 H     1 <1>   0.1500 
 36 H        5.7000     0.8490    -1.5990 H     1 <1>   0.0800 
 37 H        6.4360    -0.2130    -0.4280 H     1 <1>   0.0800 
 38 H        6.4380     1.5090    -0.1460 H     1 <1>   0.0800 
@<TRIPOS>BOND
  1   1   2  2   
  2   2   3  am  
  3   2   4  1   
  4   3   5  1   
  5   3  20  1   
  6   4   6  1   
  7   4   7  1   
  8   4  21  1   
  9   5   8  ar  
 10   5   9  ar  
 11   6   7  1   
 12   6  10  1   
 13   6  22  1   
 14   7  11  1   
 15   7  23  1   
 16   8  12  ar  
 17   8  24  1   
 18   9  13  ar  
 19   9  25  1   
 20  10  14  1   
 21  10  26  1   
 22  10  27  1   
 23  11  15  1   
 24  11  28  1   
 25  11  29  1   
 26  12  16  1   
 27  12  17  ar  
 28  13  17  ar  
 29  13  30  1   
 30  14  15  1   
 31  14  31  1   
 32  14  32  1   
 33  15  33  1   
 34  15  34  1   
 35  16  18  2   
 36  16  19  1   
 37  17  35  1   
 38  19  36  1   
 39  19  37  1   
 40  19  38  1   
@<TRIPOS>SUBSTRUCTURE
  1 ****   3 GROUP 4 **** **** 0

# MOE 2024.06 (io_trps.svl 2023.06)
