@<TRIPOS>MOLECULE
NONAME
34 35 1 0 0 
SMALL
USER_CHARGES


@<TRIPOS>ATOM
  1 CL      -2.0210     3.7880     2.0580 Cl    1 <1>  -0.1770 
  2 C       -0.5460     3.2930     1.2540 C.ar  1 <1>   0.1770 
  3 C       -0.5120     2.9420    -0.1060 C.ar  1 <1>   0.0860 
  4 C        0.5830     3.2620     2.0520 C.ar  1 <1>  -0.1500 
  5 C       -1.6580     2.9620    -0.9970 C.2   1 <1>   0.6340 
  6 C        0.7330     2.5450    -0.6140 C.ar  1 <1>  -0.1500 
  7 C        1.7850     2.8690     1.5030 C.ar  1 <1>   0.1770 
  8 O       -1.6730     2.3770    -2.0570 O.2   1 <1>  -0.5700 
  9 O       -2.7410     3.6680    -0.6640 O.3   1 <1>  -0.4300 
 10 C        1.8700     2.5080     0.1730 C.ar  1 <1>  -0.1500 
 11 CL       3.2130     2.8250     2.4990 Cl    1 <1>  -0.1770 
 12 C       -3.9020     3.7430    -1.4780 C.3   1 <1>   0.2000 
 13 C       -4.6910     4.9790    -1.0180 C.3   1 <1>   0.3430 
 14 C       -4.7550     2.4740    -1.2720 C.3   1 <1>  -0.1600 
 15 N       -4.9620     4.9210     0.4680 N.4   1 <1>  -0.9590 
 16 C       -5.8200     2.6350    -0.1650 C.3   1 <1>  -0.1600 
 17 C       -5.3630     3.5600     0.9700 C.3   1 <1>   0.3430 
 18 C       -5.9260     5.9780     0.8930 C.3   1 <1>   0.2630 
 19 H        0.5320     3.5360     3.0910 H     1 <1>   0.1500 
 20 H        0.8120     2.2580    -1.6510 H     1 <1>   0.1500 
 21 H        2.8170     2.2010    -0.2360 H     1 <1>   0.1500 
 22 H       -3.5990     3.8450    -2.5070 H     1 <1>   0.0800 
 23 H       -5.6230     5.0100    -1.5570 H     1 <1>   0.0800 
 24 H       -4.1350     5.8700    -1.2610 H     1 <1>   0.0800 
 25 H       -4.1150     1.6350    -1.0550 H     1 <1>   0.0800 
 26 H       -5.2620     2.2440    -2.1940 H     1 <1>   0.0800 
 27 H       -4.0490     5.1060     0.9160 H     1 <1>   0.4500 
 28 H       -6.0580     1.6670     0.2410 H     1 <1>   0.0800 
 29 H       -6.7290     3.0300    -0.5850 H     1 <1>   0.0800 
 30 H       -6.1470     3.6500     1.7060 H     1 <1>   0.0800 
 31 H       -4.5140     3.1020     1.4520 H     1 <1>   0.0800 
 32 H       -6.8920     5.8050     0.4470 H     1 <1>   0.0800 
 33 H       -5.5740     6.9510     0.5890 H     1 <1>   0.0800 
 34 H       -6.0350     5.9740     1.9660 H     1 <1>   0.0800 
@<TRIPOS>BOND
  1   1   2  1   
  2   2   3  ar  
  3   2   4  ar  
  4   3   5  1   
  5   3   6  ar  
  6   4   7  ar  
  7   4  19  1   
  8   5   8  2   
  9   5   9  1   
 10   6  10  ar  
 11   6  20  1   
 12   7  10  ar  
 13   7  11  1   
 14   9  12  1   
 15  10  21  1   
 16  12  13  1   
 17  12  14  1   
 18  12  22  1   
 19  13  15  1   
 20  13  23  1   
 21  13  24  1   
 22  14  16  1   
 23  14  25  1   
 24  14  26  1   
 25  15  17  1   
 26  15  18  1   
 27  15  27  1   
 28  16  17  1   
 29  16  28  1   
 30  16  29  1   
 31  17  30  1   
 32  17  31  1   
 33  18  32  1   
 34  18  33  1   
 35  18  34  1   
@<TRIPOS>SUBSTRUCTURE
  1 ****   9 GROUP 4 **** **** 0

# MOE 2024.06 (io_trps.svl 2023.06)
