@<TRIPOS>MOLECULE
NONAME
31 32 1 0 0 
SMALL
USER_CHARGES


@<TRIPOS>ATOM
  1 CL      -0.1260    -0.0090    -1.2980 Cl    1 <1>  -0.1770 
  2 C        0.6950    -1.3300    -0.5080 C.ar  1 <1>   0.1770 
  3 C        0.0930    -2.5710    -0.3710 C.ar  1 <1>  -0.0090 
  4 C        1.9720    -1.0870    -0.0370 C.ar  1 <1>  -0.1500 
  5 S       -1.5820    -2.8550    -0.9970 S.o2  1 <1>   1.4470 
  6 C        0.8400    -3.5800     0.2310 C.ar  1 <1>  -0.1500 
  7 C        2.6800    -2.1050     0.5730 C.ar  1 <1>  -0.1500 
  8 O       -2.4980    -1.8370    -0.5330 O.2   1 <1>  -0.6500 
  9 O       -1.4980    -3.1550    -2.4090 O.2   1 <1>  -0.6500 
 10 N       -2.0540    -4.2970    -0.2350 N.am  1 <1>  -0.8490 
 11 C        2.1360    -3.3800     0.7140 C.ar  1 <1>   0.0860 
 12 C       -3.1300    -4.9790    -0.9340 C.3   1 <1>   0.1960 
 13 C       -2.5280    -4.1450     1.1340 C.3   1 <1>   0.1960 
 14 C        2.8960    -4.4480     1.3410 C.2   1 <1>   0.5440 
 15 C       -3.6610    -5.9940     0.0730 C.3   1 <1>  -0.1600 
 16 C       -3.2060    -5.4750     1.4370 C.3   1 <1>  -0.1600 
 17 O        3.7920    -4.2140     2.1210 O.2   1 <1>  -0.5700 
 18 N        2.6570    -5.7550     1.0840 N.am  1 <1>  -0.8000 
 19 H        2.4050    -0.1090    -0.1500 H     1 <1>   0.1500 
 20 H        0.4030    -4.5570     0.3340 H     1 <1>   0.1500 
 21 H        3.6740    -1.9160     0.9450 H     1 <1>   0.1500 
 22 H       -2.7690    -5.4510    -1.8330 H     1 <1>   0.0800 
 23 H       -3.9060    -4.2740    -1.1890 H     1 <1>   0.0800 
 24 H       -3.2600    -3.3550     1.1960 H     1 <1>   0.0800 
 25 H       -1.7190    -3.9400     1.8140 H     1 <1>   0.0800 
 26 H       -3.2340    -6.9620    -0.1230 H     1 <1>   0.0800 
 27 H       -4.7330    -6.0640     0.0050 H     1 <1>   0.0800 
 28 H       -4.0290    -5.3420     2.1170 H     1 <1>   0.0800 
 29 H       -2.4930    -6.1510     1.8740 H     1 <1>   0.0800 
 30 H        3.2550    -6.4520     1.5310 H     1 <1>   0.3700 
 31 H        2.0400    -6.0930     0.3470 H     1 <1>   0.3700 
@<TRIPOS>BOND
  1   1   2  1   
  2   2   3  ar  
  3   2   4  ar  
  4   3   5  1   
  5   3   6  ar  
  6   4   7  ar  
  7   4  19  1   
  8   5   8  2   
  9   5   9  2   
 10   5  10  am  
 11   6  11  ar  
 12   6  20  1   
 13   7  11  ar  
 14   7  21  1   
 15  10  12  1   
 16  10  13  1   
 17  11  14  1   
 18  12  15  1   
 19  12  22  1   
 20  12  23  1   
 21  13  16  1   
 22  13  24  1   
 23  13  25  1   
 24  14  17  2   
 25  14  18  am  
 26  15  16  1   
 27  15  26  1   
 28  15  27  1   
 29  16  28  1   
 30  16  29  1   
 31  18  30  1   
 32  18  31  1   
@<TRIPOS>SUBSTRUCTURE
  1 ****   3 GROUP 4 **** **** 0

# MOE 2024.06 (io_trps.svl 2023.06)
