@<TRIPOS>MOLECULE
NONAME
40 41 1 0 0 
SMALL
USER_CHARGES


@<TRIPOS>ATOM
  1 O        0.4000    -1.7940    -2.5340 O.2   1 <1>  -0.5700 
  2 C        0.0090    -1.8460    -1.3830 C.2   1 <1>   0.5440 
  3 N        0.7990    -1.2880    -0.4210 N.am  1 <1>  -0.7300 
  4 C       -1.2580    -2.4710    -1.0480 C.ar  1 <1>   0.0860 
  5 C        2.0670    -0.5810    -0.6740 C.3   1 <1>   0.3200 
  6 C       -2.2360    -2.6780    -2.0250 C.ar  1 <1>  -0.1500 
  7 C       -1.5630    -2.8970     0.2500 C.ar  1 <1>  -0.1500 
  8 C        2.2470     0.4880     0.3870 C.2   1 <1>  -0.0400 
  9 C       -3.4500    -3.2660    -1.7250 C.ar  1 <1>  -0.1500 
 10 C       -2.7770    -3.4830     0.5510 C.ar  1 <1>  -0.1500 
 11 O        2.3070     0.1300     1.6580 O.3   1 <1>  -0.2800 
 12 C        2.3620     1.8290     0.2700 C.2   1 <1>  -0.1500 
 13 C       -3.7390    -3.6760    -0.4300 C.ar  1 <1>   0.1000 
 14 C        2.4630     1.2260     2.3730 C.2   1 <1>  -0.0100 
 15 C        2.5040     2.3140     1.5760 C.2   1 <1>  -0.1500 
 16 N       -4.9470    -4.2710    -0.1090 N.pl3 1 <1>  -0.8380 
 17 C       -6.1700    -3.4440    -0.2520 C.3   1 <1>   0.2090 
 18 C       -5.0930    -5.7120    -0.4290 C.3   1 <1>   0.2090 
 19 C       -7.0300    -3.6030     0.9970 C.3   1 <1>  -0.2400 
 20 C       -4.8070    -6.5210     0.8290 C.3   1 <1>  -0.2400 
 21 H        0.4760    -1.2050     0.5430 H     1 <1>   0.3700 
 22 H        2.0530    -0.1330    -1.6530 H     1 <1>   0.0800 
 23 H        2.8820    -1.2830    -0.6260 H     1 <1>   0.0800 
 24 H       -2.0320    -2.3700    -3.0360 H     1 <1>   0.1500 
 25 H       -0.8410    -2.7750     1.0360 H     1 <1>   0.1500 
 26 H       -4.1850    -3.4150    -2.4940 H     1 <1>   0.1500 
 27 H       -3.0020    -3.8040     1.5510 H     1 <1>   0.1500 
 28 H        2.3490     2.4320    -0.6210 H     1 <1>   0.1500 
 29 H        2.5360     1.1420     3.4440 H     1 <1>   0.1500 
 30 H        2.6200     3.3480     1.8510 H     1 <1>   0.1500 
 31 H       -6.7190    -3.7420    -1.1290 H     1 <1>   0.0800 
 32 H       -5.8920    -2.4090    -0.3620 H     1 <1>   0.0800 
 33 H       -4.3950    -5.9850    -1.2030 H     1 <1>   0.0800 
 34 H       -6.0890    -5.9200    -0.7820 H     1 <1>   0.0800 
 35 H       -7.3660    -4.6190     1.0940 H     1 <1>   0.0800 
 36 H       -7.8900    -2.9620     0.9290 H     1 <1>   0.0800 
 37 H       -6.4610    -3.3290     1.8660 H     1 <1>   0.0800 
 38 H       -3.7990    -6.3430     1.1570 H     1 <1>   0.0800 
 39 H       -4.9210    -7.5690     0.6220 H     1 <1>   0.0800 
 40 H       -5.4900    -6.2450     1.6110 H     1 <1>   0.0800 
@<TRIPOS>BOND
  1   1   2  2   
  2   2   3  am  
  3   2   4  1   
  4   3   5  1   
  5   3  21  1   
  6   4   6  ar  
  7   4   7  ar  
  8   5   8  1   
  9   5  22  1   
 10   5  23  1   
 11   6   9  ar  
 12   6  24  1   
 13   7  10  ar  
 14   7  25  1   
 15   8  11  1   
 16   8  12  2   
 17   9  13  ar  
 18   9  26  1   
 19  10  13  ar  
 20  10  27  1   
 21  11  14  1   
 22  12  15  1   
 23  12  28  1   
 24  13  16  1   
 25  14  15  2   
 26  14  29  1   
 27  15  30  1   
 28  16  17  1   
 29  16  18  1   
 30  17  19  1   
 31  17  31  1   
 32  17  32  1   
 33  18  20  1   
 34  18  33  1   
 35  18  34  1   
 36  19  35  1   
 37  19  36  1   
 38  19  37  1   
 39  20  38  1   
 40  20  39  1   
 41  20  40  1   
@<TRIPOS>SUBSTRUCTURE
  1 ****   7 GROUP 4 **** **** 0

# MOE 2024.06 (io_trps.svl 2023.06)
