@<TRIPOS>MOLECULE
NONAME
44 45 1 0 0 
SMALL
USER_CHARGES


@<TRIPOS>ATOM
  1 S       -0.3010    -0.0560    -0.3400 S.o2  1 <1>   1.4470 
  2 O       -0.4760    -0.6000    -1.6670 O.2   1 <1>  -0.6500 
  3 O       -0.7040    -0.8170     0.8220 O.2   1 <1>  -0.6500 
  4 N       -1.3200     1.2770    -0.4060 N.am  1 <1>  -0.9140 
  5 C        1.3470     0.6600    -0.0980 C.ar  1 <1>  -0.0090 
  6 C       -2.7020     0.9400    -0.0920 C.3   1 <1>   0.1960 
  7 C        2.4820    -0.1060    -0.3480 C.ar  1 <1>   0.0830 
  8 C        1.5220     1.9630     0.3610 C.ar  1 <1>  -0.1500 
  9 C       -3.5900     2.1670    -0.2950 C.3   1 <1>  -0.0160 
 10 O        2.2930    -1.3820    -0.7640 O.3   1 <1>  -0.3630 
 11 C        3.7530     0.4370    -0.1660 C.ar  1 <1>  -0.1500 
 12 C        2.7820     2.5070     0.5470 C.ar  1 <1>  -0.1430 
 13 C       -5.0410     1.8190    -0.0060 C.ar  1 <1>  -0.1430 
 14 C        3.3640    -2.2520    -1.0550 C.3   1 <1>   0.0400 
 15 C        3.8980     1.7370     0.2770 C.ar  1 <1>  -0.1500 
 16 C        2.9370     3.9340     1.0420 C.3   1 <1>  -0.0970 
 17 C       -5.5370     1.9120     1.2850 C.ar  1 <1>  -0.1500 
 18 C       -5.8800     1.4020    -1.0280 C.ar  1 <1>  -0.1500 
 19 C       -6.8560     1.5910     1.5490 C.ar  1 <1>  -0.1500 
 20 C       -7.2010     1.0810    -0.7670 C.ar  1 <1>  -0.1500 
 21 C       -7.6970     1.1740     0.5310 C.ar  1 <1>   0.0830 
 22 O       -8.9760     0.8790     0.8740 O.3   1 <1>  -0.3630 
 23 C       -9.9090     0.4410    -0.0870 C.3   1 <1>   0.0400 
 24 H       -1.2950     1.5060    -1.3980 H     1 <1>   0.4200 
 25 H       -2.7750     0.6150     0.9340 H     1 <1>   0.0800 
 26 H       -3.0400     0.1360    -0.7270 H     1 <1>   0.0800 
 27 H        0.6590     2.5670     0.5800 H     1 <1>   0.1500 
 28 H       -3.5010     2.5180    -1.3070 H     1 <1>   0.0800 
 29 H       -3.2700     2.9520     0.3670 H     1 <1>   0.0800 
 30 H        4.6390    -0.1360    -0.3610 H     1 <1>   0.1500 
 31 H        2.9520    -3.1950    -1.3650 H     1 <1>   0.0800 
 32 H        3.9570    -2.3860    -0.1670 H     1 <1>   0.0800 
 33 H        3.9500    -1.8300    -1.8530 H     1 <1>   0.0800 
 34 H        4.8840     2.1470     0.4130 H     1 <1>   0.1500 
 35 H        2.1120     4.2050     1.6760 H     1 <1>   0.0800 
 36 H        2.9680     4.6090     0.2060 H     1 <1>   0.0800 
 37 H        3.8450     4.0400     1.6080 H     1 <1>   0.0800 
 38 H       -4.9000     2.2320     2.0910 H     1 <1>   0.1500 
 39 H       -5.5090     1.3240    -2.0350 H     1 <1>   0.1500 
 40 H       -7.2440     1.6610     2.5490 H     1 <1>   0.1500 
 41 H       -7.8240     0.7610    -1.5790 H     1 <1>   0.1500 
 42 H      -10.8460     0.2680     0.4120 H     1 <1>   0.0800 
 43 H       -9.5540    -0.4740    -0.5270 H     1 <1>   0.0800 
 44 H      -10.0280     1.2080    -0.8320 H     1 <1>   0.0800 
@<TRIPOS>BOND
  1   1   2  2   
  2   1   3  2   
  3   1   4  am  
  4   1   5  1   
  5   4   6  1   
  6   4  24  1   
  7   5   7  ar  
  8   5   8  ar  
  9   6   9  1   
 10   6  25  1   
 11   6  26  1   
 12   7  10  1   
 13   7  11  ar  
 14   8  12  ar  
 15   8  27  1   
 16   9  13  1   
 17   9  28  1   
 18   9  29  1   
 19  10  14  1   
 20  11  15  ar  
 21  11  30  1   
 22  12  15  ar  
 23  12  16  1   
 24  13  17  ar  
 25  13  18  ar  
 26  14  31  1   
 27  14  32  1   
 28  14  33  1   
 29  15  34  1   
 30  16  35  1   
 31  16  36  1   
 32  16  37  1   
 33  17  19  ar  
 34  17  38  1   
 35  18  20  ar  
 36  18  39  1   
 37  19  21  ar  
 38  19  40  1   
 39  20  21  ar  
 40  20  41  1   
 41  21  22  1   
 42  22  23  1   
 43  23  42  1   
 44  23  43  1   
 45  23  44  1   
@<TRIPOS>SUBSTRUCTURE
  1 ****   4 GROUP 4 **** **** 0

# MOE 2024.06 (io_trps.svl 2023.06)
