@<TRIPOS>MOLECULE
Structure658
25 26 1 0 0 
SMALL
USER_CHARGES


@<TRIPOS>ATOM
  1 CL       0.1360    -0.3450    -1.7450 Cl    1 <1>  -0.1770 
  2 C        0.9860    -1.5960    -0.8840 C.ar  1 <1>   0.4870 
  3 N        0.2530    -2.5440    -0.3430 N.ar  1 <1>  -0.6200 
  4 C        2.3460    -1.5420    -0.8080 C.ar  1 <1>  -0.1500 
  5 C        0.9620    -3.4600     0.2880 C.ar  1 <1>   0.4700 
  6 C        2.9730    -2.5530    -0.1140 C.ar  1 <1>   0.4100 
  7 N        2.2720    -3.5270     0.4360 N.ar  1 <1>  -0.6200 
  8 N        4.3420    -2.5780     0.0260 N.pl3 1 <1>  -0.8380 
  9 C        5.0690    -1.4020     0.5720 C.3   1 <1>   0.2090 
 10 C        5.0620    -3.8700     0.1860 C.3   1 <1>   0.2090 
 11 C        6.4320    -1.2840    -0.1150 C.3   1 <1>  -0.1600 
 12 C        6.4340    -3.7770    -0.4910 C.3   1 <1>  -0.1600 
 13 C        7.2470    -2.5790     0.0210 C.3   1 <1>  -0.1600 
 14 H        2.9050    -0.7570    -1.2730 H     1 <1>   0.1500 
 15 H        0.3990    -4.2580     0.7440 H     1 <1>   0.1500 
 16 H        5.2050    -1.5370     1.6320 H     1 <1>   0.0800 
 17 H        4.5010    -0.5010     0.4190 H     1 <1>   0.0800 
 18 H        4.4930    -4.6680    -0.2630 H     1 <1>   0.0800 
 19 H        5.1770    -4.0840     1.2350 H     1 <1>   0.0800 
 20 H        6.9790    -0.4660     0.3190 H     1 <1>   0.0800 
 21 H        6.2760    -1.0610    -1.1560 H     1 <1>   0.0800 
 22 H        6.2830    -3.6850    -1.5530 H     1 <1>   0.0800 
 23 H        6.9780    -4.6880    -0.3150 H     1 <1>   0.0800 
 24 H        7.4980    -2.7360     1.0560 H     1 <1>   0.0800 
 25 H        8.1630    -2.4950    -0.5370 H     1 <1>   0.0800 
@<TRIPOS>BOND
  1   1   2  1   
  2   2   3  ar  
  3   2   4  ar  
  4   3   5  ar  
  5   4   6  ar  
  6   4  14  1   
  7   5   7  ar  
  8   5  15  1   
  9   6   7  ar  
 10   6   8  1   
 11   8   9  1   
 12   8  10  1   
 13   9  11  1   
 14   9  16  1   
 15   9  17  1   
 16  10  12  1   
 17  10  18  1   
 18  10  19  1   
 19  11  13  1   
 20  11  20  1   
 21  11  21  1   
 22  12  13  1   
 23  12  22  1   
 24  12  23  1   
 25  13  24  1   
 26  13  25  1   
@<TRIPOS>SUBSTRUCTURE
  1 ****   6 GROUP 4 **** **** 0

# MOE 2024.06 (io_trps.svl 2023.06)
