@<TRIPOS>MOLECULE
NONAME
39 39 1 0 0 
SMALL
USER_CHARGES


@<TRIPOS>ATOM
  1 CL       0.2670     1.0550    -1.9030 Cl    1 <1>  -0.1770 
  2 C        1.0730     2.2050    -0.8570 C.ar  1 <1>   0.1770 
  3 C        0.4040     3.3320    -0.3970 C.ar  1 <1>   0.0830 
  4 C        2.3860     1.9460    -0.5070 C.ar  1 <1>  -0.1500 
  5 O       -0.8910     3.5260    -0.7520 O.3   1 <1>  -0.3630 
  6 C        1.0950     4.2320     0.4250 C.ar  1 <1>   0.0830 
  7 C        3.0630     2.8280     0.3220 C.ar  1 <1>  -0.1440 
  8 C       -1.8510     2.9520     0.1060 C.3   1 <1>   0.0400 
  9 O        0.5820     5.3870     0.9250 O.3   1 <1>  -0.3630 
 10 C        2.4060     3.9610     0.7840 C.ar  1 <1>  -0.1500 
 11 C        4.5020     2.5720     0.7120 C.3   1 <1>   0.4860 
 12 C       -0.2920     6.1790     0.1460 C.3   1 <1>   0.0400 
 13 N        5.3360     3.3930    -0.1820 N.4   1 <1>  -0.9060 
 14 C        6.7890     3.3420     0.0730 C.3   1 <1>   0.4230 
 15 C        7.3970     4.7100    -0.3140 C.3   1 <1>   0.1200 
 16 C        7.4030     2.1670    -0.7010 C.3   1 <1>  -0.1600 
 17 O        6.4840     5.7300    -0.0170 O.3   1 <1>  -0.6800 
 18 C        8.9000     1.9820    -0.4100 C.3   1 <1>  -0.2400 
 19 H        2.8510     1.0530    -0.8890 H     1 <1>   0.1500 
 20 H       -2.8280     3.1970    -0.2700 H     1 <1>   0.0800 
 21 H       -1.7220     3.3560     1.0940 H     1 <1>   0.0800 
 22 H       -1.7190     1.8840     0.1150 H     1 <1>   0.0800 
 23 H        2.9000     4.6640     1.4330 H     1 <1>   0.1500 
 24 H        4.7380     1.5270     0.5960 H     1 <1>   0.0800 
 25 H        4.6600     2.8560     1.7410 H     1 <1>   0.0800 
 26 H       -0.2640     7.1840     0.5260 H     1 <1>   0.0800 
 27 H       -1.2890     5.7890     0.2320 H     1 <1>   0.0800 
 28 H        0.0340     6.1630    -0.8800 H     1 <1>   0.0800 
 29 H        5.0950     4.3920    -0.0410 H     1 <1>   0.4500 
 30 H        5.1170     3.1990    -1.1620 H     1 <1>   0.4500 
 31 H        6.9610     3.1960     1.1280 H     1 <1>   0.0800 
 32 H        7.6120     4.7500    -1.3680 H     1 <1>   0.0800 
 33 H        8.3070     4.8870     0.2350 H     1 <1>   0.0800 
 34 H        7.2730     2.3160    -1.7600 H     1 <1>   0.0800 
 35 H        6.9000     1.2560    -0.4260 H     1 <1>   0.0800 
 36 H        6.8810     6.6160    -0.1780 H     1 <1>   0.4000 
 37 H        9.4740     2.8300    -0.7420 H     1 <1>   0.0800 
 38 H        9.2680     1.1140    -0.9310 H     1 <1>   0.0800 
 39 H        9.0730     1.8360     0.6420 H     1 <1>   0.0800 
@<TRIPOS>BOND
  1   1   2  1   
  2   2   3  ar  
  3   2   4  ar  
  4   3   5  1   
  5   3   6  ar  
  6   4   7  ar  
  7   4  19  1   
  8   5   8  1   
  9   6   9  1   
 10   6  10  ar  
 11   7  10  ar  
 12   7  11  1   
 13   8  20  1   
 14   8  21  1   
 15   8  22  1   
 16   9  12  1   
 17  10  23  1   
 18  11  13  1   
 19  11  24  1   
 20  11  25  1   
 21  12  26  1   
 22  12  27  1   
 23  12  28  1   
 24  13  14  1   
 25  13  29  1   
 26  13  30  1   
 27  14  15  1   
 28  14  16  1   
 29  14  31  1   
 30  15  17  1   
 31  15  32  1   
 32  15  33  1   
 33  16  18  1   
 34  16  34  1   
 35  16  35  1   
 36  17  36  1   
 37  18  37  1   
 38  18  38  1   
 39  18  39  1   
@<TRIPOS>SUBSTRUCTURE
  1 ****   7 GROUP 4 **** **** 0

# MOE 2024.06 (io_trps.svl 2023.06)
