@<TRIPOS>MOLECULE
NONAME
39 40 1 0 0 
SMALL
USER_CHARGES


@<TRIPOS>ATOM
  1 CL      -0.3120    -0.5940    -0.7200 Cl    1 <1>  -0.1770 
  2 C        1.2210     0.1810    -0.3800 C.ar  1 <1>   0.1770 
  3 C        1.3380     1.5660    -0.4790 C.ar  1 <1>   0.0820 
  4 C        2.2850    -0.6150    -0.0190 C.ar  1 <1>  -0.1500 
  5 O        0.2410     2.2770    -0.8440 O.3   1 <1>  -0.3630 
  6 C        2.5720     2.1370    -0.1970 C.ar  1 <1>  -0.1500 
  7 C        3.5360    -0.0570     0.2650 C.ar  1 <1>   0.0280 
  8 C        0.1990     3.6840    -0.9200 C.3   1 <1>   0.2000 
  9 C        3.6450     1.3390     0.1690 C.ar  1 <1>   0.0830 
 10 C        4.7040    -0.8110     0.6430 C.2   1 <1>  -0.1670 
 11 C        0.0240     4.2520     0.4900 C.3   1 <1>  -0.2400 
 12 C       -0.9890     4.0460    -1.8080 C.3   1 <1>  -0.2400 
 13 O        4.8150     1.9510     0.4400 O.3   1 <1>  -0.2320 
 14 C        5.8540    -0.1400     0.9270 C.2   1 <1>  -0.1240 
 15 C        4.5710    -2.3360     0.6840 C.3   1 <1>  -0.1020 
 16 C        5.9090     1.2940     0.8260 C.2   1 <1>   0.7060 
 17 C        7.1560    -0.8310     1.3500 C.3   1 <1>   0.0390 
 18 O        6.8920     1.9600     1.0840 O.2   1 <1>  -0.5700 
 19 C        7.9190    -1.3510     0.1480 C.2   1 <1>   0.6590 
 20 O        8.1050    -2.5300    -0.0120 O.2   1 <1>  -0.5700 
 21 O        8.3590    -0.4410    -0.7110 O.3   1 <1>  -0.4300 
 22 C        9.0800    -0.7980    -1.8720 C.3   1 <1>   0.0400 
 23 H        2.1230    -1.6740     0.0380 H     1 <1>   0.1500 
 24 H        2.7280     3.1970    -0.2520 H     1 <1>   0.1500 
 25 H        1.1040     4.0380    -1.3810 H     1 <1>   0.0800 
 26 H       -0.8780     3.8690     0.9350 H     1 <1>   0.0800 
 27 H       -0.0450     5.3230     0.4480 H     1 <1>   0.0800 
 28 H        0.8600     3.9930     1.1130 H     1 <1>   0.0800 
 29 H       -1.9030     3.6700    -1.3840 H     1 <1>   0.0800 
 30 H       -0.8530     3.6250    -2.7880 H     1 <1>   0.0800 
 31 H       -1.0670     5.1140    -1.9050 H     1 <1>   0.0800 
 32 H        3.8680    -2.6230     1.4460 H     1 <1>   0.0800 
 33 H        5.4960    -2.8400     0.8840 H     1 <1>   0.0800 
 34 H        4.2200    -2.6970    -0.2660 H     1 <1>   0.0800 
 35 H        6.9490    -1.6480     2.0130 H     1 <1>   0.0800 
 36 H        7.8000    -0.1620     1.8920 H     1 <1>   0.0800 
 37 H        9.3340     0.1010    -2.4050 H     1 <1>   0.0800 
 38 H        8.4620    -1.4320    -2.4840 H     1 <1>   0.0800 
 39 H        9.9740    -1.3210    -1.5790 H     1 <1>   0.0800 
@<TRIPOS>BOND
  1   1   2  1   
  2   2   3  ar  
  3   2   4  ar  
  4   3   5  1   
  5   3   6  ar  
  6   4   7  ar  
  7   4  23  1   
  8   5   8  1   
  9   6   9  ar  
 10   6  24  1   
 11   7   9  ar  
 12   7  10  1   
 13   8  11  1   
 14   8  12  1   
 15   8  25  1   
 16   9  13  1   
 17  10  14  2   
 18  10  15  1   
 19  11  26  1   
 20  11  27  1   
 21  11  28  1   
 22  12  29  1   
 23  12  30  1   
 24  12  31  1   
 25  13  16  1   
 26  14  16  1   
 27  14  17  1   
 28  15  32  1   
 29  15  33  1   
 30  15  34  1   
 31  16  18  2   
 32  17  19  1   
 33  17  35  1   
 34  17  36  1   
 35  19  20  2   
 36  19  21  1   
 37  21  22  1   
 38  22  37  1   
 39  22  38  1   
 40  22  39  1   
@<TRIPOS>SUBSTRUCTURE
  1 ****   9 GROUP 4 **** **** 0

# MOE 2024.06 (io_trps.svl 2023.06)
