@<TRIPOS>MOLECULE
NONAME
43 44 1 0 0 
SMALL
USER_CHARGES


@<TRIPOS>ATOM
  1 CL       1.4470    -0.2780    -3.0310 Cl    1 <1>  -0.1770 
  2 C        2.2120    -0.9170    -1.6010 C.ar  1 <1>   0.1770 
  3 C        3.2390    -0.2010    -1.0140 C.ar  1 <1>  -0.1500 
  4 C        1.7870    -2.1230    -1.0800 C.ar  1 <1>  -0.1500 
  5 C        3.8620    -0.7030     0.1200 C.ar  1 <1>  -0.1440 
  6 C        2.4020    -2.6210     0.0560 C.ar  1 <1>  -0.1500 
  7 C        3.4340    -1.9140     0.6530 C.ar  1 <1>  -0.1500 
  8 C        5.0010     0.0550     0.7610 C.3   1 <1>   0.4870 
  9 N        6.2350    -0.4070     0.0800 N.4   1 <1>  -0.9060 
 10 C        7.5010     0.2130     0.5380 C.3   1 <1>   0.4230 
 11 C        7.5750     1.6780     0.0950 C.3   1 <1>  -0.1600 
 12 C        8.6720    -0.5770    -0.0480 C.3   1 <1>  -0.1600 
 13 C        8.9280     2.2970     0.4550 C.3   1 <1>   0.3430 
 14 C       10.0130     0.0620     0.3160 C.3   1 <1>   0.3430 
 15 N       10.0360     1.4880    -0.1280 N.4   1 <1>  -0.9590 
 16 C       11.3480     2.1350     0.1910 C.3   1 <1>   0.3430 
 17 C       12.4510     1.5930    -0.7200 C.3   1 <1>  -0.1600 
 18 C       13.7680     2.3380    -0.4800 C.3   1 <1>  -0.2400 
 19 H        3.5210     0.7380    -1.4590 H     1 <1>   0.1500 
 20 H        0.9840    -2.6590    -1.5560 H     1 <1>   0.1500 
 21 H        2.0710    -3.5580     0.4730 H     1 <1>   0.1500 
 22 H        3.8860    -2.3260     1.5410 H     1 <1>   0.1500 
 23 H        5.0400    -0.1610     1.8170 H     1 <1>   0.0800 
 24 H        4.8560     1.1140     0.6220 H     1 <1>   0.0800 
 25 H        6.0920    -0.2760    -0.9290 H     1 <1>   0.4500 
 26 H        6.2640    -1.4280     0.2080 H     1 <1>   0.4500 
 27 H        7.5550     0.1630     1.6160 H     1 <1>   0.0800 
 28 H        6.8110     2.2530     0.5870 H     1 <1>   0.0800 
 29 H        7.4280     1.7630    -0.9680 H     1 <1>   0.0800 
 30 H        8.5980    -0.6330    -1.1210 H     1 <1>   0.0800 
 31 H        8.6650    -1.5810     0.3410 H     1 <1>   0.0800 
 32 H        9.0370     2.3410     1.5280 H     1 <1>   0.0800 
 33 H        8.9740     3.3080     0.0770 H     1 <1>   0.0800 
 34 H       10.8110    -0.4870    -0.1590 H     1 <1>   0.0800 
 35 H       10.1670     0.0120     1.3830 H     1 <1>   0.0800 
 36 H        9.9610     1.5170    -1.1570 H     1 <1>   0.4500 
 37 H       11.6110     1.9670     1.2240 H     1 <1>   0.0800 
 38 H       11.2750     3.2000     0.0360 H     1 <1>   0.0800 
 39 H       12.1740     1.7210    -1.7530 H     1 <1>   0.0800 
 40 H       12.6220     0.5470    -0.5330 H     1 <1>   0.0800 
 41 H       13.6600     3.3890    -0.6870 H     1 <1>   0.0800 
 42 H       14.5350     1.9490    -1.1290 H     1 <1>   0.0800 
 43 H       14.1000     2.2180     0.5370 H     1 <1>   0.0800 
@<TRIPOS>BOND
  1   1   2  1   
  2   2   3  ar  
  3   2   4  ar  
  4   3   5  ar  
  5   3  19  1   
  6   4   6  ar  
  7   4  20  1   
  8   5   7  ar  
  9   5   8  1   
 10   6   7  ar  
 11   6  21  1   
 12   7  22  1   
 13   8   9  1   
 14   8  23  1   
 15   8  24  1   
 16   9  10  1   
 17   9  25  1   
 18   9  26  1   
 19  10  11  1   
 20  10  12  1   
 21  10  27  1   
 22  11  13  1   
 23  11  28  1   
 24  11  29  1   
 25  12  14  1   
 26  12  30  1   
 27  12  31  1   
 28  13  15  1   
 29  13  32  1   
 30  13  33  1   
 31  14  15  1   
 32  14  34  1   
 33  14  35  1   
 34  15  16  1   
 35  15  36  1   
 36  16  17  1   
 37  16  37  1   
 38  16  38  1   
 39  17  18  1   
 40  17  39  1   
 41  17  40  1   
 42  18  41  1   
 43  18  42  1   
 44  18  43  1   
@<TRIPOS>SUBSTRUCTURE
  1 ****   9 GROUP 4 **** **** 0

# MOE 2024.06 (io_trps.svl 2023.06)
