@<TRIPOS>MOLECULE
NONAME
28 28 1 0 0 
SMALL
USER_CHARGES


@<TRIPOS>ATOM
  1 F       -0.6710    -0.6890     1.6720 F     1 <1>  -0.3400 
  2 C       -0.8870    -0.9290     0.3860 C.3   1 <1>   1.1640 
  3 F       -1.9140    -0.1690     0.0270 F     1 <1>  -0.3400 
  4 F        0.1680    -0.4500    -0.2630 F     1 <1>  -0.3400 
  5 C       -1.1190    -2.4250     0.1100 C.ar  1 <1>  -0.1440 
  6 C       -2.3950    -2.9670     0.1900 C.ar  1 <1>  -0.1500 
  7 C       -0.0590    -3.2680    -0.2150 C.ar  1 <1>  -0.1500 
  8 C       -2.6290    -4.3170    -0.0460 C.ar  1 <1>   0.1170 
  9 C       -0.2600    -4.6210    -0.4660 C.ar  1 <1>  -0.1440 
 10 N       -3.9080    -4.8880     0.0230 N.am  1 <1>  -0.5470 
 11 C       -1.5520    -5.1270    -0.3750 C.ar  1 <1>  -0.1500 
 12 C        0.9300    -5.5280    -0.8220 C.3   1 <1>   1.1640 
 13 C       -5.0150    -4.5060     0.7290 C.2   1 <1>   0.5690 
 14 F        1.7900    -4.9370    -1.6410 F     1 <1>  -0.3400 
 15 F        0.5630    -6.6560    -1.4210 F     1 <1>  -0.3400 
 16 F        1.6200    -5.8830     0.2530 F     1 <1>  -0.3400 
 17 O       -5.0440    -3.5560     1.4690 O.2   1 <1>  -0.5700 
 18 C       -6.2700    -5.3480     0.5790 C.3   1 <1>  -0.0990 
 19 C       -6.9100    -5.2280    -0.8140 C.3   1 <1>  -0.2400 
 20 H       -3.2260    -2.3300     0.4380 H     1 <1>   0.1500 
 21 H        0.9410    -2.8640    -0.2740 H     1 <1>   0.1500 
 22 H       -4.0270    -5.7450    -0.5130 H     1 <1>   0.3700 
 23 H       -1.7330    -6.1730    -0.5550 H     1 <1>   0.1500 
 24 H       -6.9830    -5.0300     1.3200 H     1 <1>   0.0800 
 25 H       -6.0280    -6.3750     0.7840 H     1 <1>   0.0800 
 26 H       -7.1630    -4.2010    -1.0150 H     1 <1>   0.0800 
 27 H       -7.8100    -5.8160    -0.8590 H     1 <1>   0.0800 
 28 H       -6.2360    -5.5730    -1.5780 H     1 <1>   0.0800 
@<TRIPOS>BOND
  1   1   2  1   
  2   2   3  1   
  3   2   4  1   
  4   2   5  1   
  5   5   6  ar  
  6   5   7  ar  
  7   6   8  ar  
  8   6  20  1   
  9   7   9  ar  
 10   7  21  1   
 11   8  10  1   
 12   8  11  ar  
 13   9  11  ar  
 14   9  12  1   
 15  10  13  am  
 16  10  22  1   
 17  11  23  1   
 18  12  14  1   
 19  12  15  1   
 20  12  16  1   
 21  13  17  2   
 22  13  18  1   
 23  18  19  1   
 24  18  24  1   
 25  18  25  1   
 26  19  26  1   
 27  19  27  1   
 28  19  28  1   
@<TRIPOS>SUBSTRUCTURE
  1 ****   8 GROUP 4 **** **** 0

# MOE 2024.06 (io_trps.svl 2023.06)
