@<TRIPOS>MOLECULE
NONAME
45 47 1 0 0 
SMALL
USER_CHARGES


@<TRIPOS>ATOM
  1 S       -0.4890    -0.1550    -2.3210 S.3   1 <1>  -0.0800 
  2 C        0.7210    -0.2830    -1.0560 C.2   1 <1>   0.4340 
  3 C       -1.7230    -0.2350    -1.0780 C.ar  1 <1>   0.0400 
  4 S        2.4150    -0.2700    -1.5950 S.3   1 <1>  -0.2860 
  5 N        0.2960    -0.3710     0.1380 N.2   1 <1>  -0.5650 
  6 C       -1.0950    -0.3470     0.1520 C.ar  1 <1>   0.2270 
  7 C       -3.0950    -0.1970    -1.2340 C.ar  1 <1>  -0.1500 
  8 C        3.3490    -0.4970    -0.0070 C.3   1 <1>   0.1310 
  9 C       -1.8920    -0.4220     1.2860 C.ar  1 <1>  -0.1500 
 10 C       -3.8840    -0.2840    -0.0950 C.ar  1 <1>   0.1170 
 11 C        4.8300    -0.2100    -0.2050 C.2   1 <1>   0.5690 
 12 C       -3.2710    -0.3890     1.1570 C.ar  1 <1>  -0.1500 
 13 N       -5.2760    -0.2560    -0.1790 N.am  1 <1>  -0.5470 
 14 O        5.5760    -1.1620    -0.1860 O.2   1 <1>  -0.5700 
 15 N        5.2990     1.0740    -0.3690 N.am  1 <1>  -0.6600 
 16 C       -6.1410    -1.1070    -0.7930 C.2   1 <1>   0.5690 
 17 C        4.4500     2.2980    -0.4300 C.3   1 <1>   0.1400 
 18 C        6.7560     1.3480    -0.5270 C.3   1 <1>   0.1400 
 19 O       -7.3220    -0.8810    -0.7490 O.2   1 <1>  -0.5700 
 20 C       -5.6550    -2.3540    -1.5180 C.3   1 <1>  -0.0990 
 21 C        4.8850     3.2820     0.6610 C.3   1 <1>  -0.1600 
 22 C        7.2170     2.3250     0.5600 C.3   1 <1>  -0.1600 
 23 C       -5.1680    -3.4540    -0.5610 C.3   1 <1>  -0.2400 
 24 C        6.3810     3.6120     0.5590 C.3   1 <1>  -0.1600 
 25 H       -3.5340    -0.0980    -2.2100 H     1 <1>   0.1500 
 26 H        3.2010    -1.5160     0.2990 H     1 <1>   0.0800 
 27 H        2.9250     0.1630     0.7260 H     1 <1>   0.0800 
 28 H       -1.4230    -0.5060     2.2490 H     1 <1>   0.1500 
 29 H       -3.8890    -0.4510     2.0360 H     1 <1>   0.1500 
 30 H       -5.7570     0.4720     0.3510 H     1 <1>   0.3700 
 31 H        3.4090     2.0650    -0.3040 H     1 <1>   0.0800 
 32 H        4.5690     2.7530    -1.3990 H     1 <1>   0.0800 
 33 H        6.9270     1.7730    -1.5010 H     1 <1>   0.0800 
 34 H        7.3270     0.4380    -0.4570 H     1 <1>   0.0800 
 35 H       -4.8710    -2.0910    -2.2010 H     1 <1>   0.0800 
 36 H       -6.4710    -2.7410    -2.1020 H     1 <1>   0.0800 
 37 H        4.6730     2.8500     1.6230 H     1 <1>   0.0800 
 38 H        4.3090     4.1870     0.5730 H     1 <1>   0.0800 
 39 H        8.2530     2.5660     0.4020 H     1 <1>   0.0800 
 40 H        7.1370     1.8380     1.5170 H     1 <1>   0.0800 
 41 H       -4.3220    -3.1140     0.0110 H     1 <1>   0.0800 
 42 H       -4.8750    -4.3260    -1.1180 H     1 <1>   0.0800 
 43 H       -5.9560    -3.7290     0.1180 H     1 <1>   0.0800 
 44 H        6.6730     4.2370     1.3850 H     1 <1>   0.0800 
 45 H        6.5650     4.1560    -0.3520 H     1 <1>   0.0800 
@<TRIPOS>BOND
  1   1   2  1   
  2   1   3  1   
  3   2   4  1   
  4   2   5  2   
  5   3   6  ar  
  6   3   7  ar  
  7   4   8  1   
  8   5   6  1   
  9   6   9  ar  
 10   7  10  ar  
 11   7  25  1   
 12   8  11  1   
 13   8  26  1   
 14   8  27  1   
 15   9  12  ar  
 16   9  28  1   
 17  10  12  ar  
 18  10  13  1   
 19  11  14  2   
 20  11  15  am  
 21  12  29  1   
 22  13  16  am  
 23  13  30  1   
 24  15  17  1   
 25  15  18  1   
 26  16  19  2   
 27  16  20  1   
 28  17  21  1   
 29  17  31  1   
 30  17  32  1   
 31  18  22  1   
 32  18  33  1   
 33  18  34  1   
 34  20  23  1   
 35  20  35  1   
 36  20  36  1   
 37  21  24  1   
 38  21  37  1   
 39  21  38  1   
 40  22  24  1   
 41  22  39  1   
 42  22  40  1   
 43  23  41  1   
 44  23  42  1   
 45  23  43  1   
 46  24  44  1   
 47  24  45  1   
@<TRIPOS>SUBSTRUCTURE
  1 ****   5 GROUP 4 **** **** 0

# MOE 2024.06 (io_trps.svl 2023.06)
