@<TRIPOS>MOLECULE
NONAME
39 41 1 0 0 
SMALL
USER_CHARGES


@<TRIPOS>ATOM
  1 S       -0.2510     0.4470    -0.6230 S.o2  1 <1>   1.4470 
  2 O        0.4990    -0.7750    -0.4270 O.2   1 <1>  -0.6500 
  3 O       -0.1970     1.1320    -1.8980 O.2   1 <1>  -0.6500 
  4 N        0.1700     1.5770     0.5790 N.am  1 <1>  -0.8490 
  5 C       -1.9850     0.0560    -0.2450 C.ar  1 <1>  -0.0090 
  6 C        1.5650     2.0860     0.5860 C.3   1 <1>   0.2760 
  7 C       -0.8460     2.6540     0.6660 C.3   1 <1>   0.1960 
  8 C       -3.0020     0.3230    -1.1570 C.ar  1 <1>  -0.1500 
  9 C       -2.3340    -0.5140     0.9750 C.ar  1 <1>  -0.1500 
 10 C        1.6890     3.3840    -0.2270 C.3   1 <1>  -0.1600 
 11 C        2.6380     1.0780     0.1730 C.3   1 <1>  -0.2400 
 12 C       -0.3010     3.9600     1.2520 C.3   1 <1>  -0.1600 
 13 C       -4.3270     0.0360    -0.8680 C.ar  1 <1>   0.1170 
 14 C       -3.6530    -0.8050     1.2830 C.ar  1 <1>  -0.1500 
 15 C        0.8370     4.5140     0.3800 C.3   1 <1>  -0.1600 
 16 N       -5.3490     0.3110    -1.7770 N.am  1 <1>  -0.5470 
 17 C       -4.6500    -0.5330     0.3660 C.ar  1 <1>   0.0830 
 18 C       -6.6330    -0.0580    -1.5550 C.2   1 <1>   0.5690 
 19 O       -5.9380    -0.8210     0.7040 O.3   1 <1>  -0.3630 
 20 O       -7.5080     0.2390    -2.3290 O.2   1 <1>  -0.5700 
 21 C       -6.9450    -0.8900    -0.3110 C.3   1 <1>   0.1810 
 22 H        1.7920     2.3380     1.6090 H     1 <1>   0.0800 
 23 H       -1.6700     2.3120     1.2700 H     1 <1>   0.0800 
 24 H       -1.2260     2.8760    -0.3180 H     1 <1>   0.0800 
 25 H       -2.7540     0.7590    -2.1090 H     1 <1>   0.1500 
 26 H       -1.5590    -0.7320     1.6920 H     1 <1>   0.1500 
 27 H        1.3820     3.1920    -1.2400 H     1 <1>   0.0800 
 28 H        2.7160     3.7020    -0.2580 H     1 <1>   0.0800 
 29 H        2.5680     0.8340    -0.8720 H     1 <1>   0.0800 
 30 H        2.5570     0.1840     0.7650 H     1 <1>   0.0800 
 31 H        3.6120     1.4970     0.3460 H     1 <1>   0.0800 
 32 H        0.0470     3.7760     2.2530 H     1 <1>   0.0800 
 33 H       -1.0920     4.6870     1.3140 H     1 <1>   0.0800 
 34 H       -3.9100    -1.2430     2.2310 H     1 <1>   0.1500 
 35 H        0.4310     5.1090    -0.4200 H     1 <1>   0.0800 
 36 H        1.4560     5.1560     0.9840 H     1 <1>   0.0800 
 37 H       -5.1660     0.8290    -2.6370 H     1 <1>   0.3700 
 38 H       -7.0470    -1.9200    -0.5970 H     1 <1>   0.0800 
 39 H       -7.8680    -0.5550     0.1230 H     1 <1>   0.0800 
@<TRIPOS>BOND
  1   1   2  2   
  2   1   3  2   
  3   1   4  am  
  4   1   5  1   
  5   4   6  1   
  6   4   7  1   
  7   5   8  ar  
  8   5   9  ar  
  9   6  10  1   
 10   6  11  1   
 11   6  22  1   
 12   7  12  1   
 13   7  23  1   
 14   7  24  1   
 15   8  13  ar  
 16   8  25  1   
 17   9  14  ar  
 18   9  26  1   
 19  10  15  1   
 20  10  27  1   
 21  10  28  1   
 22  11  29  1   
 23  11  30  1   
 24  11  31  1   
 25  12  15  1   
 26  12  32  1   
 27  12  33  1   
 28  13  16  1   
 29  13  17  ar  
 30  14  17  ar  
 31  14  34  1   
 32  15  35  1   
 33  15  36  1   
 34  16  18  am  
 35  16  37  1   
 36  17  19  1   
 37  18  20  2   
 38  18  21  1   
 39  19  21  1   
 40  21  38  1   
 41  21  39  1   
@<TRIPOS>SUBSTRUCTURE
  1 ****   5 GROUP 4 **** **** 0

# MOE 2024.06 (io_trps.svl 2023.06)
