@<TRIPOS>MOLECULE
NONAME
53 55 1 0 0 
SMALL
USER_CHARGES


@<TRIPOS>ATOM
  1 O       -1.1070     0.9500    -0.1470 O.2   1 <1>  -0.5700 
  2 C       -1.1590     2.1530     0.0040 C.2   1 <1>   0.6340 
  3 O       -0.0160     2.8490    -0.0190 O.3   1 <1>  -0.4300 
  4 C       -2.3970     2.8840     0.2120 C.ar  1 <1>   0.0860 
  5 C        1.2350     2.2210    -0.2190 C.3   1 <1>   0.0400 
  6 C       -3.6350     2.2450     0.1340 C.ar  1 <1>  -0.1500 
  7 C       -2.4040     4.2510     0.5020 C.ar  1 <1>  -0.1500 
  8 C       -4.8350     2.9180     0.3330 C.ar  1 <1>   0.1170 
  9 C       -3.5850     4.9390     0.7070 C.ar  1 <1>  -0.1500 
 10 N       -6.0840     2.2890     0.2670 N.am  1 <1>  -0.5470 
 11 C       -4.7930     4.2750     0.6240 C.ar  1 <1>  -0.1500 
 12 C       -6.5060     1.1250    -0.3100 C.2   1 <1>   0.5690 
 13 O       -5.7970     0.3820    -0.9430 O.2   1 <1>  -0.5700 
 14 C       -7.9850     0.7800    -0.1310 C.3   1 <1>   0.1710 
 15 N       -8.8470     1.9730     0.1230 N.3   1 <1>  -0.8100 
 16 C      -10.1610     1.5640     0.6760 C.3   1 <1>   0.1100 
 17 C       -9.0630     2.7450    -1.1300 C.3   1 <1>   0.1100 
 18 C      -11.0940     2.7660     0.9180 C.3   1 <1>   0.2090 
 19 C       -9.9830     3.9640    -0.9170 C.3   1 <1>   0.2090 
 20 N      -11.2900     3.5430    -0.3400 N.pl3 1 <1>  -0.8380 
 21 C      -12.2760     4.5380    -0.2890 C.ar  1 <1>   0.1000 
 22 C      -12.2030     5.6930     0.5130 C.ar  1 <1>   0.0830 
 23 C      -13.3930     4.3550    -1.0910 C.ar  1 <1>  -0.1500 
 24 O      -11.1000     5.8720     1.3050 O.3   1 <1>  -0.3620 
 25 C      -13.2440     6.6180     0.4810 C.ar  1 <1>  -0.1500 
 26 C      -14.4220     5.2770    -1.1160 C.ar  1 <1>  -0.1500 
 27 C      -11.0050     6.9550     2.2030 C.3   1 <1>   0.0400 
 28 C      -14.3470     6.4110    -0.3290 C.ar  1 <1>  -0.1500 
 29 H        2.0030     2.9740    -0.2000 H     1 <1>   0.0800 
 30 H        1.2260     1.7240    -1.1730 H     1 <1>   0.0800 
 31 H        1.3950     1.5060     0.5700 H     1 <1>   0.0800 
 32 H       -3.6530     1.1920    -0.0840 H     1 <1>   0.1500 
 33 H       -1.4720     4.7850     0.5700 H     1 <1>   0.1500 
 34 H       -3.5640     5.9930     0.9300 H     1 <1>   0.1500 
 35 H       -6.8810     2.8040     0.6580 H     1 <1>   0.3700 
 36 H       -5.7090     4.8140     0.7840 H     1 <1>   0.1500 
 37 H       -8.0490     0.1100     0.7070 H     1 <1>   0.0800 
 38 H       -8.3300     0.2520    -1.0030 H     1 <1>   0.0800 
 39 H      -10.0110     1.0530     1.6110 H     1 <1>   0.0800 
 40 H      -10.6490     0.8850    -0.0030 H     1 <1>   0.0800 
 41 H       -9.5120     2.1120    -1.8770 H     1 <1>   0.0800 
 42 H       -8.1190     3.0910    -1.5130 H     1 <1>   0.0800 
 43 H      -10.6660     3.3990     1.6750 H     1 <1>   0.0800 
 44 H      -12.0490     2.4180     1.2700 H     1 <1>   0.0800 
 45 H      -10.1560     4.4540    -1.8590 H     1 <1>   0.0800 
 46 H       -9.5010     4.6630    -0.2580 H     1 <1>   0.0800 
 47 H      -13.4440     3.4720    -1.7000 H     1 <1>   0.1500 
 48 H      -13.2200     7.5100     1.0760 H     1 <1>   0.1500 
 49 H      -15.2770     5.1110    -1.7470 H     1 <1>   0.1500 
 50 H      -10.0790     6.8620     2.7410 H     1 <1>   0.0800 
 51 H      -11.8320     6.9130     2.8900 H     1 <1>   0.0800 
 52 H      -11.0120     7.8740     1.6440 H     1 <1>   0.0800 
 53 H      -15.1470     7.1310    -0.3470 H     1 <1>   0.1500 
@<TRIPOS>BOND
  1   1   2  2   
  2   2   3  1   
  3   2   4  1   
  4   3   5  1   
  5   4   6  ar  
  6   4   7  ar  
  7   5  29  1   
  8   5  30  1   
  9   5  31  1   
 10   6   8  ar  
 11   6  32  1   
 12   7   9  ar  
 13   7  33  1   
 14   8  10  1   
 15   8  11  ar  
 16   9  11  ar  
 17   9  34  1   
 18  10  12  am  
 19  10  35  1   
 20  11  36  1   
 21  12  13  2   
 22  12  14  1   
 23  14  15  1   
 24  14  37  1   
 25  14  38  1   
 26  15  16  1   
 27  15  17  1   
 28  16  18  1   
 29  16  39  1   
 30  16  40  1   
 31  17  19  1   
 32  17  41  1   
 33  17  42  1   
 34  18  20  1   
 35  18  43  1   
 36  18  44  1   
 37  19  20  1   
 38  19  45  1   
 39  19  46  1   
 40  20  21  1   
 41  21  22  ar  
 42  21  23  ar  
 43  22  24  1   
 44  22  25  ar  
 45  23  26  ar  
 46  23  47  1   
 47  24  27  1   
 48  25  28  ar  
 49  25  48  1   
 50  26  28  ar  
 51  26  49  1   
 52  27  50  1   
 53  27  51  1   
 54  27  52  1   
 55  28  53  1   
@<TRIPOS>SUBSTRUCTURE
  1 ****  10 GROUP 4 **** **** 0

# MOE 2024.06 (io_trps.svl 2023.06)
