@<TRIPOS>MOLECULE
NONAME
40 42 1 0 0 
SMALL
USER_CHARGES


@<TRIPOS>ATOM
  1 O        0.0690    -0.1980    -1.2200 O.2   1 <1>  -0.5700 
  2 C        0.0740    -0.9200    -0.2430 C.2   1 <1>   0.6900 
  3 N        1.2300    -1.3620     0.3260 N.am  1 <1>  -0.5470 
  4 N       -1.0890    -1.3270     0.3200 N.am  1 <1>  -0.7300 
  5 C        2.5700    -1.0490     0.0480 C.ar  1 <1>   0.1170 
  6 C       -2.4290    -0.9670    -0.1680 C.3   1 <1>   0.2200 
  7 C        3.5500    -1.9860     0.3700 C.ar  1 <1>  -0.1500 
  8 C        2.9560     0.1720    -0.5200 C.ar  1 <1>  -0.1500 
  9 C       -3.0690     0.0160     0.8170 C.3   1 <1>  -0.1600 
 10 C       -3.2660    -2.2420    -0.3020 C.3   1 <1>  -0.1600 
 11 C        4.8700    -1.6780     0.1130 C.ar  1 <1>   0.0830 
 12 C        4.2890     0.4660    -0.7740 C.ar  1 <1>  -0.1500 
 13 C       -4.5140     0.3440     0.4130 C.3   1 <1>  -0.1600 
 14 C       -4.7120    -1.9160    -0.7070 C.3   1 <1>  -0.1600 
 15 O        5.9540    -2.4270     0.3420 O.3   1 <1>  -0.3620 
 16 C        5.2310    -0.4870    -0.4440 C.ar  1 <1>   0.0830 
 17 C       -5.3620    -0.9310     0.2780 C.3   1 <1>  -0.0800 
 18 C        7.0760    -1.6670    -0.1030 C.3   1 <1>   0.4000 
 19 O        6.5620    -0.4290    -0.5920 O.3   1 <1>  -0.3630 
 20 C       -6.7840    -0.5830    -0.1740 C.3   1 <1>  -0.2400 
 21 H        1.0960    -2.1260     0.9790 H     1 <1>   0.3700 
 22 H       -1.0740    -1.7940     1.2210 H     1 <1>   0.3700 
 23 H       -2.3530    -0.4960    -1.1360 H     1 <1>   0.0800 
 24 H        3.3000    -2.9330     0.8060 H     1 <1>   0.1500 
 25 H        2.2070     0.9040    -0.7660 H     1 <1>   0.1500 
 26 H       -2.4910     0.9240     0.8340 H     1 <1>   0.0800 
 27 H       -3.0700    -0.4090     1.8050 H     1 <1>   0.0800 
 28 H       -3.2770    -2.7690     0.6360 H     1 <1>   0.0800 
 29 H       -2.8250    -2.8790    -1.0480 H     1 <1>   0.0800 
 30 H        4.5880     1.4000    -1.2120 H     1 <1>   0.1500 
 31 H       -4.5050     0.8710    -0.5260 H     1 <1>   0.0800 
 32 H       -4.9510     0.9950     1.1510 H     1 <1>   0.0800 
 33 H       -5.2860    -2.8270    -0.7420 H     1 <1>   0.0800 
 34 H       -4.7120    -1.4890    -1.6950 H     1 <1>   0.0800 
 35 H       -5.4230    -1.4050     1.2450 H     1 <1>   0.0800 
 36 H        7.5730    -2.1900    -0.9010 H     1 <1>   0.0800 
 37 H        7.7370    -1.4800     0.7240 H     1 <1>   0.0800 
 38 H       -6.7690    -0.1060    -1.1390 H     1 <1>   0.0800 
 39 H       -7.2470     0.0850     0.5310 H     1 <1>   0.0800 
 40 H       -7.3830    -1.4730    -0.2400 H     1 <1>   0.0800 
@<TRIPOS>BOND
  1   1   2  2   
  2   2   3  am  
  3   2   4  am  
  4   3   5  1   
  5   3  21  1   
  6   4   6  1   
  7   4  22  1   
  8   5   7  ar  
  9   5   8  ar  
 10   6   9  1   
 11   6  10  1   
 12   6  23  1   
 13   7  11  ar  
 14   7  24  1   
 15   8  12  ar  
 16   8  25  1   
 17   9  13  1   
 18   9  26  1   
 19   9  27  1   
 20  10  14  1   
 21  10  28  1   
 22  10  29  1   
 23  11  15  1   
 24  11  16  ar  
 25  12  16  ar  
 26  12  30  1   
 27  13  17  1   
 28  13  31  1   
 29  13  32  1   
 30  14  17  1   
 31  14  33  1   
 32  14  34  1   
 33  15  18  1   
 34  16  19  1   
 35  17  20  1   
 36  17  35  1   
 37  18  19  1   
 38  18  36  1   
 39  18  37  1   
 40  20  38  1   
 41  20  39  1   
 42  20  40  1   
@<TRIPOS>SUBSTRUCTURE
  1 ****   2 GROUP 4 **** **** 0

# MOE 2024.06 (io_trps.svl 2023.06)
