@<TRIPOS>MOLECULE
NONAME
48 50 1 0 0 
SMALL
USER_CHARGES


@<TRIPOS>ATOM
  1 S        0.0970     0.5140     0.9540 S.3   1 <1>  -0.0800 
  2 C        0.4380    -1.1020     0.3730 C.2   1 <1>   0.1040 
  3 C        1.8030     0.8920     1.0960 C.2   1 <1>  -0.1400 
  4 N       -0.5930    -1.9510    -0.0060 N.am  1 <1>  -0.4940 
  5 C        1.7840    -1.3370     0.3500 C.2   1 <1>  -0.0860 
  6 C        2.5580    -0.1660     0.7330 C.2   1 <1>  -0.1810 
  7 C        2.0940     2.3070     1.5600 C.3   1 <1>  -0.0600 
  8 C       -1.9580    -1.8850     0.1140 C.2   1 <1>   0.5770 
  9 C        2.3060    -2.6310    -0.0110 C.2   1 <1>   0.7160 
 10 C        4.0860    -0.1190     0.6850 C.3   1 <1>   0.0210 
 11 O       -2.5420    -0.9960     0.6820 O.2   1 <1>  -0.5700 
 12 C       -2.7670    -3.0090    -0.5220 C.3   1 <1>   0.0530 
 13 O        1.7510    -3.3200    -0.8520 O.2   1 <1>  -0.5700 
 14 N        3.3940    -3.1530     0.6180 N.am  1 <1>  -0.7300 
 15 C        4.5920    -0.1670    -0.7590 C.3   1 <1>  -0.2400 
 16 C       -4.0230    -3.4620     0.2720 C.3   1 <1>   0.0000 
 17 C       -2.2110    -4.4420    -0.2930 C.3   1 <1>   0.0000 
 18 C        4.1370    -4.3560     0.2070 C.3   1 <1>   0.2840 
 19 C       -3.6850    -4.9080    -0.1730 C.3   1 <1>   0.0000 
 20 C        5.6060    -3.9920     0.1420 C.ar  1 <1>  -0.1430 
 21 C        6.4370    -4.2030     1.2340 C.ar  1 <1>   0.1600 
 22 C        6.1410    -3.4350    -1.0020 C.ar  1 <1>  -0.1500 
 23 N        7.7250    -3.9030     1.2750 N.ar  1 <1>  -0.6200 
 24 C        7.4830    -3.1210    -0.9790 C.ar  1 <1>  -0.1500 
 25 C        8.2180    -3.3710     0.1680 C.ar  1 <1>   0.1600 
 26 H       -0.2500    -2.7880    -0.4890 H     1 <1>   0.3700 
 27 H        1.6750     2.4590     2.5390 H     1 <1>   0.0800 
 28 H        1.6420     3.0090     0.8820 H     1 <1>   0.0800 
 29 H        3.1470     2.5060     1.6030 H     1 <1>   0.0800 
 30 H        4.5170    -0.9160     1.2600 H     1 <1>   0.0800 
 31 H        4.4410     0.7920     1.1310 H     1 <1>   0.0800 
 32 H       -2.9910    -2.8260    -1.5600 H     1 <1>   0.0000 
 33 H        3.8320    -2.5960     1.3500 H     1 <1>   0.3700 
 34 H        4.2820    -1.0730    -1.2450 H     1 <1>   0.0800 
 35 H        5.6670    -0.1200    -0.7740 H     1 <1>   0.0800 
 36 H        4.2010     0.6690    -1.3120 H     1 <1>   0.0800 
 37 H       -4.9490    -3.0890    -0.1270 H     1 <1>   0.0000 
 38 H       -3.9260    -3.3290     1.3370 H     1 <1>   0.0000 
 39 H       -1.6720    -4.5480     0.6340 H     1 <1>   0.0000 
 40 H       -1.6920    -4.8500    -1.1420 H     1 <1>   0.0000 
 41 H        3.7980    -4.6990    -0.7560 H     1 <1>   0.0800 
 42 H        3.9720    -5.1420     0.9240 H     1 <1>   0.0800 
 43 H       -4.1190    -5.1630    -1.1250 H     1 <1>   0.0000 
 44 H       -3.8470    -5.6490     0.5890 H     1 <1>   0.0000 
 45 H        6.0220    -4.6400     2.1260 H     1 <1>   0.1500 
 46 H        5.5390    -3.2520    -1.8770 H     1 <1>   0.1500 
 47 H        7.9580    -2.6850    -1.8390 H     1 <1>   0.1500 
 48 H        9.2650    -3.1210     0.1750 H     1 <1>   0.1500 
@<TRIPOS>BOND
  1   1   2  1   
  2   1   3  1   
  3   2   4  1   
  4   2   5  2   
  5   3   6  2   
  6   3   7  1   
  7   4   8  am  
  8   4  26  1   
  9   5   6  1   
 10   5   9  1   
 11   6  10  1   
 12   7  27  1   
 13   7  28  1   
 14   7  29  1   
 15   8  11  2   
 16   8  12  1   
 17   9  13  2   
 18   9  14  am  
 19  10  15  1   
 20  10  30  1   
 21  10  31  1   
 22  12  16  1   
 23  12  17  1   
 24  12  32  1   
 25  14  18  1   
 26  14  33  1   
 27  15  34  1   
 28  15  35  1   
 29  15  36  1   
 30  16  19  1   
 31  16  37  1   
 32  16  38  1   
 33  17  19  1   
 34  17  39  1   
 35  17  40  1   
 36  18  20  1   
 37  18  41  1   
 38  18  42  1   
 39  19  43  1   
 40  19  44  1   
 41  20  21  ar  
 42  20  22  ar  
 43  21  23  ar  
 44  21  45  1   
 45  22  24  ar  
 46  22  46  1   
 47  23  25  ar  
 48  24  25  ar  
 49  24  47  1   
 50  25  48  1   
@<TRIPOS>SUBSTRUCTURE
  1 ****   9 GROUP 4 **** **** 0

# MOE 2024.06 (io_trps.svl 2023.06)
