@<TRIPOS>MOLECULE
NONAME
35 36 1 0 0 
SMALL
USER_CHARGES


@<TRIPOS>ATOM
  1 CL       0.3000     0.0730    -0.5860 Cl    1 <1>  -0.1770 
  2 C        1.7530     0.8940    -0.0630 C.ar  1 <1>   0.1770 
  3 C        1.6790     2.0600     0.6810 C.ar  1 <1>   0.1770 
  4 C        2.9810     0.3590    -0.4040 C.ar  1 <1>  -0.1500 
  5 CL       0.1320     2.7480     1.1200 Cl    1 <1>  -0.1770 
  6 C        2.8340     2.7020     1.0890 C.ar  1 <1>  -0.1500 
  7 C        4.1460     0.9950     0.0010 C.ar  1 <1>   0.0830 
  8 C        4.0700     2.1700     0.7500 C.ar  1 <1>  -0.1500 
  9 O        5.3130     0.4120    -0.3720 O.3   1 <1>  -0.3630 
 10 C        6.5610     0.9610    -0.0240 C.3   1 <1>   0.1200 
 11 C        7.6380     0.0450    -0.6130 C.3   1 <1>   0.3430 
 12 N        9.0180     0.5340    -0.3060 N.4   1 <1>  -0.9060 
 13 C       10.0800    -0.3330    -0.8530 C.3   1 <1>   0.4230 
 14 C       10.2290    -1.5710     0.0270 C.3   1 <1>  -0.1600 
 15 C       11.4120     0.3800    -0.6550 C.3   1 <1>  -0.1600 
 16 C       11.0480    -1.1250     1.2450 C.3   1 <1>  -0.1600 
 17 C       11.8060     0.1340     0.8070 C.3   1 <1>  -0.1600 
 18 H        3.0280    -0.5460    -0.9810 H     1 <1>   0.1500 
 19 H        2.7600     3.6070     1.6660 H     1 <1>   0.1500 
 20 H        4.9500     2.6880     1.0800 H     1 <1>   0.1500 
 21 H        6.6240     0.9930     1.0490 H     1 <1>   0.0800 
 22 H        6.6190     1.9490    -0.4460 H     1 <1>   0.0800 
 23 H        7.5020    -0.0030    -1.6820 H     1 <1>   0.0800 
 24 H        7.5040    -0.9440    -0.2080 H     1 <1>   0.0800 
 25 H        9.1770     0.5800     0.7070 H     1 <1>   0.4500 
 26 H        9.1550     1.4790    -0.6810 H     1 <1>   0.4500 
 27 H        9.8990    -0.5740    -1.8890 H     1 <1>   0.0800 
 28 H       10.8050    -2.3000    -0.5190 H     1 <1>   0.0800 
 29 H        9.2960    -2.0300     0.3010 H     1 <1>   0.0800 
 30 H       11.3810     1.4250    -0.9090 H     1 <1>   0.0800 
 31 H       12.1430    -0.0940    -1.2880 H     1 <1>   0.0800 
 32 H       11.7300    -1.9030     1.5490 H     1 <1>   0.0800 
 33 H       10.4020    -0.8990     2.0770 H     1 <1>   0.0800 
 34 H       11.5210     0.9700     1.4240 H     1 <1>   0.0800 
 35 H       12.8720    -0.0030     0.8970 H     1 <1>   0.0800 
@<TRIPOS>BOND
  1   1   2  1   
  2   2   3  ar  
  3   2   4  ar  
  4   3   5  1   
  5   3   6  ar  
  6   4   7  ar  
  7   4  18  1   
  8   6   8  ar  
  9   6  19  1   
 10   7   8  ar  
 11   7   9  1   
 12   8  20  1   
 13   9  10  1   
 14  10  11  1   
 15  10  21  1   
 16  10  22  1   
 17  11  12  1   
 18  11  23  1   
 19  11  24  1   
 20  12  13  1   
 21  12  25  1   
 22  12  26  1   
 23  13  14  1   
 24  13  15  1   
 25  13  27  1   
 26  14  16  1   
 27  14  28  1   
 28  14  29  1   
 29  15  17  1   
 30  15  30  1   
 31  15  31  1   
 32  16  17  1   
 33  16  32  1   
 34  16  33  1   
 35  17  34  1   
 36  17  35  1   
@<TRIPOS>SUBSTRUCTURE
  1 ****  10 GROUP 4 **** **** 0

# MOE 2024.06 (io_trps.svl 2023.06)
