@<TRIPOS>MOLECULE
NONAME
31 31 1 0 0 
SMALL
USER_CHARGES


@<TRIPOS>ATOM
  1 P        0.9370     0.5970     0.2710 P.3   1 <1>   0.9710 
  2 O        1.3290     0.7740     1.6670 O.2   1 <1>  -0.7000 
  3 O       -0.4580     1.3070    -0.0640 O.3   1 <1>  -0.5510 
  4 C        0.7120    -1.1080    -0.2560 C.3   1 <1>   0.1100 
  5 C        2.0760     1.3070    -0.8830 C.3   1 <1>  -0.2400 
  6 C       -0.7350     2.5640     0.4390 C.3   1 <1>   0.1200 
  7 N        1.9220    -1.9720    -0.3840 N.3   1 <1>  -0.8100 
  8 C       -2.1150     2.9720    -0.0620 C.3   1 <1>  -0.2400 
  9 C        1.6170    -3.2670    -1.0380 C.3   1 <1>   0.1100 
 10 C        2.6190    -2.1730     0.9020 C.3   1 <1>   0.1100 
 11 C        2.5050    -4.4380    -0.5610 C.3   1 <1>   0.1200 
 12 C        3.8990    -3.0220     0.7240 C.3   1 <1>   0.1200 
 13 O        3.8010    -4.0030    -0.2790 O.3   1 <1>  -0.5600 
 14 H        0.2390    -1.0980    -1.2200 H     1 <1>   0.0800 
 15 H        0.0250    -1.5980     0.4100 H     1 <1>   0.0800 
 16 H        2.2240     2.3520    -0.6940 H     1 <1>   0.0800 
 17 H        1.7300     1.1990    -1.8930 H     1 <1>   0.0800 
 18 H        3.0340     0.8270    -0.8150 H     1 <1>   0.0800 
 19 H        0.0180     3.2530     0.0940 H     1 <1>   0.0800 
 20 H       -0.7150     2.5140     1.5160 H     1 <1>   0.0800 
 21 H       -2.1260     3.0050    -1.1360 H     1 <1>   0.0800 
 22 H       -2.3640     3.9470     0.3150 H     1 <1>   0.0800 
 23 H       -2.8550     2.2720     0.2840 H     1 <1>   0.0800 
 24 H        1.7480    -3.1460    -2.1000 H     1 <1>   0.0800 
 25 H        0.5900    -3.5390    -0.8690 H     1 <1>   0.0800 
 26 H        1.9610    -2.6660     1.5970 H     1 <1>   0.0800 
 27 H        2.8970    -1.2280     1.3330 H     1 <1>   0.0800 
 28 H        2.5660    -5.1950    -1.3210 H     1 <1>   0.0800 
 29 H        2.0980    -4.8810     0.3310 H     1 <1>   0.0800 
 30 H        4.1470    -3.5110     1.6480 H     1 <1>   0.0800 
 31 H        4.7180    -2.3800     0.4530 H     1 <1>   0.0800 
@<TRIPOS>BOND
  1   1   2  2   
  2   1   3  1   
  3   1   4  1   
  4   1   5  1   
  5   3   6  1   
  6   4   7  1   
  7   4  14  1   
  8   4  15  1   
  9   5  16  1   
 10   5  17  1   
 11   5  18  1   
 12   6   8  1   
 13   6  19  1   
 14   6  20  1   
 15   7   9  1   
 16   7  10  1   
 17   8  21  1   
 18   8  22  1   
 19   8  23  1   
 20   9  11  1   
 21   9  24  1   
 22   9  25  1   
 23  10  12  1   
 24  10  26  1   
 25  10  27  1   
 26  11  13  1   
 27  11  28  1   
 28  11  29  1   
 29  12  13  1   
 30  12  30  1   
 31  12  31  1   
@<TRIPOS>SUBSTRUCTURE
  1 ****   4 GROUP 4 **** **** 0

# MOE 2024.06 (io_trps.svl 2023.06)
