@<TRIPOS>MOLECULE
NONAME
40 41 1 0 0 
SMALL
USER_CHARGES


@<TRIPOS>ATOM
  1 O       -1.1430    -1.0620    -1.7340 O.2   1 <1>  -0.5700 
  2 C       -0.3280    -1.5910    -1.0160 C.2   1 <1>   0.5690 
  3 N       -0.6260    -2.0530     0.2250 N.am  1 <1>  -0.7300 
  4 C        1.0930    -1.7670    -1.5230 C.3   1 <1>   0.0440 
  5 C       -1.9010    -1.9330     0.9750 C.3   1 <1>   0.2200 
  6 C        2.1340    -1.1840    -0.5660 C.ar  1 <1>  -0.1440 
  7 C       -3.1450    -2.3000     0.1300 C.3   1 <1>   0.2000 
  8 C       -1.9810    -0.5160     1.5450 C.3   1 <1>  -0.2400 
  9 C        2.5850    -1.8980     0.5440 C.ar  1 <1>   0.0820 
 10 C        2.6380     0.0840    -0.8130 C.ar  1 <1>  -0.1500 
 11 O       -4.2720    -2.3820     0.9460 O.3   1 <1>  -0.5600 
 12 C       -3.0840    -3.6670    -0.5440 C.3   1 <1>  -0.1600 
 13 O        2.0540    -3.1300     0.7650 O.3   1 <1>  -0.3630 
 14 C        3.5430    -1.3320     1.3830 C.ar  1 <1>  -0.1500 
 15 C        3.5880     0.6400     0.0250 C.ar  1 <1>  -0.1500 
 16 C       -5.2670    -3.0980     0.2910 C.3   1 <1>   0.1200 
 17 C       -4.5410    -4.1040    -0.5980 C.3   1 <1>  -0.1600 
 18 C        2.5570    -3.9840     1.7700 C.3   1 <1>   0.0400 
 19 C        4.0420    -0.0690     1.1210 C.ar  1 <1>  -0.1500 
 20 H        0.1660    -2.4140     0.7700 H     1 <1>   0.3700 
 21 H        1.1750    -1.2930    -2.4830 H     1 <1>   0.0800 
 22 H        1.2750    -2.8150    -1.6720 H     1 <1>   0.0800 
 23 H       -1.8600    -2.6310     1.7930 H     1 <1>   0.0800 
 24 H       -3.3380    -1.5320    -0.6000 H     1 <1>   0.0800 
 25 H       -2.0340     0.2020     0.7470 H     1 <1>   0.0800 
 26 H       -1.1210    -0.3100     2.1550 H     1 <1>   0.0800 
 27 H       -2.8630    -0.4180     2.1510 H     1 <1>   0.0800 
 28 H        2.2910     0.6490    -1.6610 H     1 <1>   0.1500 
 29 H       -2.5110    -4.3480     0.0590 H     1 <1>   0.0800 
 30 H       -2.6370    -3.5960    -1.5200 H     1 <1>   0.0800 
 31 H        3.9110    -1.8550     2.2450 H     1 <1>   0.1500 
 32 H        3.9740     1.6240    -0.1780 H     1 <1>   0.1500 
 33 H       -5.8430    -2.4030    -0.2960 H     1 <1>   0.0800 
 34 H       -5.8940    -3.5730     1.0260 H     1 <1>   0.0800 
 35 H       -4.6610    -5.1030    -0.2190 H     1 <1>   0.0800 
 36 H       -4.9300    -4.0570    -1.5990 H     1 <1>   0.0800 
 37 H        2.0290    -4.9180     1.7120 H     1 <1>   0.0800 
 38 H        2.3920    -3.5300     2.7310 H     1 <1>   0.0800 
 39 H        3.6060    -4.1470     1.5960 H     1 <1>   0.0800 
 40 H        4.7820     0.3640     1.7710 H     1 <1>   0.1500 
@<TRIPOS>BOND
  1   1   2  2   
  2   2   3  am  
  3   2   4  1   
  4   3   5  1   
  5   3  20  1   
  6   4   6  1   
  7   4  21  1   
  8   4  22  1   
  9   5   7  1   
 10   5   8  1   
 11   5  23  1   
 12   6   9  ar  
 13   6  10  ar  
 14   7  11  1   
 15   7  12  1   
 16   7  24  1   
 17   8  25  1   
 18   8  26  1   
 19   8  27  1   
 20   9  13  1   
 21   9  14  ar  
 22  10  15  ar  
 23  10  28  1   
 24  11  16  1   
 25  12  17  1   
 26  12  29  1   
 27  12  30  1   
 28  13  18  1   
 29  14  19  ar  
 30  14  31  1   
 31  15  19  ar  
 32  15  32  1   
 33  16  17  1   
 34  16  33  1   
 35  16  34  1   
 36  17  35  1   
 37  17  36  1   
 38  18  37  1   
 39  18  38  1   
 40  18  39  1   
 41  19  40  1   
@<TRIPOS>SUBSTRUCTURE
  1 ****   3 GROUP 4 **** **** 0

# MOE 2024.06 (io_trps.svl 2023.06)
