@<TRIPOS>MOLECULE
NONAME
41 42 1 0 0 
SMALL
USER_CHARGES


@<TRIPOS>ATOM
  1 O        1.5470    -3.4040    -1.0080 O.3   1 <1>  -0.3630 
  2 C        2.7890    -3.1210    -0.5540 C.ar  1 <1>   0.0830 
  3 C        0.5050    -3.2180    -0.0830 C.3   1 <1>   0.1200 
  4 C        3.3010    -1.8350    -0.7040 C.ar  1 <1>  -0.1440 
  5 C        3.5460    -4.1200     0.0510 C.ar  1 <1>  -0.1440 
  6 C       -0.8070    -3.6120    -0.7610 C.3   1 <1>  -0.1600 
  7 C        4.5630    -1.5500    -0.2100 C.ar  1 <1>  -0.1500 
  8 C        2.5070    -0.7410    -1.4040 C.3   1 <1>  -0.0960 
  9 C        4.8050    -3.8110     0.5380 C.ar  1 <1>  -0.1500 
 10 C        3.0240    -5.5440     0.1830 C.3   1 <1>  -0.0970 
 11 C       -1.9960    -3.4500     0.1940 C.3   1 <1>  -0.1600 
 12 C        5.3160    -2.5290     0.4160 C.ar  1 <1>  -0.1430 
 13 C       -3.3120    -3.8480    -0.4860 C.3   1 <1>   0.0960 
 14 C        6.6980    -2.2030     0.9540 C.3   1 <1>  -0.0970 
 15 N       -4.4390    -3.6990     0.4530 N.pl3 1 <1>   0.0480 
 16 C       -4.9590    -4.6350     1.2790 C.2   1 <1>   0.0360 
 17 C       -5.1720    -2.5960     0.6850 C.2   1 <1>  -0.3020 
 18 N       -5.9460    -4.2110     2.0000 N.2   1 <1>  -0.5650 
 19 C       -6.0830    -2.9260     1.6270 C.2   1 <1>   0.0770 
 20 H        0.4950    -2.1840     0.2140 H     1 <1>   0.0800 
 21 H        0.6990    -3.8370     0.7760 H     1 <1>   0.0800 
 22 H       -0.7360    -4.6370    -1.0810 H     1 <1>   0.0800 
 23 H       -0.9490    -2.9880    -1.6270 H     1 <1>   0.0800 
 24 H        4.9660    -0.5580    -0.3140 H     1 <1>   0.1500 
 25 H        2.0060    -1.1420    -2.2670 H     1 <1>   0.0800 
 26 H        3.1560     0.0510    -1.7320 H     1 <1>   0.0800 
 27 H        1.7750    -0.3330    -0.7330 H     1 <1>   0.0800 
 28 H        5.3970    -4.5730     1.0130 H     1 <1>   0.1500 
 29 H        2.3510    -5.6110     1.0180 H     1 <1>   0.0800 
 30 H        3.8330    -6.2340     0.3350 H     1 <1>   0.0800 
 31 H        2.5010    -5.8310    -0.7120 H     1 <1>   0.0800 
 32 H       -2.0600    -2.4230     0.5140 H     1 <1>   0.0800 
 33 H       -1.8430    -4.0690     1.0620 H     1 <1>   0.0800 
 34 H       -3.2670    -4.8720    -0.8120 H     1 <1>   0.0800 
 35 H       -3.4930    -3.2240    -1.3430 H     1 <1>   0.0800 
 36 H        6.7490    -1.1730     1.2590 H     1 <1>   0.0800 
 37 H        7.4340    -2.3770     0.1900 H     1 <1>   0.0800 
 38 H        6.9250    -2.8200     1.8040 H     1 <1>   0.0800 
 39 H       -4.5720    -5.6370     1.3200 H     1 <1>   0.1500 
 40 H       -5.0140    -1.6590     0.1820 H     1 <1>   0.1500 
 41 H       -6.8410    -2.2960     2.0630 H     1 <1>   0.1500 
@<TRIPOS>BOND
  1   1   2  1   
  2   1   3  1   
  3   2   4  ar  
  4   2   5  ar  
  5   3   6  1   
  6   3  20  1   
  7   3  21  1   
  8   4   7  ar  
  9   4   8  1   
 10   5   9  ar  
 11   5  10  1   
 12   6  11  1   
 13   6  22  1   
 14   6  23  1   
 15   7  12  ar  
 16   7  24  1   
 17   8  25  1   
 18   8  26  1   
 19   8  27  1   
 20   9  12  ar  
 21   9  28  1   
 22  10  29  1   
 23  10  30  1   
 24  10  31  1   
 25  11  13  1   
 26  11  32  1   
 27  11  33  1   
 28  12  14  1   
 29  13  15  1   
 30  13  34  1   
 31  13  35  1   
 32  14  36  1   
 33  14  37  1   
 34  14  38  1   
 35  15  16  1   
 36  15  17  1   
 37  16  18  2   
 38  16  39  1   
 39  17  19  2   
 40  17  40  1   
 41  18  19  1   
 42  19  41  1   
@<TRIPOS>SUBSTRUCTURE
  1 ****   3 GROUP 4 **** **** 0

# MOE 2024.06 (io_trps.svl 2023.06)
