@<TRIPOS>MOLECULE
NONAME
34 36 1 0 0 
SMALL
USER_CHARGES


@<TRIPOS>ATOM
  1 S       -0.5740    -0.3870    -0.7850 S.3   1 <1>  -0.0800 
  2 C       -1.6610    -0.7350     0.5190 C.2   1 <1>   0.4420 
  3 C        0.6000    -1.3590     0.0320 C.2   1 <1>   0.2930 
  4 N       -1.1280    -1.4920     1.4070 N.2   1 <1>  -0.3380 
  5 N       -2.9190    -0.1740     0.4360 N.am  1 <1>  -0.4940 
  6 N        0.1630    -1.8450     1.1220 N.2   1 <1>  -0.3380 
  7 C        1.9630    -1.5150    -0.6210 C.3   1 <1>  -0.0150 
  8 C       -3.9610    -0.2580     1.3130 C.2   1 <1>   0.5690 
  9 C        3.1940    -1.7200     0.2080 C.3   1 <1>  -0.2000 
 10 C        2.9830    -0.4230    -0.5140 C.3   1 <1>  -0.2000 
 11 O       -3.9180    -0.8580     2.3540 O.2   1 <1>  -0.5700 
 12 C       -5.2510     0.4410     0.9430 C.3   1 <1>  -0.0990 
 13 C       -6.2890    -0.5570     0.4180 C.3   1 <1>  -0.0170 
 14 C       -7.5470     0.1750    -0.0150 C.ar  1 <1>  -0.1440 
 15 C       -7.7540     0.4950    -1.3480 C.ar  1 <1>  -0.1500 
 16 C       -8.5000     0.5350     0.9260 C.ar  1 <1>  -0.1500 
 17 C       -8.9000     1.1690    -1.7350 C.ar  1 <1>  -0.1500 
 18 C       -9.6450     1.2090     0.5400 C.ar  1 <1>  -0.1500 
 19 C       -9.8460     1.5270    -0.7910 C.ar  1 <1>  -0.1500 
 20 H       -3.0830     0.3810    -0.3980 H     1 <1>   0.3700 
 21 H        1.9050    -2.0560    -1.5490 H     1 <1>   0.1000 
 22 H        3.9470    -2.4010    -0.1480 H     1 <1>   0.1000 
 23 H        3.0910    -1.7420     1.2800 H     1 <1>   0.1000 
 24 H        2.7520     0.4530     0.0690 H     1 <1>   0.1000 
 25 H        3.5950    -0.2000    -1.3700 H     1 <1>   0.1000 
 26 H       -5.0650     1.1970     0.2030 H     1 <1>   0.0800 
 27 H       -5.6380     0.9280     1.8210 H     1 <1>   0.0800 
 28 H       -6.5300    -1.2670     1.1910 H     1 <1>   0.0800 
 29 H       -5.8830    -1.1080    -0.4130 H     1 <1>   0.0800 
 30 H       -7.0280     0.2220    -2.0930 H     1 <1>   0.1500 
 31 H       -8.3530     0.2910     1.9640 H     1 <1>   0.1500 
 32 H       -9.0570     1.4150    -2.7710 H     1 <1>   0.1500 
 33 H      -10.3810     1.4850     1.2760 H     1 <1>   0.1500 
 34 H      -10.7360     2.0510    -1.0920 H     1 <1>   0.1500 
@<TRIPOS>BOND
  1   1   2  1   
  2   1   3  1   
  3   2   4  2   
  4   2   5  1   
  5   3   6  2   
  6   3   7  1   
  7   4   6  1   
  8   5   8  am  
  9   5  20  1   
 10   7   9  1   
 11   7  10  1   
 12   7  21  1   
 13   8  11  2   
 14   8  12  1   
 15   9  10  1   
 16   9  22  1   
 17   9  23  1   
 18  10  24  1   
 19  10  25  1   
 20  12  13  1   
 21  12  26  1   
 22  12  27  1   
 23  13  14  1   
 24  13  28  1   
 25  13  29  1   
 26  14  15  ar  
 27  14  16  ar  
 28  15  17  ar  
 29  15  30  1   
 30  16  18  ar  
 31  16  31  1   
 32  17  19  ar  
 33  17  32  1   
 34  18  19  ar  
 35  18  33  1   
 36  19  34  1   
@<TRIPOS>SUBSTRUCTURE
  1 ****   5 GROUP 4 **** **** 0

# MOE 2024.06 (io_trps.svl 2023.06)
