@<TRIPOS>MOLECULE
NONAME
44 46 1 0 0 
SMALL
USER_CHARGES


@<TRIPOS>ATOM
  1 O        1.9360    -0.9600    -1.2440 O.2   1 <1>  -0.5700 
  2 C        2.5120    -0.3340    -0.3790 C.2   1 <1>   0.5440 
  3 N        2.4880    -0.8630     0.8630 N.am  1 <1>  -0.8000 
  4 C        3.1420     0.9360    -0.6620 C.ar  1 <1>   0.0860 
  5 C        4.4990     1.2040    -0.4090 C.ar  1 <1>   0.1170 
  6 C        2.3700     1.9490    -1.2350 C.ar  1 <1>  -0.1500 
  7 N        5.3850     0.2580     0.1120 N.am  1 <1>  -0.5470 
  8 C        5.0210     2.4560    -0.7200 C.ar  1 <1>  -0.1500 
  9 C        2.9000     3.1870    -1.5380 C.ar  1 <1>  -0.1500 
 10 C        5.5260    -0.1990     1.3890 C.2   1 <1>   0.5690 
 11 C        4.2340     3.4430    -1.2770 C.ar  1 <1>  -0.1500 
 12 O        4.7580     0.0750     2.2810 O.2   1 <1>  -0.5700 
 13 C        6.7320    -1.1000     1.6590 C.3   1 <1>   0.1710 
 14 N        7.8200    -0.9280     0.6510 N.3   1 <1>  -0.8100 
 15 C        8.7190    -2.0920     0.6400 C.3   1 <1>   0.1100 
 16 C        8.5770     0.3130     0.9030 C.3   1 <1>   0.1100 
 17 C        9.7090    -1.9570    -0.5170 C.3   1 <1>  -0.1600 
 18 C        9.5520     0.5520    -0.2480 C.3   1 <1>  -0.1600 
 19 C       10.4820    -0.6420    -0.4070 C.3   1 <1>   0.5600 
 20 O       11.2840    -0.4490    -1.5200 O.3   1 <1>  -0.5600 
 21 O       11.3550    -0.6850     0.6750 O.3   1 <1>  -0.5600 
 22 C       12.5320    -0.9860    -1.2730 C.3   1 <1>   0.1200 
 23 C       12.6050    -1.0830     0.2390 C.3   1 <1>   0.1200 
 24 H        2.0350    -1.7610     1.0250 H     1 <1>   0.3700 
 25 H        3.0720    -0.4820     1.6210 H     1 <1>   0.3700 
 26 H        1.3330     1.7480    -1.4450 H     1 <1>   0.1500 
 27 H        6.1910    -0.0070    -0.4680 H     1 <1>   0.3700 
 28 H        6.0580     2.6560    -0.5220 H     1 <1>   0.1500 
 29 H        2.2800     3.9500    -1.9770 H     1 <1>   0.1500 
 30 H        4.6540     4.4070    -1.5100 H     1 <1>   0.1500 
 31 H        6.3750    -2.1140     1.6320 H     1 <1>   0.0800 
 32 H        7.1070    -0.9060     2.6490 H     1 <1>   0.0800 
 33 H        8.1470    -2.9950     0.5060 H     1 <1>   0.0800 
 34 H        9.2520    -2.1580     1.5750 H     1 <1>   0.0800 
 35 H        9.1210     0.2340     1.8310 H     1 <1>   0.0800 
 36 H        7.9070     1.1530     0.9750 H     1 <1>   0.0800 
 37 H        9.1600    -1.9650    -1.4410 H     1 <1>   0.0800 
 38 H       10.3860    -2.7900    -0.5170 H     1 <1>   0.0800 
 39 H       10.1340     1.4360    -0.0630 H     1 <1>   0.0800 
 40 H        8.9940     0.6910    -1.1550 H     1 <1>   0.0800 
 41 H       13.2840    -0.3330    -1.6770 H     1 <1>   0.0800 
 42 H       12.5920    -1.9560    -1.7350 H     1 <1>   0.0800 
 43 H       12.7900    -2.0910     0.5650 H     1 <1>   0.0800 
 44 H       13.3430    -0.4170     0.6470 H     1 <1>   0.0800 
@<TRIPOS>BOND
  1   1   2  2   
  2   2   3  am  
  3   2   4  1   
  4   3  24  1   
  5   3  25  1   
  6   4   5  ar  
  7   4   6  ar  
  8   5   7  1   
  9   5   8  ar  
 10   6   9  ar  
 11   6  26  1   
 12   7  10  am  
 13   7  27  1   
 14   8  11  ar  
 15   8  28  1   
 16   9  11  ar  
 17   9  29  1   
 18  10  12  2   
 19  10  13  1   
 20  11  30  1   
 21  13  14  1   
 22  13  31  1   
 23  13  32  1   
 24  14  15  1   
 25  14  16  1   
 26  15  17  1   
 27  15  33  1   
 28  15  34  1   
 29  16  18  1   
 30  16  35  1   
 31  16  36  1   
 32  17  19  1   
 33  17  37  1   
 34  17  38  1   
 35  18  19  1   
 36  18  39  1   
 37  18  40  1   
 38  19  20  1   
 39  19  21  1   
 40  20  22  1   
 41  21  23  1   
 42  22  23  1   
 43  22  41  1   
 44  22  42  1   
 45  23  43  1   
 46  23  44  1   
@<TRIPOS>SUBSTRUCTURE
  1 ****   7 GROUP 4 **** **** 0

# MOE 2024.06 (io_trps.svl 2023.06)
