@<TRIPOS>MOLECULE
NONAME
45 47 1 0 0 
SMALL
USER_CHARGES


@<TRIPOS>ATOM
  1 CL      -0.5920    -0.1690    -0.9130 Cl    1 <1>  -0.1770 
  2 C       -0.3300    -1.8010    -0.3190 C.ar  1 <1>   0.1770 
  3 C       -1.4210    -2.5790    -0.0060 C.ar  1 <1>   0.0830 
  4 C        0.9990    -2.2600    -0.1820 C.ar  1 <1>   0.0000 
  5 O       -2.6670    -2.0590    -0.1670 O.3   1 <1>  -0.3630 
  6 C       -1.2070    -3.8870     0.4710 C.ar  1 <1>  -0.1500 
  7 C        1.1930    -3.5750     0.2970 C.ar  1 <1>   0.0000 
  8 C        2.1430    -1.4900    -0.4930 C.ar  1 <1>  -0.1500 
  9 C       -3.8360    -2.7870     0.1170 C.3   1 <1>   0.1200 
 10 C        0.0670    -4.3620     0.6140 C.ar  1 <1>  -0.1500 
 11 C        2.5070    -4.0630     0.4450 C.ar  1 <1>  -0.1500 
 12 C        3.4070    -1.9890    -0.3410 C.ar  1 <1>  -0.1500 
 13 C       -5.0250    -1.8750    -0.1900 C.3   1 <1>  -0.1600 
 14 C        3.5920    -3.2910     0.1340 C.ar  1 <1>  -0.1500 
 15 C       -6.3690    -2.5690     0.0750 C.3   1 <1>  -0.1600 
 16 C       -7.5290    -1.6170    -0.2330 C.3   1 <1>   0.3430 
 17 N       -8.8310    -2.2450     0.1180 N.4   1 <1>  -0.9590 
 18 C       -9.2180    -3.4050    -0.7600 C.3   1 <1>   0.3430 
 19 C       -9.9510    -1.2470     0.1760 C.3   1 <1>   0.3430 
 20 C      -10.6150    -3.9580    -0.3910 C.3   1 <1>   0.1200 
 21 C      -11.2870    -1.9180     0.5750 C.3   1 <1>   0.1200 
 22 O      -11.1350    -3.3040     0.7350 O.3   1 <1>  -0.5600 
 23 H       -2.0340    -4.5220     0.7250 H     1 <1>   0.1500 
 24 H        2.0120    -0.4870    -0.8590 H     1 <1>   0.1500 
 25 H       -3.8180    -3.0640     1.1580 H     1 <1>   0.0800 
 26 H       -3.8480    -3.6640    -0.5070 H     1 <1>   0.0800 
 27 H        0.2330    -5.3600     0.9780 H     1 <1>   0.1500 
 28 H        2.6450    -5.0650     0.8100 H     1 <1>   0.1500 
 29 H        4.2700    -1.3920    -0.5810 H     1 <1>   0.1500 
 30 H       -4.9670    -1.5770    -1.2240 H     1 <1>   0.0800 
 31 H       -4.9430    -0.9930     0.4240 H     1 <1>   0.0800 
 32 H        4.5930    -3.6690     0.2490 H     1 <1>   0.1500 
 33 H       -6.4100    -2.8660     1.1080 H     1 <1>   0.0800 
 34 H       -6.4320    -3.4450    -0.5460 H     1 <1>   0.0800 
 35 H       -7.5150    -1.3480    -1.2770 H     1 <1>   0.0800 
 36 H       -7.3970    -0.7170     0.3470 H     1 <1>   0.0800 
 37 H       -8.7790    -2.6360     1.0720 H     1 <1>   0.4500 
 38 H       -8.4960    -4.1990    -0.6610 H     1 <1>   0.0800 
 39 H       -9.2250    -3.1010    -1.7930 H     1 <1>   0.0800 
 40 H      -10.0730    -0.7750    -0.7850 H     1 <1>   0.0800 
 41 H       -9.7220    -0.4730     0.8900 H     1 <1>   0.0800 
 42 H      -10.5510    -5.0070    -0.1620 H     1 <1>   0.0800 
 43 H      -11.3040    -3.8350    -1.2100 H     1 <1>   0.0800 
 44 H      -12.0430    -1.7370    -0.1700 H     1 <1>   0.0800 
 45 H      -11.6370    -1.5190     1.5110 H     1 <1>   0.0800 
@<TRIPOS>BOND
  1   1   2  1   
  2   2   3  ar  
  3   2   4  ar  
  4   3   5  1   
  5   3   6  ar  
  6   4   7  ar  
  7   4   8  ar  
  8   5   9  1   
  9   6  10  ar  
 10   6  23  1   
 11   7  10  ar  
 12   7  11  ar  
 13   8  12  ar  
 14   8  24  1   
 15   9  13  1   
 16   9  25  1   
 17   9  26  1   
 18  10  27  1   
 19  11  14  ar  
 20  11  28  1   
 21  12  14  ar  
 22  12  29  1   
 23  13  15  1   
 24  13  30  1   
 25  13  31  1   
 26  14  32  1   
 27  15  16  1   
 28  15  33  1   
 29  15  34  1   
 30  16  17  1   
 31  16  35  1   
 32  16  36  1   
 33  17  18  1   
 34  17  19  1   
 35  17  37  1   
 36  18  20  1   
 37  18  38  1   
 38  18  39  1   
 39  19  21  1   
 40  19  40  1   
 41  19  41  1   
 42  20  22  1   
 43  20  42  1   
 44  20  43  1   
 45  21  22  1   
 46  21  44  1   
 47  21  45  1   
@<TRIPOS>SUBSTRUCTURE
  1 ****   9 GROUP 4 **** **** 0

# MOE 2024.06 (io_trps.svl 2023.06)
