@<TRIPOS>MOLECULE
NONAME
45 46 1 0 0 
SMALL
USER_CHARGES


@<TRIPOS>ATOM
  1 S        1.0010     0.4640     0.8440 S.o2  1 <1>   1.3330 
  2 O        1.4580     1.3590     1.8770 O.2   1 <1>  -0.6500 
  3 O        1.9270    -0.4390     0.2030 O.2   1 <1>  -0.6500 
  4 N        0.2910     1.4110    -0.4130 N.am  1 <1>  -0.6930 
  5 C       -0.3780    -0.4920     1.4410 C.3   1 <1>  -0.1350 
  6 C       -0.8630     2.1430    -0.1360 C.ar  1 <1>   0.1990 
  7 C        1.2780     1.9460    -1.4080 C.3   1 <1>   0.3370 
  8 C       -2.0680     1.7700    -0.7170 C.ar  1 <1>  -0.1500 
  9 C       -0.8490     3.2300     0.7310 C.ar  1 <1>  -0.1500 
 10 C        2.2060     3.0520    -0.8300 C.2   1 <1>   0.5690 
 11 C        0.5460     2.4080    -2.6790 C.3   1 <1>  -0.2400 
 12 C       -3.2320     2.4640    -0.4380 C.ar  1 <1>  -0.1500 
 13 C       -2.0090     3.9300     1.0130 C.ar  1 <1>  -0.1500 
 14 O        1.7530     4.1750    -0.7510 O.2   1 <1>  -0.5700 
 15 N        3.5010     2.8060    -0.4220 N.am  1 <1>  -0.6600 
 16 C       -3.2120     3.5460     0.4260 C.ar  1 <1>   0.0830 
 17 C        4.2860     1.5380    -0.5760 C.3   1 <1>   0.1400 
 18 C        4.2570     3.8310     0.3630 C.3   1 <1>   0.1400 
 19 O       -4.3980     4.1740     0.6470 O.3   1 <1>  -0.3630 
 20 C        4.8320     1.0610     0.7820 C.3   1 <1>   0.1200 
 21 C        4.7860     3.2220     1.6720 C.3   1 <1>   0.1200 
 22 C       -4.4570     5.3450     1.4320 C.3   1 <1>   0.0400 
 23 O        5.5560     2.0840     1.4050 O.3   1 <1>  -0.5600 
 24 H       -0.0520    -1.1640     2.2100 H     1 <1>   0.0800 
 25 H       -0.8060    -1.0630     0.6410 H     1 <1>   0.0800 
 26 H       -1.1300     0.1550     1.8480 H     1 <1>   0.0800 
 27 H        1.8880     1.1260    -1.7240 H     1 <1>   0.0800 
 28 H       -2.0890     0.9340    -1.3910 H     1 <1>   0.1500 
 29 H        0.0790     3.5320     1.1840 H     1 <1>   0.1500 
 30 H       -0.0750     3.2610    -2.4740 H     1 <1>   0.0800 
 31 H       -0.0550     1.6100    -3.0750 H     1 <1>   0.0800 
 32 H        1.2670     2.6950    -3.4230 H     1 <1>   0.0800 
 33 H       -4.1630     2.1740    -0.8900 H     1 <1>   0.1500 
 34 H       -1.9520     4.7650     1.6850 H     1 <1>   0.1500 
 35 H        5.1200     1.7250    -1.2310 H     1 <1>   0.0800 
 36 H        3.7070     0.7510    -1.0140 H     1 <1>   0.0800 
 37 H        3.6310     4.6720     0.6020 H     1 <1>   0.0800 
 38 H        5.0850     4.1900    -0.2230 H     1 <1>   0.0800 
 39 H        5.4940     0.2260     0.6440 H     1 <1>   0.0800 
 40 H        4.0300     0.7600     1.4330 H     1 <1>   0.0800 
 41 H        3.9680     2.9450     2.3160 H     1 <1>   0.0800 
 42 H        5.4110     3.9290     2.1860 H     1 <1>   0.0800 
 43 H       -5.4760     5.6900     1.4410 H     1 <1>   0.0800 
 44 H       -3.8220     6.0930     0.9910 H     1 <1>   0.0800 
 45 H       -4.1420     5.1100     2.4330 H     1 <1>   0.0800 
@<TRIPOS>BOND
  1   1   2  2   
  2   1   3  2   
  3   1   4  am  
  4   1   5  1   
  5   4   6  1   
  6   4   7  1   
  7   5  24  1   
  8   5  25  1   
  9   5  26  1   
 10   6   8  ar  
 11   6   9  ar  
 12   7  10  1   
 13   7  11  1   
 14   7  27  1   
 15   8  12  ar  
 16   8  28  1   
 17   9  13  ar  
 18   9  29  1   
 19  10  14  2   
 20  10  15  am  
 21  11  30  1   
 22  11  31  1   
 23  11  32  1   
 24  12  16  ar  
 25  12  33  1   
 26  13  16  ar  
 27  13  34  1   
 28  15  17  1   
 29  15  18  1   
 30  16  19  1   
 31  17  20  1   
 32  17  35  1   
 33  17  36  1   
 34  18  21  1   
 35  18  37  1   
 36  18  38  1   
 37  19  22  1   
 38  20  23  1   
 39  20  39  1   
 40  20  40  1   
 41  21  23  1   
 42  21  41  1   
 43  21  42  1   
 44  22  43  1   
 45  22  44  1   
 46  22  45  1   
@<TRIPOS>SUBSTRUCTURE
  1 ****   4 GROUP 4 **** **** 0

# MOE 2024.06 (io_trps.svl 2023.06)
