@<TRIPOS>MOLECULE
NONAME
49 51 1 0 0 
SMALL
USER_CHARGES


@<TRIPOS>ATOM
  1 CL       4.0370    -1.0790     4.0310 Cl    1 <1>  -0.1770 
  2 C        3.8000    -1.3750     2.3270 C.ar  1 <1>   0.1770 
  3 C        4.7110    -0.8740     1.4220 C.ar  1 <1>  -0.1500 
  4 C        2.7030    -2.1070     1.9140 C.ar  1 <1>  -0.1500 
  5 C        4.5370    -1.1020     0.0620 C.ar  1 <1>   0.1000 
  6 C        2.5210    -2.3370     0.5610 C.ar  1 <1>  -0.1500 
  7 N        5.4570    -0.6000    -0.8560 N.pl3 1 <1>  -0.8380 
  8 C        3.4290    -1.8410    -0.3630 C.ar  1 <1>  -0.1430 
  9 C        6.8230    -1.2000    -0.9080 C.3   1 <1>   0.2090 
 10 C        5.4050     0.8550    -1.1960 C.3   1 <1>   0.2090 
 11 C        3.2110    -2.1070    -1.8460 C.3   1 <1>  -0.0970 
 12 C        7.8730    -0.3660    -0.1460 C.3   1 <1>   0.1400 
 13 C        6.4380     1.6710    -0.4020 C.3   1 <1>   0.1400 
 14 N        7.8120     1.0850    -0.5130 N.am  1 <1>  -0.6600 
 15 C        8.8360     1.7570    -1.1470 C.2   1 <1>   0.5440 
 16 O        8.5570     2.6980    -1.8660 O.2   1 <1>  -0.5700 
 17 C       10.2250     1.3760    -0.9850 C.ar  1 <1>   0.0860 
 18 C       11.0910     1.3260    -2.0770 C.ar  1 <1>  -0.1500 
 19 C       10.7620     1.0590     0.2640 C.ar  1 <1>  -0.1500 
 20 C       12.4170     0.9670    -1.9320 C.ar  1 <1>  -0.1500 
 21 C       12.0880     0.6980     0.4120 C.ar  1 <1>  -0.1500 
 22 C       12.9430     0.6450    -0.6860 C.ar  1 <1>   0.1990 
 23 N       14.2820     0.3010    -0.5940 N.am  1 <1>  -0.7570 
 24 S       15.2140    -0.1980     0.7580 S.o2  1 <1>   1.3330 
 25 O       14.3940    -1.0570     1.5750 O.2   1 <1>  -0.6500 
 26 O       16.4490    -0.6570     0.1780 O.2   1 <1>  -0.6500 
 27 C       15.5130     1.3430     1.5970 C.3   1 <1>  -0.1350 
 28 H        5.5500    -0.3090     1.7730 H     1 <1>   0.1500 
 29 H        2.0060    -2.4870     2.6390 H     1 <1>   0.1500 
 30 H        1.6690    -2.9060     0.2330 H     1 <1>   0.1500 
 31 H        7.1220    -1.2810    -1.9390 H     1 <1>   0.0800 
 32 H        6.7910    -2.1950    -0.4990 H     1 <1>   0.0800 
 33 H        4.4180     1.2340    -0.9960 H     1 <1>   0.0800 
 34 H        5.5980     0.9750    -2.2480 H     1 <1>   0.0800 
 35 H        3.1070    -1.1740    -2.3690 H     1 <1>   0.0800 
 36 H        2.3280    -2.6960    -2.0130 H     1 <1>   0.0800 
 37 H        4.0580    -2.6320    -2.2470 H     1 <1>   0.0800 
 38 H        8.8460    -0.7700    -0.3610 H     1 <1>   0.0800 
 39 H        7.7030    -0.4680     0.9110 H     1 <1>   0.0800 
 40 H        6.1480     1.6910     0.6330 H     1 <1>   0.0800 
 41 H        6.4310     2.6860    -0.7570 H     1 <1>   0.0800 
 42 H       10.7060     1.5810    -3.0500 H     1 <1>   0.1500 
 43 H       10.1240     1.1020     1.1300 H     1 <1>   0.1500 
 44 H       13.0550     0.9400    -2.7970 H     1 <1>   0.1500 
 45 H       12.4490     0.4550     1.3930 H     1 <1>   0.1500 
 46 H       14.8150     0.1540    -1.4460 H     1 <1>   0.4200 
 47 H       14.5870     1.7810     1.9130 H     1 <1>   0.0800 
 48 H       16.0150     2.0280     0.9440 H     1 <1>   0.0800 
 49 H       16.1280     1.1770     2.4600 H     1 <1>   0.0800 
@<TRIPOS>BOND
  1   1   2  1   
  2   2   3  ar  
  3   2   4  ar  
  4   3   5  ar  
  5   3  28  1   
  6   4   6  ar  
  7   4  29  1   
  8   5   7  1   
  9   5   8  ar  
 10   6   8  ar  
 11   6  30  1   
 12   7   9  1   
 13   7  10  1   
 14   8  11  1   
 15   9  12  1   
 16   9  31  1   
 17   9  32  1   
 18  10  13  1   
 19  10  33  1   
 20  10  34  1   
 21  11  35  1   
 22  11  36  1   
 23  11  37  1   
 24  12  14  1   
 25  12  38  1   
 26  12  39  1   
 27  13  14  1   
 28  13  40  1   
 29  13  41  1   
 30  14  15  am  
 31  15  16  2   
 32  15  17  1   
 33  17  18  ar  
 34  17  19  ar  
 35  18  20  ar  
 36  18  42  1   
 37  19  21  ar  
 38  19  43  1   
 39  20  22  ar  
 40  20  44  1   
 41  21  22  ar  
 42  21  45  1   
 43  22  23  1   
 44  23  24  am  
 45  23  46  1   
 46  24  25  2   
 47  24  26  2   
 48  24  27  1   
 49  27  47  1   
 50  27  48  1   
 51  27  49  1   
@<TRIPOS>SUBSTRUCTURE
  1 ****  12 GROUP 4 **** **** 0

# MOE 2024.06 (io_trps.svl 2023.06)
