@<TRIPOS>MOLECULE
NONAME
48 50 1 0 0 
SMALL
USER_CHARGES


@<TRIPOS>ATOM
  1 O        0.1290    -0.4280     0.8870 O.co2 1 <1>  -0.9000 
  2 C       -0.3450     0.4890     0.2010 C.2   1 <1>   0.9060 
  3 O       -0.5950     0.3010    -0.9960 O.co2 1 <1>  -0.9000 
  4 C       -0.6980     1.8230     0.8510 C.3   1 <1>  -0.1860 
  5 C       -2.3480     2.1310     1.0660 C.3   1 <1>  -0.0190 
  6 C       -0.0650     3.0950     0.0280 C.3   1 <1>  -0.0800 
  7 C       -3.3270     0.9770     0.8120 C.2   1 <1>   0.5690 
  8 C       -2.7060     3.4880     0.2170 C.3   1 <1>  -0.0800 
  9 C       -1.3800     3.3030     0.1450 C.3   1 <1>  -0.1600 
 10 C       -0.4310     4.4690    -0.7790 C.3   1 <1>  -0.1600 
 11 O       -4.0600     0.6260     1.7080 O.2   1 <1>  -0.5700 
 12 N       -3.3450     0.3560    -0.3950 N.am  1 <1>  -0.7300 
 13 C       -2.0610     4.7720    -0.5600 C.3   1 <1>  -0.1600 
 14 C       -3.8410    -1.0230    -0.5810 C.3   1 <1>   0.1400 
 15 C       -2.5770    -1.8670    -0.5670 C.3   1 <1>  -0.1600 
 16 C       -2.6710    -3.3610    -0.3240 C.3   1 <1>   0.3430 
 17 N       -1.3110    -3.9840    -0.4780 N.4   1 <1>  -0.9590 
 18 C       -1.2380    -5.3560     0.1200 C.3   1 <1>   0.3430 
 19 C       -0.1490    -3.1300     0.0060 C.3   1 <1>   0.3430 
 20 C        0.2060    -5.9080     0.1690 C.3   1 <1>   0.1200 
 21 C        1.2100    -3.8200    -0.2290 C.3   1 <1>   0.1200 
 22 O        1.0580    -5.1570    -0.6470 O.3   1 <1>  -0.5600 
 23 H       -0.2460     1.7820     1.8280 H     1 <1>   0.0800 
 24 H       -2.4800     2.3670     2.1120 H     1 <1>   0.0800 
 25 H        0.6400     3.4710     0.7560 H     1 <1>   0.0800 
 26 H       -3.3740     3.1050    -0.5440 H     1 <1>   0.0800 
 27 H       -1.5430     2.7010    -0.8530 H     1 <1>   0.0800 
 28 H       -1.2060     3.8950     1.1440 H     1 <1>   0.0800 
 29 H       -0.2160     4.3410    -1.8300 H     1 <1>   0.0800 
 30 H        0.1600     5.2980    -0.4240 H     1 <1>   0.0800 
 31 H       -2.5030     0.5510    -0.9740 H     1 <1>   0.3700 
 32 H       -2.1980     5.6670     0.0260 H     1 <1>   0.0800 
 33 H       -2.5450     4.9280    -1.5120 H     1 <1>   0.0800 
 34 H       -4.3630    -1.1050    -1.5190 H     1 <1>   0.0800 
 35 H       -4.5010    -1.2920     0.2270 H     1 <1>   0.0800 
 36 H       -2.0180    -1.4970     0.2670 H     1 <1>   0.0800 
 37 H       -2.0460    -1.6850    -1.4850 H     1 <1>   0.0800 
 38 H       -3.3610    -3.8060    -1.0210 H     1 <1>   0.0800 
 39 H       -3.0380    -3.5210     0.6770 H     1 <1>   0.0800 
 40 H       -1.1070    -4.0870    -1.4810 H     1 <1>   0.4500 
 41 H       -1.8490    -6.0310    -0.4550 H     1 <1>   0.0800 
 42 H       -1.6300    -5.3380     1.1230 H     1 <1>   0.0800 
 43 H       -0.2580    -2.8990     1.0520 H     1 <1>   0.0800 
 44 H       -0.1320    -2.1840    -0.5150 H     1 <1>   0.0800 
 45 H        0.2280    -6.9270    -0.1750 H     1 <1>   0.0800 
 46 H        0.5880    -5.8820     1.1760 H     1 <1>   0.0800 
 47 H        1.7990    -3.7970     0.6710 H     1 <1>   0.0800 
 48 H        1.7530    -3.2940    -0.9950 H     1 <1>   0.0800 
@<TRIPOS>BOND
  1   1   2  ar  
  2   2   3  ar  
  3   2   4  1   
  4   4   5  1   
  5   4   6  1   
  6   4  23  1   
  7   5   7  1   
  8   5   8  1   
  9   5  24  1   
 10   6   9  1   
 11   6  10  1   
 12   6  25  1   
 13   7  11  2   
 14   7  12  am  
 15   8   9  1   
 16   8  13  1   
 17   8  26  1   
 18   9  27  1   
 19   9  28  1   
 20  10  13  1   
 21  10  29  1   
 22  10  30  1   
 23  12  14  1   
 24  12  31  1   
 25  13  32  1   
 26  13  33  1   
 27  14  15  1   
 28  14  34  1   
 29  14  35  1   
 30  15  16  1   
 31  15  36  1   
 32  15  37  1   
 33  16  17  1   
 34  16  38  1   
 35  16  39  1   
 36  17  18  1   
 37  17  19  1   
 38  17  40  1   
 39  18  20  1   
 40  18  41  1   
 41  18  42  1   
 42  19  21  1   
 43  19  43  1   
 44  19  44  1   
 45  20  22  1   
 46  20  45  1   
 47  20  46  1   
 48  21  22  1   
 49  21  47  1   
 50  21  48  1   
@<TRIPOS>SUBSTRUCTURE
  1 ****   2 GROUP 4 **** **** 0

# MOE 2024.06 (io_trps.svl 2023.06)
