@<TRIPOS>MOLECULE
NONAME
39 39 1 0 0 
SMALL
USER_CHARGES


@<TRIPOS>ATOM
  1 O       -2.4680    -1.6950     0.1740 O.2   1 <1>  -0.5700 
  2 C       -3.3590    -0.8940     0.2830 C.2   1 <1>   1.0110 
  3 N       -3.2940     0.3660    -0.3010 N.pl3 1 <1>  -0.7250 
  4 N       -4.4330    -1.2160     1.0060 N.am  1 <1>  -0.4900 
  5 C       -4.3010     1.2430    -0.2300 C.cat 1 <1>   0.6040 
  6 C       -1.9930     0.6700    -0.9840 C.3   1 <1>   0.3300 
  7 C       -5.5280    -0.4560     1.1650 C.2   1 <1>   0.5690 
  8 N       -4.1590     2.4620    -0.7000 N.pl3 1 <1>  -0.7540 
  9 C       -5.6680     0.8740     0.4110 C.3   1 <1>   0.1660 
 10 C       -1.0100     1.2840     0.0190 C.3   1 <1>  -0.1600 
 11 O       -6.4080    -0.8530     1.8810 O.2   1 <1>  -0.5700 
 12 C       -6.7530     0.6440    -0.6850 C.3   1 <1>  -0.1600 
 13 C       -6.1360     1.9790     1.4080 C.3   1 <1>  -0.1600 
 14 C        0.3070     1.6840    -0.6610 C.3   1 <1>  -0.1600 
 15 C       -7.1160     1.8260    -1.6030 C.3   1 <1>  -0.2400 
 16 C       -5.1620     2.2380     2.5720 C.3   1 <1>  -0.2400 
 17 C        1.2780     2.3000     0.3490 C.3   1 <1>  -0.2400 
 18 H       -4.4100    -2.1180     1.4750 H     1 <1>   0.3700 
 19 H       -2.1500     1.3510    -1.8020 H     1 <1>   0.0800 
 20 H       -1.5620    -0.2200    -1.4160 H     1 <1>   0.0800 
 21 H       -4.9090     3.1610    -0.6660 H     1 <1>   0.4500 
 22 H       -3.3080     2.8310    -1.1240 H     1 <1>   0.4500 
 23 H       -0.7950     0.5640     0.7910 H     1 <1>   0.0800 
 24 H       -1.4460     2.1540     0.4770 H     1 <1>   0.0800 
 25 H       -7.6620     0.3280    -0.1970 H     1 <1>   0.0800 
 26 H       -6.4470    -0.1770    -1.3110 H     1 <1>   0.0800 
 27 H       -7.0860     1.6880     1.8290 H     1 <1>   0.0800 
 28 H       -6.3030     2.9100     0.8990 H     1 <1>   0.0800 
 29 H        0.1210     2.3980    -1.4460 H     1 <1>   0.0800 
 30 H        0.7700     0.8160    -1.1020 H     1 <1>   0.0800 
 31 H       -7.4580     2.6780    -1.0420 H     1 <1>   0.0800 
 32 H       -7.9240     1.5290    -2.2500 H     1 <1>   0.0800 
 33 H       -6.2950     2.1110    -2.2350 H     1 <1>   0.0800 
 34 H       -5.0370     1.3560     3.1770 H     1 <1>   0.0800 
 35 H       -5.5630     3.0080     3.2090 H     1 <1>   0.0800 
 36 H       -4.1980     2.5650     2.2260 H     1 <1>   0.0800 
 37 H        0.8600     3.1870     0.7920 H     1 <1>   0.0800 
 38 H        2.1980     2.5700    -0.1420 H     1 <1>   0.0800 
 39 H        1.5090     1.5980     1.1310 H     1 <1>   0.0800 
@<TRIPOS>BOND
  1   1   2  2   
  2   2   3  1   
  3   2   4  am  
  4   3   5  ar  
  5   3   6  1   
  6   4   7  am  
  7   4  18  1   
  8   5   8  ar  
  9   5   9  1   
 10   6  10  1   
 11   6  19  1   
 12   6  20  1   
 13   7   9  1   
 14   7  11  2   
 15   8  21  1   
 16   8  22  1   
 17   9  12  1   
 18   9  13  1   
 19  10  14  1   
 20  10  23  1   
 21  10  24  1   
 22  12  15  1   
 23  12  25  1   
 24  12  26  1   
 25  13  16  1   
 26  13  27  1   
 27  13  28  1   
 28  14  17  1   
 29  14  29  1   
 30  14  30  1   
 31  15  31  1   
 32  15  32  1   
 33  15  33  1   
 34  16  34  1   
 35  16  35  1   
 36  16  36  1   
 37  17  37  1   
 38  17  38  1   
 39  17  39  1   
@<TRIPOS>SUBSTRUCTURE
  1 ****   5 GROUP 4 **** **** 0

# MOE 2024.06 (io_trps.svl 2023.06)
