@<TRIPOS>MOLECULE
NONAME
39 41 1 0 0 
SMALL
USER_CHARGES


@<TRIPOS>ATOM
  1 CL      -1.4030     0.7400     2.2810 Cl    1 <1>  -0.1770 
  2 C       -1.4980     2.0620     1.1430 C.ar  1 <1>   0.1770 
  3 C       -2.5380     2.1330     0.2230 C.ar  1 <1>  -0.1440 
  4 C       -0.5060     3.0240     1.1900 C.ar  1 <1>  -0.1500 
  5 C       -2.5650     3.1970    -0.6720 C.ar  1 <1>  -0.1500 
  6 C       -3.6320     1.0710     0.1790 C.3   1 <1>   0.2640 
  7 C       -0.5600     4.0720     0.2940 C.ar  1 <1>   0.1770 
  8 C       -1.5770     4.1690    -0.6370 C.ar  1 <1>  -0.1500 
  9 O       -4.8750     1.7120     0.0090 O.3   1 <1>  -0.2170 
 10 CL       0.6790     5.2980     0.3370 Cl    1 <1>  -0.1770 
 11 N       -5.9250     0.8990    -0.0190 N.2   1 <1>  -0.5130 
 12 C       -7.0380     1.4050    -0.4230 C.2   1 <1>   0.5860 
 13 N       -8.1640     0.5560    -0.4980 N.pl3 1 <1>  -0.7880 
 14 C       -7.1980     2.7960    -0.8160 C.2   1 <1>   0.2030 
 15 C       -8.0220    -0.8750    -0.0770 C.3   1 <1>   0.2090 
 16 C       -9.5030     1.1230    -0.1360 C.3   1 <1>   0.2090 
 17 N       -7.6590     3.2620    -1.9250 N.2   1 <1>  -0.4100 
 18 C       -6.8920     3.8910    -0.0350 C.2   1 <1>   0.3720 
 19 C       -9.2510    -1.7060    -0.4850 C.3   1 <1>   0.1200 
 20 C      -10.6420     0.1720    -0.5430 C.3   1 <1>   0.1200 
 21 O       -7.6340     4.5680    -1.8590 O.3   1 <1>   0.2420 
 22 N       -7.1600     4.9420    -0.6890 N.2   1 <1>  -0.4100 
 23 N       -6.3760     3.9340     1.2520 N.pl3 1 <1>  -0.8830 
 24 O      -10.4310    -1.1110    -0.0260 O.3   1 <1>  -0.5600 
 25 H        0.2910     2.9570     1.9080 H     1 <1>   0.1500 
 26 H       -3.3570     3.2760    -1.4000 H     1 <1>   0.1500 
 27 H       -3.6850     0.5010     1.0890 H     1 <1>   0.0800 
 28 H       -3.4830     0.4070    -0.6530 H     1 <1>   0.0800 
 29 H       -1.5950     4.9960    -1.3250 H     1 <1>   0.1500 
 30 H       -7.1480    -1.3040    -0.5370 H     1 <1>   0.0800 
 31 H       -7.8970    -0.9240     0.9910 H     1 <1>   0.0800 
 32 H       -9.5450     1.2900     0.9270 H     1 <1>   0.0800 
 33 H       -9.6610     2.0660    -0.6290 H     1 <1>   0.0800 
 34 H       -9.1900    -2.6900    -0.0560 H     1 <1>   0.0800 
 35 H       -9.3030    -1.7980    -1.5560 H     1 <1>   0.0800 
 36 H      -10.7120     0.1070    -1.6150 H     1 <1>   0.0800 
 37 H      -11.5800     0.5310    -0.1570 H     1 <1>   0.0800 
 38 H       -5.9440     4.8420     1.4380 H     1 <1>   0.4000 
 39 H       -5.6980     3.1770     1.4010 H     1 <1>   0.4000 
@<TRIPOS>BOND
  1   1   2  1   
  2   2   3  ar  
  3   2   4  ar  
  4   3   5  ar  
  5   3   6  1   
  6   4   7  ar  
  7   4  25  1   
  8   5   8  ar  
  9   5  26  1   
 10   6   9  1   
 11   6  27  1   
 12   6  28  1   
 13   7   8  ar  
 14   7  10  1   
 15   8  29  1   
 16   9  11  1   
 17  11  12  2   
 18  12  13  1   
 19  12  14  1   
 20  13  15  1   
 21  13  16  1   
 22  14  17  2   
 23  14  18  1   
 24  15  19  1   
 25  15  30  1   
 26  15  31  1   
 27  16  20  1   
 28  16  32  1   
 29  16  33  1   
 30  17  21  1   
 31  18  22  2   
 32  18  23  1   
 33  19  24  1   
 34  19  34  1   
 35  19  35  1   
 36  20  24  1   
 37  20  36  1   
 38  20  37  1   
 39  21  22  1   
 40  23  38  1   
 41  23  39  1   
@<TRIPOS>SUBSTRUCTURE
  1 ****   9 GROUP 4 **** **** 0

# MOE 2024.06 (io_trps.svl 2023.06)
