@<TRIPOS>MOLECULE
NONAME
47 49 1 0 0 
SMALL
USER_CHARGES


@<TRIPOS>ATOM
  1 CL      -0.2330    -1.0960     0.4560 Cl    1 <1>  -0.1770 
  2 C       -1.8260    -1.6840     0.0450 C.ar  1 <1>   0.1770 
  3 C       -1.9940    -2.4490    -1.0940 C.ar  1 <1>  -0.1500 
  4 C       -2.8960    -1.3750     0.8640 C.ar  1 <1>  -0.1500 
  5 C       -3.2590    -2.9110    -1.4140 C.ar  1 <1>  -0.1500 
  6 C       -4.1560    -1.8440     0.5360 C.ar  1 <1>  -0.1500 
  7 C       -4.3530    -2.6160    -0.6070 C.ar  1 <1>   0.1000 
  8 N       -5.6090    -3.1050    -0.9610 N.pl3 1 <1>  -0.8380 
  9 C       -5.8680    -4.5690    -0.8200 C.3   1 <1>   0.2090 
 10 C       -6.8320    -2.2550    -0.8460 C.3   1 <1>   0.2090 
 11 C       -6.7540    -4.8740     0.4040 C.3   1 <1>   0.1100 
 12 C       -7.7060    -2.6550     0.3620 C.3   1 <1>   0.1100 
 13 N       -8.0200    -4.1060     0.3840 N.3   1 <1>  -0.8100 
 14 C       -8.8670    -4.4480     1.5670 C.3   1 <1>   0.1710 
 15 C      -10.3180    -3.9820     1.4390 C.2   1 <1>   0.5690 
 16 O      -10.9630    -3.7920     2.4420 O.2   1 <1>  -0.5700 
 17 N      -10.7830    -3.8100     0.1660 N.am  1 <1>  -0.5470 
 18 C      -12.0100    -3.3890    -0.3700 C.ar  1 <1>   0.1170 
 19 C      -13.0960    -3.0030     0.4070 C.ar  1 <1>  -0.1500 
 20 C      -12.1420    -3.3510    -1.7530 C.ar  1 <1>  -0.1500 
 21 C      -14.2820    -2.5880    -0.1740 C.ar  1 <1>   0.0830 
 22 C      -13.3220    -2.9400    -2.3460 C.ar  1 <1>  -0.1500 
 23 O      -15.2840    -2.2280     0.6680 O.3   1 <1>  -0.3630 
 24 C      -14.3950    -2.5580    -1.5620 C.ar  1 <1>  -0.1500 
 25 C      -16.5350    -1.7980     0.1810 C.3   1 <1>   0.0400 
 26 H       -1.1490    -2.6750    -1.7180 H     1 <1>   0.1500 
 27 H       -2.7390    -0.7790     1.7450 H     1 <1>   0.1500 
 28 H       -3.4130    -3.5010    -2.2980 H     1 <1>   0.1500 
 29 H       -4.9900    -1.6150     1.1700 H     1 <1>   0.1500 
 30 H       -4.9340    -5.0940    -0.7210 H     1 <1>   0.0800 
 31 H       -6.3570    -4.9250    -1.7090 H     1 <1>   0.0800 
 32 H       -7.4110    -2.3610    -1.7460 H     1 <1>   0.0800 
 33 H       -6.5480    -1.2210    -0.7620 H     1 <1>   0.0800 
 34 H       -6.1980    -4.6430     1.2960 H     1 <1>   0.0800 
 35 H       -6.9740    -5.9270     0.4110 H     1 <1>   0.0800 
 36 H       -8.6170    -2.0840     0.3240 H     1 <1>   0.0800 
 37 H       -7.1880    -2.3830     1.2650 H     1 <1>   0.0800 
 38 H       -8.4420    -4.0250     2.4610 H     1 <1>   0.0800 
 39 H       -8.8920    -5.5160     1.6890 H     1 <1>   0.0800 
 40 H      -10.0380    -3.9910    -0.5130 H     1 <1>   0.3700 
 41 H      -13.0350    -3.0180     1.4780 H     1 <1>   0.1500 
 42 H      -11.3160    -3.6470    -2.3740 H     1 <1>   0.1500 
 43 H      -13.4060    -2.9180    -3.4190 H     1 <1>   0.1500 
 44 H      -15.3010    -2.2430    -2.0430 H     1 <1>   0.1500 
 45 H      -17.1610    -1.5720     1.0250 H     1 <1>   0.0800 
 46 H      -16.9750    -2.5890    -0.3990 H     1 <1>   0.0800 
 47 H      -16.3920    -0.9140    -0.4150 H     1 <1>   0.0800 
@<TRIPOS>BOND
  1   1   2  1   
  2   2   3  ar  
  3   2   4  ar  
  4   3   5  ar  
  5   3  26  1   
  6   4   6  ar  
  7   4  27  1   
  8   5   7  ar  
  9   5  28  1   
 10   6   7  ar  
 11   6  29  1   
 12   7   8  1   
 13   8   9  1   
 14   8  10  1   
 15   9  11  1   
 16   9  30  1   
 17   9  31  1   
 18  10  12  1   
 19  10  32  1   
 20  10  33  1   
 21  11  13  1   
 22  11  34  1   
 23  11  35  1   
 24  12  13  1   
 25  12  36  1   
 26  12  37  1   
 27  13  14  1   
 28  14  15  1   
 29  14  38  1   
 30  14  39  1   
 31  15  16  2   
 32  15  17  am  
 33  17  18  1   
 34  17  40  1   
 35  18  19  ar  
 36  18  20  ar  
 37  19  21  ar  
 38  19  41  1   
 39  20  22  ar  
 40  20  42  1   
 41  21  23  1   
 42  21  24  ar  
 43  22  24  ar  
 44  22  43  1   
 45  23  25  1   
 46  24  44  1   
 47  25  45  1   
 48  25  46  1   
 49  25  47  1   
@<TRIPOS>SUBSTRUCTURE
  1 ****  12 GROUP 4 **** **** 0

# MOE 2024.06 (io_trps.svl 2023.06)
