@<TRIPOS>MOLECULE
NONAME
48 50 1 0 0 
SMALL
USER_CHARGES


@<TRIPOS>ATOM
  1 S       -0.2480    -0.2050    -0.1550 S.o2  1 <1>   1.3330 
  2 O       -1.3560    -1.0250     0.2610 O.2   1 <1>  -0.6500 
  3 O        0.8610    -0.7560    -0.8920 O.2   1 <1>  -0.6500 
  4 N       -0.8460     1.0320    -1.1780 N.am  1 <1>  -0.7570 
  5 C        0.3900     0.7200     1.2250 C.3   1 <1>  -0.1350 
  6 C       -1.9750     1.8410    -1.0390 C.ar  1 <1>   0.1990 
  7 C       -2.8300     1.7660     0.0440 C.ar  1 <1>  -0.1500 
  8 C       -2.2350     2.7790    -2.0530 C.ar  1 <1>  -0.1500 
  9 C       -3.9200     2.6280     0.1230 C.ar  1 <1>   0.2270 
 10 C       -3.3150     3.6290    -1.9880 C.ar  1 <1>  -0.1500 
 11 N       -4.8680     2.7220     1.0940 N.2   1 <1>  -0.5650 
 12 C       -4.1600     3.5450    -0.8800 C.ar  1 <1>  -0.1520 
 13 C       -5.6560     3.6580     0.6840 C.2   1 <1>   0.0060 
 14 N       -5.2870     4.2120    -0.5050 N.pl3 1 <1>   0.0480 
 15 C       -6.9030     4.0960     1.4430 C.3   1 <1>   0.2900 
 16 C       -5.9900     5.2450    -1.2910 C.3   1 <1>   0.0160 
 17 N       -8.1250     3.9350     0.6260 N.3   1 <1>  -0.8100 
 18 C       -8.3430     2.5050     0.3020 C.3   1 <1>   0.1100 
 19 C       -9.3020     4.4750     1.3380 C.3   1 <1>   0.1100 
 20 C       -9.6050     2.2960    -0.5500 C.3   1 <1>   0.1400 
 21 C      -10.5870     4.3240     0.5070 C.3   1 <1>   0.1400 
 22 N      -10.8000     2.8980     0.1160 N.am  1 <1>  -0.6600 
 23 C      -11.9660     2.2440     0.4110 C.2   1 <1>   0.5690 
 24 O      -12.8730     2.7800     1.0000 O.2   1 <1>  -0.5700 
 25 C      -12.1630     0.8020     0.0040 C.3   1 <1>  -0.1790 
 26 H       -0.3660     1.0070    -2.0720 H     1 <1>   0.4200 
 27 H        0.8380     0.0550     1.9360 H     1 <1>   0.0800 
 28 H       -0.4000     1.2590     1.7090 H     1 <1>   0.0800 
 29 H        1.1320     1.4180     0.8910 H     1 <1>   0.0800 
 30 H       -2.6990     1.0590     0.8380 H     1 <1>   0.1500 
 31 H       -1.5700     2.8280    -2.8940 H     1 <1>   0.1500 
 32 H       -3.5110     4.3430    -2.7680 H     1 <1>   0.1500 
 33 H       -6.7890     5.1290     1.7220 H     1 <1>   0.0800 
 34 H       -6.9880     3.5150     2.3460 H     1 <1>   0.0800 
 35 H       -5.2830     5.7900    -1.8880 H     1 <1>   0.0800 
 36 H       -6.4950     5.9230    -0.6290 H     1 <1>   0.0800 
 37 H       -6.7130     4.7670    -1.9270 H     1 <1>   0.0800 
 38 H       -8.4330     1.9330     1.2100 H     1 <1>   0.0800 
 39 H       -7.4980     2.1210    -0.2450 H     1 <1>   0.0800 
 40 H       -9.1470     5.5200     1.5450 H     1 <1>   0.0800 
 41 H       -9.4340     3.9630     2.2760 H     1 <1>   0.0800 
 42 H       -9.7400     1.2440    -0.7170 H     1 <1>   0.0800 
 43 H       -9.4610     2.7680    -1.5060 H     1 <1>   0.0800 
 44 H      -10.5100     4.9250    -0.3810 H     1 <1>   0.0800 
 45 H      -11.4220     4.6880     1.0800 H     1 <1>   0.0800 
 46 H      -11.4540     0.1800     0.5160 H     1 <1>   0.0800 
 47 H      -12.0420     0.7030    -1.0580 H     1 <1>   0.0800 
 48 H      -13.1540     0.4850     0.2680 H     1 <1>   0.0800 
@<TRIPOS>BOND
  1   1   2  2   
  2   1   3  2   
  3   1   4  am  
  4   1   5  1   
  5   4   6  1   
  6   4  26  1   
  7   5  27  1   
  8   5  28  1   
  9   5  29  1   
 10   6   7  ar  
 11   6   8  ar  
 12   7   9  ar  
 13   7  30  1   
 14   8  10  ar  
 15   8  31  1   
 16   9  11  1   
 17   9  12  ar  
 18  10  12  ar  
 19  10  32  1   
 20  11  13  2   
 21  12  14  1   
 22  13  14  1   
 23  13  15  1   
 24  14  16  1   
 25  15  17  1   
 26  15  33  1   
 27  15  34  1   
 28  16  35  1   
 29  16  36  1   
 30  16  37  1   
 31  17  18  1   
 32  17  19  1   
 33  18  20  1   
 34  18  38  1   
 35  18  39  1   
 36  19  21  1   
 37  19  40  1   
 38  19  41  1   
 39  20  22  1   
 40  20  42  1   
 41  20  43  1   
 42  21  22  1   
 43  21  44  1   
 44  21  45  1   
 45  22  23  am  
 46  23  24  2   
 47  23  25  1   
 48  25  46  1   
 49  25  47  1   
 50  25  48  1   
@<TRIPOS>SUBSTRUCTURE
  1 ****  13 GROUP 4 **** **** 0

# MOE 2024.06 (io_trps.svl 2023.06)
