@<TRIPOS>MOLECULE
NONAME
49 50 1 0 0 
SMALL
USER_CHARGES


@<TRIPOS>ATOM
  1 O        2.5050    -5.8350     0.3820 O.3   1 <1>  -0.3630 
  2 C        1.1560    -5.8870     0.2470 C.ar  1 <1>   0.0830 
  3 C        3.2330    -4.6920     0.0010 C.3   1 <1>   0.1200 
  4 C        0.3830    -4.8480    -0.2570 C.ar  1 <1>  -0.1500 
  5 C        0.5320    -7.0560     0.6410 C.ar  1 <1>  -0.1500 
  6 C        4.7130    -4.9640     0.2710 C.3   1 <1>  -0.1600 
  7 C       -0.9910    -4.9890    -0.3610 C.ar  1 <1>  -0.1500 
  8 C       -0.8410    -7.1900     0.5340 C.ar  1 <1>  -0.1500 
  9 C        5.5760    -3.7810    -0.1750 C.3   1 <1>   0.1100 
 10 C       -1.6320    -6.1620     0.0310 C.ar  1 <1>  -0.1430 
 11 N        6.9720    -3.9560     0.2640 N.3   1 <1>  -0.8100 
 12 C       -3.1610    -6.3600    -0.0680 C.3   1 <1>   0.1430 
 13 C        7.6910    -4.9950    -0.5060 C.3   1 <1>   0.1100 
 14 C        7.6970    -2.6700     0.2540 C.3   1 <1>   0.1100 
 15 C       -3.4660    -7.5550    -0.9850 C.3   1 <1>  -0.2400 
 16 C       -3.8960    -5.1370    -0.6420 C.3   1 <1>  -0.2400 
 17 C       -3.7360    -6.6300     1.3300 C.3   1 <1>  -0.2400 
 18 C        9.1260    -5.1880     0.0230 C.3   1 <1>   0.3430 
 19 C        9.1310    -2.8330     0.7970 C.3   1 <1>   0.3430 
 20 N        9.8850    -3.8940     0.0500 N.4   1 <1>  -0.9060 
 21 H        2.8830    -3.8580     0.5850 H     1 <1>   0.0800 
 22 H        3.0600    -4.5170    -1.0460 H     1 <1>   0.0800 
 23 H        0.8270    -3.9250    -0.5730 H     1 <1>   0.1500 
 24 H        1.1270    -7.8610     1.0320 H     1 <1>   0.1500 
 25 H        4.9920    -5.8520    -0.2640 H     1 <1>   0.0800 
 26 H        4.8470    -5.1240     1.3270 H     1 <1>   0.0800 
 27 H       -1.5420    -4.1570    -0.7570 H     1 <1>   0.1500 
 28 H       -1.2880    -8.1150     0.8510 H     1 <1>   0.1500 
 29 H        5.1750    -2.8880     0.2780 H     1 <1>   0.0800 
 30 H        5.5300    -3.6630    -1.2450 H     1 <1>   0.0800 
 31 H        7.7170    -4.7310    -1.5500 H     1 <1>   0.0800 
 32 H        7.1760    -5.9350    -0.4170 H     1 <1>   0.0800 
 33 H        7.1750    -1.9650     0.8790 H     1 <1>   0.0800 
 34 H        7.7260    -2.2690    -0.7450 H     1 <1>   0.0800 
 35 H       -3.0360    -7.3900    -1.9570 H     1 <1>   0.0800 
 36 H       -4.5270    -7.6880    -1.0970 H     1 <1>   0.0800 
 37 H       -3.0560    -8.4640    -0.5860 H     1 <1>   0.0800 
 38 H       -3.5480    -4.9200    -1.6370 H     1 <1>   0.0800 
 39 H       -3.7380    -4.2750    -0.0190 H     1 <1>   0.0800 
 40 H       -4.9550    -5.3200    -0.6930 H     1 <1>   0.0800 
 41 H       -3.3290    -7.5310     1.7500 H     1 <1>   0.0800 
 42 H       -4.8060    -6.7360     1.2890 H     1 <1>   0.0800 
 43 H       -3.4980    -5.8140     1.9890 H     1 <1>   0.0800 
 44 H        9.6410    -5.9070    -0.5930 H     1 <1>   0.0800 
 45 H        9.0630    -5.5920     1.0210 H     1 <1>   0.0800 
 46 H        9.0670    -3.1010     1.8400 H     1 <1>   0.0800 
 47 H        9.6490    -1.8910     0.7270 H     1 <1>   0.0800 
 48 H       10.0350    -3.5780    -0.9140 H     1 <1>   0.4500 
 49 H       10.8070    -4.0370     0.4800 H     1 <1>   0.4500 
@<TRIPOS>BOND
  1   1   2  1   
  2   1   3  1   
  3   2   4  ar  
  4   2   5  ar  
  5   3   6  1   
  6   3  21  1   
  7   3  22  1   
  8   4   7  ar  
  9   4  23  1   
 10   5   8  ar  
 11   5  24  1   
 12   6   9  1   
 13   6  25  1   
 14   6  26  1   
 15   7  10  ar  
 16   7  27  1   
 17   8  10  ar  
 18   8  28  1   
 19   9  11  1   
 20   9  29  1   
 21   9  30  1   
 22  10  12  1   
 23  11  13  1   
 24  11  14  1   
 25  12  15  1   
 26  12  16  1   
 27  12  17  1   
 28  13  18  1   
 29  13  31  1   
 30  13  32  1   
 31  14  19  1   
 32  14  33  1   
 33  14  34  1   
 34  15  35  1   
 35  15  36  1   
 36  15  37  1   
 37  16  38  1   
 38  16  39  1   
 39  16  40  1   
 40  17  41  1   
 41  17  42  1   
 42  17  43  1   
 43  18  20  1   
 44  18  44  1   
 45  18  45  1   
 46  19  20  1   
 47  19  46  1   
 48  19  47  1   
 49  20  48  1   
 50  20  49  1   
@<TRIPOS>SUBSTRUCTURE
  1 ****   1 GROUP 4 **** **** 0

# MOE 2024.06 (io_trps.svl 2023.06)
