@<TRIPOS>MOLECULE
NONAME
41 42 1 0 0 
SMALL
USER_CHARGES


@<TRIPOS>ATOM
  1 S       -0.3870    -0.1380     0.0140 S.3   1 <1>  -0.3610 
  2 C        0.7320    -1.4860     0.2270 C.cat 1 <1>   0.8400 
  3 C       -1.7700    -0.2570     1.2610 C.3   1 <1>   0.2110 
  4 N        0.3310    -2.5480     0.8800 N.pl3 1 <1>  -0.7940 
  5 N        1.9240    -1.3640    -0.3090 N.pl3 1 <1>  -0.7940 
  6 C       -2.7230    -1.3880     0.9250 C.2   1 <1>   0.5690 
  7 C       -2.6400     0.9970     1.1310 C.3   1 <1>  -0.0990 
  8 C        1.0520    -3.7910     1.2110 C.3   1 <1>   0.3290 
  9 C        2.4840    -0.2210    -1.0620 C.3   1 <1>   0.3290 
 10 O       -2.4080    -2.5430     1.0870 O.2   1 <1>  -0.5700 
 11 N       -3.9200    -0.9100     0.4690 N.am  1 <1>  -0.2370 
 12 C       -3.9210     0.4600     0.5370 C.2   1 <1>   0.5690 
 13 C        0.3950    -4.9350     0.4520 C.3   1 <1>  -0.2400 
 14 C        3.9830    -0.1660    -0.7970 C.3   1 <1>  -0.2400 
 15 C       -4.9830    -1.7070    -0.0140 C.ar  1 <1>   0.1170 
 16 O       -4.8030     1.1960     0.1840 O.2   1 <1>  -0.5700 
 17 C       -5.5970    -1.4140    -1.2280 C.ar  1 <1>  -0.1500 
 18 C       -5.4390    -2.8050     0.7100 C.ar  1 <1>  -0.1500 
 19 C       -6.6300    -2.1980    -1.7080 C.ar  1 <1>  -0.1500 
 20 C       -6.4720    -3.5910     0.2320 C.ar  1 <1>  -0.1500 
 21 C       -7.0680    -3.2890    -0.9790 C.ar  1 <1>  -0.1500 
 22 H       -1.3380    -0.3620     2.2400 H     1 <1>   0.0800 
 23 H       -0.6670    -2.6280     1.1300 H     1 <1>   0.4500 
 24 H        2.5750    -2.1430    -0.2440 H     1 <1>   0.4500 
 25 H       -2.2110     1.7450     0.4890 H     1 <1>   0.0800 
 26 H       -2.8530     1.4220     2.0950 H     1 <1>   0.0800 
 27 H        0.9860    -3.9720     2.2720 H     1 <1>   0.0800 
 28 H        2.0920    -3.7190     0.9440 H     1 <1>   0.0800 
 29 H        2.0330     0.7080    -0.7520 H     1 <1>   0.0800 
 30 H        2.3020    -0.3570    -2.1160 H     1 <1>   0.0800 
 31 H       -0.6390    -5.0340     0.7350 H     1 <1>   0.0800 
 32 H        0.8950    -5.8580     0.6830 H     1 <1>   0.0800 
 33 H        0.4580    -4.7730    -0.6100 H     1 <1>   0.0800 
 34 H        4.1780    -0.0280     0.2520 H     1 <1>   0.0800 
 35 H        4.4080     0.6680    -1.3280 H     1 <1>   0.0800 
 36 H        4.4670    -1.0620    -1.1430 H     1 <1>   0.0800 
 37 H       -5.2720    -0.5640    -1.8020 H     1 <1>   0.1500 
 38 H       -4.9860    -3.0540     1.6530 H     1 <1>   0.1500 
 39 H       -7.0960    -1.9580    -2.6490 H     1 <1>   0.1500 
 40 H       -6.8140    -4.4390     0.8010 H     1 <1>   0.1500 
 41 H       -7.8720    -3.9000    -1.3520 H     1 <1>   0.1500 
@<TRIPOS>BOND
  1   1   2  1   
  2   1   3  1   
  3   2   4  ar  
  4   2   5  ar  
  5   3   6  1   
  6   3   7  1   
  7   3  22  1   
  8   4   8  1   
  9   4  23  1   
 10   5   9  1   
 11   5  24  1   
 12   6  10  2   
 13   6  11  am  
 14   7  12  1   
 15   7  25  1   
 16   7  26  1   
 17   8  13  1   
 18   8  27  1   
 19   8  28  1   
 20   9  14  1   
 21   9  29  1   
 22   9  30  1   
 23  11  12  am  
 24  11  15  1   
 25  12  16  2   
 26  13  31  1   
 27  13  32  1   
 28  13  33  1   
 29  14  34  1   
 30  14  35  1   
 31  14  36  1   
 32  15  17  ar  
 33  15  18  ar  
 34  17  19  ar  
 35  17  37  1   
 36  18  20  ar  
 37  18  38  1   
 38  19  21  ar  
 39  19  39  1   
 40  20  21  ar  
 41  20  40  1   
 42  21  41  1   
@<TRIPOS>SUBSTRUCTURE
  1 ****   6 GROUP 4 **** **** 0

# MOE 2024.06 (io_trps.svl 2023.06)
