@<TRIPOS>MOLECULE
NONAME
39 39 1 0 0 
SMALL
USER_CHARGES


@<TRIPOS>ATOM
  1 S        0.0710    -0.2120     0.1550 S.3   1 <1>  -0.0800 
  2 C        0.1190     1.5320     0.0070 C.2   1 <1>   0.4620 
  3 C       -1.6810    -0.1930     0.0590 C.2   1 <1>  -0.1400 
  4 N       -1.0450     2.0520    -0.1000 N.2   1 <1>  -0.5650 
  5 N        1.3270     2.2030     0.0130 N.pl3 1 <1>  -0.8220 
  6 C       -2.0510     1.1020    -0.0730 C.2   1 <1>   0.0460 
  7 C       -2.3470    -1.5820     0.1420 C.3   1 <1>   0.1800 
  8 C        1.3360     3.6850    -0.1460 C.3   1 <1>   0.2090 
  9 C        2.6420     1.5170     0.1490 C.3   1 <1>   0.2090 
 10 C       -3.4270     1.7310    -0.2010 C.3   1 <1>  -0.0590 
 11 C       -1.9870    -2.2480     1.4790 C.3   1 <1>  -0.2400 
 12 C       -1.8510    -2.4640    -1.0140 C.3   1 <1>  -0.2400 
 13 C       -3.8760    -1.5240     0.0540 C.3   1 <1>  -0.2400 
 14 C        0.9990     4.3570     1.1850 C.3   1 <1>   0.0400 
 15 C        3.1340     1.0530    -1.2220 C.3   1 <1>   0.0400 
 16 C        1.1010     5.8310     1.0420 C.1   1 <1>   0.3570 
 17 C        4.4550     0.3890    -1.0810 C.1   1 <1>   0.3570 
 18 N        1.2040     6.9560     0.9170 N.1   1 <1>  -0.5570 
 19 N        5.4690    -0.1060    -0.9500 N.1   1 <1>  -0.5570 
 20 H        0.6070     3.9690    -0.8870 H     1 <1>   0.0800 
 21 H        2.3030     4.0110    -0.4910 H     1 <1>   0.0800 
 22 H        2.5500     0.6740     0.8130 H     1 <1>   0.0800 
 23 H        3.3580     2.1930     0.5860 H     1 <1>   0.0800 
 24 H       -4.2250     1.0240    -0.1890 H     1 <1>   0.0800 
 25 H       -3.4790     2.2790    -1.1250 H     1 <1>   0.0800 
 26 H       -3.5770     2.4210     0.6090 H     1 <1>   0.0800 
 27 H       -0.9300    -2.4240     1.5550 H     1 <1>   0.0800 
 28 H       -2.4870    -3.1950     1.5780 H     1 <1>   0.0800 
 29 H       -2.2840    -1.6170     2.2980 H     1 <1>   0.0800 
 30 H       -2.3450    -3.4200    -1.0010 H     1 <1>   0.0800 
 31 H       -0.7930    -2.6400    -0.9440 H     1 <1>   0.0800 
 32 H       -2.0530    -1.9860    -1.9560 H     1 <1>   0.0800 
 33 H       -4.2950    -2.5130     0.1170 H     1 <1>   0.0800 
 34 H       -4.1810    -1.0970    -0.8840 H     1 <1>   0.0800 
 35 H       -4.2770    -0.9450     0.8650 H     1 <1>   0.0800 
 36 H        1.6840     4.0330     1.9450 H     1 <1>   0.0800 
 37 H       -0.0030     4.1050     1.4800 H     1 <1>   0.0800 
 38 H        3.2370     1.8940    -1.8810 H     1 <1>   0.0800 
 39 H        2.4390     0.3540    -1.6470 H     1 <1>   0.0800 
@<TRIPOS>BOND
  1   1   2  1   
  2   1   3  1   
  3   2   4  2   
  4   2   5  1   
  5   3   6  2   
  6   3   7  1   
  7   4   6  1   
  8   5   8  1   
  9   5   9  1   
 10   6  10  1   
 11   7  11  1   
 12   7  12  1   
 13   7  13  1   
 14   8  14  1   
 15   8  20  1   
 16   8  21  1   
 17   9  15  1   
 18   9  22  1   
 19   9  23  1   
 20  10  24  1   
 21  10  25  1   
 22  10  26  1   
 23  11  27  1   
 24  11  28  1   
 25  11  29  1   
 26  12  30  1   
 27  12  31  1   
 28  12  32  1   
 29  13  33  1   
 30  13  34  1   
 31  13  35  1   
 32  14  16  1   
 33  14  36  1   
 34  14  37  1   
 35  15  17  1   
 36  15  38  1   
 37  15  39  1   
 38  16  18  3   
 39  17  19  3   
@<TRIPOS>SUBSTRUCTURE
  1 ****   2 GROUP 4 **** **** 0

# MOE 2024.06 (io_trps.svl 2023.06)
