@<TRIPOS>MOLECULE
NONAME
34 35 1 0 0 
SMALL
USER_CHARGES


@<TRIPOS>ATOM
  1 CL      -2.3710    -2.5970     0.3540 Cl    1 <1>  -0.1770 
  2 C       -0.8280    -3.2830     0.8060 C.ar  1 <1>   0.1770 
  3 C       -0.6500    -3.8690     2.0500 C.ar  1 <1>   0.1770 
  4 C        0.2120    -3.2300    -0.1010 C.ar  1 <1>  -0.1500 
  5 CL      -1.9630    -3.9410     3.2050 Cl    1 <1>  -0.1770 
  6 C        0.5760    -4.4090     2.3940 C.ar  1 <1>  -0.1500 
  7 C        1.4480    -3.7720     0.2300 C.ar  1 <1>   0.1990 
  8 C        1.6180    -4.3570     1.4840 C.ar  1 <1>  -0.1500 
  9 N        2.4940    -3.7120    -0.6810 N.am  1 <1>  -0.6930 
 10 S        3.0590    -5.1410    -1.4800 S.o2  1 <1>   1.3330 
 11 C        3.4920    -2.6090    -0.4920 C.3   1 <1>   0.2570 
 12 O        4.2980    -4.7780    -2.1270 O.2   1 <1>  -0.6500 
 13 O        3.0320    -6.2180    -0.5250 O.2   1 <1>  -0.6500 
 14 C        1.8130    -5.3960    -2.7240 C.3   1 <1>  -0.1350 
 15 C        4.5810    -2.9230     0.5380 C.2   1 <1>   0.5690 
 16 O        4.5340    -2.3720     1.6140 O.2   1 <1>  -0.5700 
 17 N        5.5620    -3.8090     0.2160 N.am  1 <1>  -0.5790 
 18 C        6.6140    -4.2970     1.1130 C.3   1 <1>   0.0490 
 19 C        7.8520    -4.8590     0.4970 C.3   1 <1>  -0.2000 
 20 C        6.8560    -5.7690     1.1520 C.3   1 <1>  -0.2000 
 21 H        0.0640    -2.7690    -1.0590 H     1 <1>   0.1500 
 22 H        0.7120    -4.8620     3.3610 H     1 <1>   0.1500 
 23 H        2.5770    -4.7750     1.7440 H     1 <1>   0.1500 
 24 H        2.9740    -1.7250    -0.1660 H     1 <1>   0.0800 
 25 H        3.9590    -2.3800    -1.4330 H     1 <1>   0.0800 
 26 H        1.7480    -4.5410    -3.3670 H     1 <1>   0.0800 
 27 H        0.8580    -5.5580    -2.2630 H     1 <1>   0.0800 
 28 H        2.0570    -6.2560    -3.3160 H     1 <1>   0.0800 
 29 H        5.5120    -4.2910    -0.6930 H     1 <1>   0.3700 
 30 H        6.6920    -3.7360     2.0320 H     1 <1>   0.1000 
 31 H        8.7930    -4.6970     0.9920 H     1 <1>   0.1000 
 32 H        7.9420    -4.8710    -0.5740 H     1 <1>   0.1000 
 33 H        6.2390    -6.4060     0.5410 H     1 <1>   0.1000 
 34 H        7.1190    -6.2230     2.0900 H     1 <1>   0.1000 
@<TRIPOS>BOND
  1   1   2  1   
  2   2   3  ar  
  3   2   4  ar  
  4   3   5  1   
  5   3   6  ar  
  6   4   7  ar  
  7   4  21  1   
  8   6   8  ar  
  9   6  22  1   
 10   7   8  ar  
 11   7   9  1   
 12   8  23  1   
 13   9  10  am  
 14   9  11  1   
 15  10  12  2   
 16  10  13  2   
 17  10  14  1   
 18  11  15  1   
 19  11  24  1   
 20  11  25  1   
 21  14  26  1   
 22  14  27  1   
 23  14  28  1   
 24  15  16  2   
 25  15  17  am  
 26  17  18  1   
 27  17  29  1   
 28  18  19  1   
 29  18  20  1   
 30  18  30  1   
 31  19  20  1   
 32  19  31  1   
 33  19  32  1   
 34  20  33  1   
 35  20  34  1   
@<TRIPOS>SUBSTRUCTURE
  1 ****   9 GROUP 4 **** **** 0

# MOE 2024.06 (io_trps.svl 2023.06)
