@<TRIPOS>MOLECULE
NONAME
47 50 1 0 0 
SMALL
USER_CHARGES


@<TRIPOS>ATOM
  1 S        0.0690     1.4530    -0.8430 S.3   1 <1>  -0.2860 
  2 C       -1.1010     1.5940     0.5140 C.2   1 <1>   0.2420 
  3 C        1.6890     1.7740    -0.0050 C.3   1 <1>   0.1310 
  4 N       -1.0820     2.5340     1.3740 N.2   1 <1>  -0.3380 
  5 N       -2.0780     0.7260     0.7380 N.pl3 1 <1>   0.5930 
  6 C        2.1880     0.4590     0.5630 C.2   1 <1>   0.5690 
  7 N       -2.1070     2.2620     2.1780 N.2   1 <1>   0.0000 
  8 N       -2.7120     1.1870     1.8100 N.2   1 <1>  -0.4180 
  9 C       -2.3490    -0.5060     0.0970 C.ar  1 <1>  -0.0230 
 10 O        2.2160     0.3070     1.7600 O.2   1 <1>  -0.5700 
 11 N        2.5660    -0.5160    -0.3030 N.am  1 <1>  -0.7300 
 12 C       -1.6690    -1.6810     0.5200 C.ar  1 <1>   0.0000 
 13 C       -3.2640    -0.5610    -0.9280 C.ar  1 <1>  -0.1500 
 14 C        2.9490    -1.8830     0.0730 C.3   1 <1>   0.2200 
 15 C       -1.9670    -2.9010    -0.1290 C.ar  1 <1>   0.0000 
 16 C       -0.7110    -1.7050     1.5610 C.ar  1 <1>  -0.1500 
 17 C       -3.5430    -1.7680    -1.5720 C.ar  1 <1>  -0.1500 
 18 C        4.4740    -2.0130     0.0030 C.3   1 <1>  -0.1600 
 19 C        2.2650    -2.8630    -0.8860 C.3   1 <1>  -0.1600 
 20 C       -2.9060    -2.9110    -1.1780 C.ar  1 <1>  -0.1500 
 21 C       -1.3210    -4.0810     0.2940 C.ar  1 <1>  -0.1500 
 22 C       -0.0990    -2.8640     1.9490 C.ar  1 <1>  -0.1500 
 23 C        4.9210    -3.4560     0.2800 C.3   1 <1>  -0.1600 
 24 C        2.7040    -4.3070    -0.6050 C.3   1 <1>  -0.1600 
 25 C       -0.4100    -4.0690     1.3120 C.ar  1 <1>  -0.1500 
 26 C        4.2310    -4.4450    -0.6700 C.3   1 <1>  -0.1600 
 27 H        1.5290     2.4980     0.7720 H     1 <1>   0.0800 
 28 H        2.3680     2.1590    -0.7420 H     1 <1>   0.0800 
 29 H        2.4720    -0.3660    -1.3080 H     1 <1>   0.3700 
 30 H       -3.7850     0.3250    -1.2510 H     1 <1>   0.1500 
 31 H        2.6230    -2.0860     1.0800 H     1 <1>   0.0800 
 32 H       -0.4470    -0.7960     2.0740 H     1 <1>   0.1500 
 33 H       -4.2620    -1.7840    -2.3730 H     1 <1>   0.1500 
 34 H        4.9180    -1.3570     0.7320 H     1 <1>   0.0800 
 35 H        4.8160    -1.7210    -0.9740 H     1 <1>   0.0800 
 36 H        2.5210    -2.6140    -1.9010 H     1 <1>   0.0800 
 37 H        1.1980    -2.7850    -0.7750 H     1 <1>   0.0800 
 38 H       -3.1190    -3.8440    -1.6670 H     1 <1>   0.1500 
 39 H       -1.5630    -5.0040    -0.2020 H     1 <1>   0.1500 
 40 H        0.6270    -2.8610     2.7450 H     1 <1>   0.1500 
 41 H        4.6780    -3.7130     1.2980 H     1 <1>   0.0800 
 42 H        5.9890    -3.5320     0.1680 H     1 <1>   0.0800 
 43 H        2.2490    -4.9690    -1.3230 H     1 <1>   0.0800 
 44 H        2.3630    -4.5980     0.3740 H     1 <1>   0.0800 
 45 H        0.0770    -4.9730     1.6340 H     1 <1>   0.1500 
 46 H        4.5130    -5.4500    -0.4110 H     1 <1>   0.0800 
 47 H        4.5630    -4.2600    -1.6780 H     1 <1>   0.0800 
@<TRIPOS>BOND
  1   1   2  1   
  2   1   3  1   
  3   2   4  2   
  4   2   5  1   
  5   3   6  1   
  6   3  27  1   
  7   3  28  1   
  8   4   7  1   
  9   5   8  1   
 10   5   9  1   
 11   6  10  2   
 12   6  11  am  
 13   7   8  2   
 14   9  12  ar  
 15   9  13  ar  
 16  11  14  1   
 17  11  29  1   
 18  12  15  ar  
 19  12  16  ar  
 20  13  17  ar  
 21  13  30  1   
 22  14  18  1   
 23  14  19  1   
 24  14  31  1   
 25  15  20  ar  
 26  15  21  ar  
 27  16  22  ar  
 28  16  32  1   
 29  17  20  ar  
 30  17  33  1   
 31  18  23  1   
 32  18  34  1   
 33  18  35  1   
 34  19  24  1   
 35  19  36  1   
 36  19  37  1   
 37  20  38  1   
 38  21  25  ar  
 39  21  39  1   
 40  22  25  ar  
 41  22  40  1   
 42  23  26  1   
 43  23  41  1   
 44  23  42  1   
 45  24  26  1   
 46  24  43  1   
 47  24  44  1   
 48  25  45  1   
 49  26  46  1   
 50  26  47  1   
@<TRIPOS>SUBSTRUCTURE
  1 ****  16 GROUP 4 **** **** 0

# MOE 2024.06 (io_trps.svl 2023.06)
