@<TRIPOS>MOLECULE
NONAME
29 30 1 0 0 
SMALL
USER_CHARGES


@<TRIPOS>ATOM
  1 O        0.1880     0.3060    -0.3670 O.2   1 <1>  -0.5700 
  2 C       -0.0260     1.4730    -0.0970 C.2   1 <1>   0.6900 
  3 N        1.0210     2.3590     0.0320 N.am  1 <1>  -0.6600 
  4 N       -1.3000     1.9340     0.0790 N.am  1 <1>  -0.5470 
  5 C        2.4330     1.8810     0.0420 C.3   1 <1>   0.0600 
  6 C        0.8680     3.8370     0.1070 C.3   1 <1>   0.0600 
  7 C       -2.5500     1.2940     0.0170 C.ar  1 <1>   0.1170 
  8 C       -3.6700     2.0450    -0.2830 C.ar  1 <1>  -0.1500 
  9 C       -2.7030    -0.0840     0.2700 C.ar  1 <1>  -0.1500 
 10 C       -4.9220     1.4340    -0.3380 C.ar  1 <1>   0.2270 
 11 C       -3.9350    -0.6930     0.2150 C.ar  1 <1>  -0.1500 
 12 N       -6.1450     1.9540    -0.6080 N.2   1 <1>  -0.2270 
 13 C       -5.0480     0.0930    -0.0960 C.ar  1 <1>  -0.1520 
 14 N       -7.0070     1.0080    -0.5450 N.2   1 <1>  -0.4180 
 15 N       -6.3740    -0.1340    -0.2380 N.pl3 1 <1>   0.3140 
 16 C       -7.0670    -1.4190    -0.0930 C.3   1 <1>   0.0160 
 17 H       -1.3310     2.9310     0.2500 H     1 <1>   0.3700 
 18 H        2.4760     0.8150     0.1880 H     1 <1>   0.0800 
 19 H        2.9740     2.3540     0.8430 H     1 <1>   0.0800 
 20 H        2.9020     2.1200    -0.8960 H     1 <1>   0.0800 
 21 H        0.0070     4.1590    -0.4530 H     1 <1>   0.0800 
 22 H        1.7360     4.3190    -0.3100 H     1 <1>   0.0800 
 23 H        0.7620     4.1380     1.1350 H     1 <1>   0.0800 
 24 H       -3.6080     3.0960    -0.4830 H     1 <1>   0.1500 
 25 H       -1.8350    -0.6700     0.5140 H     1 <1>   0.1500 
 26 H       -4.0420    -1.7460     0.4060 H     1 <1>   0.1500 
 27 H       -6.6680    -2.1170    -0.8040 H     1 <1>   0.0800 
 28 H       -8.1170    -1.2780    -0.2750 H     1 <1>   0.0800 
 29 H       -6.9210    -1.7880     0.9050 H     1 <1>   0.0800 
@<TRIPOS>BOND
  1   1   2  2   
  2   2   3  am  
  3   2   4  am  
  4   3   5  1   
  5   3   6  1   
  6   4   7  1   
  7   4  17  1   
  8   5  18  1   
  9   5  19  1   
 10   5  20  1   
 11   6  21  1   
 12   6  22  1   
 13   6  23  1   
 14   7   8  ar  
 15   7   9  ar  
 16   8  10  ar  
 17   8  24  1   
 18   9  11  ar  
 19   9  25  1   
 20  10  12  1   
 21  10  13  ar  
 22  11  13  ar  
 23  11  26  1   
 24  12  14  2   
 25  13  15  1   
 26  14  15  1   
 27  15  16  1   
 28  16  27  1   
 29  16  28  1   
 30  16  29  1   
@<TRIPOS>SUBSTRUCTURE
  1 ****   7 GROUP 4 **** **** 0

# MOE 2024.06 (io_trps.svl 2023.06)
