@<TRIPOS>MOLECULE
NONAME
40 40 1 0 0 
SMALL
USER_CHARGES


@<TRIPOS>ATOM
  1 O       -0.7590    -1.3560    -1.1610 O.2   1 <1>  -0.5700 
  2 C       -1.2140    -1.3080    -0.0460 C.2   1 <1>   0.5690 
  3 N       -2.2150    -2.1140     0.3700 N.am  1 <1>  -0.7300 
  4 C       -0.6550    -0.3120     0.9350 C.3   1 <1>  -0.1790 
  5 C       -2.9470    -3.0520    -0.4940 C.3   1 <1>   0.3640 
  6 C       -4.4360    -2.8830    -0.2080 C.ar  1 <1>  -0.1430 
  7 C       -2.4760    -4.4950    -0.2440 C.3   1 <1>  -0.1600 
  8 C       -5.2670    -2.3690    -1.1910 C.ar  1 <1>  -0.1500 
  9 C       -4.9880    -3.2220     1.0200 C.ar  1 <1>  -0.1500 
 10 C       -1.0100    -4.7360    -0.6380 C.3   1 <1>  -0.2400 
 11 C       -6.6210    -2.2040    -0.9560 C.ar  1 <1>  -0.1500 
 12 C       -6.3420    -3.0570     1.2540 C.ar  1 <1>  -0.1500 
 13 C       -7.1740    -2.5470     0.2690 C.ar  1 <1>  -0.1430 
 14 C       -8.6670    -2.3720     0.5430 C.3   1 <1>   0.0630 
 15 C       -9.4890    -3.2810    -0.3910 C.3   1 <1>  -0.1600 
 16 C       -9.0590    -0.8930     0.4220 C.3   1 <1>  -0.2400 
 17 C      -10.9860    -3.3170    -0.0530 C.3   1 <1>  -0.2400 
 18 H       -2.6390    -1.9800     1.2850 H     1 <1>   0.3700 
 19 H       -1.4200     0.3860     1.2160 H     1 <1>   0.0800 
 20 H       -0.2950    -0.8240     1.8070 H     1 <1>   0.0800 
 21 H        0.1590     0.2240     0.4830 H     1 <1>   0.0800 
 22 H       -2.7550    -2.8050    -1.5250 H     1 <1>   0.0800 
 23 H       -3.0980    -5.1510    -0.8270 H     1 <1>   0.0800 
 24 H       -2.6130    -4.7530     0.7900 H     1 <1>   0.0800 
 25 H       -4.8640    -2.0910    -2.1500 H     1 <1>   0.1500 
 26 H       -4.3710    -3.6200     1.8050 H     1 <1>   0.1500 
 27 H       -0.8490    -4.4660    -1.6670 H     1 <1>   0.0800 
 28 H       -0.7580    -5.7740    -0.5100 H     1 <1>   0.0800 
 29 H       -0.3510    -4.1470    -0.0250 H     1 <1>   0.0800 
 30 H       -7.2430    -1.8040    -1.7360 H     1 <1>   0.1500 
 31 H       -6.7460    -3.3300     2.2130 H     1 <1>   0.1500 
 32 H       -8.8630    -2.6780     1.5570 H     1 <1>   0.0800 
 33 H       -9.0990    -4.2820    -0.3170 H     1 <1>   0.0800 
 34 H       -9.3650    -2.9620    -1.4110 H     1 <1>   0.0800 
 35 H       -8.9860    -0.5610    -0.5980 H     1 <1>   0.0800 
 36 H       -8.4010    -0.2930     1.0250 H     1 <1>   0.0800 
 37 H      -10.0650    -0.7360     0.7660 H     1 <1>   0.0800 
 38 H      -11.1350    -3.6070     0.9720 H     1 <1>   0.0800 
 39 H      -11.4840    -4.0320    -0.6840 H     1 <1>   0.0800 
 40 H      -11.4410    -2.3560    -0.2140 H     1 <1>   0.0800 
@<TRIPOS>BOND
  1   1   2  2   
  2   2   3  am  
  3   2   4  1   
  4   3   5  1   
  5   3  18  1   
  6   4  19  1   
  7   4  20  1   
  8   4  21  1   
  9   5   6  1   
 10   5   7  1   
 11   5  22  1   
 12   6   8  ar  
 13   6   9  ar  
 14   7  10  1   
 15   7  23  1   
 16   7  24  1   
 17   8  11  ar  
 18   8  25  1   
 19   9  12  ar  
 20   9  26  1   
 21  10  27  1   
 22  10  28  1   
 23  10  29  1   
 24  11  13  ar  
 25  11  30  1   
 26  12  13  ar  
 27  12  31  1   
 28  13  14  1   
 29  14  15  1   
 30  14  16  1   
 31  14  32  1   
 32  15  17  1   
 33  15  33  1   
 34  15  34  1   
 35  16  35  1   
 36  16  36  1   
 37  16  37  1   
 38  17  38  1   
 39  17  39  1   
 40  17  40  1   
@<TRIPOS>SUBSTRUCTURE
  1 ****   6 GROUP 4 **** **** 0

# MOE 2024.06 (io_trps.svl 2023.06)
