@<TRIPOS>MOLECULE
NONAME
42 43 1 0 0 
SMALL
USER_CHARGES


@<TRIPOS>ATOM
  1 O        0.9650    -0.3620     1.4500 O.3   1 <1>  -0.5600 
  2 C        0.5700    -1.5220     0.7640 C.3   1 <1>   0.2000 
  3 C        1.3510     0.7520     0.6900 C.3   1 <1>   0.2000 
  4 C        1.4470    -1.7810    -0.4900 C.3   1 <1>   0.3430 
  5 C        0.6770    -2.6630     1.7730 C.3   1 <1>  -0.2400 
  6 C        2.5570     0.4020    -0.2220 C.3   1 <1>   0.3430 
  7 C        0.1390     1.2950    -0.0770 C.3   1 <1>  -0.2400 
  8 N        2.7630    -1.0800    -0.3800 N.4   1 <1>  -0.9590 
  9 C        3.7210    -1.4420    -1.4470 C.3   1 <1>   0.4810 
 10 C        5.0900    -0.9460    -1.0240 C.2   1 <1>  -0.2760 
 11 C        5.8170    -1.5870    -0.0900 C.2   1 <1>  -0.1780 
 12 C        5.5610     0.2950    -1.7820 C.3   1 <1>  -0.1020 
 13 C        7.1180    -1.2460     0.4340 C.ar  1 <1>   0.0280 
 14 C        8.1440    -2.1860     0.4320 C.ar  1 <1>  -0.1500 
 15 C        7.3850     0.0100     0.9720 C.ar  1 <1>  -0.1500 
 16 C        9.3940    -1.8820     0.9380 C.ar  1 <1>  -0.1500 
 17 C        8.6340     0.3210     1.4790 C.ar  1 <1>  -0.1500 
 18 C        9.6420    -0.6260     1.4620 C.ar  1 <1>  -0.1500 
 19 H       -0.4610    -1.4070     0.4720 H     1 <1>   0.0800 
 20 H        1.6640     1.5070     1.3910 H     1 <1>   0.0800 
 21 H        0.9200    -1.4270    -1.3600 H     1 <1>   0.0800 
 22 H        1.5910    -2.8430    -0.6060 H     1 <1>   0.0800 
 23 H        1.6900    -2.7820     2.1120 H     1 <1>   0.0800 
 24 H        0.3470    -3.5880     1.3330 H     1 <1>   0.0800 
 25 H        0.0470    -2.4570     2.6220 H     1 <1>   0.0800 
 26 H        3.4460     0.8400     0.2000 H     1 <1>   0.0800 
 27 H        2.4030     0.8580    -1.1850 H     1 <1>   0.0800 
 28 H       -0.1860     0.6240    -0.8500 H     1 <1>   0.0800 
 29 H        0.3910     2.2350    -0.5360 H     1 <1>   0.0800 
 30 H       -0.6730     1.4720     0.6070 H     1 <1>   0.0800 
 31 H        3.1780    -1.3840     0.5120 H     1 <1>   0.4500 
 32 H        3.7560    -2.5140    -1.5520 H     1 <1>   0.0800 
 33 H        3.4300    -1.0130    -2.3920 H     1 <1>   0.0800 
 34 H        5.4380    -2.4890     0.3620 H     1 <1>   0.1500 
 35 H        5.5000     0.1290    -2.8440 H     1 <1>   0.0800 
 36 H        6.5880     0.5230    -1.5580 H     1 <1>   0.0800 
 37 H        4.9680     1.1560    -1.5330 H     1 <1>   0.0800 
 38 H        7.9630    -3.1650     0.0250 H     1 <1>   0.1500 
 39 H        6.6080     0.7510     0.9970 H     1 <1>   0.1500 
 40 H       10.1770    -2.6210     0.9250 H     1 <1>   0.1500 
 41 H        8.8250     1.2980     1.8890 H     1 <1>   0.1500 
 42 H       10.6150    -0.3880     1.8560 H     1 <1>   0.1500 
@<TRIPOS>BOND
  1   1   2  1   
  2   1   3  1   
  3   2   4  1   
  4   2   5  1   
  5   2  19  1   
  6   3   6  1   
  7   3   7  1   
  8   3  20  1   
  9   4   8  1   
 10   4  21  1   
 11   4  22  1   
 12   5  23  1   
 13   5  24  1   
 14   5  25  1   
 15   6   8  1   
 16   6  26  1   
 17   6  27  1   
 18   7  28  1   
 19   7  29  1   
 20   7  30  1   
 21   8   9  1   
 22   8  31  1   
 23   9  10  1   
 24   9  32  1   
 25   9  33  1   
 26  10  11  2   
 27  10  12  1   
 28  11  13  1   
 29  11  34  1   
 30  12  35  1   
 31  12  36  1   
 32  12  37  1   
 33  13  14  ar  
 34  13  15  ar  
 35  14  16  ar  
 36  14  38  1   
 37  15  17  ar  
 38  15  39  1   
 39  16  18  ar  
 40  16  40  1   
 41  17  18  ar  
 42  17  41  1   
 43  18  42  1   
@<TRIPOS>SUBSTRUCTURE
  1 ****  10 GROUP 4 **** **** 0

# MOE 2024.06 (io_trps.svl 2023.06)
