@<TRIPOS>MOLECULE
NONAME
30 30 1 0 0 
SMALL
USER_CHARGES


@<TRIPOS>ATOM
  1 CL       2.9750    -1.1220     1.4180 Cl    1 <1>  -0.1770 
  2 C        1.5340    -1.8350     0.7260 C.ar  1 <1>   0.1770 
  3 C        1.6160    -2.6650    -0.3920 C.ar  1 <1>   0.0830 
  4 C        0.3150    -1.5440     1.3080 C.ar  1 <1>  -0.1500 
  5 O        2.7960    -2.9640    -0.9820 O.3   1 <1>  -0.3630 
  6 C        0.4550    -3.1920    -0.9400 C.ar  1 <1>  -0.1500 
  7 C       -0.8280    -2.0880     0.7530 C.ar  1 <1>   0.1770 
  8 C        3.6780    -3.8420    -0.2880 C.3   1 <1>   0.2610 
  9 C       -0.7730    -2.9060    -0.3630 C.ar  1 <1>  -0.1500 
 10 CL      -2.3770    -1.7340     1.4750 Cl    1 <1>  -0.1770 
 11 C        5.0830    -3.2290    -0.1850 C.2   1 <1>   0.5690 
 12 C        3.6710    -5.1770    -1.0410 C.3   1 <1>  -0.2400 
 13 O        5.8880    -3.7320     0.5640 O.2   1 <1>  -0.5700 
 14 N        5.3940    -2.1260    -0.9200 N.am  1 <1>  -0.7300 
 15 C        6.6750    -1.3870    -0.8450 C.3   1 <1>   0.1400 
 16 C        6.5880    -0.3050     0.2330 C.3   1 <1>   0.1200 
 17 O        7.8060     0.3540     0.3230 O.3   1 <1>  -0.6800 
 18 H        0.2550    -0.9070     2.1710 H     1 <1>   0.1500 
 19 H        0.5170    -3.8210    -1.8110 H     1 <1>   0.1500 
 20 H        3.3070    -3.9910     0.7110 H     1 <1>   0.0800 
 21 H       -1.6820    -3.3090    -0.7740 H     1 <1>   0.1500 
 22 H        4.0320    -5.0390    -2.0440 H     1 <1>   0.0800 
 23 H        2.6790    -5.5880    -1.0640 H     1 <1>   0.0800 
 24 H        4.3190    -5.8750    -0.5400 H     1 <1>   0.0800 
 25 H        4.6470    -1.7020    -1.4780 H     1 <1>   0.3700 
 26 H        6.8840    -0.9390    -1.8000 H     1 <1>   0.0800 
 27 H        7.4650    -2.0770    -0.6000 H     1 <1>   0.0800 
 28 H        6.3650    -0.7370     1.1940 H     1 <1>   0.0800 
 29 H        5.8370     0.4230    -0.0220 H     1 <1>   0.0800 
 30 H        8.4820    -0.2330     0.7140 H     1 <1>   0.4000 
@<TRIPOS>BOND
  1   1   2  1   
  2   2   3  ar  
  3   2   4  ar  
  4   3   5  1   
  5   3   6  ar  
  6   4   7  ar  
  7   4  18  1   
  8   5   8  1   
  9   6   9  ar  
 10   6  19  1   
 11   7   9  ar  
 12   7  10  1   
 13   8  11  1   
 14   8  12  1   
 15   8  20  1   
 16   9  21  1   
 17  11  13  2   
 18  11  14  am  
 19  12  22  1   
 20  12  23  1   
 21  12  24  1   
 22  14  15  1   
 23  14  25  1   
 24  15  16  1   
 25  15  26  1   
 26  15  27  1   
 27  16  17  1   
 28  16  28  1   
 29  16  29  1   
 30  17  30  1   
@<TRIPOS>SUBSTRUCTURE
  1 ****   5 GROUP 4 **** **** 0

# MOE 2024.06 (io_trps.svl 2023.06)
