@<TRIPOS>MOLECULE
NONAME
38 39 1 0 0 
SMALL
USER_CHARGES


@<TRIPOS>ATOM
  1 CL       0.5060    -0.3350    -1.9670 Cl    1 <1>  -0.1770 
  2 C        1.2450    -1.6920    -1.1550 C.ar  1 <1>   0.1770 
  3 C        2.6160    -1.7360    -1.0240 C.ar  1 <1>  -0.1500 
  4 C        0.4420    -2.7000    -0.6580 C.ar  1 <1>  -0.1500 
  5 C        3.2170    -2.8110    -0.3800 C.ar  1 <1>   0.1000 
  6 C        1.0340    -3.7750    -0.0150 C.ar  1 <1>  -0.1500 
  7 N        4.6020    -2.8600    -0.2440 N.pl3 1 <1>  -0.8380 
  8 C        2.4120    -3.8350     0.1260 C.ar  1 <1>  -0.1430 
  9 C        5.3940    -3.0200    -1.4990 C.3   1 <1>   0.2090 
 10 C        5.2150    -1.8670     0.6860 C.3   1 <1>   0.2090 
 11 C        3.0440    -5.0250     0.8350 C.3   1 <1>  -0.0960 
 12 C        6.8810    -3.2910    -1.1980 C.3   1 <1>   0.1960 
 13 C        6.7000    -2.1890     0.9360 C.3   1 <1>   0.1960 
 14 N        7.4780    -2.2610    -0.3210 N.am  1 <1>  -0.8490 
 15 S        9.1240    -2.5540    -0.0530 S.o2  1 <1>   1.3330 
 16 O        9.2380    -3.3480     1.1500 O.2   1 <1>  -0.6500 
 17 O        9.6930    -3.0360    -1.2920 O.2   1 <1>  -0.6500 
 18 C        9.7730    -0.9040     0.2540 C.3   1 <1>  -0.0550 
 19 C       11.2870    -0.8570     0.5260 C.3   1 <1>  -0.2400 
 20 H        3.2150    -0.9390    -1.4190 H     1 <1>   0.1500 
 21 H       -0.6250    -2.6430    -0.7730 H     1 <1>   0.1500 
 22 H        0.4130    -4.5630     0.3740 H     1 <1>   0.1500 
 23 H        5.3130    -2.1270    -2.0940 H     1 <1>   0.0800 
 24 H        4.9900    -3.8390    -2.0680 H     1 <1>   0.0800 
 25 H        4.6820    -1.8850     1.6200 H     1 <1>   0.0800 
 26 H        5.1300    -0.8790     0.2680 H     1 <1>   0.0800 
 27 H        3.7230    -5.5240     0.1680 H     1 <1>   0.0800 
 28 H        2.2990    -5.7290     1.1590 H     1 <1>   0.0800 
 29 H        3.5940    -4.6850     1.6920 H     1 <1>   0.0800 
 30 H        7.4100    -3.3200    -2.1350 H     1 <1>   0.0800 
 31 H        6.9740    -4.2600    -0.7370 H     1 <1>   0.0800 
 32 H        6.7580    -3.1290     1.4590 H     1 <1>   0.0800 
 33 H        7.1150    -1.4300     1.5750 H     1 <1>   0.0800 
 34 H        9.2630    -0.4800     1.0960 H     1 <1>   0.0800 
 35 H        9.5600    -0.2890    -0.5980 H     1 <1>   0.0800 
 36 H       11.5270    -1.4490     1.3930 H     1 <1>   0.0800 
 37 H       11.6040     0.1560     0.6980 H     1 <1>   0.0800 
 38 H       11.8260    -1.2510    -0.3180 H     1 <1>   0.0800 
@<TRIPOS>BOND
  1   1   2  1   
  2   2   3  ar  
  3   2   4  ar  
  4   3   5  ar  
  5   3  20  1   
  6   4   6  ar  
  7   4  21  1   
  8   5   7  1   
  9   5   8  ar  
 10   6   8  ar  
 11   6  22  1   
 12   7   9  1   
 13   7  10  1   
 14   8  11  1   
 15   9  12  1   
 16   9  23  1   
 17   9  24  1   
 18  10  13  1   
 19  10  25  1   
 20  10  26  1   
 21  11  27  1   
 22  11  28  1   
 23  11  29  1   
 24  12  14  1   
 25  12  30  1   
 26  12  31  1   
 27  13  14  1   
 28  13  32  1   
 29  13  33  1   
 30  14  15  am  
 31  15  16  2   
 32  15  17  2   
 33  15  18  1   
 34  18  19  1   
 35  18  34  1   
 36  18  35  1   
 37  19  36  1   
 38  19  37  1   
 39  19  38  1   
@<TRIPOS>SUBSTRUCTURE
  1 ****   7 GROUP 4 **** **** 0

# MOE 2024.06 (io_trps.svl 2023.06)
