@<TRIPOS>MOLECULE
NONAME
47 49 1 0 0 
SMALL
USER_CHARGES


@<TRIPOS>ATOM
  1 F       -1.7340     3.6510    -2.0520 F     1 <1>  -0.1900 
  2 C       -0.9970     3.5020    -0.9830 C.ar  1 <1>   0.1900 
  3 C       -1.4050     2.5920    -0.0160 C.ar  1 <1>  -0.1440 
  4 C        0.1480     4.2720    -0.8630 C.ar  1 <1>  -0.1500 
  5 C       -0.6200     2.4540     1.1220 C.ar  1 <1>  -0.1500 
  6 C       -2.6700     1.7790    -0.2080 C.3   1 <1>   0.4870 
  7 C        0.9250     4.1320     0.2760 C.ar  1 <1>  -0.1500 
  8 C        0.5230     3.2270     1.2440 C.ar  1 <1>   0.1900 
  9 N       -3.8410     2.6910    -0.1810 N.4   1 <1>  -0.9590 
 10 F        1.2490     3.0950     2.3190 F     1 <1>  -0.1900 
 11 C       -4.0110     3.3780     1.1520 C.3   1 <1>   0.3430 
 12 C       -5.1150     1.9970    -0.5880 C.3   1 <1>   0.3430 
 13 C       -5.2060     4.3510     1.1590 C.3   1 <1>   0.2090 
 14 C       -6.3210     2.9570    -0.6030 C.3   1 <1>   0.2090 
 15 N       -6.4580     3.6780     0.6980 N.pl3 1 <1>  -0.8380 
 16 C       -7.6040     4.4820     0.7850 C.ar  1 <1>   0.1000 
 17 C       -7.8110     5.6380     0.0100 C.ar  1 <1>   0.0830 
 18 C       -8.5820     4.1030     1.6940 C.ar  1 <1>  -0.1500 
 19 O       -6.8370     6.0030    -0.8830 O.3   1 <1>  -0.3620 
 20 C       -8.9840     6.3710     0.1670 C.ar  1 <1>  -0.1500 
 21 C       -9.7430     4.8380     1.8450 C.ar  1 <1>  -0.1500 
 22 C       -6.9490     7.1790    -1.6520 C.3   1 <1>   0.1200 
 23 C       -9.9440     5.9720     1.0810 C.ar  1 <1>  -0.1500 
 24 C       -5.6890     7.3050    -2.5020 C.3   1 <1>  -0.2400 
 25 H        0.4260     4.9630    -1.6410 H     1 <1>   0.1500 
 26 H       -0.8680     1.7640     1.9120 H     1 <1>   0.1500 
 27 H       -2.7570     1.0380     0.5700 H     1 <1>   0.0800 
 28 H       -2.6200     1.2720    -1.1590 H     1 <1>   0.0800 
 29 H        1.8230     4.7080     0.4150 H     1 <1>   0.1500 
 30 H       -3.6580     3.4290    -0.8780 H     1 <1>   0.4500 
 31 H       -3.1180     3.9250     1.4030 H     1 <1>   0.0800 
 32 H       -4.1760     2.6410     1.9210 H     1 <1>   0.0800 
 33 H       -5.3320     1.2010     0.1040 H     1 <1>   0.0800 
 34 H       -5.0030     1.5650    -1.5690 H     1 <1>   0.0800 
 35 H       -4.9840     5.1930     0.5270 H     1 <1>   0.0800 
 36 H       -5.3570     4.7240     2.1580 H     1 <1>   0.0800 
 37 H       -7.2210     2.3970    -0.7880 H     1 <1>   0.0800 
 38 H       -6.2060     3.6640    -1.4060 H     1 <1>   0.0800 
 39 H       -8.4260     3.2220     2.2870 H     1 <1>   0.1500 
 40 H       -9.1780     7.2560    -0.4070 H     1 <1>   0.1500 
 41 H      -10.4890     4.5260     2.5550 H     1 <1>   0.1500 
 42 H       -7.0420     8.0180    -0.9830 H     1 <1>   0.0800 
 43 H       -7.8220     7.0980    -2.2760 H     1 <1>   0.0800 
 44 H      -10.8490     6.5440     1.1980 H     1 <1>   0.1500 
 45 H       -4.8200     7.3720    -1.8730 H     1 <1>   0.0800 
 46 H       -5.7450     8.1980    -3.1000 H     1 <1>   0.0800 
 47 H       -5.5980     6.4600    -3.1610 H     1 <1>   0.0800 
@<TRIPOS>BOND
  1   1   2  1   
  2   2   3  ar  
  3   2   4  ar  
  4   3   5  ar  
  5   3   6  1   
  6   4   7  ar  
  7   4  25  1   
  8   5   8  ar  
  9   5  26  1   
 10   6   9  1   
 11   6  27  1   
 12   6  28  1   
 13   7   8  ar  
 14   7  29  1   
 15   8  10  1   
 16   9  11  1   
 17   9  12  1   
 18   9  30  1   
 19  11  13  1   
 20  11  31  1   
 21  11  32  1   
 22  12  14  1   
 23  12  33  1   
 24  12  34  1   
 25  13  15  1   
 26  13  35  1   
 27  13  36  1   
 28  14  15  1   
 29  14  37  1   
 30  14  38  1   
 31  15  16  1   
 32  16  17  ar  
 33  16  18  ar  
 34  17  19  1   
 35  17  20  ar  
 36  18  21  ar  
 37  18  39  1   
 38  19  22  1   
 39  20  23  ar  
 40  20  40  1   
 41  21  23  ar  
 42  21  41  1   
 43  22  24  1   
 44  22  42  1   
 45  22  43  1   
 46  23  44  1   
 47  24  45  1   
 48  24  46  1   
 49  24  47  1   
@<TRIPOS>SUBSTRUCTURE
  1 ****  13 GROUP 4 **** **** 0

# MOE 2024.06 (io_trps.svl 2023.06)
