@<TRIPOS>MOLECULE
NONAME
42 44 1 0 0 
SMALL
USER_CHARGES


@<TRIPOS>ATOM
  1 S        0.4880    -0.7590    -1.1550 S.o   1 <1>   0.3680 
  2 O        0.6790     0.2060    -2.2940 O.2   1 <1>  -0.5000 
  3 N        1.4750    -0.2660     0.1830 N.am  1 <1>  -0.6020 
  4 C       -1.2410    -0.6430    -0.5490 C.3   1 <1>   0.1940 
  5 C        2.3650     0.8760    -0.0750 C.3   1 <1>   0.1100 
  6 C        2.1870    -1.3840     0.8110 C.3   1 <1>   0.1100 
  7 C       -2.2150    -1.0390    -1.6830 C.3   1 <1>  -0.1600 
  8 C       -1.6020     0.7860    -0.0860 C.3   1 <1>  -0.1600 
  9 C       -1.4740    -1.6050     0.6400 C.3   1 <1>  -0.1600 
 10 C        1.6120     2.1980     0.0550 C.3   1 <1>  -0.2400 
 11 C        3.2560    -2.0000    -0.1010 C.3   1 <1>  -0.2400 
 12 C       -3.6800    -0.9760    -1.2130 C.3   1 <1>  -0.0800 
 13 C       -3.0630     0.8660     0.3960 C.3   1 <1>  -0.0800 
 14 C       -2.9340    -1.5450     1.1280 C.3   1 <1>  -0.0800 
 15 C       -3.9990     0.4600    -0.7570 C.3   1 <1>  -0.1600 
 16 C       -3.8710    -1.9400    -0.0280 C.3   1 <1>  -0.1600 
 17 C       -3.2570    -0.1070     1.5740 C.3   1 <1>  -0.1600 
 18 H        2.8020     0.7870    -1.0550 H     1 <1>   0.0800 
 19 H        3.1640     0.8820     0.6470 H     1 <1>   0.0800 
 20 H        1.4710    -2.1420     1.0780 H     1 <1>   0.0800 
 21 H        2.6460    -1.0390     1.7230 H     1 <1>   0.0800 
 22 H       -1.9870    -2.0340    -2.0220 H     1 <1>   0.0800 
 23 H       -2.0750    -0.3750    -2.5180 H     1 <1>   0.0800 
 24 H       -1.4490     1.4730    -0.9000 H     1 <1>   0.0800 
 25 H       -0.9480     1.0780     0.7150 H     1 <1>   0.0800 
 26 H       -0.8190    -1.3370     1.4500 H     1 <1>   0.0800 
 27 H       -1.2320    -2.6100     0.3430 H     1 <1>   0.0800 
 28 H        0.8590     2.2800    -0.7070 H     1 <1>   0.0800 
 29 H        2.2980     3.0150    -0.0680 H     1 <1>   0.0800 
 30 H        1.1580     2.2750     1.0260 H     1 <1>   0.0800 
 31 H        2.8200    -2.3750    -1.0090 H     1 <1>   0.0800 
 32 H        3.7240    -2.8230     0.4080 H     1 <1>   0.0800 
 33 H        4.0190    -1.2830    -0.3420 H     1 <1>   0.0800 
 34 H       -4.3350    -1.2550    -2.0200 H     1 <1>   0.0800 
 35 H       -3.2880     1.8700     0.7120 H     1 <1>   0.0800 
 36 H       -3.0710    -2.2220     1.9550 H     1 <1>   0.0800 
 37 H       -5.0230     0.5210    -0.4340 H     1 <1>   0.0800 
 38 H       -3.8750     1.1400    -1.5820 H     1 <1>   0.0800 
 39 H       -3.6620    -2.9490    -0.3400 H     1 <1>   0.0800 
 40 H       -4.8940    -1.9080     0.3050 H     1 <1>   0.0800 
 41 H       -2.6150     0.1750     2.3900 H     1 <1>   0.0800 
 42 H       -4.2730    -0.0540     1.9250 H     1 <1>   0.0800 
@<TRIPOS>BOND
  1   1   2  2   
  2   1   3  am  
  3   1   4  1   
  4   3   5  1   
  5   3   6  1   
  6   4   7  1   
  7   4   8  1   
  8   4   9  1   
  9   5  10  1   
 10   5  18  1   
 11   5  19  1   
 12   6  11  1   
 13   6  20  1   
 14   6  21  1   
 15   7  12  1   
 16   7  22  1   
 17   7  23  1   
 18   8  13  1   
 19   8  24  1   
 20   8  25  1   
 21   9  14  1   
 22   9  26  1   
 23   9  27  1   
 24  10  28  1   
 25  10  29  1   
 26  10  30  1   
 27  11  31  1   
 28  11  32  1   
 29  11  33  1   
 30  12  15  1   
 31  12  16  1   
 32  12  34  1   
 33  13  15  1   
 34  13  17  1   
 35  13  35  1   
 36  14  16  1   
 37  14  17  1   
 38  14  36  1   
 39  15  37  1   
 40  15  38  1   
 41  16  39  1   
 42  16  40  1   
 43  17  41  1   
 44  17  42  1   
@<TRIPOS>SUBSTRUCTURE
  1 ****   4 GROUP 4 **** **** 0

# MOE 2024.06 (io_trps.svl 2023.06)
