@<TRIPOS>MOLECULE
NONAME
26 26 1 0 0 
SMALL
USER_CHARGES


@<TRIPOS>ATOM
  1 F        1.5640     0.4180     1.9040 F     1 <1>  -0.3400 
  2 C        2.5540     1.0520     1.2840 C.3   1 <1>   1.1640 
  3 F        3.1260     0.1430     0.5010 F     1 <1>  -0.3400 
  4 F        3.4410     1.3420     2.2300 F     1 <1>  -0.3400 
  5 C        2.0780     2.2900     0.5110 C.ar  1 <1>  -0.1440 
  6 C        2.9980     3.0650    -0.1950 C.ar  1 <1>   0.0830 
  7 C        0.7360     2.6630     0.4970 C.ar  1 <1>  -0.1500 
  8 O        4.2990     2.6810    -0.1650 O.3   1 <1>  -0.3630 
  9 C        2.5700     4.1900    -0.8970 C.ar  1 <1>  -0.1500 
 10 C        0.3180     3.7810    -0.2020 C.ar  1 <1>  -0.1500 
 11 C        5.3210     3.3970    -0.8490 C.3   1 <1>   0.1810 
 12 C        1.2350     4.5440    -0.8990 C.ar  1 <1>  -0.1500 
 13 C        6.6860     2.7480    -0.6490 C.2   1 <1>   0.5690 
 14 O        7.6450     3.2580    -1.1770 O.2   1 <1>  -0.5700 
 15 N        6.7940     1.6230     0.1110 N.am  1 <1>  -0.7300 
 16 C        8.0450     0.8800     0.3980 C.3   1 <1>   0.0600 
 17 H       -0.0030     2.0880     1.0310 H     1 <1>   0.1500 
 18 H        3.2560     4.8050    -1.4490 H     1 <1>   0.1500 
 19 H       -0.7230     4.0570    -0.2040 H     1 <1>   0.1500 
 20 H        5.3500     4.4000    -0.4670 H     1 <1>   0.0800 
 21 H        5.0880     3.4060    -1.8980 H     1 <1>   0.0800 
 22 H        0.9070     5.4130    -1.4430 H     1 <1>   0.1500 
 23 H        5.9330     1.2510     0.5270 H     1 <1>   0.3700 
 24 H        8.8820     1.3570    -0.0850 H     1 <1>   0.0800 
 25 H        7.9610    -0.1280     0.0330 H     1 <1>   0.0800 
 26 H        8.2210     0.8610     1.4600 H     1 <1>   0.0800 
@<TRIPOS>BOND
  1   1   2  1   
  2   2   3  1   
  3   2   4  1   
  4   2   5  1   
  5   5   6  ar  
  6   5   7  ar  
  7   6   8  1   
  8   6   9  ar  
  9   7  10  ar  
 10   7  17  1   
 11   8  11  1   
 12   9  12  ar  
 13   9  18  1   
 14  10  12  ar  
 15  10  19  1   
 16  11  13  1   
 17  11  20  1   
 18  11  21  1   
 19  12  22  1   
 20  13  14  2   
 21  13  15  am  
 22  15  16  1   
 23  15  23  1   
 24  16  24  1   
 25  16  25  1   
 26  16  26  1   
@<TRIPOS>SUBSTRUCTURE
  1 ****   8 GROUP 4 **** **** 0

# MOE 2024.06 (io_trps.svl 2023.06)
