@<TRIPOS>MOLECULE
NONAME
33 33 1 0 0 
SMALL
USER_CHARGES


@<TRIPOS>ATOM
  1 S       -0.0450    -0.1530    -0.3950 S.o2  1 <1>   1.3330 
  2 O        0.9090     0.7390    -1.0060 O.2   1 <1>  -0.6500 
  3 O       -1.0620     0.3730     0.4800 O.2   1 <1>  -0.6500 
  4 N        0.8650    -1.3540     0.4760 N.am  1 <1>  -0.6930 
  5 C       -0.8250    -1.0480    -1.7230 C.3   1 <1>  -0.1350 
  6 C        2.2530    -1.2930     0.5480 C.ar  1 <1>   0.1990 
  7 C        0.1990    -2.5750     1.0370 C.3   1 <1>   0.3370 
  8 C        2.8790    -1.1700     1.7860 C.ar  1 <1>  -0.1500 
  9 C        3.0360    -1.3820    -0.6030 C.ar  1 <1>  -0.1500 
 10 C       -0.0970    -3.6270    -0.0550 C.2   1 <1>   0.5690 
 11 C       -0.9990    -2.2200     1.9290 C.3   1 <1>  -0.2400 
 12 C        4.2600    -1.1490     1.8840 C.ar  1 <1>  -0.1500 
 13 C        4.4180    -1.3620    -0.5220 C.ar  1 <1>  -0.1500 
 14 O       -1.2300    -3.9970    -0.2580 O.2   1 <1>  -0.5700 
 15 N        0.9440    -4.1040    -0.7980 N.am  1 <1>  -0.7300 
 16 C        5.0050    -1.2500     0.7240 C.ar  1 <1>   0.1900 
 17 C        0.8440    -5.1270    -1.8700 C.3   1 <1>   0.0600 
 18 F        6.3100    -1.2370     0.8080 F     1 <1>  -0.1900 
 19 H       -1.2930    -0.3580    -2.3970 H     1 <1>   0.0800 
 20 H       -1.5820    -1.7050    -1.3430 H     1 <1>   0.0800 
 21 H       -0.1010    -1.6200    -2.2680 H     1 <1>   0.0800 
 22 H        0.9110    -3.0480     1.6900 H     1 <1>   0.0800 
 23 H        2.2770    -1.0810     2.6720 H     1 <1>   0.1500 
 24 H        2.5590    -1.4540    -1.5630 H     1 <1>   0.1500 
 25 H       -1.8380    -1.8960     1.3400 H     1 <1>   0.0800 
 26 H       -0.7320    -1.4500     2.6300 H     1 <1>   0.0800 
 27 H       -1.3080    -3.0920     2.4770 H     1 <1>   0.0800 
 28 H        4.7540    -1.0540     2.8350 H     1 <1>   0.1500 
 29 H        5.0320    -1.4260    -1.4030 H     1 <1>   0.1500 
 30 H        1.8840    -3.7370    -0.6180 H     1 <1>   0.3700 
 31 H       -0.1760    -5.4560    -1.9830 H     1 <1>   0.0800 
 32 H        1.4550    -5.9770    -1.6210 H     1 <1>   0.0800 
 33 H        1.1790    -4.7120    -2.8050 H     1 <1>   0.0800 
@<TRIPOS>BOND
  1   1   2  2   
  2   1   3  2   
  3   1   4  am  
  4   1   5  1   
  5   4   6  1   
  6   4   7  1   
  7   5  19  1   
  8   5  20  1   
  9   5  21  1   
 10   6   8  ar  
 11   6   9  ar  
 12   7  10  1   
 13   7  11  1   
 14   7  22  1   
 15   8  12  ar  
 16   8  23  1   
 17   9  13  ar  
 18   9  24  1   
 19  10  14  2   
 20  10  15  am  
 21  11  25  1   
 22  11  26  1   
 23  11  27  1   
 24  12  16  ar  
 25  12  28  1   
 26  13  16  ar  
 27  13  29  1   
 28  15  17  1   
 29  15  30  1   
 30  16  18  1   
 31  17  31  1   
 32  17  32  1   
 33  17  33  1   
@<TRIPOS>SUBSTRUCTURE
  1 ****   4 GROUP 4 **** **** 0

# MOE 2024.06 (io_trps.svl 2023.06)
