@<TRIPOS>MOLECULE
NONAME
42 43 1 0 0 
SMALL
USER_CHARGES


@<TRIPOS>ATOM
  1 BR       1.8200     1.2360     1.8090 Br    1 <1>  -0.1110 
  2 C        0.9720     2.3020     0.4410 C.ar  1 <1>   0.1110 
  3 C        1.6470     2.5580    -0.7430 C.ar  1 <1>   0.0820 
  4 C       -0.2950     2.7890     0.6980 C.ar  1 <1>  -0.1500 
  5 O        2.8950     2.0480    -0.9080 O.3   1 <1>  -0.3630 
  6 C        1.0010     3.3320    -1.6990 C.ar  1 <1>  -0.1500 
  7 C       -0.9430     3.5710    -0.2560 C.ar  1 <1>  -0.1430 
  8 C        3.7650     2.5650    -1.9040 C.3   1 <1>   0.1810 
  9 C       -0.2700     3.8270    -1.4500 C.ar  1 <1>  -0.1500 
 10 C       -2.3570     4.1530    -0.0400 C.3   1 <1>   0.1440 
 11 C        5.1820     2.0170    -1.7620 C.2   1 <1>   0.5690 
 12 C       -2.9600     3.7840     1.3260 C.3   1 <1>  -0.2400 
 13 C       -3.3040     3.6180    -1.1250 C.3   1 <1>  -0.2400 
 14 C       -2.2990     5.6860    -0.1220 C.3   1 <1>  -0.2400 
 15 O        5.6630     1.4580    -2.7220 O.2   1 <1>  -0.5700 
 16 N        5.9040     2.1940    -0.6100 N.am  1 <1>  -0.6600 
 17 C        5.4210     2.8260     0.6400 C.3   1 <1>   0.1400 
 18 C        7.2950     1.7220    -0.4650 C.3   1 <1>   0.1400 
 19 C        6.5380     2.5940     1.6530 C.3   1 <1>  -0.1600 
 20 C        7.7950     2.3860     0.8120 C.3   1 <1>  -0.1600 
 21 H       -0.7410     2.5430     1.6410 H     1 <1>   0.1500 
 22 H        1.4630     3.5570    -2.6420 H     1 <1>   0.1500 
 23 H        3.7900     3.6350    -1.8120 H     1 <1>   0.0800 
 24 H        3.3740     2.2880    -2.8650 H     1 <1>   0.0800 
 25 H       -0.7380     4.4220    -2.2120 H     1 <1>   0.1500 
 26 H       -2.3460     4.1600     2.1250 H     1 <1>   0.0800 
 27 H       -3.0500     2.7170     1.4240 H     1 <1>   0.0800 
 28 H       -3.9410     4.2110     1.4340 H     1 <1>   0.0800 
 29 H       -2.9860     3.9230    -2.1040 H     1 <1>   0.0800 
 30 H       -3.3250     2.5430    -1.0960 H     1 <1>   0.0800 
 31 H       -4.3030     3.9840    -0.9700 H     1 <1>   0.0800 
 32 H       -1.6120     6.0680     0.6120 H     1 <1>   0.0800 
 33 H       -3.2690     6.1130     0.0630 H     1 <1>   0.0800 
 34 H       -1.9720     6.0120    -1.0920 H     1 <1>   0.0800 
 35 H        4.5030     2.3750     0.9760 H     1 <1>   0.0800 
 36 H        5.2740     3.8790     0.4740 H     1 <1>   0.0800 
 37 H        7.8870     1.9980    -1.3210 H     1 <1>   0.0800 
 38 H        7.2890     0.6500    -0.3600 H     1 <1>   0.0800 
 39 H        6.3200     1.6990     2.2090 H     1 <1>   0.0800 
 40 H        6.6340     3.4170     2.3390 H     1 <1>   0.0800 
 41 H        8.2310     3.3370     0.5620 H     1 <1>   0.0800 
 42 H        8.5310     1.7830     1.3140 H     1 <1>   0.0800 
@<TRIPOS>BOND
  1   1   2  1   
  2   2   3  ar  
  3   2   4  ar  
  4   3   5  1   
  5   3   6  ar  
  6   4   7  ar  
  7   4  21  1   
  8   5   8  1   
  9   6   9  ar  
 10   6  22  1   
 11   7   9  ar  
 12   7  10  1   
 13   8  11  1   
 14   8  23  1   
 15   8  24  1   
 16   9  25  1   
 17  10  12  1   
 18  10  13  1   
 19  10  14  1   
 20  11  15  2   
 21  11  16  am  
 22  12  26  1   
 23  12  27  1   
 24  12  28  1   
 25  13  29  1   
 26  13  30  1   
 27  13  31  1   
 28  14  32  1   
 29  14  33  1   
 30  14  34  1   
 31  16  17  1   
 32  16  18  1   
 33  17  19  1   
 34  17  35  1   
 35  17  36  1   
 36  18  20  1   
 37  18  37  1   
 38  18  38  1   
 39  19  20  1   
 40  19  39  1   
 41  19  40  1   
 42  20  41  1   
 43  20  42  1   
@<TRIPOS>SUBSTRUCTURE
  1 ****   3 GROUP 4 **** **** 0

# MOE 2024.06 (io_trps.svl 2023.06)
