@<TRIPOS>MOLECULE
NONAME
35 36 1 0 0 
SMALL
USER_CHARGES


@<TRIPOS>ATOM
  1 O       -0.4540     0.6290     1.6090 O.2   1 <1>  -0.5700 
  2 C       -1.3790     1.1590     1.0290 C.2   1 <1>   0.7060 
  3 O       -2.4860     0.4240     0.8670 O.3   1 <1>  -0.2320 
  4 C       -1.3810     2.5140     0.5530 C.2   1 <1>   0.0290 
  5 C       -3.6380     0.9120     0.3600 C.ar  1 <1>   0.0830 
  6 C       -0.1650     3.2670     0.6490 C.2   1 <1>   0.7060 
  7 C       -2.5310     3.0380     0.0440 C.2   1 <1>  -0.1780 
  8 C       -3.7060     2.2440    -0.0630 C.ar  1 <1>   0.0280 
  9 C       -4.7440     0.0810     0.2700 C.ar  1 <1>  -0.1500 
 10 O       -0.1560     4.4410     0.9570 O.2   1 <1>  -0.5700 
 11 O        0.9850     2.6750     0.3270 O.3   1 <1>  -0.4300 
 12 C       -4.9160     2.7170    -0.5720 C.ar  1 <1>  -0.1500 
 13 C       -5.9320     0.5670    -0.2390 C.ar  1 <1>  -0.1500 
 14 C        2.2200     3.3510     0.4070 C.3   1 <1>   0.1200 
 15 C       -6.0160     1.8870    -0.6590 C.ar  1 <1>  -0.1500 
 16 C        3.3240     2.3690     0.0160 C.3   1 <1>  -0.1600 
 17 C        4.7060     3.0320     0.0890 C.3   1 <1>  -0.1600 
 18 C        5.8120     2.0440    -0.3000 C.3   1 <1>  -0.1600 
 19 C        7.1910     2.7040    -0.2260 C.3   1 <1>  -0.2400 
 20 H       -2.5800     4.0590    -0.2950 H     1 <1>   0.1500 
 21 H       -4.6680    -0.9410     0.6000 H     1 <1>   0.1500 
 22 H       -4.9890     3.7390    -0.9000 H     1 <1>   0.1500 
 23 H       -6.7940    -0.0750    -0.3100 H     1 <1>   0.1500 
 24 H        2.3530     3.6970     1.4190 H     1 <1>   0.0800 
 25 H        2.1930     4.1920    -0.2640 H     1 <1>   0.0800 
 26 H       -6.9460     2.2610    -1.0540 H     1 <1>   0.1500 
 27 H        3.1460     2.0210    -0.9860 H     1 <1>   0.0800 
 28 H        3.2950     1.5270     0.6860 H     1 <1>   0.0800 
 29 H        4.8810     3.3860     1.0910 H     1 <1>   0.0800 
 30 H        4.7330     3.8790    -0.5750 H     1 <1>   0.0800 
 31 H        5.6430     1.6880    -1.3030 H     1 <1>   0.0800 
 32 H        5.7890     1.1960     0.3630 H     1 <1>   0.0800 
 33 H        7.2430     3.5430    -0.8980 H     1 <1>   0.0800 
 34 H        7.9520     1.9970    -0.5030 H     1 <1>   0.0800 
 35 H        7.3900     3.0480     0.7740 H     1 <1>   0.0800 
@<TRIPOS>BOND
  1   1   2  2   
  2   2   3  1   
  3   2   4  1   
  4   3   5  1   
  5   4   6  1   
  6   4   7  2   
  7   5   8  ar  
  8   5   9  ar  
  9   6  10  2   
 10   6  11  1   
 11   7   8  1   
 12   7  20  1   
 13   8  12  ar  
 14   9  13  ar  
 15   9  21  1   
 16  11  14  1   
 17  12  15  ar  
 18  12  22  1   
 19  13  15  ar  
 20  13  23  1   
 21  14  16  1   
 22  14  24  1   
 23  14  25  1   
 24  15  26  1   
 25  16  17  1   
 26  16  27  1   
 27  16  28  1   
 28  17  18  1   
 29  17  29  1   
 30  17  30  1   
 31  18  19  1   
 32  18  31  1   
 33  18  32  1   
 34  19  33  1   
 35  19  34  1   
 36  19  35  1   
@<TRIPOS>SUBSTRUCTURE
  1 ****   4 GROUP 4 **** **** 0

# MOE 2024.06 (io_trps.svl 2023.06)
