@<TRIPOS>MOLECULE
NONAME
31 31 1 0 0 
SMALL
USER_CHARGES


@<TRIPOS>ATOM
  1 O       -0.1220    -0.4230    -0.5430 O.2   1 <1>  -0.5700 
  2 C       -0.1590    -1.5400    -0.0880 C.2   1 <1>   0.4950 
  3 C       -1.4120    -2.1930     0.1630 C.2   1 <1>  -0.1360 
  4 C        1.1680    -2.2850     0.2220 C.3   1 <1>   0.0610 
  5 C       -2.6510    -1.6720    -0.0080 C.2   1 <1>  -0.1780 
  6 C        1.2460    -2.6550     1.7160 C.3   1 <1>  -0.2400 
  7 C        2.3990    -1.4120    -0.1040 C.3   1 <1>  -0.2400 
  8 C        1.2770    -3.5710    -0.6190 C.3   1 <1>  -0.2400 
  9 C       -3.9030    -2.3330     0.2410 C.ar  1 <1>   0.0280 
 10 C       -4.1940    -3.6200    -0.2280 C.ar  1 <1>   0.0820 
 11 C       -4.8840    -1.6880     0.9920 C.ar  1 <1>  -0.1500 
 12 O       -3.3240    -4.2610    -1.0210 O.3   1 <1>  -0.5320 
 13 C       -5.3880    -4.2480     0.0800 C.ar  1 <1>  -0.1500 
 14 C       -6.0840    -2.3070     1.2930 C.ar  1 <1>  -0.1500 
 15 C       -6.3370    -3.5920     0.8420 C.ar  1 <1>  -0.1500 
 16 H       -1.3280    -3.1950     0.5370 H     1 <1>   0.1500 
 17 H       -2.7470    -0.6530    -0.3470 H     1 <1>   0.1500 
 18 H        0.4600    -3.3320     1.9950 H     1 <1>   0.0800 
 19 H        1.1610    -1.7690     2.3210 H     1 <1>   0.0800 
 20 H        2.1860    -3.1280     1.9400 H     1 <1>   0.0800 
 21 H        3.3140    -1.9340     0.1150 H     1 <1>   0.0800 
 22 H        2.3780    -0.5050     0.4740 H     1 <1>   0.0800 
 23 H        2.4020    -1.1420    -1.1460 H     1 <1>   0.0800 
 24 H        2.2190    -4.0600    -0.4420 H     1 <1>   0.0800 
 25 H        1.2130    -3.3350    -1.6670 H     1 <1>   0.0800 
 26 H        0.4940    -4.2670    -0.3790 H     1 <1>   0.0800 
 27 H       -4.6970    -0.6920     1.3530 H     1 <1>   0.1500 
 28 H       -2.6080    -3.6740    -1.3240 H     1 <1>   0.4500 
 29 H       -5.5730    -5.2410    -0.2870 H     1 <1>   0.1500 
 30 H       -6.8250    -1.7910     1.8800 H     1 <1>   0.1500 
 31 H       -7.2680    -4.0760     1.0810 H     1 <1>   0.1500 
@<TRIPOS>BOND
  1   1   2  2   
  2   2   3  1   
  3   2   4  1   
  4   3   5  2   
  5   3  16  1   
  6   4   6  1   
  7   4   7  1   
  8   4   8  1   
  9   5   9  1   
 10   5  17  1   
 11   6  18  1   
 12   6  19  1   
 13   6  20  1   
 14   7  21  1   
 15   7  22  1   
 16   7  23  1   
 17   8  24  1   
 18   8  25  1   
 19   8  26  1   
 20   9  10  ar  
 21   9  11  ar  
 22  10  12  1   
 23  10  13  ar  
 24  11  14  ar  
 25  11  27  1   
 26  12  28  1   
 27  13  15  ar  
 28  13  29  1   
 29  14  15  ar  
 30  14  30  1   
 31  15  31  1   
@<TRIPOS>SUBSTRUCTURE
  1 ****   3 GROUP 4 **** **** 0

# MOE 2024.06 (io_trps.svl 2023.06)
