@<TRIPOS>MOLECULE
NONAME
36 37 1 0 0 
SMALL
USER_CHARGES


@<TRIPOS>ATOM
  1 O       -5.9050    -0.6670    -1.4210 O.2   1 <1>  -0.5700 
  2 C       -6.2960    -0.6200    -0.2800 C.2   1 <1>   0.4230 
  3 C       -7.5790    -1.1320     0.1540 C.ar  1 <1>   0.0860 
  4 C       -5.3530     0.0390     0.7340 C.3   1 <1>   0.4040 
  5 C       -8.4980    -1.5980    -0.7890 C.ar  1 <1>  -0.1500 
  6 C       -7.9660    -1.1900     1.4990 C.ar  1 <1>  -0.1500 
  7 N       -4.2930     0.8840     0.0700 N.4   1 <1>  -0.9590 
  8 C       -9.7370    -2.0870    -0.4200 C.ar  1 <1>  -0.1500 
  9 C       -9.2050    -1.6780     1.8720 C.ar  1 <1>  -0.1500 
 10 C       -3.0880     1.0490     0.9300 C.3   1 <1>   0.3430 
 11 C       -4.8790     2.1500    -0.4590 C.3   1 <1>   0.3430 
 12 C      -10.0940    -2.1270     0.9140 C.ar  1 <1>  -0.1500 
 13 C       -1.8460     1.2080     0.0550 C.3   1 <1>  -0.1600 
 14 C       -3.9120     2.9020    -1.3740 C.3   1 <1>  -0.1600 
 15 C       -1.5410     2.6480    -0.3880 C.3   1 <1>  -0.1600 
 16 C       -2.7510     3.5640    -0.6180 C.3   1 <1>  -0.1600 
 17 H       -4.8800    -0.7490     1.2950 H     1 <1>   0.0800 
 18 H       -5.9250     0.6440     1.4170 H     1 <1>   0.0800 
 19 H       -8.2390    -1.5790    -1.8360 H     1 <1>   0.1500 
 20 H       -7.3130    -0.8620     2.2860 H     1 <1>   0.1500 
 21 H       -4.0240     0.3400    -0.7690 H     1 <1>   0.4500 
 22 H      -10.4250    -2.4390    -1.1710 H     1 <1>   0.1500 
 23 H       -9.4870    -1.7140     2.9120 H     1 <1>   0.1500 
 24 H       -2.9590     0.1640     1.5310 H     1 <1>   0.0800 
 25 H       -3.1970     1.8940     1.5900 H     1 <1>   0.0800 
 26 H       -5.1720     2.7910     0.3570 H     1 <1>   0.0800 
 27 H       -5.7630     1.9140    -1.0310 H     1 <1>   0.0800 
 28 H      -11.0590    -2.5080     1.2040 H     1 <1>   0.1500 
 29 H       -1.9250     0.5690    -0.8080 H     1 <1>   0.0800 
 30 H       -0.9960     0.8580     0.6150 H     1 <1>   0.0800 
 31 H       -4.4780     3.6870    -1.8450 H     1 <1>   0.0800 
 32 H       -3.5530     2.2640    -2.1630 H     1 <1>   0.0800 
 33 H       -0.9610     2.6040    -1.2960 H     1 <1>   0.0800 
 34 H       -0.9120     3.1160     0.3520 H     1 <1>   0.0800 
 35 H       -3.1030     3.9500     0.3240 H     1 <1>   0.0800 
 36 H       -2.4100     4.4130    -1.1870 H     1 <1>   0.0800 
@<TRIPOS>BOND
  1   1   2  2   
  2   2   3  1   
  3   2   4  1   
  4   3   5  ar  
  5   3   6  ar  
  6   4   7  1   
  7   4  17  1   
  8   4  18  1   
  9   5   8  ar  
 10   5  19  1   
 11   6   9  ar  
 12   6  20  1   
 13   7  10  1   
 14   7  11  1   
 15   7  21  1   
 16   8  12  ar  
 17   8  22  1   
 18   9  12  ar  
 19   9  23  1   
 20  10  13  1   
 21  10  24  1   
 22  10  25  1   
 23  11  14  1   
 24  11  26  1   
 25  11  27  1   
 26  12  28  1   
 27  13  15  1   
 28  13  29  1   
 29  13  30  1   
 30  14  16  1   
 31  14  31  1   
 32  14  32  1   
 33  15  16  1   
 34  15  33  1   
 35  15  34  1   
 36  16  35  1   
 37  16  36  1   
@<TRIPOS>SUBSTRUCTURE
  1 ****   4 GROUP 4 **** **** 0

# MOE 2024.06 (io_trps.svl 2023.06)
