@<TRIPOS>MOLECULE
NONAME
46 48 1 0 0 
SMALL
USER_CHARGES


@<TRIPOS>ATOM
  1 O       -0.4460     0.0190    -0.2160 O.2   1 <1>  -0.5700 
  2 C        0.0520     1.0810    -0.5050 C.2   1 <1>   0.5690 
  3 N       -0.5760     2.2930    -0.4640 N.am  1 <1>  -0.2370 
  4 C        1.4760     1.2180    -1.0680 C.3   1 <1>   0.2510 
  5 C       -1.8200     2.5440     0.1460 C.ar  1 <1>   0.1170 
  6 C        0.1910     3.2330    -1.0890 C.2   1 <1>   0.5690 
  7 N        2.5930     1.0950    -0.0840 N.3   1 <1>  -0.8100 
  8 C        1.4690     2.6470    -1.6310 C.3   1 <1>  -0.0990 
  9 C       -3.0270     2.2340    -0.4820 C.ar  1 <1>  -0.1440 
 10 C       -1.8450     3.1180     1.4110 C.ar  1 <1>  -0.1500 
 11 O       -0.0860     4.3940    -1.2430 O.2   1 <1>  -0.5700 
 12 C        3.8970     0.9330    -0.7660 C.3   1 <1>   0.2530 
 13 C        2.3860    -0.0040     0.8820 C.3   1 <1>   0.0300 
 14 C       -4.2230     2.4980     0.1670 C.ar  1 <1>  -0.1500 
 15 C       -3.0590     1.6090    -1.8700 C.3   1 <1>  -0.0970 
 16 C       -3.0420     3.3790     2.0490 C.ar  1 <1>  -0.1500 
 17 C        5.0620     1.1130     0.1990 C.ar  1 <1>  -0.1430 
 18 C       -4.2400     3.0700     1.4280 C.ar  1 <1>  -0.1430 
 19 C        6.0640     0.1580     0.2780 C.ar  1 <1>  -0.1500 
 20 C        5.1360     2.2390     1.0060 C.ar  1 <1>  -0.1500 
 21 C       -5.5610     3.3500     2.1230 C.3   1 <1>  -0.0970 
 22 C        7.1270     0.3270     1.1490 C.ar  1 <1>  -0.1500 
 23 C        6.1990     2.4100     1.8770 C.ar  1 <1>  -0.1500 
 24 C        7.1960     1.4540     1.9490 C.ar  1 <1>  -0.1500 
 25 H        1.5990     0.4940    -1.8550 H     1 <1>   0.0800 
 26 H        1.4220     2.6380    -2.7030 H     1 <1>   0.0800 
 27 H        2.3050     3.2360    -1.3000 H     1 <1>   0.0800 
 28 H       -0.9180     3.3640     1.8980 H     1 <1>   0.1500 
 29 H        4.0010     1.6700    -1.5430 H     1 <1>   0.0800 
 30 H        3.9460    -0.0400    -1.2250 H     1 <1>   0.0800 
 31 H        1.5170     0.1880     1.4870 H     1 <1>   0.0800 
 32 H        3.2270    -0.0840     1.5490 H     1 <1>   0.0800 
 33 H        2.2560    -0.9420     0.3690 H     1 <1>   0.0800 
 34 H       -5.1560     2.2570    -0.3110 H     1 <1>   0.1500 
 35 H       -2.4910     2.2070    -2.5590 H     1 <1>   0.0800 
 36 H       -4.0670     1.5390    -2.2380 H     1 <1>   0.0800 
 37 H       -2.6430     0.6180    -1.8350 H     1 <1>   0.0800 
 38 H       -3.0380     3.8230     3.0290 H     1 <1>   0.1500 
 39 H        6.0250    -0.7240    -0.3380 H     1 <1>   0.1500 
 40 H        4.3590     2.9810     0.9580 H     1 <1>   0.1500 
 41 H       -5.8950     2.4670     2.6360 H     1 <1>   0.0800 
 42 H       -6.3070     3.6390     1.4040 H     1 <1>   0.0800 
 43 H       -5.4510     4.1460     2.8360 H     1 <1>   0.0800 
 44 H        7.9020    -0.4180     1.2050 H     1 <1>   0.1500 
 45 H        6.2470     3.2870     2.4990 H     1 <1>   0.1500 
 46 H        8.0220     1.5860     2.6250 H     1 <1>   0.1500 
@<TRIPOS>BOND
  1   1   2  2   
  2   2   3  am  
  3   2   4  1   
  4   3   5  1   
  5   3   6  am  
  6   4   7  1   
  7   4   8  1   
  8   4  25  1   
  9   5   9  ar  
 10   5  10  ar  
 11   6   8  1   
 12   6  11  2   
 13   7  12  1   
 14   7  13  1   
 15   8  26  1   
 16   8  27  1   
 17   9  14  ar  
 18   9  15  1   
 19  10  16  ar  
 20  10  28  1   
 21  12  17  1   
 22  12  29  1   
 23  12  30  1   
 24  13  31  1   
 25  13  32  1   
 26  13  33  1   
 27  14  18  ar  
 28  14  34  1   
 29  15  35  1   
 30  15  36  1   
 31  15  37  1   
 32  16  18  ar  
 33  16  38  1   
 34  17  19  ar  
 35  17  20  ar  
 36  18  21  1   
 37  19  22  ar  
 38  19  39  1   
 39  20  23  ar  
 40  20  40  1   
 41  21  41  1   
 42  21  42  1   
 43  21  43  1   
 44  22  24  ar  
 45  22  44  1   
 46  23  24  ar  
 47  23  45  1   
 48  24  46  1   
@<TRIPOS>SUBSTRUCTURE
  1 ****   2 GROUP 4 **** **** 0

# MOE 2024.06 (io_trps.svl 2023.06)
