@<TRIPOS>MOLECULE
NONAME
48 49 1 0 0 
SMALL
USER_CHARGES


@<TRIPOS>ATOM
  1 O        0.4960     0.3480    -0.9230 O.2   1 <1>  -0.5700 
  2 C        0.2470     1.4190    -0.4350 C.2   1 <1>   0.6590 
  3 O       -0.9530     1.7330     0.0260 O.3   1 <1>  -0.4300 
  4 C        1.3040     2.5040    -0.3210 C.3   1 <1>  -0.0190 
  5 C       -2.0240     0.8170    -0.0170 C.3   1 <1>   0.1200 
  6 C        2.5270     2.1180    -1.1750 C.3   1 <1>   0.3430 
  7 C        1.6990     2.7820     1.1440 C.3   1 <1>  -0.1600 
  8 C       -3.2470     1.4930     0.5940 C.3   1 <1>  -0.2400 
  9 N        3.8080     2.6840    -0.6400 N.4   1 <1>  -0.9590 
 10 C        2.7620     3.8980     1.2320 C.3   1 <1>  -0.1600 
 11 C        3.6570     4.0220    -0.0090 C.3   1 <1>   0.3430 
 12 C        4.9090     2.6280    -1.6330 C.3   1 <1>   0.4860 
 13 C        6.2140     2.8890    -0.9100 C.ar  1 <1>  -0.1430 
 14 C        6.6380     2.0370     0.1060 C.ar  1 <1>   0.0830 
 15 C        6.9870     3.9840    -1.2580 C.ar  1 <1>  -0.1500 
 16 O        5.8330     0.9830     0.4190 O.3   1 <1>  -0.3630 
 17 C        7.8400     2.2950     0.7610 C.ar  1 <1>  -0.1500 
 18 C        8.1780     4.2440    -0.6040 C.ar  1 <1>   0.0830 
 19 C        6.2980    -0.0600     1.2540 C.3   1 <1>   0.0400 
 20 C        8.6060     3.3920     0.4090 C.ar  1 <1>  -0.1500 
 21 O        8.8610     5.3440    -1.0100 O.3   1 <1>  -0.3620 
 22 C       10.1180     5.6700    -0.4570 C.3   1 <1>   0.0400 
 23 H        0.8760     3.3980    -0.7360 H     1 <1>   0.0800 
 24 H       -1.7470    -0.0600     0.5440 H     1 <1>   0.0800 
 25 H       -2.2050     0.5480    -1.0440 H     1 <1>   0.0800 
 26 H        2.3620     2.4580    -2.1840 H     1 <1>   0.0800 
 27 H        2.6190     1.0440    -1.2050 H     1 <1>   0.0800 
 28 H        2.0950     1.8770     1.5760 H     1 <1>   0.0800 
 29 H        0.8320     3.0610     1.7200 H     1 <1>   0.0800 
 30 H       -3.0520     1.7640     1.6160 H     1 <1>   0.0800 
 31 H       -4.0810     0.8150     0.5760 H     1 <1>   0.0800 
 32 H       -3.5090     2.3700     0.0310 H     1 <1>   0.0800 
 33 H        4.1450     2.0530     0.1080 H     1 <1>   0.4500 
 34 H        3.3800     3.7290     2.0980 H     1 <1>   0.0800 
 35 H        2.2740     4.8460     1.3820 H     1 <1>   0.0800 
 36 H        3.2080     4.7020    -0.7140 H     1 <1>   0.0800 
 37 H        4.6180     4.4190     0.2800 H     1 <1>   0.0800 
 38 H        4.7560     3.3600    -2.4090 H     1 <1>   0.0800 
 39 H        4.9500     1.6480    -2.0820 H     1 <1>   0.0800 
 40 H        6.6860     4.6570    -2.0420 H     1 <1>   0.1500 
 41 H        8.1980     1.6590     1.5490 H     1 <1>   0.1500 
 42 H        6.4590     0.3270     2.2450 H     1 <1>   0.0800 
 43 H        7.2100    -0.4580     0.8460 H     1 <1>   0.0800 
 44 H        5.5480    -0.8300     1.2830 H     1 <1>   0.0800 
 45 H        9.5270     3.5690     0.9320 H     1 <1>   0.1500 
 46 H       10.4770     6.5580    -0.9450 H     1 <1>   0.0800 
 47 H       10.7990     4.8570    -0.6340 H     1 <1>   0.0800 
 48 H       10.0010     5.8540     0.5960 H     1 <1>   0.0800 
@<TRIPOS>BOND
  1   1   2  2   
  2   2   3  1   
  3   2   4  1   
  4   3   5  1   
  5   4   6  1   
  6   4   7  1   
  7   4  23  1   
  8   5   8  1   
  9   5  24  1   
 10   5  25  1   
 11   6   9  1   
 12   6  26  1   
 13   6  27  1   
 14   7  10  1   
 15   7  28  1   
 16   7  29  1   
 17   8  30  1   
 18   8  31  1   
 19   8  32  1   
 20   9  11  1   
 21   9  12  1   
 22   9  33  1   
 23  10  11  1   
 24  10  34  1   
 25  10  35  1   
 26  11  36  1   
 27  11  37  1   
 28  12  13  1   
 29  12  38  1   
 30  12  39  1   
 31  13  14  ar  
 32  13  15  ar  
 33  14  16  1   
 34  14  17  ar  
 35  15  18  ar  
 36  15  40  1   
 37  16  19  1   
 38  17  20  ar  
 39  17  41  1   
 40  18  20  ar  
 41  18  21  1   
 42  19  42  1   
 43  19  43  1   
 44  19  44  1   
 45  20  45  1   
 46  21  22  1   
 47  22  46  1   
 48  22  47  1   
 49  22  48  1   
@<TRIPOS>SUBSTRUCTURE
  1 ****   9 GROUP 4 **** **** 0

# MOE 2024.06 (io_trps.svl 2023.06)
