@<TRIPOS>MOLECULE
NONAME
36 39 1 0 0 
SMALL
USER_CHARGES


@<TRIPOS>ATOM
  1 CL       0.1930     0.8820    -2.6140 Cl    1 <1>  -0.1770 
  2 C       -0.0210     2.2500    -1.5530 C.ar  1 <1>   0.1770 
  3 C       -1.2820     2.7810    -1.3820 C.ar  1 <1>  -0.1500 
  4 C        1.0750     2.7790    -0.9020 C.ar  1 <1>  -0.1500 
  5 C       -1.4680     3.8720    -0.5410 C.ar  1 <1>   0.1170 
  6 C        0.8970     3.8630    -0.0600 C.ar  1 <1>  -0.1500 
  7 N       -2.7660     4.3990    -0.3870 N.am  1 <1>  -0.2370 
  8 C       -0.3640     4.4120     0.1290 C.ar  1 <1>  -0.1430 
  9 C       -3.8420     3.7180     0.1560 C.2   1 <1>   0.5690 
 10 C       -3.1930     5.6520    -0.7940 C.2   1 <1>   0.5690 
 11 C       -0.5050     5.5980     1.0750 C.3   1 <1>  -0.0970 
 12 O       -3.8410     2.6980     0.7930 O.2   1 <1>  -0.5700 
 13 C       -5.0770     4.4650    -0.2370 C.3   1 <1>  -0.0190 
 14 O       -2.6250     6.4470    -1.4950 O.2   1 <1>  -0.5700 
 15 C       -4.5240     5.8820    -0.1490 C.3   1 <1>  -0.0190 
 16 C       -6.5170     4.6950     0.2530 C.3   1 <1>   0.4180 
 17 C       -5.8160     6.6920    -0.1990 C.3   1 <1>   0.3380 
 18 O       -6.4410     5.9710     0.8240 O.3   1 <1>  -0.5600 
 19 C       -7.2620     5.1200    -0.9980 C.2   1 <1>  -0.2880 
 20 C       -7.1650     3.6630     1.1930 C.3   1 <1>   0.1200 
 21 C       -6.7830     6.3220    -1.3100 C.2   1 <1>  -0.2880 
 22 O       -8.4000     4.1190     1.6420 O.3   1 <1>  -0.6800 
 23 H       -2.1120     2.3410    -1.9020 H     1 <1>   0.1500 
 24 H        2.0480     2.3480    -1.0530 H     1 <1>   0.1500 
 25 H        1.7520     4.2750     0.4480 H     1 <1>   0.1500 
 26 H       -1.3130     5.4340     1.7650 H     1 <1>   0.0800 
 27 H       -0.6960     6.4950     0.5130 H     1 <1>   0.0800 
 28 H        0.3940     5.7450     1.6460 H     1 <1>   0.0800 
 29 H       -5.1760     4.1670    -1.2700 H     1 <1>   0.0800 
 30 H       -4.1990     6.0800     0.8630 H     1 <1>   0.0800 
 31 H       -5.7550     7.7350     0.0640 H     1 <1>   0.0800 
 32 H       -7.9850     4.4730    -1.4660 H     1 <1>   0.1500 
 33 H       -6.5340     3.4970     2.0480 H     1 <1>   0.0800 
 34 H       -7.3170     2.7270     0.6850 H     1 <1>   0.0800 
 35 H       -6.9770     6.9930    -2.1290 H     1 <1>   0.1500 
 36 H       -8.3340     5.0830     1.8160 H     1 <1>   0.4000 
@<TRIPOS>BOND
  1   1   2  1   
  2   2   3  ar  
  3   2   4  ar  
  4   3   5  ar  
  5   3  23  1   
  6   4   6  ar  
  7   4  24  1   
  8   5   7  1   
  9   5   8  ar  
 10   6   8  ar  
 11   6  25  1   
 12   7   9  am  
 13   7  10  am  
 14   8  11  1   
 15   9  12  2   
 16   9  13  1   
 17  10  14  2   
 18  10  15  1   
 19  11  26  1   
 20  11  27  1   
 21  11  28  1   
 22  13  15  1   
 23  13  16  1   
 24  13  29  1   
 25  15  17  1   
 26  15  30  1   
 27  16  18  1   
 28  16  19  1   
 29  16  20  1   
 30  17  18  1   
 31  17  21  1   
 32  17  31  1   
 33  19  21  2   
 34  19  32  1   
 35  20  22  1   
 36  20  33  1   
 37  20  34  1   
 38  21  35  1   
 39  22  36  1   
@<TRIPOS>SUBSTRUCTURE
  1 ****   7 GROUP 4 **** **** 0

# MOE 2024.06 (io_trps.svl 2023.06)
