@<TRIPOS>MOLECULE
NONAME
38 38 1 0 0 
SMALL
USER_CHARGES


@<TRIPOS>ATOM
  1 O       -1.7480    -0.5880    -1.7990 O.co2 1 <1>  -0.9000 
  2 C       -0.6040    -0.7990    -1.3680 C.2   1 <1>   0.9060 
  3 O        0.3010     0.0330    -1.3750 O.co2 1 <1>  -0.9000 
  4 C       -0.3800    -2.1590    -0.7010 C.3   1 <1>   0.2370 
  5 N       -1.6890    -2.7490    -0.2070 N.4   1 <1>  -0.9590 
  6 C       -2.1760    -1.9860     0.9800 C.3   1 <1>   0.3430 
  7 C       -1.6550    -4.2240    -0.0170 C.3   1 <1>   0.2630 
  8 C       -3.6440    -1.5870     0.8140 C.3   1 <1>  -0.0990 
  9 C       -4.6130    -2.7350     1.0550 C.2   1 <1>   0.4230 
 10 O       -4.1750    -3.7040     1.6250 O.2   1 <1>  -0.5700 
 11 C       -5.9960    -2.6330     0.6320 C.ar  1 <1>   0.0860 
 12 C       -6.8610    -3.7190     0.8040 C.ar  1 <1>  -0.1500 
 13 C       -6.5460    -1.4820     0.0530 C.ar  1 <1>  -0.1500 
 14 C       -8.1900    -3.6710     0.4260 C.ar  1 <1>  -0.1500 
 15 C       -7.8740    -1.4270    -0.3290 C.ar  1 <1>  -0.1500 
 16 C       -8.7100    -2.5150    -0.1460 C.ar  1 <1>   0.0820 
 17 O       -9.9940    -2.3780    -0.5410 O.3   1 <1>  -0.3620 
 18 C      -10.9380    -3.4120    -0.3860 C.3   1 <1>   0.1200 
 19 C      -12.2760    -2.9140    -0.9250 C.3   1 <1>  -0.2400 
 20 H        0.3140    -2.0310     0.1090 H     1 <1>   0.0800 
 21 H        0.0620    -2.8030    -1.4380 H     1 <1>   0.0800 
 22 H       -2.3240    -2.4730    -0.9850 H     1 <1>   0.4500 
 23 H       -1.5980    -1.0810     1.0760 H     1 <1>   0.0800 
 24 H       -2.0450    -2.5650     1.8800 H     1 <1>   0.0800 
 25 H       -0.9980    -4.4790     0.7970 H     1 <1>   0.0800 
 26 H       -1.3030    -4.7050    -0.9140 H     1 <1>   0.0800 
 27 H       -2.6410    -4.5960     0.2070 H     1 <1>   0.0800 
 28 H       -3.7790    -1.1620    -0.1640 H     1 <1>   0.0800 
 29 H       -3.8620    -0.8230     1.5370 H     1 <1>   0.0800 
 30 H       -6.4810    -4.6230     1.2490 H     1 <1>   0.1500 
 31 H       -5.9460    -0.6050    -0.1090 H     1 <1>   0.1500 
 32 H       -8.8050    -4.5360     0.5840 H     1 <1>   0.1500 
 33 H       -8.2770    -0.5340    -0.7730 H     1 <1>   0.1500 
 34 H      -11.0150    -3.6500     0.6610 H     1 <1>   0.0800 
 35 H      -10.5990    -4.2700    -0.9410 H     1 <1>   0.0800 
 36 H      -12.5970    -2.0480    -0.3750 H     1 <1>   0.0800 
 37 H      -13.0200    -3.6830    -0.8210 H     1 <1>   0.0800 
 38 H      -12.1840    -2.6640    -1.9670 H     1 <1>   0.0800 
@<TRIPOS>BOND
  1   1   2  ar  
  2   2   3  ar  
  3   2   4  1   
  4   4   5  1   
  5   4  20  1   
  6   4  21  1   
  7   5   6  1   
  8   5   7  1   
  9   5  22  1   
 10   6   8  1   
 11   6  23  1   
 12   6  24  1   
 13   7  25  1   
 14   7  26  1   
 15   7  27  1   
 16   8   9  1   
 17   8  28  1   
 18   8  29  1   
 19   9  10  2   
 20   9  11  1   
 21  11  12  ar  
 22  11  13  ar  
 23  12  14  ar  
 24  12  30  1   
 25  13  15  ar  
 26  13  31  1   
 27  14  16  ar  
 28  14  32  1   
 29  15  16  ar  
 30  15  33  1   
 31  16  17  1   
 32  17  18  1   
 33  18  19  1   
 34  18  34  1   
 35  18  35  1   
 36  19  36  1   
 37  19  37  1   
 38  19  38  1   
@<TRIPOS>SUBSTRUCTURE
  1 ****  11 GROUP 4 **** **** 0

# MOE 2024.06 (io_trps.svl 2023.06)
