@<TRIPOS>MOLECULE
NONAME
46 47 1 0 0 
SMALL
USER_CHARGES


@<TRIPOS>ATOM
  1 O       -0.3640    -0.2830     0.3660 O.3   1 <1>  -0.5600 
  2 C       -1.1360    -0.5200    -0.7810 C.3   1 <1>   0.2000 
  3 C        0.8630    -0.9580     0.4820 C.3   1 <1>   0.2000 
  4 C       -1.4960    -2.0260    -0.8950 C.3   1 <1>   0.3430 
  5 C       -0.4080     0.0310    -2.0140 C.3   1 <1>  -0.2400 
  6 C        0.7620    -2.4240    -0.0160 C.3   1 <1>   0.3430 
  7 C        1.2420    -0.8890     1.9600 C.3   1 <1>  -0.2400 
  8 N       -0.6590    -2.8980     0.0070 N.4   1 <1>  -0.9590 
  9 C       -0.7800    -4.3630    -0.2840 C.3   1 <1>   0.3430 
 10 C       -2.1990    -4.8810    -0.0520 C.3   1 <1>   0.1200 
 11 O       -2.2030    -6.2580    -0.3280 O.3   1 <1>  -0.3630 
 12 C       -3.3390    -7.0180    -0.3000 C.ar  1 <1>   0.0830 
 13 C       -4.6270    -6.5970     0.0870 C.ar  1 <1>   0.0830 
 14 C       -3.1460    -8.3300    -0.7030 C.ar  1 <1>  -0.1500 
 15 O       -4.8430    -5.3120     0.4990 O.3   1 <1>  -0.3630 
 16 C       -5.6740    -7.5180     0.0430 C.ar  1 <1>  -0.1500 
 17 C       -4.1940    -9.2300    -0.7380 C.ar  1 <1>  -0.1500 
 18 C       -6.0660    -4.9010     1.0680 C.3   1 <1>   0.1200 
 19 C       -5.4590    -8.8220    -0.3650 C.ar  1 <1>  -0.1500 
 20 C       -5.9130    -3.4520     1.5190 C.3   1 <1>  -0.2400 
 21 H       -2.0480     0.0410    -0.6580 H     1 <1>   0.0800 
 22 H        1.6000    -0.4240    -0.0950 H     1 <1>   0.0800 
 23 H       -1.3730    -2.3300    -1.9210 H     1 <1>   0.0800 
 24 H       -2.5380    -2.1480    -0.6490 H     1 <1>   0.0800 
 25 H        0.4790    -0.5290    -2.2460 H     1 <1>   0.0800 
 26 H       -0.1440     1.0620    -1.8490 H     1 <1>   0.0800 
 27 H       -1.0590    -0.0080    -2.8690 H     1 <1>   0.0800 
 28 H        1.3820    -3.0510     0.6040 H     1 <1>   0.0800 
 29 H        1.1460    -2.4780    -1.0210 H     1 <1>   0.0800 
 30 H        0.5070    -1.3850     2.5690 H     1 <1>   0.0800 
 31 H        1.3130     0.1400     2.2680 H     1 <1>   0.0800 
 32 H        2.1980    -1.3520     2.1250 H     1 <1>   0.0800 
 33 H       -0.9880    -2.7050     0.9660 H     1 <1>   0.4500 
 34 H       -0.1130    -4.9120     0.3600 H     1 <1>   0.0800 
 35 H       -0.5020    -4.5540    -1.3070 H     1 <1>   0.0800 
 36 H       -2.8970    -4.4110    -0.7210 H     1 <1>   0.0800 
 37 H       -2.4910    -4.7480     0.9740 H     1 <1>   0.0800 
 38 H       -2.1620    -8.6510    -0.9950 H     1 <1>   0.1500 
 39 H       -6.6750    -7.2470     0.3200 H     1 <1>   0.1500 
 40 H       -4.0240   -10.2450    -1.0540 H     1 <1>   0.1500 
 41 H       -6.2850    -5.5390     1.9080 H     1 <1>   0.0800 
 42 H       -6.8380    -4.9860     0.3220 H     1 <1>   0.0800 
 43 H       -6.2780    -9.5210    -0.3920 H     1 <1>   0.1500 
 44 H       -5.1330    -3.3720     2.2550 H     1 <1>   0.0800 
 45 H       -6.8320    -3.1130     1.9610 H     1 <1>   0.0800 
 46 H       -5.6880    -2.8220     0.6770 H     1 <1>   0.0800 
@<TRIPOS>BOND
  1   1   2  1   
  2   1   3  1   
  3   2   4  1   
  4   2   5  1   
  5   2  21  1   
  6   3   6  1   
  7   3   7  1   
  8   3  22  1   
  9   4   8  1   
 10   4  23  1   
 11   4  24  1   
 12   5  25  1   
 13   5  26  1   
 14   5  27  1   
 15   6   8  1   
 16   6  28  1   
 17   6  29  1   
 18   7  30  1   
 19   7  31  1   
 20   7  32  1   
 21   8   9  1   
 22   8  33  1   
 23   9  10  1   
 24   9  34  1   
 25   9  35  1   
 26  10  11  1   
 27  10  36  1   
 28  10  37  1   
 29  11  12  1   
 30  12  13  ar  
 31  12  14  ar  
 32  13  15  1   
 33  13  16  ar  
 34  14  17  ar  
 35  14  38  1   
 36  15  18  1   
 37  16  19  ar  
 38  16  39  1   
 39  17  19  ar  
 40  17  40  1   
 41  18  20  1   
 42  18  41  1   
 43  18  42  1   
 44  19  43  1   
 45  20  44  1   
 46  20  45  1   
 47  20  46  1   
@<TRIPOS>SUBSTRUCTURE
  1 ****  10 GROUP 4 **** **** 0

# MOE 2024.06 (io_trps.svl 2023.06)
