@<TRIPOS>MOLECULE
NONAME
26 26 1 0 0 
SMALL
USER_CHARGES


@<TRIPOS>ATOM
  1 BR      -0.4500    -0.2260    -1.8130 Br    1 <1>  -0.1110 
  2 C       -2.0730     0.0200    -0.8040 C.ar  1 <1>   0.1110 
  3 C       -2.9210    -1.0580    -0.6330 C.ar  1 <1>  -0.1500 
  4 C       -2.3470     1.2650    -0.2750 C.ar  1 <1>  -0.1500 
  5 C       -4.0910    -0.8870     0.0910 C.ar  1 <1>  -0.1440 
  6 C       -3.5150     1.4290     0.4460 C.ar  1 <1>  -0.1500 
  7 C       -4.3970     0.3670     0.6320 C.ar  1 <1>   0.1990 
  8 C       -5.0220    -2.0780     0.2880 C.3   1 <1>  -0.0960 
  9 N       -5.5660     0.5530     1.3560 N.am  1 <1>  -0.7570 
 10 S       -6.8320     1.6180     0.9100 S.o2  1 <1>   1.3330 
 11 O       -7.7890     1.4890     1.9790 O.2   1 <1>  -0.6500 
 12 O       -6.2280     2.8930     0.6130 O.2   1 <1>  -0.6500 
 13 C       -7.4830     0.8520    -0.5800 C.3   1 <1>  -0.0550 
 14 C       -8.6720     1.5970    -1.2120 C.3   1 <1>  -0.2400 
 15 H       -2.6600    -2.0080    -1.0630 H     1 <1>   0.1500 
 16 H       -1.6640     2.0820    -0.4250 H     1 <1>   0.1500 
 17 H       -3.7460     2.3920     0.8680 H     1 <1>   0.1500 
 18 H       -4.5910    -2.9780    -0.1120 H     1 <1>   0.0800 
 19 H       -5.9590    -1.8990    -0.2080 H     1 <1>   0.0800 
 20 H       -5.2090    -2.2300     1.3360 H     1 <1>   0.0800 
 21 H       -5.4630     0.5950     2.3660 H     1 <1>   0.4200 
 22 H       -7.7920    -0.1490    -0.3470 H     1 <1>   0.0800 
 23 H       -6.6960     0.7870    -1.3070 H     1 <1>   0.0800 
 24 H       -9.4880     1.6530    -0.5120 H     1 <1>   0.0800 
 25 H       -9.0060     1.0840    -2.0960 H     1 <1>   0.0800 
 26 H       -8.3800     2.5980    -1.4810 H     1 <1>   0.0800 
@<TRIPOS>BOND
  1   1   2  1   
  2   2   3  ar  
  3   2   4  ar  
  4   3   5  ar  
  5   3  15  1   
  6   4   6  ar  
  7   4  16  1   
  8   5   7  ar  
  9   5   8  1   
 10   6   7  ar  
 11   6  17  1   
 12   7   9  1   
 13   8  18  1   
 14   8  19  1   
 15   8  20  1   
 16   9  10  am  
 17   9  21  1   
 18  10  11  2   
 19  10  12  2   
 20  10  13  1   
 21  13  14  1   
 22  13  22  1   
 23  13  23  1   
 24  14  24  1   
 25  14  25  1   
 26  14  26  1   
@<TRIPOS>SUBSTRUCTURE
  1 ****   7 GROUP 4 **** **** 0

# MOE 2024.06 (io_trps.svl 2023.06)
