@<TRIPOS>MOLECULE
NONAME
43 45 1 0 0 
SMALL
USER_CHARGES


@<TRIPOS>ATOM
  1 F        1.1490    -0.3240    -1.0900 F     1 <1>  -0.1900 
  2 C        0.7870    -1.4400    -0.5010 C.ar  1 <1>   0.1900 
  3 C        1.5380    -1.9450     0.5720 C.ar  1 <1>   0.1000 
  4 C       -0.3460    -2.0640    -0.9840 C.ar  1 <1>  -0.1500 
  5 N        2.6970    -1.3600     1.1060 N.pl3 1 <1>  -0.8690 
  6 C        1.0760    -3.1210     1.1530 C.ar  1 <1>  -0.1500 
  7 C       -0.7710    -3.2390    -0.3860 C.ar  1 <1>  -0.1500 
  8 C        3.7430    -0.8390     0.2200 C.3   1 <1>   0.2890 
  9 C       -0.0590    -3.7610     0.6810 C.ar  1 <1>  -0.1500 
 10 C        5.0620    -1.5370     0.5310 C.3   1 <1>  -0.1600 
 11 C        3.8600     0.6640     0.4530 C.3   1 <1>  -0.1600 
 12 C        6.1870    -0.9350    -0.3060 C.3   1 <1>   0.3430 
 13 C        4.9890     1.2450    -0.3880 C.3   1 <1>   0.3430 
 14 N        6.2650     0.5400    -0.0700 N.4   1 <1>  -0.9590 
 15 C        7.4140     1.1500    -0.7950 C.3   1 <1>   0.4860 
 16 C        8.6970     0.5590    -0.2460 C.ar  1 <1>  -0.1430 
 17 C        9.1600     0.9320     1.0090 C.ar  1 <1>  -0.1500 
 18 C        9.4170    -0.3640    -0.9920 C.ar  1 <1>  -0.1500 
 19 C       10.3210     0.3770     1.5160 C.ar  1 <1>  -0.1500 
 20 C       10.5780    -0.9180    -0.4830 C.ar  1 <1>  -0.1500 
 21 C       11.0290    -0.5490     0.7720 C.ar  1 <1>  -0.1500 
 22 H       -0.8870    -1.6390    -1.8090 H     1 <1>   0.1500 
 23 H        3.0660    -1.8450     1.9300 H     1 <1>   0.4000 
 24 H        1.6070    -3.5440     1.9860 H     1 <1>   0.1500 
 25 H       -1.6520    -3.7410    -0.7480 H     1 <1>   0.1500 
 26 H        3.4800    -1.0300    -0.8090 H     1 <1>   0.0800 
 27 H       -0.3930    -4.6720     1.1490 H     1 <1>   0.1500 
 28 H        4.9730    -2.5830     0.2950 H     1 <1>   0.0800 
 29 H        5.3030    -1.4430     1.5750 H     1 <1>   0.0800 
 30 H        4.0370     0.8680     1.4940 H     1 <1>   0.0800 
 31 H        2.9370     1.1390     0.1740 H     1 <1>   0.0800 
 32 H        6.0030    -1.1290    -1.3510 H     1 <1>   0.0800 
 33 H        7.1210    -1.4030    -0.0350 H     1 <1>   0.0800 
 34 H        5.0830     2.2990    -0.1790 H     1 <1>   0.0800 
 35 H        4.7530     1.1260    -1.4340 H     1 <1>   0.0800 
 36 H        6.4640     0.6670     0.9300 H     1 <1>   0.4500 
 37 H        7.4250     2.2170    -0.6450 H     1 <1>   0.0800 
 38 H        7.3390     0.9530    -1.8520 H     1 <1>   0.0800 
 39 H        8.6340     1.6580     1.6050 H     1 <1>   0.1500 
 40 H        9.0910    -0.6620    -1.9740 H     1 <1>   0.1500 
 41 H       10.6820     0.6650     2.4890 H     1 <1>   0.1500 
 42 H       11.1370    -1.6340    -1.0610 H     1 <1>   0.1500 
 43 H       11.9340    -0.9800     1.1660 H     1 <1>   0.1500 
@<TRIPOS>BOND
  1   1   2  1   
  2   2   3  ar  
  3   2   4  ar  
  4   3   5  1   
  5   3   6  ar  
  6   4   7  ar  
  7   4  22  1   
  8   5   8  1   
  9   5  23  1   
 10   6   9  ar  
 11   6  24  1   
 12   7   9  ar  
 13   7  25  1   
 14   8  10  1   
 15   8  11  1   
 16   8  26  1   
 17   9  27  1   
 18  10  12  1   
 19  10  28  1   
 20  10  29  1   
 21  11  13  1   
 22  11  30  1   
 23  11  31  1   
 24  12  14  1   
 25  12  32  1   
 26  12  33  1   
 27  13  14  1   
 28  13  34  1   
 29  13  35  1   
 30  14  15  1   
 31  14  36  1   
 32  15  16  1   
 33  15  37  1   
 34  15  38  1   
 35  16  17  ar  
 36  16  18  ar  
 37  17  19  ar  
 38  17  39  1   
 39  18  20  ar  
 40  18  40  1   
 41  19  21  ar  
 42  19  41  1   
 43  20  21  ar  
 44  20  42  1   
 45  21  43  1   
@<TRIPOS>SUBSTRUCTURE
  1 ****  10 GROUP 4 **** **** 0

# MOE 2024.06 (io_trps.svl 2023.06)
