@<TRIPOS>MOLECULE
NONAME
49 50 1 0 0 
SMALL
USER_CHARGES


@<TRIPOS>ATOM
  1 S       -0.2440     0.1370     0.4710 S.o2  1 <1>   1.3330 
  2 O       -0.5970     0.8850     1.6520 O.2   1 <1>  -0.6500 
  3 O       -0.4130    -1.2950     0.4240 O.2   1 <1>  -0.6500 
  4 N        1.4180     0.4560     0.1230 N.am  1 <1>  -0.6930 
  5 C       -1.0730     0.8270    -0.9460 C.3   1 <1>  -0.1350 
  6 C        1.8240     1.7210    -0.2850 C.ar  1 <1>   0.1990 
  7 C        2.3830    -0.5080     0.7490 C.3   1 <1>   0.3370 
  8 C        1.6210     2.8390     0.5150 C.ar  1 <1>  -0.1500 
  9 C        2.4470     1.8860    -1.5160 C.ar  1 <1>  -0.1500 
 10 C        3.4810     0.0910     1.6630 C.2   1 <1>   0.5690 
 11 C        3.0000    -1.3610    -0.3650 C.3   1 <1>  -0.2400 
 12 C        2.0210     4.0950     0.0960 C.ar  1 <1>  -0.1440 
 13 C        2.8600     3.1350    -1.9440 C.ar  1 <1>  -0.1440 
 14 O        3.6600    -0.4170     2.7460 O.2   1 <1>  -0.5700 
 15 N        4.2650     1.1230     1.2410 N.am  1 <1>  -0.7300 
 16 C        2.6390     4.2370    -1.1360 C.ar  1 <1>  -0.1500 
 17 C        1.7960     5.3120     0.9750 C.3   1 <1>  -0.0970 
 18 C        3.5480     3.3120    -3.2860 C.3   1 <1>  -0.0970 
 19 C        5.3930     1.7060     1.9830 C.3   1 <1>   0.2200 
 20 C        5.1340     3.1950     2.1940 C.3   1 <1>  -0.1600 
 21 C        6.6270     1.6700     1.0920 C.3   1 <1>  -0.1600 
 22 C        5.7230     3.9250     0.9780 C.3   1 <1>  -0.1600 
 23 C        6.4790     2.8730     0.1610 C.3   1 <1>  -0.1600 
 24 H       -2.1280     0.6570    -0.8700 H     1 <1>   0.0800 
 25 H       -0.7120     0.3660    -1.8440 H     1 <1>   0.0800 
 26 H       -0.8980     1.8830    -1.0020 H     1 <1>   0.0800 
 27 H        1.8260    -1.1750     1.3840 H     1 <1>   0.0800 
 28 H        1.1530     2.7160     1.4760 H     1 <1>   0.1500 
 29 H        2.5990     1.0240    -2.1390 H     1 <1>   0.1500 
 30 H        3.6390    -0.7660    -0.9900 H     1 <1>   0.0800 
 31 H        2.2250    -1.8140    -0.9570 H     1 <1>   0.0800 
 32 H        3.5920    -2.1430     0.0740 H     1 <1>   0.0800 
 33 H        4.0130     1.6290     0.3880 H     1 <1>   0.3700 
 34 H        2.9520     5.2130    -1.4650 H     1 <1>   0.1500 
 35 H        1.2080     5.0590     1.8380 H     1 <1>   0.0800 
 36 H        1.2790     6.0750     0.4210 H     1 <1>   0.0800 
 37 H        2.7410     5.7030     1.3070 H     1 <1>   0.0800 
 38 H        3.7090     2.3640    -3.7660 H     1 <1>   0.0800 
 39 H        4.5000     3.7920    -3.1490 H     1 <1>   0.0800 
 40 H        2.9410     3.9240    -3.9290 H     1 <1>   0.0800 
 41 H        5.5470     1.1830     2.9140 H     1 <1>   0.0800 
 42 H        5.6630     3.5090     3.0770 H     1 <1>   0.0800 
 43 H        4.0870     3.4030     2.3340 H     1 <1>   0.0800 
 44 H        6.7210     0.7390     0.5620 H     1 <1>   0.0800 
 45 H        7.4980     1.8070     1.7090 H     1 <1>   0.0800 
 46 H        6.3950     4.6990     1.3060 H     1 <1>   0.0800 
 47 H        4.9470     4.3730     0.3840 H     1 <1>   0.0800 
 48 H        5.8880     2.5930    -0.6940 H     1 <1>   0.0800 
 49 H        7.4340     3.2360    -0.1780 H     1 <1>   0.0800 
@<TRIPOS>BOND
  1   1   2  2   
  2   1   3  2   
  3   1   4  am  
  4   1   5  1   
  5   4   6  1   
  6   4   7  1   
  7   5  24  1   
  8   5  25  1   
  9   5  26  1   
 10   6   8  ar  
 11   6   9  ar  
 12   7  10  1   
 13   7  11  1   
 14   7  27  1   
 15   8  12  ar  
 16   8  28  1   
 17   9  13  ar  
 18   9  29  1   
 19  10  14  2   
 20  10  15  am  
 21  11  30  1   
 22  11  31  1   
 23  11  32  1   
 24  12  16  ar  
 25  12  17  1   
 26  13  16  ar  
 27  13  18  1   
 28  15  19  1   
 29  15  33  1   
 30  16  34  1   
 31  17  35  1   
 32  17  36  1   
 33  17  37  1   
 34  18  38  1   
 35  18  39  1   
 36  18  40  1   
 37  19  20  1   
 38  19  21  1   
 39  19  41  1   
 40  20  22  1   
 41  20  42  1   
 42  20  43  1   
 43  21  23  1   
 44  21  44  1   
 45  21  45  1   
 46  22  23  1   
 47  22  46  1   
 48  22  47  1   
 49  23  48  1   
 50  23  49  1   
@<TRIPOS>SUBSTRUCTURE
  1 ****   6 GROUP 4 **** **** 0

# MOE 2024.06 (io_trps.svl 2023.06)
