@<TRIPOS>MOLECULE
NONAME
47 49 1 0 0 
SMALL
USER_CHARGES


@<TRIPOS>ATOM
  1 S        1.7050    -1.3970     1.1310 S.3   1 <1>  -0.0800 
  2 C        2.2030    -0.7730    -0.4080 C.2   1 <1>   0.4420 
  3 C        0.0890    -1.4320     0.5140 C.2   1 <1>   0.1980 
  4 N        1.2180    -0.6420    -1.2190 N.2   1 <1>  -0.3380 
  5 N        3.5440    -0.5080    -0.5620 N.am  1 <1>  -0.4940 
  6 N        0.0150    -1.0200    -0.6870 N.2   1 <1>  -0.3380 
  7 C       -1.0030    -1.9320     1.4470 C.3   1 <1>   0.0200 
  8 C        4.2450    -0.0460    -1.6350 C.2   1 <1>   0.5690 
  9 C       -2.3920    -1.9420     0.7940 C.3   1 <1>  -0.2400 
 10 O        3.7640     0.2130    -2.7090 O.2   1 <1>  -0.5700 
 11 C        5.7470     0.1420    -1.4220 C.3   1 <1>   0.1710 
 12 N        6.2950    -0.7030    -0.3190 N.3   1 <1>  -0.8100 
 13 C        7.6160    -0.1970     0.1210 C.3   1 <1>   0.1100 
 14 C        6.4370    -2.1160    -0.7580 C.3   1 <1>   0.1100 
 15 C        8.2240    -1.0390     1.2610 C.3   1 <1>   0.2090 
 16 C        7.0010    -3.0280     0.3500 C.3   1 <1>   0.2090 
 17 N        8.2670    -2.4940     0.9300 N.pl3 1 <1>  -0.8380 
 18 C        9.4700    -3.0380     0.5010 C.ar  1 <1>   0.1000 
 19 C       10.1810    -3.8700     1.3530 C.ar  1 <1>  -0.1500 
 20 C        9.9850    -2.7750    -0.7620 C.ar  1 <1>  -0.1500 
 21 C       11.3880    -4.4430     0.9700 C.ar  1 <1>  -0.1440 
 22 C       11.1840    -3.3320    -1.1610 C.ar  1 <1>  -0.1500 
 23 C       11.8830    -4.1610    -0.3000 C.ar  1 <1>  -0.1500 
 24 C       12.1690    -5.3600     1.9220 C.3   1 <1>   1.1630 
 25 F       13.1600    -4.7190     2.5280 F     1 <1>  -0.3400 
 26 F       11.4190    -5.8830     2.8860 F     1 <1>  -0.3400 
 27 F       12.7260    -6.3890     1.2920 F     1 <1>  -0.3400 
 28 H        4.1550    -0.7190     0.2300 H     1 <1>   0.3700 
 29 H       -1.0270    -1.3020     2.3180 H     1 <1>   0.0800 
 30 H       -0.7560    -2.9300     1.7630 H     1 <1>   0.0800 
 31 H       -2.6640    -0.9470     0.4850 H     1 <1>   0.0800 
 32 H       -3.1290    -2.3030     1.4890 H     1 <1>   0.0800 
 33 H       -2.3900    -2.5800    -0.0730 H     1 <1>   0.0800 
 34 H        5.9010     1.1800    -1.1880 H     1 <1>   0.0800 
 35 H        6.2610    -0.0670    -2.3440 H     1 <1>   0.0800 
 36 H        7.5120     0.8170     0.4680 H     1 <1>   0.0800 
 37 H        8.3020    -0.1920    -0.7080 H     1 <1>   0.0800 
 38 H        7.0920    -2.1700    -1.6110 H     1 <1>   0.0800 
 39 H        5.4790    -2.5020    -1.0600 H     1 <1>   0.0800 
 40 H        7.6350    -0.9040     2.1510 H     1 <1>   0.0800 
 41 H        9.2210    -0.6900     1.4710 H     1 <1>   0.0800 
 42 H        7.1790    -4.0100    -0.0530 H     1 <1>   0.0800 
 43 H        6.2720    -3.1220     1.1350 H     1 <1>   0.0800 
 44 H        9.7620    -4.0560     2.3270 H     1 <1>   0.1500 
 45 H        9.4430    -2.1340    -1.4280 H     1 <1>   0.1500 
 46 H       11.5750    -3.1220    -2.1410 H     1 <1>   0.1500 
 47 H       12.8180    -4.5860    -0.6270 H     1 <1>   0.1500 
@<TRIPOS>BOND
  1   1   2  1   
  2   1   3  1   
  3   2   4  2   
  4   2   5  1   
  5   3   6  2   
  6   3   7  1   
  7   4   6  1   
  8   5   8  am  
  9   5  28  1   
 10   7   9  1   
 11   7  29  1   
 12   7  30  1   
 13   8  10  2   
 14   8  11  1   
 15   9  31  1   
 16   9  32  1   
 17   9  33  1   
 18  11  12  1   
 19  11  34  1   
 20  11  35  1   
 21  12  13  1   
 22  12  14  1   
 23  13  15  1   
 24  13  36  1   
 25  13  37  1   
 26  14  16  1   
 27  14  38  1   
 28  14  39  1   
 29  15  17  1   
 30  15  40  1   
 31  15  41  1   
 32  16  17  1   
 33  16  42  1   
 34  16  43  1   
 35  17  18  1   
 36  18  19  ar  
 37  18  20  ar  
 38  19  21  ar  
 39  19  44  1   
 40  20  22  ar  
 41  20  45  1   
 42  21  23  ar  
 43  21  24  1   
 44  22  23  ar  
 45  22  46  1   
 46  23  47  1   
 47  24  25  1   
 48  24  26  1   
 49  24  27  1   
@<TRIPOS>SUBSTRUCTURE
  1 ****  16 GROUP 4 **** **** 0

# MOE 2024.06 (io_trps.svl 2023.06)
