@<TRIPOS>MOLECULE
NONAME
54 55 1 0 0 
SMALL
USER_CHARGES


@<TRIPOS>ATOM
  1 O       -2.1500     0.7580     0.5130 O.3   1 <1>  -0.5600 
  2 C       -2.9710    -0.1870     1.1460 C.3   1 <1>   0.1200 
  3 C       -2.1660     2.0260     1.1130 C.3   1 <1>   0.1200 
  4 C       -4.4440     0.2840     1.1790 C.3   1 <1>   0.3430 
  5 C       -3.6010     2.6010     1.1760 C.3   1 <1>   0.3430 
  6 N       -4.6000     1.6550     0.5740 N.4   1 <1>  -0.9590 
  7 C       -5.9890     2.1880     0.6080 C.3   1 <1>   0.3430 
  8 C       -6.8970     1.3460    -0.2820 C.3   1 <1>  -0.1600 
  9 C       -8.3130     1.9200    -0.3130 C.3   1 <1>   0.1200 
 10 O       -9.1620     1.0660    -1.0560 O.3   1 <1>  -0.3630 
 11 C       -9.5280    -0.1260    -0.5200 C.ar  1 <1>   0.0830 
 12 C       -9.0460    -1.3180    -1.0850 C.ar  1 <1>  -0.1430 
 13 C      -10.3920    -0.1570     0.5850 C.ar  1 <1>  -0.1430 
 14 C       -9.3370    -2.5120    -0.4380 C.ar  1 <1>  -0.1500 
 15 C       -8.2510    -1.4760    -2.3970 C.3   1 <1>   0.0630 
 16 C      -10.6490    -1.3740     1.1980 C.ar  1 <1>  -0.1500 
 17 C      -11.1250     1.0840     1.1180 C.3   1 <1>   0.0630 
 18 C      -10.1130    -2.5430     0.7020 C.ar  1 <1>  -0.1500 
 19 C       -6.7670    -1.7720    -2.1420 C.3   1 <1>  -0.2400 
 20 C       -8.4110    -0.3590    -3.4350 C.3   1 <1>  -0.2400 
 21 C      -10.7370     1.3890     2.5720 C.3   1 <1>  -0.2400 
 22 C      -12.6440     0.9110     1.0010 C.3   1 <1>  -0.2400 
 23 H       -2.6010    -0.3520     2.1430 H     1 <1>   0.0800 
 24 H       -2.8900    -1.1110     0.6000 H     1 <1>   0.0800 
 25 H       -1.5330     2.6710     0.5290 H     1 <1>   0.0800 
 26 H       -1.7430     1.9450     2.1000 H     1 <1>   0.0800 
 27 H       -4.7880     0.2880     2.2000 H     1 <1>   0.0800 
 28 H       -5.0450    -0.4290     0.6390 H     1 <1>   0.0800 
 29 H       -3.6220     3.5430     0.6530 H     1 <1>   0.0800 
 30 H       -3.8520     2.7970     2.2050 H     1 <1>   0.0800 
 31 H       -4.3000     1.5450    -0.4070 H     1 <1>   0.4500 
 32 H       -5.9940     3.2050     0.2490 H     1 <1>   0.0800 
 33 H       -6.3620     2.1840     1.6200 H     1 <1>   0.0800 
 34 H       -6.9520     0.3470     0.1070 H     1 <1>   0.0800 
 35 H       -6.5130     1.3370    -1.2850 H     1 <1>   0.0800 
 36 H       -8.3290     2.8810    -0.7960 H     1 <1>   0.0800 
 37 H       -8.7000     2.0220     0.6820 H     1 <1>   0.0800 
 38 H       -8.9670    -3.4440    -0.8290 H     1 <1>   0.1500 
 39 H       -8.6550    -2.3530    -2.8760 H     1 <1>   0.0800 
 40 H      -11.2870    -1.4280     2.0630 H     1 <1>   0.1500 
 41 H      -10.8820     1.9400     0.5160 H     1 <1>   0.0800 
 42 H      -10.3200    -3.4810     1.1890 H     1 <1>   0.1500 
 43 H       -6.2650    -0.9160    -1.7430 H     1 <1>   0.0800 
 44 H       -6.2870    -2.0470    -3.0640 H     1 <1>   0.0800 
 45 H       -6.6630    -2.5890    -1.4520 H     1 <1>   0.0800 
 46 H       -7.8830     0.5280    -3.1410 H     1 <1>   0.0800 
 47 H       -9.4520    -0.1190    -3.5560 H     1 <1>   0.0800 
 48 H       -8.0240    -0.6790    -4.3860 H     1 <1>   0.0800 
 49 H      -11.0790     0.6110     3.2290 H     1 <1>   0.0800 
 50 H      -11.1820     2.3170     2.8860 H     1 <1>   0.0800 
 51 H       -9.6710     1.4680     2.6680 H     1 <1>   0.0800 
 52 H      -12.9960     0.1150     1.6310 H     1 <1>   0.0800 
 53 H      -12.9040     0.6810    -0.0180 H     1 <1>   0.0800 
 54 H      -13.1450     1.8190     1.2830 H     1 <1>   0.0800 
@<TRIPOS>BOND
  1   1   2  1   
  2   1   3  1   
  3   2   4  1   
  4   2  23  1   
  5   2  24  1   
  6   3   5  1   
  7   3  25  1   
  8   3  26  1   
  9   4   6  1   
 10   4  27  1   
 11   4  28  1   
 12   5   6  1   
 13   5  29  1   
 14   5  30  1   
 15   6   7  1   
 16   6  31  1   
 17   7   8  1   
 18   7  32  1   
 19   7  33  1   
 20   8   9  1   
 21   8  34  1   
 22   8  35  1   
 23   9  10  1   
 24   9  36  1   
 25   9  37  1   
 26  10  11  1   
 27  11  12  ar  
 28  11  13  ar  
 29  12  14  ar  
 30  12  15  1   
 31  13  16  ar  
 32  13  17  1   
 33  14  18  ar  
 34  14  38  1   
 35  15  19  1   
 36  15  20  1   
 37  15  39  1   
 38  16  18  ar  
 39  16  40  1   
 40  17  21  1   
 41  17  22  1   
 42  17  41  1   
 43  18  42  1   
 44  19  43  1   
 45  19  44  1   
 46  19  45  1   
 47  20  46  1   
 48  20  47  1   
 49  20  48  1   
 50  21  49  1   
 51  21  50  1   
 52  21  51  1   
 53  22  52  1   
 54  22  53  1   
 55  22  54  1   
@<TRIPOS>SUBSTRUCTURE
  1 ****   8 GROUP 4 **** **** 0

# MOE 2024.06 (io_trps.svl 2023.06)
