@<TRIPOS>MOLECULE
NONAME
49 50 1 0 0 
SMALL
USER_CHARGES


@<TRIPOS>ATOM
  1 F       -1.1710     0.3100    -2.1570 F     1 <1>  -0.3400 
  2 C       -0.6060    -0.7050    -1.5180 C.3   1 <1>   1.1640 
  3 F       -0.0140    -1.4490    -2.4430 F     1 <1>  -0.3400 
  4 F        0.3650    -0.1890    -0.7740 F     1 <1>  -0.3400 
  5 C       -1.6380    -1.4970    -0.6940 C.ar  1 <1>  -0.1440 
  6 C       -1.8480    -1.2200     0.6530 C.ar  1 <1>  -0.1500 
  7 C       -2.3900    -2.5060    -1.2860 C.ar  1 <1>  -0.1500 
  8 C       -2.7860    -1.9250     1.3850 C.ar  1 <1>  -0.1500 
  9 C       -3.3300    -3.2110    -0.5580 C.ar  1 <1>  -0.1500 
 10 C       -3.5450    -2.9150     0.7800 C.ar  1 <1>  -0.1430 
 11 C       -4.6170    -3.6500     1.5570 C.3   1 <1>   0.4870 
 12 N       -5.9190    -3.0660     1.1200 N.4   1 <1>  -0.9590 
 13 C       -6.0970    -1.7130     1.7280 C.3   1 <1>   0.4860 
 14 C       -7.0900    -3.9950     1.3450 C.3   1 <1>   0.3430 
 15 C       -7.1190    -0.9780     0.8890 C.ar  1 <1>  -0.1430 
 16 C       -7.8790    -4.3580     0.0500 C.3   1 <1>   0.3430 
 17 C       -6.8110    -0.6140    -0.4150 C.ar  1 <1>  -0.1500 
 18 C       -8.3630    -0.6610     1.4140 C.ar  1 <1>  -0.1500 
 19 N       -8.6670    -3.2280    -0.5680 N.4   1 <1>  -0.9590 
 20 C       -7.7520     0.0310    -1.1970 C.ar  1 <1>  -0.1500 
 21 C       -9.3000    -0.0080     0.6320 C.ar  1 <1>  -0.1500 
 22 C      -10.0570    -3.1520    -0.0060 C.3   1 <1>   0.2630 
 23 C       -8.7680    -3.3760    -2.0570 C.3   1 <1>   0.2630 
 24 C       -8.9970     0.3300    -0.6750 C.ar  1 <1>  -0.1500 
 25 H       -1.2730    -0.4490     1.1430 H     1 <1>   0.1500 
 26 H       -2.2380    -2.7490    -2.3270 H     1 <1>   0.1500 
 27 H       -2.9080    -1.6840     2.4290 H     1 <1>   0.1500 
 28 H       -3.8780    -3.9940    -1.0550 H     1 <1>   0.1500 
 29 H       -4.4720    -3.5290     2.6190 H     1 <1>   0.0800 
 30 H       -4.5670    -4.7000     1.3170 H     1 <1>   0.0800 
 31 H       -5.7880    -2.8840     0.1170 H     1 <1>   0.4500 
 32 H       -5.1730    -1.1590     1.7050 H     1 <1>   0.0800 
 33 H       -6.4250    -1.7900     2.7520 H     1 <1>   0.0800 
 34 H       -7.7710    -3.5650     2.0620 H     1 <1>   0.0800 
 35 H       -6.7260    -4.9150     1.7730 H     1 <1>   0.0800 
 36 H       -8.5580    -5.1650     0.2780 H     1 <1>   0.0800 
 37 H       -7.1760    -4.7400    -0.6720 H     1 <1>   0.0800 
 38 H       -5.8350    -0.8060    -0.8360 H     1 <1>   0.1500 
 39 H       -8.6170    -0.8980     2.4360 H     1 <1>   0.1500 
 40 H       -8.2260    -2.3010    -0.3840 H     1 <1>   0.4500 
 41 H       -7.5120     0.3260    -2.2070 H     1 <1>   0.1500 
 42 H      -10.2620     0.2570     1.0420 H     1 <1>   0.1500 
 43 H      -10.5990    -4.0620    -0.2070 H     1 <1>   0.0800 
 44 H      -10.5930    -2.3300    -0.4550 H     1 <1>   0.0800 
 45 H      -10.0280    -2.9920     1.0590 H     1 <1>   0.0800 
 46 H       -9.2710    -4.2960    -2.3130 H     1 <1>   0.0800 
 47 H       -7.7880    -3.3810    -2.5060 H     1 <1>   0.0800 
 48 H       -9.3270    -2.5540    -2.4760 H     1 <1>   0.0800 
 49 H       -9.7240     0.8500    -1.2800 H     1 <1>   0.1500 
@<TRIPOS>BOND
  1   1   2  1   
  2   2   3  1   
  3   2   4  1   
  4   2   5  1   
  5   5   6  ar  
  6   5   7  ar  
  7   6   8  ar  
  8   6  25  1   
  9   7   9  ar  
 10   7  26  1   
 11   8  10  ar  
 12   8  27  1   
 13   9  10  ar  
 14   9  28  1   
 15  10  11  1   
 16  11  12  1   
 17  11  29  1   
 18  11  30  1   
 19  12  13  1   
 20  12  14  1   
 21  12  31  1   
 22  13  15  1   
 23  13  32  1   
 24  13  33  1   
 25  14  16  1   
 26  14  34  1   
 27  14  35  1   
 28  15  17  ar  
 29  15  18  ar  
 30  16  19  1   
 31  16  36  1   
 32  16  37  1   
 33  17  20  ar  
 34  17  38  1   
 35  18  21  ar  
 36  18  39  1   
 37  19  22  1   
 38  19  23  1   
 39  19  40  1   
 40  20  24  ar  
 41  20  41  1   
 42  21  24  ar  
 43  21  42  1   
 44  22  43  1   
 45  22  44  1   
 46  22  45  1   
 47  23  46  1   
 48  23  47  1   
 49  23  48  1   
 50  24  49  1   
@<TRIPOS>SUBSTRUCTURE
  1 ****  12 GROUP 4 **** **** 0

# MOE 2024.06 (io_trps.svl 2023.06)
