@<TRIPOS>MOLECULE
NONAME
47 48 1 0 0 
SMALL
USER_CHARGES


@<TRIPOS>ATOM
  1 CL      -0.0250     0.0020    -0.3100 Cl    1 <1>  -0.1770 
  2 C        0.0150     1.7450    -0.1650 C.ar  1 <1>   0.1770 
  3 C        1.2240     2.4130    -0.0690 C.ar  1 <1>  -0.1440 
  4 C       -1.1880     2.4230    -0.1510 C.ar  1 <1>  -0.1500 
  5 C        1.2030     3.7930     0.0380 C.ar  1 <1>  -0.1500 
  6 C        2.5450     1.6570    -0.0850 C.3   1 <1>  -0.0960 
  7 C       -1.2200     3.8080    -0.0300 C.ar  1 <1>  -0.0090 
  8 C       -0.0070     4.4880     0.0520 C.ar  1 <1>   0.0830 
  9 S       -2.7800     4.7290    -0.0120 S.o2  1 <1>   1.4470 
 10 O       -0.0660     5.8390     0.1410 O.3   1 <1>  -0.3630 
 11 O       -2.9200     5.5830     1.1440 O.2   1 <1>  -0.6500 
 12 O       -3.1140     5.2190    -1.3310 O.2   1 <1>  -0.6500 
 13 N       -3.9400     3.5630     0.3370 N.am  1 <1>  -0.9140 
 14 C        1.0870     6.6460     0.2410 C.3   1 <1>   0.0400 
 15 C       -5.2650     3.9670    -0.0870 C.3   1 <1>   0.1960 
 16 C       -6.2580     2.8810     0.3150 C.3   1 <1>  -0.1600 
 17 C       -7.6440     3.2180    -0.2340 C.3   1 <1>   0.3430 
 18 N       -8.6400     2.1870     0.1760 N.4   1 <1>  -0.9590 
 19 C       -8.4270     0.8660    -0.5220 C.3   1 <1>   0.3430 
 20 C      -10.0430     2.6760    -0.0740 C.3   1 <1>   0.3430 
 21 C       -9.5480    -0.1400    -0.1940 C.3   1 <1>   0.1200 
 22 C      -11.0900     1.5890     0.2380 C.3   1 <1>   0.1200 
 23 O      -10.7970     0.4220    -0.4720 O.3   1 <1>  -0.5600 
 24 H       -2.0960     1.8560    -0.2380 H     1 <1>   0.1500 
 25 H        2.1370     4.3180     0.1070 H     1 <1>   0.1500 
 26 H        2.5800     0.9620     0.7360 H     1 <1>   0.0800 
 27 H        3.3790     2.3280     0.0020 H     1 <1>   0.0800 
 28 H        2.6430     1.1080    -1.0050 H     1 <1>   0.0800 
 29 H       -3.9280     3.5720     1.3570 H     1 <1>   0.4200 
 30 H        0.7700     7.6720     0.3030 H     1 <1>   0.0800 
 31 H        1.6910     6.5040    -0.6380 H     1 <1>   0.0800 
 32 H        1.6270     6.3770     1.1310 H     1 <1>   0.0800 
 33 H       -5.2750     4.0850    -1.1600 H     1 <1>   0.0800 
 34 H       -5.5220     4.9130     0.3650 H     1 <1>   0.0800 
 35 H       -6.2940     2.8180     1.3880 H     1 <1>   0.0800 
 36 H       -5.9160     1.9470    -0.0930 H     1 <1>   0.0800 
 37 H       -7.6050     3.2840    -1.3100 H     1 <1>   0.0800 
 38 H       -7.9440     4.1810     0.1490 H     1 <1>   0.0800 
 39 H       -8.5500     2.0230     1.1870 H     1 <1>   0.4500 
 40 H       -7.4790     0.4420    -0.2340 H     1 <1>   0.0800 
 41 H       -8.4110     1.0150    -1.5890 H     1 <1>   0.0800 
 42 H      -10.1520     2.9600    -1.1080 H     1 <1>   0.0800 
 43 H      -10.2450     3.5460     0.5300 H     1 <1>   0.0800 
 44 H       -9.5200    -0.4340     0.8410 H     1 <1>   0.0800 
 45 H       -9.4450    -1.0220    -0.8020 H     1 <1>   0.0800 
 46 H      -12.0680     1.9190    -0.0670 H     1 <1>   0.0800 
 47 H      -11.1180     1.3610     1.2890 H     1 <1>   0.0800 
@<TRIPOS>BOND
  1   1   2  1   
  2   2   3  ar  
  3   2   4  ar  
  4   3   5  ar  
  5   3   6  1   
  6   4   7  ar  
  7   4  24  1   
  8   5   8  ar  
  9   5  25  1   
 10   6  26  1   
 11   6  27  1   
 12   6  28  1   
 13   7   8  ar  
 14   7   9  1   
 15   8  10  1   
 16   9  11  2   
 17   9  12  2   
 18   9  13  am  
 19  10  14  1   
 20  13  15  1   
 21  13  29  1   
 22  14  30  1   
 23  14  31  1   
 24  14  32  1   
 25  15  16  1   
 26  15  33  1   
 27  15  34  1   
 28  16  17  1   
 29  16  35  1   
 30  16  36  1   
 31  17  18  1   
 32  17  37  1   
 33  17  38  1   
 34  18  19  1   
 35  18  20  1   
 36  18  39  1   
 37  19  21  1   
 38  19  40  1   
 39  19  41  1   
 40  20  22  1   
 41  20  42  1   
 42  20  43  1   
 43  21  23  1   
 44  21  44  1   
 45  21  45  1   
 46  22  23  1   
 47  22  46  1   
 48  22  47  1   
@<TRIPOS>SUBSTRUCTURE
  1 ****  13 GROUP 4 **** **** 0

# MOE 2024.06 (io_trps.svl 2023.06)
