@<TRIPOS>MOLECULE
NONAME
43 44 1 0 0 
SMALL
USER_CHARGES


@<TRIPOS>ATOM
  1 F       -4.8140     2.6540    -1.5380 F     1 <1>  -0.1900 
  2 C       -3.5160     2.8300    -1.4990 C.ar  1 <1>   0.1900 
  3 C       -2.9290     3.4260    -0.3830 C.ar  1 <1>   0.0820 
  4 C       -2.7730     2.4140    -2.5870 C.ar  1 <1>  -0.1500 
  5 O       -3.6600     3.8300     0.6830 O.3   1 <1>  -0.3630 
  6 C       -1.5540     3.6260    -0.3670 C.ar  1 <1>  -0.1500 
  7 C       -1.4080     2.6220    -2.5320 C.ar  1 <1>   0.1900 
  8 C       -3.8010     2.8840     1.7380 C.3   1 <1>   0.2610 
  9 C       -0.7850     3.2190    -1.4480 C.ar  1 <1>  -0.1500 
 10 F       -0.6760     2.2420    -3.5450 F     1 <1>  -0.1900 
 11 C       -5.1440     2.1380     1.6280 C.2   1 <1>   0.5690 
 12 C       -3.5940     3.6090     3.0740 C.3   1 <1>  -0.2400 
 13 O       -5.0900     0.9300     1.6170 O.2   1 <1>  -0.5700 
 14 N       -6.3650     2.7750     1.5030 N.am  1 <1>  -0.6600 
 15 C       -6.5700     4.2440     1.3210 C.3   1 <1>   0.1400 
 16 C       -7.5840     1.9910     1.1490 C.3   1 <1>   0.1400 
 17 C       -6.9460     4.5470    -0.1430 C.3   1 <1>   0.3430 
 18 C       -7.9300     2.2420    -0.3290 C.3   1 <1>   0.3430 
 19 N       -8.1050     3.7130    -0.6330 N.4   1 <1>  -0.9590 
 20 C       -8.3320     3.9410    -2.0760 C.3   1 <1>   0.4810 
 21 C       -9.7350     3.4730    -2.3840 C.2   1 <1>  -0.2880 
 22 C      -10.7870     4.2740    -2.5840 C.2   1 <1>  -0.3000 
 23 H       -3.2280     1.9490    -3.4410 H     1 <1>   0.1500 
 24 H       -1.0900     4.0950     0.4830 H     1 <1>   0.1500 
 25 H       -3.0150     2.1550     1.6350 H     1 <1>   0.0800 
 26 H        0.2820     3.3620    -1.4560 H     1 <1>   0.1500 
 27 H       -4.3510     4.3500     3.2470 H     1 <1>   0.0800 
 28 H       -2.6260     4.0760     3.0930 H     1 <1>   0.0800 
 29 H       -3.6370     2.8940     3.8760 H     1 <1>   0.0800 
 30 H       -5.6900     4.8010     1.5790 H     1 <1>   0.0800 
 31 H       -7.3570     4.5750     1.9750 H     1 <1>   0.0800 
 32 H       -8.4030     2.2870     1.7810 H     1 <1>   0.0800 
 33 H       -7.4240     0.9370     1.3020 H     1 <1>   0.0800 
 34 H       -6.0800     4.3600    -0.7530 H     1 <1>   0.0800 
 35 H       -7.1850     5.5940    -0.2330 H     1 <1>   0.0800 
 36 H       -8.8320     1.7060    -0.5730 H     1 <1>   0.0800 
 37 H       -7.1320     1.8390    -0.9310 H     1 <1>   0.0800 
 38 H       -8.9610     4.0290    -0.1610 H     1 <1>   0.4500 
 39 H       -7.6050     3.4120    -2.6730 H     1 <1>   0.0800 
 40 H       -8.2580     4.9940    -2.2940 H     1 <1>   0.0800 
 41 H       -9.8200     2.4010    -2.4420 H     1 <1>   0.1500 
 42 H      -11.7790     3.9140    -2.8100 H     1 <1>   0.1500 
 43 H      -10.7650     5.3520    -2.5480 H     1 <1>   0.1500 
@<TRIPOS>BOND
  1   1   2  1   
  2   2   3  ar  
  3   2   4  ar  
  4   3   5  1   
  5   3   6  ar  
  6   4   7  ar  
  7   4  23  1   
  8   5   8  1   
  9   6   9  ar  
 10   6  24  1   
 11   7   9  ar  
 12   7  10  1   
 13   8  11  1   
 14   8  12  1   
 15   8  25  1   
 16   9  26  1   
 17  11  13  2   
 18  11  14  am  
 19  12  27  1   
 20  12  28  1   
 21  12  29  1   
 22  14  15  1   
 23  14  16  1   
 24  15  17  1   
 25  15  30  1   
 26  15  31  1   
 27  16  18  1   
 28  16  32  1   
 29  16  33  1   
 30  17  19  1   
 31  17  34  1   
 32  17  35  1   
 33  18  19  1   
 34  18  36  1   
 35  18  37  1   
 36  19  20  1   
 37  19  38  1   
 38  20  21  1   
 39  20  39  1   
 40  20  40  1   
 41  21  22  2   
 42  21  41  1   
 43  22  42  1   
 44  22  43  1   
@<TRIPOS>SUBSTRUCTURE
  1 ****   1 GROUP 4 **** **** 0

# MOE 2024.06 (io_trps.svl 2023.06)
