@<TRIPOS>MOLECULE
NONAME
60 61 1 0 0 
SMALL
USER_CHARGES


@<TRIPOS>ATOM
  1 O        0.7970    -3.7970     0.6010 O.3   1 <1>  -0.5600 
  2 C       -0.5860    -3.6630     0.7400 C.3   1 <1>   0.2000 
  3 C        1.5420    -2.6540     0.9230 C.3   1 <1>   0.1200 
  4 C       -1.1590    -5.0670     0.9270 C.3   1 <1>  -0.1600 
  5 C       -1.1670    -3.0050    -0.5170 C.3   1 <1>  -0.1600 
  6 C        3.0430    -2.9920     0.8890 C.3   1 <1>   0.2000 
  7 C       -2.6930    -5.0350     0.9910 C.3   1 <1>  -0.1600 
  8 C       -2.7020    -2.9720    -0.4620 C.3   1 <1>  -0.1600 
  9 O        3.7720    -1.8260     1.0730 O.3   1 <1>  -0.6800 
 10 C        3.5190    -3.6720    -0.4150 C.3   1 <1>   0.3430 
 11 C       -3.3170    -4.3790    -0.2650 C.3   1 <1>  -0.0800 
 12 N        2.8600    -4.9940    -0.6440 N.4   1 <1>  -0.9060 
 13 C       -4.8850    -4.3920    -0.2730 C.3   1 <1>   0.0000 
 14 C        3.3480    -6.0620     0.2350 C.3   1 <1>   0.5660 
 15 C       -5.4980    -3.5830     0.8850 C.3   1 <1>  -0.2400 
 16 C       -5.4160    -5.8350    -0.1740 C.3   1 <1>  -0.2400 
 17 C       -5.4260    -3.8120    -1.5930 C.3   1 <1>  -0.2400 
 18 C        4.8140    -6.3130    -0.0800 C.ar  1 <1>  -0.1430 
 19 C        2.4770    -7.2930     0.0220 C.3   1 <1>  -0.2400 
 20 C        5.7700    -5.9970     0.8760 C.ar  1 <1>  -0.1500 
 21 C        5.2280    -6.8310    -1.3030 C.ar  1 <1>  -0.1500 
 22 C        7.1150    -6.1880     0.6150 C.ar  1 <1>  -0.1500 
 23 C        6.5740    -7.0220    -1.5620 C.ar  1 <1>  -0.1500 
 24 C        7.5170    -6.6990    -0.6050 C.ar  1 <1>  -0.1500 
 25 H       -0.8050    -3.0710     1.6150 H     1 <1>   0.0800 
 26 H        1.2660    -2.3290     1.9130 H     1 <1>   0.0800 
 27 H        1.3100    -1.8850     0.2060 H     1 <1>   0.0800 
 28 H       -0.7780    -5.4900     1.8390 H     1 <1>   0.0800 
 29 H       -0.8610    -5.6920     0.1040 H     1 <1>   0.0800 
 30 H       -0.8630    -3.5590    -1.3870 H     1 <1>   0.0800 
 31 H       -0.8100    -1.9950    -0.6070 H     1 <1>   0.0800 
 32 H        3.2820    -3.6210     1.7280 H     1 <1>   0.0800 
 33 H       -2.9900    -4.4950     1.8730 H     1 <1>   0.0800 
 34 H       -3.0360    -6.0480     1.0960 H     1 <1>   0.0800 
 35 H       -3.0510    -2.5360    -1.3800 H     1 <1>   0.0800 
 36 H       -3.0040    -2.3260     0.3430 H     1 <1>   0.0800 
 37 H        3.4500    -1.0790     0.5270 H     1 <1>   0.4000 
 38 H        4.5890    -3.8010    -0.3760 H     1 <1>   0.0800 
 39 H        3.2880    -3.0190    -1.2400 H     1 <1>   0.0800 
 40 H       -3.0060    -4.9720    -1.1090 H     1 <1>   0.0800 
 41 H        2.9750    -5.2960    -1.6140 H     1 <1>   0.4500 
 42 H        1.8500    -4.8600    -0.4460 H     1 <1>   0.4500 
 43 H        3.2580    -5.7520     1.2640 H     1 <1>   0.0800 
 44 H       -5.2000    -3.9800     1.8370 H     1 <1>   0.0800 
 45 H       -6.5720    -3.6210     0.8360 H     1 <1>   0.0800 
 46 H       -5.2060    -2.5510     0.8360 H     1 <1>   0.0800 
 47 H       -6.4830    -5.8570    -0.3120 H     1 <1>   0.0800 
 48 H       -4.9690    -6.4560    -0.9290 H     1 <1>   0.0800 
 49 H       -5.2130    -6.2630     0.7900 H     1 <1>   0.0800 
 50 H       -4.9800    -4.3080    -2.4360 H     1 <1>   0.0800 
 51 H       -5.2300    -2.7580    -1.6690 H     1 <1>   0.0800 
 52 H       -6.4930    -3.9410    -1.6560 H     1 <1>   0.0800 
 53 H        2.4810    -7.6120    -1.0040 H     1 <1>   0.0800 
 54 H        1.4670    -7.0950     0.3330 H     1 <1>   0.0800 
 55 H        2.8560    -8.1000     0.6250 H     1 <1>   0.0800 
 56 H        5.4860    -5.5990     1.8370 H     1 <1>   0.1500 
 57 H        4.5220    -7.0980    -2.0690 H     1 <1>   0.1500 
 58 H        7.8530    -5.9410     1.3600 H     1 <1>   0.1500 
 59 H        6.8930    -7.4260    -2.5090 H     1 <1>   0.1500 
 60 H        8.5650    -6.8490    -0.8070 H     1 <1>   0.1500 
@<TRIPOS>BOND
  1   1   2  1   
  2   1   3  1   
  3   2   4  1   
  4   2   5  1   
  5   2  25  1   
  6   3   6  1   
  7   3  26  1   
  8   3  27  1   
  9   4   7  1   
 10   4  28  1   
 11   4  29  1   
 12   5   8  1   
 13   5  30  1   
 14   5  31  1   
 15   6   9  1   
 16   6  10  1   
 17   6  32  1   
 18   7  11  1   
 19   7  33  1   
 20   7  34  1   
 21   8  11  1   
 22   8  35  1   
 23   8  36  1   
 24   9  37  1   
 25  10  12  1   
 26  10  38  1   
 27  10  39  1   
 28  11  13  1   
 29  11  40  1   
 30  12  14  1   
 31  12  41  1   
 32  12  42  1   
 33  13  15  1   
 34  13  16  1   
 35  13  17  1   
 36  14  18  1   
 37  14  19  1   
 38  14  43  1   
 39  15  44  1   
 40  15  45  1   
 41  15  46  1   
 42  16  47  1   
 43  16  48  1   
 44  16  49  1   
 45  17  50  1   
 46  17  51  1   
 47  17  52  1   
 48  18  20  ar  
 49  18  21  ar  
 50  19  53  1   
 51  19  54  1   
 52  19  55  1   
 53  20  22  ar  
 54  20  56  1   
 55  21  23  ar  
 56  21  57  1   
 57  22  24  ar  
 58  22  58  1   
 59  23  24  ar  
 60  23  59  1   
 61  24  60  1   
@<TRIPOS>SUBSTRUCTURE
  1 ****   1 GROUP 4 **** **** 0

# MOE 2024.06 (io_trps.svl 2023.06)
