@<TRIPOS>MOLECULE
NONAME
41 43 1 0 0 
SMALL
USER_CHARGES


@<TRIPOS>ATOM
  1 O       -0.2130    -1.4200     0.4070 O.3   1 <1>  -0.5600 
  2 C       -1.2760    -0.7180     0.9880 C.3   1 <1>   0.1200 
  3 C       -0.5430    -2.7410     0.0840 C.3   1 <1>   0.1200 
  4 C       -2.4920    -0.6910     0.0440 C.3   1 <1>   0.1100 
  5 C       -1.7280    -2.7760    -0.8970 C.3   1 <1>   0.1100 
  6 N       -2.8900    -2.0560    -0.3490 N.3   1 <1>  -0.8100 
  7 C       -4.0150    -2.0480    -1.3180 C.3   1 <1>   0.2540 
  8 C       -5.3080    -1.4260    -0.7780 C.ar  1 <1>   0.1660 
  9 N       -6.0850    -2.2110    -0.0390 N.ar  1 <1>  -0.6200 
 10 C       -5.6340    -0.1030    -1.0880 C.ar  1 <1>   0.0820 
 11 C       -7.2010    -1.6670     0.4170 C.ar  1 <1>   0.1600 
 12 O       -4.8390     0.6670    -1.8600 O.3   1 <1>  -0.5320 
 13 C       -6.8030     0.4480    -0.6000 C.ar  1 <1>  -0.1500 
 14 C       -7.6060    -0.3610     0.1780 C.ar  1 <1>  -0.1440 
 15 C       -8.9070     0.1640     0.7700 C.3   1 <1>   0.1270 
 16 C      -10.0720    -0.7830     0.5170 C.ar  1 <1>  -0.1440 
 17 C      -10.7940    -1.3150     1.5750 C.ar  1 <1>  -0.1500 
 18 C      -10.4230    -1.1240    -0.7810 C.ar  1 <1>  -0.1500 
 19 C      -11.8540    -2.1740     1.3390 C.ar  1 <1>  -0.1500 
 20 C      -11.4820    -1.9830    -1.0190 C.ar  1 <1>  -0.1500 
 21 C      -12.1980    -2.5080     0.0410 C.ar  1 <1>  -0.1500 
 22 H       -0.9390     0.2830     1.1900 H     1 <1>   0.0800 
 23 H       -1.5360    -1.1930     1.9180 H     1 <1>   0.0800 
 24 H       -0.7900    -3.2670     0.9900 H     1 <1>   0.0800 
 25 H        0.3240    -3.1970    -0.3590 H     1 <1>   0.0800 
 26 H       -2.2480    -0.1100    -0.8290 H     1 <1>   0.0800 
 27 H       -3.3100    -0.2110     0.5510 H     1 <1>   0.0800 
 28 H       -1.9990    -3.8010    -1.0830 H     1 <1>   0.0800 
 29 H       -1.4220    -2.3320    -1.8290 H     1 <1>   0.0800 
 30 H       -4.2390    -3.0640    -1.5910 H     1 <1>   0.0800 
 31 H       -3.7110    -1.5360    -2.2130 H     1 <1>   0.0800 
 32 H       -7.8320    -2.3020     1.0160 H     1 <1>   0.1500 
 33 H       -5.1980     1.5590    -2.0120 H     1 <1>   0.4500 
 34 H       -7.0750     1.4640    -0.8170 H     1 <1>   0.1500 
 35 H       -9.1480     1.1210     0.3420 H     1 <1>   0.0800 
 36 H       -8.7710     0.3080     1.8270 H     1 <1>   0.0800 
 37 H      -10.5390    -1.0650     2.5900 H     1 <1>   0.1500 
 38 H       -9.8690    -0.7250    -1.6130 H     1 <1>   0.1500 
 39 H      -12.4100    -2.5830     2.1640 H     1 <1>   0.1500 
 40 H      -11.7460    -2.2440    -2.0290 H     1 <1>   0.1500 
 41 H      -13.0210    -3.1770    -0.1430 H     1 <1>   0.1500 
@<TRIPOS>BOND
  1   1   2  1   
  2   1   3  1   
  3   2   4  1   
  4   2  22  1   
  5   2  23  1   
  6   3   5  1   
  7   3  24  1   
  8   3  25  1   
  9   4   6  1   
 10   4  26  1   
 11   4  27  1   
 12   5   6  1   
 13   5  28  1   
 14   5  29  1   
 15   6   7  1   
 16   7   8  1   
 17   7  30  1   
 18   7  31  1   
 19   8   9  ar  
 20   8  10  ar  
 21   9  11  ar  
 22  10  12  1   
 23  10  13  ar  
 24  11  14  ar  
 25  11  32  1   
 26  12  33  1   
 27  13  14  ar  
 28  13  34  1   
 29  14  15  1   
 30  15  16  1   
 31  15  35  1   
 32  15  36  1   
 33  16  17  ar  
 34  16  18  ar  
 35  17  19  ar  
 36  17  37  1   
 37  18  20  ar  
 38  18  38  1   
 39  19  21  ar  
 40  19  39  1   
 41  20  21  ar  
 42  20  40  1   
 43  21  41  1   
@<TRIPOS>SUBSTRUCTURE
  1 ****   9 GROUP 4 **** **** 0

# MOE 2024.06 (io_trps.svl 2023.06)
