@<TRIPOS>MOLECULE
NONAME
43 44 1 0 0 
SMALL
USER_CHARGES


@<TRIPOS>ATOM
  1 BR       0.9040     0.4540    -2.3870 Br    1 <1>  -0.1110 
  2 C        2.4780    -0.4210    -1.7030 C.ar  1 <1>   0.1110 
  3 C        3.6090    -0.4740    -2.4940 C.ar  1 <1>  -0.1500 
  4 C        2.4380    -0.9750    -0.4390 C.ar  1 <1>  -0.1500 
  5 C        4.7360    -1.1040    -1.9950 C.ar  1 <1>  -0.1500 
  6 C        3.5730    -1.6020     0.0450 C.ar  1 <1>  -0.1500 
  7 C        4.7360    -1.6720    -0.7220 C.ar  1 <1>   0.1170 
  8 N        5.9080    -2.3020    -0.2750 N.am  1 <1>  -0.5470 
  9 C        6.3350    -2.6320     0.9820 C.2   1 <1>   0.5690 
 10 O        5.7370    -2.3620     1.9950 O.2   1 <1>  -0.5700 
 11 C        7.6870    -3.3400     1.1080 C.3   1 <1>   0.1710 
 12 N        8.8520    -2.5140     0.6660 N.3   1 <1>  -0.8100 
 13 C        8.9350    -1.2640     1.4730 C.3   1 <1>   0.1100 
 14 C       10.1150    -3.2810     0.7850 C.3   1 <1>   0.1100 
 15 C       10.2290    -0.4530     1.2170 C.3   1 <1>   0.3430 
 16 C       11.3540    -2.4620     0.3400 C.3   1 <1>   0.3430 
 17 N       11.0080    -1.0230     0.0710 N.4   1 <1>  -0.9590 
 18 C       12.1660    -0.1730    -0.3110 C.3   1 <1>   0.3430 
 19 C       12.7080    -0.5890    -1.6800 C.3   1 <1>  -0.1600 
 20 C       13.8240     0.3570    -2.1370 C.3   1 <1>  -0.2400 
 21 H        3.6030    -0.0320    -3.4750 H     1 <1>   0.1500 
 22 H        1.5410    -0.9180     0.1510 H     1 <1>   0.1500 
 23 H        5.6200    -1.1510    -2.6030 H     1 <1>   0.1500 
 24 H        3.5440    -2.0410     1.0260 H     1 <1>   0.1500 
 25 H        6.5930    -2.4940    -1.0040 H     1 <1>   0.3700 
 26 H        7.6430    -4.2400     0.5200 H     1 <1>   0.0800 
 27 H        7.8170    -3.6310     2.1370 H     1 <1>   0.0800 
 28 H        8.8760    -1.4970     2.5240 H     1 <1>   0.0800 
 29 H        8.0900    -0.6360     1.2430 H     1 <1>   0.0800 
 30 H       10.0560    -4.1720     0.1820 H     1 <1>   0.0800 
 31 H       10.2550    -3.5950     1.8060 H     1 <1>   0.0800 
 32 H       10.8320    -0.4620     2.1100 H     1 <1>   0.0800 
 33 H        9.9630     0.5720     1.0130 H     1 <1>   0.0800 
 34 H       11.7580    -2.9100    -0.5530 H     1 <1>   0.0800 
 35 H       12.1100    -2.5250     1.1050 H     1 <1>   0.0800 
 36 H       10.3300    -1.0590    -0.7040 H     1 <1>   0.4500 
 37 H       12.9450    -0.2500     0.4310 H     1 <1>   0.0800 
 38 H       11.8540     0.8580    -0.3630 H     1 <1>   0.0800 
 39 H       11.9160    -0.5620    -2.4090 H     1 <1>   0.0800 
 40 H       13.1080    -1.5860    -1.6380 H     1 <1>   0.0800 
 41 H       13.4600     1.3670    -2.2230 H     1 <1>   0.0800 
 42 H       14.1920     0.0520    -3.1020 H     1 <1>   0.0800 
 43 H       14.6480     0.3430    -1.4450 H     1 <1>   0.0800 
@<TRIPOS>BOND
  1   1   2  1   
  2   2   3  ar  
  3   2   4  ar  
  4   3   5  ar  
  5   3  21  1   
  6   4   6  ar  
  7   4  22  1   
  8   5   7  ar  
  9   5  23  1   
 10   6   7  ar  
 11   6  24  1   
 12   7   8  1   
 13   8   9  am  
 14   8  25  1   
 15   9  10  2   
 16   9  11  1   
 17  11  12  1   
 18  11  26  1   
 19  11  27  1   
 20  12  13  1   
 21  12  14  1   
 22  13  15  1   
 23  13  28  1   
 24  13  29  1   
 25  14  16  1   
 26  14  30  1   
 27  14  31  1   
 28  15  17  1   
 29  15  32  1   
 30  15  33  1   
 31  16  17  1   
 32  16  34  1   
 33  16  35  1   
 34  17  18  1   
 35  17  36  1   
 36  18  19  1   
 37  18  37  1   
 38  18  38  1   
 39  19  20  1   
 40  19  39  1   
 41  19  40  1   
 42  20  41  1   
 43  20  42  1   
 44  20  43  1   
@<TRIPOS>SUBSTRUCTURE
  1 ****   8 GROUP 4 **** **** 0

# MOE 2024.06 (io_trps.svl 2023.06)
