@<TRIPOS>MOLECULE
NONAME
55 56 1 0 0 
SMALL
USER_CHARGES


@<TRIPOS>ATOM
  1 S       -0.2600     0.1230     1.9210 S.o2  1 <1>   1.4470 
  2 O       -1.1360     1.0870     2.5530 O.2   1 <1>  -0.6500 
  3 O        0.4350    -0.8140     2.7800 O.2   1 <1>  -0.6500 
  4 N        0.9870     1.0020     1.1780 N.am  1 <1>  -0.8490 
  5 C       -1.1440    -0.6870     0.5250 C.ar  1 <1>  -0.0090 
  6 C        1.9830     0.1220     0.5630 C.3   1 <1>   0.1960 
  7 C        1.5990     1.9520     2.1080 C.3   1 <1>   0.1960 
  8 C       -1.4280    -2.0620     0.5190 C.ar  1 <1>  -0.1440 
  9 C       -1.5690     0.0590    -0.5850 C.ar  1 <1>  -0.1430 
 10 C        2.9950     0.9490    -0.2330 C.3   1 <1>  -0.1600 
 11 C        2.6060     2.8380     1.3710 C.3   1 <1>  -0.1600 
 12 C       -2.0590    -2.6540    -0.5650 C.ar  1 <1>  -0.1500 
 13 C       -1.0830    -2.9890     1.6810 C.3   1 <1>  -0.0970 
 14 C       -2.1970    -0.5540    -1.6580 C.ar  1 <1>  -0.1500 
 15 C       -1.3810     1.5710    -0.6930 C.3   1 <1>  -0.0970 
 16 C        3.6790     1.9960     0.6590 C.3   1 <1>  -0.0190 
 17 C       -2.4400    -1.9100    -1.6610 C.ar  1 <1>  -0.1430 
 18 C        4.6510     2.8520    -0.1490 C.2   1 <1>   0.5690 
 19 C       -3.1280    -2.5700    -2.8420 C.3   1 <1>  -0.0970 
 20 O        4.2240     3.7150    -0.8790 O.2   1 <1>  -0.5700 
 21 N        5.9790     2.5970    -0.0340 N.am  1 <1>  -0.7300 
 22 C        7.0380     3.2720    -0.7990 C.3   1 <1>   0.2200 
 23 C        7.7380     2.2560    -1.7130 C.3   1 <1>  -0.1600 
 24 C        8.0150     3.8870     0.1980 C.3   1 <1>  -0.2400 
 25 C        6.7940     1.6330    -2.7520 C.3   1 <1>  -0.2400 
 26 H        1.4960    -0.5680    -0.1070 H     1 <1>   0.0800 
 27 H        2.4920    -0.4480     1.3230 H     1 <1>   0.0800 
 28 H        2.0840     1.4180     2.9100 H     1 <1>   0.0800 
 29 H        0.8380     2.5820     2.5380 H     1 <1>   0.0800 
 30 H        2.4830     1.4400    -1.0440 H     1 <1>   0.0800 
 31 H        3.7340     0.2950    -0.6600 H     1 <1>   0.0800 
 32 H        3.0740     3.5070     2.0700 H     1 <1>   0.0800 
 33 H        2.0730     3.4370     0.6530 H     1 <1>   0.0800 
 34 H       -2.2620    -3.7110    -0.5600 H     1 <1>   0.1500 
 35 H       -0.0180    -3.1210     1.7480 H     1 <1>   0.0800 
 36 H       -1.5300    -3.9590     1.5550 H     1 <1>   0.0800 
 37 H       -1.4500    -2.5840     2.6070 H     1 <1>   0.0800 
 38 H       -2.5060     0.0320    -2.5060 H     1 <1>   0.1500 
 39 H       -0.3660     1.8020    -0.9640 H     1 <1>   0.0800 
 40 H       -1.6170     2.0610     0.2330 H     1 <1>   0.0800 
 41 H       -2.0270     1.9870    -1.4450 H     1 <1>   0.0800 
 42 H        4.2410     1.4770     1.4140 H     1 <1>   0.0800 
 43 H       -2.8000    -3.5890    -2.9480 H     1 <1>   0.0800 
 44 H       -2.8990    -2.0450    -3.7520 H     1 <1>   0.0800 
 45 H       -4.1930    -2.5610    -2.6940 H     1 <1>   0.0800 
 46 H        6.3050     1.8470     0.5730 H     1 <1>   0.3700 
 47 H        6.6090     4.0560    -1.4020 H     1 <1>   0.0800 
 48 H        8.1880     1.4800    -1.1190 H     1 <1>   0.0800 
 49 H        8.5310     2.7620    -2.2370 H     1 <1>   0.0800 
 50 H        8.4650     3.1280     0.8130 H     1 <1>   0.0800 
 51 H        7.5010     4.5960     0.8220 H     1 <1>   0.0800 
 52 H        8.7930     4.4080    -0.3290 H     1 <1>   0.0800 
 53 H        6.0240     1.0560    -2.2730 H     1 <1>   0.0800 
 54 H        7.3450     0.9850    -3.4100 H     1 <1>   0.0800 
 55 H        6.3270     2.4030    -3.3410 H     1 <1>   0.0800 
@<TRIPOS>BOND
  1   1   2  2   
  2   1   3  2   
  3   1   4  am  
  4   1   5  1   
  5   4   6  1   
  6   4   7  1   
  7   5   8  ar  
  8   5   9  ar  
  9   6  10  1   
 10   6  26  1   
 11   6  27  1   
 12   7  11  1   
 13   7  28  1   
 14   7  29  1   
 15   8  12  ar  
 16   8  13  1   
 17   9  14  ar  
 18   9  15  1   
 19  10  16  1   
 20  10  30  1   
 21  10  31  1   
 22  11  16  1   
 23  11  32  1   
 24  11  33  1   
 25  12  17  ar  
 26  12  34  1   
 27  13  35  1   
 28  13  36  1   
 29  13  37  1   
 30  14  17  ar  
 31  14  38  1   
 32  15  39  1   
 33  15  40  1   
 34  15  41  1   
 35  16  18  1   
 36  16  42  1   
 37  17  19  1   
 38  18  20  2   
 39  18  21  am  
 40  19  43  1   
 41  19  44  1   
 42  19  45  1   
 43  21  22  1   
 44  21  46  1   
 45  22  23  1   
 46  22  24  1   
 47  22  47  1   
 48  23  25  1   
 49  23  48  1   
 50  23  49  1   
 51  24  50  1   
 52  24  51  1   
 53  24  52  1   
 54  25  53  1   
 55  25  54  1   
 56  25  55  1   
@<TRIPOS>SUBSTRUCTURE
  1 ****   6 GROUP 4 **** **** 0

# MOE 2024.06 (io_trps.svl 2023.06)
