@<TRIPOS>MOLECULE
NONAME
47 49 1 0 0 
SMALL
USER_CHARGES


@<TRIPOS>ATOM
  1 O       -0.4700    -0.0520    -0.3480 O.2   1 <1>  -0.5700 
  2 C       -0.7960    -1.2200    -0.2480 C.2   1 <1>   0.6900 
  3 N       -2.0900    -1.5440     0.0700 N.am  1 <1>  -0.6600 
  4 N        0.1060    -2.2280    -0.4230 N.am  1 <1>  -0.5470 
  5 C       -3.0430    -0.4700     0.4910 C.3   1 <1>   0.1400 
  6 C       -2.6690    -2.9120    -0.1160 C.3   1 <1>   0.1400 
  7 C        1.4570    -2.2710    -0.8110 C.ar  1 <1>   0.1170 
  8 C       -4.2090    -1.0260     1.3230 C.3   1 <1>   0.1400 
  9 C       -4.1750    -2.8740    -0.4240 C.3   1 <1>   0.1400 
 10 C        2.1650    -3.4610    -0.6060 C.ar  1 <1>   0.0820 
 11 C        2.1120    -1.1940    -1.3980 C.ar  1 <1>  -0.1500 
 12 N       -4.9520    -2.1140     0.6080 N.am  1 <1>  -0.6600 
 13 O        1.4840    -4.5040    -0.0360 O.3   1 <1>  -0.3630 
 14 C        3.5030    -3.5490    -0.9790 C.ar  1 <1>  -0.1500 
 15 C        3.4430    -1.2870    -1.7660 C.ar  1 <1>  -0.1500 
 16 C       -6.2940    -2.3160     0.8490 C.2   1 <1>   0.5690 
 17 C        2.1410    -5.7080     0.2950 C.3   1 <1>   0.0400 
 18 C        4.1380    -2.4630    -1.5560 C.ar  1 <1>  -0.1500 
 19 O       -6.8630    -1.6610     1.6970 O.2   1 <1>  -0.5700 
 20 C       -7.1000    -3.3920     0.0710 C.3   1 <1>   0.2610 
 21 O       -6.9620    -3.2420    -1.3180 O.3   1 <1>  -0.5600 
 22 C       -8.6170    -3.3500     0.2620 C.3   1 <1>  -0.1600 
 23 C       -7.9000    -2.3280    -1.7920 C.3   1 <1>   0.1200 
 24 C       -9.0780    -2.3870    -0.8210 C.3   1 <1>  -0.1600 
 25 H       -0.2160    -3.1250    -0.0740 H     1 <1>   0.3700 
 26 H       -3.4310     0.0190    -0.3850 H     1 <1>   0.0800 
 27 H       -2.5180     0.2670     1.0740 H     1 <1>   0.0800 
 28 H       -2.5110    -3.4840     0.7820 H     1 <1>   0.0800 
 29 H       -2.1690    -3.4110    -0.9280 H     1 <1>   0.0800 
 30 H       -4.8820    -0.2180     1.5550 H     1 <1>   0.0800 
 31 H       -3.8280    -1.4130     2.2510 H     1 <1>   0.0800 
 32 H       -4.5380    -3.8840    -0.4870 H     1 <1>   0.0800 
 33 H       -4.3260    -2.4100    -1.3840 H     1 <1>   0.0800 
 34 H        1.5870    -0.2740    -1.5740 H     1 <1>   0.1500 
 35 H        4.0700    -4.4480    -0.8320 H     1 <1>   0.1500 
 36 H        3.9330    -0.4420    -2.2160 H     1 <1>   0.1500 
 37 H        1.4270    -6.3620     0.7630 H     1 <1>   0.0800 
 38 H        2.9410    -5.4920     0.9800 H     1 <1>   0.0800 
 39 H        2.5150    -6.1620    -0.6060 H     1 <1>   0.0800 
 40 H        5.1730    -2.5330    -1.8430 H     1 <1>   0.1500 
 41 H       -6.7200    -4.3600     0.3410 H     1 <1>   0.0800 
 42 H       -8.9120    -3.0420     1.2490 H     1 <1>   0.0800 
 43 H       -9.0160    -4.3310     0.0730 H     1 <1>   0.0800 
 44 H       -8.1810    -2.6100    -2.7920 H     1 <1>   0.0800 
 45 H       -7.4470    -1.3510    -1.7950 H     1 <1>   0.0800 
 46 H       -9.2560    -1.4070    -0.4120 H     1 <1>   0.0800 
 47 H       -9.9720    -2.7330    -1.3090 H     1 <1>   0.0800 
@<TRIPOS>BOND
  1   1   2  2   
  2   2   3  am  
  3   2   4  am  
  4   3   5  1   
  5   3   6  1   
  6   4   7  1   
  7   4  25  1   
  8   5   8  1   
  9   5  26  1   
 10   5  27  1   
 11   6   9  1   
 12   6  28  1   
 13   6  29  1   
 14   7  10  ar  
 15   7  11  ar  
 16   8  12  1   
 17   8  30  1   
 18   8  31  1   
 19   9  12  1   
 20   9  32  1   
 21   9  33  1   
 22  10  13  1   
 23  10  14  ar  
 24  11  15  ar  
 25  11  34  1   
 26  12  16  am  
 27  13  17  1   
 28  14  18  ar  
 29  14  35  1   
 30  15  18  ar  
 31  15  36  1   
 32  16  19  2   
 33  16  20  1   
 34  17  37  1   
 35  17  38  1   
 36  17  39  1   
 37  18  40  1   
 38  20  21  1   
 39  20  22  1   
 40  20  41  1   
 41  21  23  1   
 42  22  24  1   
 43  22  42  1   
 44  22  43  1   
 45  23  24  1   
 46  23  44  1   
 47  23  45  1   
 48  24  46  1   
 49  24  47  1   
@<TRIPOS>SUBSTRUCTURE
  1 ****   6 GROUP 4 **** **** 0

# MOE 2024.06 (io_trps.svl 2023.06)
