@<TRIPOS>MOLECULE
NONAME
43 44 1 0 0 
SMALL
USER_CHARGES


@<TRIPOS>ATOM
  1 S        0.4230    -1.8370    -0.3060 S.3   1 <1>  -0.2860 
  2 C       -1.2880    -1.3360    -0.0940 C.2   1 <1>   0.2420 
  3 C        1.2540    -0.2440    -0.7870 C.3   1 <1>   0.1310 
  4 N       -1.6960    -0.1260    -0.2280 N.2   1 <1>  -0.3380 
  5 N       -2.2550    -2.1960     0.2190 N.pl3 1 <1>   0.0480 
  6 C        2.7580    -0.4180    -0.9300 C.2   1 <1>   0.5690 
  7 N       -3.0110    -0.1630     0.0040 N.2   1 <1>  -0.3380 
  8 C       -3.3290    -1.3910     0.2650 C.2   1 <1>   0.0060 
  9 C       -2.1380    -3.6520     0.4370 C.3   1 <1>   0.0160 
 10 O        3.3430     0.3330    -1.6730 O.2   1 <1>  -0.5700 
 11 N        3.3740    -1.4000    -0.2050 N.am  1 <1>  -0.5470 
 12 C       -4.7350    -1.8880     0.5870 C.3   1 <1>   0.0200 
 13 C        4.7130    -1.8200    -0.0690 C.ar  1 <1>   0.1170 
 14 C       -5.8020    -0.7910     0.4970 C.3   1 <1>  -0.2400 
 15 C        4.9730    -2.9390     0.7300 C.ar  1 <1>   0.0830 
 16 C        5.7800    -1.1760    -0.6860 C.ar  1 <1>  -0.1500 
 17 O        3.9000    -3.5460     1.3250 O.3   1 <1>  -0.3630 
 18 C        6.2780    -3.3890     0.8950 C.ar  1 <1>  -0.1500 
 19 C        7.0770    -1.6260    -0.5200 C.ar  1 <1>  -0.1500 
 20 C        4.0710    -4.6750     2.1530 C.3   1 <1>   0.0400 
 21 C        7.3310    -2.7390     0.2740 C.ar  1 <1>   0.0830 
 22 O        8.5740    -3.2480     0.4900 O.3   1 <1>  -0.3630 
 23 C        9.7100    -2.6610    -0.1040 C.3   1 <1>   0.0400 
 24 H        1.0340     0.4770    -0.0220 H     1 <1>   0.0800 
 25 H        0.8220     0.0710    -1.7180 H     1 <1>   0.0800 
 26 H       -1.2860    -3.8510     1.0610 H     1 <1>   0.0800 
 27 H       -2.0070    -4.1410    -0.5120 H     1 <1>   0.0800 
 28 H       -3.0220    -4.0270     0.9160 H     1 <1>   0.0800 
 29 H        2.7390    -1.9990     0.3310 H     1 <1>   0.3700 
 30 H       -4.7400    -2.2950     1.5830 H     1 <1>   0.0800 
 31 H       -4.9910    -2.6750    -0.0990 H     1 <1>   0.0800 
 32 H       -5.5810     0.0000     1.1930 H     1 <1>   0.0800 
 33 H       -6.7720    -1.1930     0.7270 H     1 <1>   0.0800 
 34 H       -5.8250    -0.3760    -0.4960 H     1 <1>   0.0800 
 35 H        5.6080    -0.3140    -1.3030 H     1 <1>   0.1500 
 36 H        6.5140    -4.2420     1.4990 H     1 <1>   0.1500 
 37 H        7.8690    -1.0980    -1.0160 H     1 <1>   0.1500 
 38 H        3.1040    -4.9790     2.5100 H     1 <1>   0.0800 
 39 H        4.7000    -4.4080     2.9850 H     1 <1>   0.0800 
 40 H        4.5130    -5.4690     1.5760 H     1 <1>   0.0800 
 41 H       10.5740    -3.2240     0.2000 H     1 <1>   0.0800 
 42 H        9.7980    -1.6450     0.2380 H     1 <1>   0.0800 
 43 H        9.6060    -2.7010    -1.1740 H     1 <1>   0.0800 
@<TRIPOS>BOND
  1   1   2  1   
  2   1   3  1   
  3   2   4  2   
  4   2   5  1   
  5   3   6  1   
  6   3  24  1   
  7   3  25  1   
  8   4   7  1   
  9   5   8  1   
 10   5   9  1   
 11   6  10  2   
 12   6  11  am  
 13   7   8  2   
 14   8  12  1   
 15   9  26  1   
 16   9  27  1   
 17   9  28  1   
 18  11  13  1   
 19  11  29  1   
 20  12  14  1   
 21  12  30  1   
 22  12  31  1   
 23  13  15  ar  
 24  13  16  ar  
 25  14  32  1   
 26  14  33  1   
 27  14  34  1   
 28  15  17  1   
 29  15  18  ar  
 30  16  19  ar  
 31  16  35  1   
 32  17  20  1   
 33  18  21  ar  
 34  18  36  1   
 35  19  21  ar  
 36  19  37  1   
 37  20  38  1   
 38  20  39  1   
 39  20  40  1   
 40  21  22  1   
 41  22  23  1   
 42  23  41  1   
 43  23  42  1   
 44  23  43  1   
@<TRIPOS>SUBSTRUCTURE
  1 ****  11 GROUP 4 **** **** 0

# MOE 2024.06 (io_trps.svl 2023.06)
