@<TRIPOS>MOLECULE
NONAME
45 47 1 0 0 
SMALL
USER_CHARGES


@<TRIPOS>ATOM
  1 O        0.1720     0.0810     0.9620 O.3   1 <1>  -0.3630 
  2 C        1.2360     0.7770     0.4920 C.ar  1 <1>   0.0820 
  3 C       -0.7590    -0.3440    -0.0080 C.3   1 <1>   0.0400 
  4 C        1.1240     2.0790    -0.0070 C.ar  1 <1>   0.0820 
  5 C        2.4660     0.1470     0.5110 C.ar  1 <1>  -0.1500 
  6 O       -0.0350     2.7780    -0.0180 O.3   1 <1>  -0.3630 
  7 C        2.2490     2.7030    -0.5160 C.ar  1 <1>  -0.1500 
  8 C        3.6100     0.7630    -0.0010 C.ar  1 <1>   0.0860 
  9 C       -0.6580     3.0220     1.2250 C.3   1 <1>   0.0400 
 10 C        3.4730     2.0560    -0.5080 C.ar  1 <1>  -0.1440 
 11 C        4.9250     0.1320    -0.0170 C.2   1 <1>   0.2780 
 12 C        4.7220     2.7280    -1.0460 C.3   1 <1>  -0.0160 
 13 N        6.0100     0.8100    -0.0980 N.2   1 <1>  -0.6960 
 14 C        4.9990    -1.3140     0.0670 C.ar  1 <1>   0.0860 
 15 C        5.9610     2.2680    -0.2640 C.3   1 <1>   0.0860 
 16 C        4.2380    -2.1370    -0.7590 C.ar  1 <1>  -0.1500 
 17 C        5.8430    -1.9360     0.9810 C.ar  1 <1>  -0.1500 
 18 C        4.2810    -3.5170    -0.6740 C.ar  1 <1>   0.0820 
 19 C        5.9170    -3.3130     1.0780 C.ar  1 <1>  -0.1500 
 20 O        3.4470    -4.1630    -1.5390 O.3   1 <1>  -0.3630 
 21 C        5.1440    -4.1280     0.2540 C.ar  1 <1>   0.0820 
 22 C        2.9160    -5.4360    -1.2480 C.3   1 <1>   0.0400 
 23 O        5.2280    -5.4860     0.3240 O.3   1 <1>  -0.3620 
 24 C        6.1970    -6.1450     1.1100 C.3   1 <1>   0.0400 
 25 H       -1.1910     0.5170    -0.4870 H     1 <1>   0.0800 
 26 H       -0.2510    -0.9570    -0.7320 H     1 <1>   0.0800 
 27 H       -1.5240    -0.9140     0.4860 H     1 <1>   0.0800 
 28 H        2.5220    -0.8400     0.9310 H     1 <1>   0.1500 
 29 H        2.1550     3.6980    -0.9110 H     1 <1>   0.1500 
 30 H       -1.0960     2.1120     1.5900 H     1 <1>   0.0800 
 31 H        0.0790     3.3880     1.9180 H     1 <1>   0.0800 
 32 H       -1.4240     3.7610     1.0770 H     1 <1>   0.0800 
 33 H        4.6360     3.7980    -0.9790 H     1 <1>   0.0800 
 34 H        4.8460     2.4670    -2.0820 H     1 <1>   0.0800 
 35 H        5.9770     2.7250     0.7100 H     1 <1>   0.0800 
 36 H        6.8430     2.5810    -0.7960 H     1 <1>   0.0800 
 37 H        3.5900    -1.6900    -1.4910 H     1 <1>   0.1500 
 38 H        6.4520    -1.3190     1.6190 H     1 <1>   0.1500 
 39 H        6.5900    -3.7280     1.8030 H     1 <1>   0.1500 
 40 H        2.0650    -5.5960    -1.8840 H     1 <1>   0.0800 
 41 H        2.6160    -5.4650    -0.2150 H     1 <1>   0.0800 
 42 H        3.6650    -6.1790    -1.4510 H     1 <1>   0.0800 
 43 H        6.1020    -7.2020     0.9400 H     1 <1>   0.0800 
 44 H        6.0150    -5.9250     2.1470 H     1 <1>   0.0800 
 45 H        7.1750    -5.8140     0.8090 H     1 <1>   0.0800 
@<TRIPOS>BOND
  1   1   2  1   
  2   1   3  1   
  3   2   4  ar  
  4   2   5  ar  
  5   3  25  1   
  6   3  26  1   
  7   3  27  1   
  8   4   6  1   
  9   4   7  ar  
 10   5   8  ar  
 11   5  28  1   
 12   6   9  1   
 13   7  10  ar  
 14   7  29  1   
 15   8  10  ar  
 16   8  11  1   
 17   9  30  1   
 18   9  31  1   
 19   9  32  1   
 20  10  12  1   
 21  11  13  2   
 22  11  14  1   
 23  12  15  1   
 24  12  33  1   
 25  12  34  1   
 26  13  15  1   
 27  14  16  ar  
 28  14  17  ar  
 29  15  35  1   
 30  15  36  1   
 31  16  18  ar  
 32  16  37  1   
 33  17  19  ar  
 34  17  38  1   
 35  18  20  1   
 36  18  21  ar  
 37  19  21  ar  
 38  19  39  1   
 39  20  22  1   
 40  21  23  1   
 41  22  40  1   
 42  22  41  1   
 43  22  42  1   
 44  23  24  1   
 45  24  43  1   
 46  24  44  1   
 47  24  45  1   
@<TRIPOS>SUBSTRUCTURE
  1 ****   5 GROUP 4 **** **** 0

# MOE 2024.06 (io_trps.svl 2023.06)
