@<TRIPOS>MOLECULE
NONAME
39 40 1 0 0 
SMALL
USER_CHARGES


@<TRIPOS>ATOM
  1 S        1.1000     1.1770    -0.1420 S.3   1 <1>  -0.3320 
  2 C       -0.6560     1.5910    -0.1120 C.ar  1 <1>   0.1020 
  3 C        1.2830    -0.5000    -0.9370 C.3   1 <1>   0.2110 
  4 C       -1.6470     0.7080    -0.5130 C.ar  1 <1>  -0.1500 
  5 C       -0.9830     2.8550     0.3410 C.ar  1 <1>  -0.1500 
  6 C        2.6360    -1.1200    -0.5730 C.2   1 <1>   0.5690 
  7 C        1.1160    -0.3060    -2.4510 C.3   1 <1>  -0.2400 
  8 C       -2.9720     1.1050    -0.4600 C.ar  1 <1>  -0.1500 
  9 C       -2.3100     3.2450     0.3910 C.ar  1 <1>  -0.1500 
 10 O        2.7520    -2.3220    -0.6170 O.2   1 <1>  -0.5700 
 11 N        3.6740    -0.3150    -0.2240 N.am  1 <1>  -0.7300 
 12 C       -3.3100     2.3710    -0.0080 C.ar  1 <1>  -0.1430 
 13 C        5.0240    -0.7520     0.1590 C.3   1 <1>   0.2200 
 14 C       -4.7650     2.8020     0.0460 C.3   1 <1>  -0.0970 
 15 C        5.3110    -0.2650     1.5730 C.3   1 <1>  -0.1600 
 16 C        6.0400     0.0050    -0.6860 C.3   1 <1>  -0.1600 
 17 C        5.7250     1.2040     1.4320 C.3   1 <1>  -0.1600 
 18 C        6.1980     1.3770    -0.0180 C.3   1 <1>  -0.1600 
 19 H        0.5110    -1.1280    -0.5350 H     1 <1>   0.0800 
 20 H       -1.4170    -0.2780    -0.8640 H     1 <1>   0.1500 
 21 H       -0.2050     3.5290     0.6500 H     1 <1>   0.1500 
 22 H        1.8960     0.3310    -2.8280 H     1 <1>   0.0800 
 23 H        0.1640     0.1380    -2.6770 H     1 <1>   0.0800 
 24 H        1.1800    -1.2580    -2.9470 H     1 <1>   0.0800 
 25 H       -3.7430     0.4220    -0.7730 H     1 <1>   0.1500 
 26 H       -2.5610     4.2310     0.7420 H     1 <1>   0.1500 
 27 H        3.5060     0.6900    -0.1350 H     1 <1>   0.3700 
 28 H        5.1210    -1.8220     0.0620 H     1 <1>   0.0800 
 29 H       -5.4040     1.9520     0.2060 H     1 <1>   0.0800 
 30 H       -5.0400     3.2740    -0.8800 H     1 <1>   0.0800 
 31 H       -4.9210     3.4980     0.8510 H     1 <1>   0.0800 
 32 H        6.1420    -0.8270     1.9630 H     1 <1>   0.0800 
 33 H        4.4680    -0.4000     2.2280 H     1 <1>   0.0800 
 34 H        5.7410     0.0750    -1.7170 H     1 <1>   0.0800 
 35 H        6.9790    -0.5180    -0.6360 H     1 <1>   0.0800 
 36 H        6.5020     1.4530     2.1330 H     1 <1>   0.0800 
 37 H        4.8760     1.8410     1.6130 H     1 <1>   0.0800 
 38 H        5.5770     2.1010    -0.5180 H     1 <1>   0.0800 
 39 H        7.2210     1.7090    -0.0620 H     1 <1>   0.0800 
@<TRIPOS>BOND
  1   1   2  1   
  2   1   3  1   
  3   2   4  ar  
  4   2   5  ar  
  5   3   6  1   
  6   3   7  1   
  7   3  19  1   
  8   4   8  ar  
  9   4  20  1   
 10   5   9  ar  
 11   5  21  1   
 12   6  10  2   
 13   6  11  am  
 14   7  22  1   
 15   7  23  1   
 16   7  24  1   
 17   8  12  ar  
 18   8  25  1   
 19   9  12  ar  
 20   9  26  1   
 21  11  13  1   
 22  11  27  1   
 23  12  14  1   
 24  13  15  1   
 25  13  16  1   
 26  13  28  1   
 27  14  29  1   
 28  14  30  1   
 29  14  31  1   
 30  15  17  1   
 31  15  32  1   
 32  15  33  1   
 33  16  18  1   
 34  16  34  1   
 35  16  35  1   
 36  17  18  1   
 37  17  36  1   
 38  17  37  1   
 39  18  38  1   
 40  18  39  1   
@<TRIPOS>SUBSTRUCTURE
  1 ****   1 GROUP 4 **** **** 0

# MOE 2024.06 (io_trps.svl 2023.06)
