@<TRIPOS>MOLECULE
NONAME
57 60 1 0 0 
SMALL
USER_CHARGES


@<TRIPOS>ATOM
  1 O       -0.0920     0.9640    -1.3710 O.2   1 <1>  -0.5700 
  2 C       -0.8010     1.8620    -0.9660 C.2   1 <1>   0.6900 
  3 N       -0.3150     2.7580    -0.0190 N.am  1 <1>  -0.4200 
  4 N       -2.0970     1.9860    -1.4420 N.am  1 <1>  -0.4360 
  5 C       -1.1270     3.7490     0.5160 C.2   1 <1>   0.7030 
  6 C        1.0980     2.6100     0.4560 C.3   1 <1>   0.0600 
  7 C       -2.8940     2.9800    -0.9060 C.2   1 <1>   0.4260 
  8 C       -2.6270     1.0560    -2.4820 C.3   1 <1>   0.0600 
  9 O       -0.7070     4.4990     1.3800 O.2   1 <1>  -0.5700 
 10 C       -2.4750     3.8600     0.0340 C.2   1 <1>   0.2770 
 11 N       -4.1900     3.2520    -1.1860 N.pl3 1 <1>  -0.7000 
 12 N       -3.5610     4.6980     0.3160 N.pl3 1 <1>  -0.7640 
 13 C       -4.5770     4.2810    -0.4420 C.cat 1 <1>   0.6560 
 14 C       -3.4840     5.8220     1.3020 C.3   1 <1>   0.4970 
 15 C       -6.0200     4.8060    -0.5280 C.3   1 <1>   0.2540 
 16 C       -4.4460     6.9370     0.9250 C.ar  1 <1>  -0.1430 
 17 N       -6.9560     3.8390    -1.1830 N.3   1 <1>  -0.8100 
 18 C       -4.2100     7.7070    -0.2050 C.ar  1 <1>  -0.1500 
 19 C       -5.5750     7.1860     1.6950 C.ar  1 <1>  -0.1500 
 20 C       -8.1720     4.5430    -1.6530 C.3   1 <1>   0.1100 
 21 C       -7.3880     2.7720    -0.2420 C.3   1 <1>   0.1100 
 22 C       -5.1010     8.7010    -0.5720 C.ar  1 <1>  -0.1500 
 23 C       -6.4660     8.1780     1.3250 C.ar  1 <1>  -0.1500 
 24 C       -9.0190     5.1500    -0.4980 C.3   1 <1>   0.2000 
 25 C       -8.5200     3.1860     0.7420 C.3   1 <1>   0.2000 
 26 C       -6.2310     8.9340     0.1910 C.ar  1 <1>  -0.1500 
 27 O       -8.7190     4.5690     0.7430 O.3   1 <1>  -0.5600 
 28 C      -10.5260     5.0380    -0.7380 C.3   1 <1>  -0.2400 
 29 C       -8.2030     2.7900     2.1820 C.3   1 <1>  -0.2400 
 30 H        1.1470     1.8390     1.2040 H     1 <1>   0.0800 
 31 H        1.4650     3.5310     0.8750 H     1 <1>   0.0800 
 32 H        1.7390     2.3370    -0.3660 H     1 <1>   0.0800 
 33 H       -1.8190     0.6150    -3.0430 H     1 <1>   0.0800 
 34 H       -3.2610     1.5850    -3.1710 H     1 <1>   0.0800 
 35 H       -3.1870     0.2670    -2.0120 H     1 <1>   0.0800 
 36 H       -4.8420     2.7900    -1.8280 H     1 <1>   0.4500 
 37 H       -2.4880     6.2300     1.3180 H     1 <1>   0.0800 
 38 H       -3.7050     5.4500     2.2890 H     1 <1>   0.0800 
 39 H       -6.0000     5.7200    -1.0950 H     1 <1>   0.0800 
 40 H       -6.3650     5.0360     0.4620 H     1 <1>   0.0800 
 41 H       -3.3340     7.5420    -0.8100 H     1 <1>   0.1500 
 42 H       -5.7800     6.6130     2.5840 H     1 <1>   0.1500 
 43 H       -8.7810     3.8430    -2.1990 H     1 <1>   0.0800 
 44 H       -7.9070     5.3220    -2.3470 H     1 <1>   0.0800 
 45 H       -6.5410     2.4070     0.3130 H     1 <1>   0.0800 
 46 H       -7.7520     1.9370    -0.8160 H     1 <1>   0.0800 
 47 H       -4.9150     9.2990    -1.4490 H     1 <1>   0.1500 
 48 H       -7.3440     8.3640     1.9210 H     1 <1>   0.1500 
 49 H       -8.7710     6.1930    -0.4050 H     1 <1>   0.0800 
 50 H       -9.4440     2.7180     0.4460 H     1 <1>   0.0800 
 51 H       -6.9240     9.7080    -0.0940 H     1 <1>   0.1500 
 52 H      -10.8260     4.0140    -0.8610 H     1 <1>   0.0800 
 53 H      -10.7940     5.5780    -1.6290 H     1 <1>   0.0800 
 54 H      -11.0590     5.4690     0.0900 H     1 <1>   0.0800 
 55 H       -7.3050     3.2760     2.5170 H     1 <1>   0.0800 
 56 H       -8.0730     1.7260     2.2540 H     1 <1>   0.0800 
 57 H       -9.0190     3.0750     2.8220 H     1 <1>   0.0800 
@<TRIPOS>BOND
  1   1   2  2   
  2   2   3  am  
  3   2   4  am  
  4   3   5  am  
  5   3   6  1   
  6   4   7  1   
  7   4   8  1   
  8   5   9  2   
  9   5  10  1   
 10   6  30  1   
 11   6  31  1   
 12   6  32  1   
 13   7  10  2   
 14   7  11  1   
 15   8  33  1   
 16   8  34  1   
 17   8  35  1   
 18  10  12  1   
 19  11  13  ar  
 20  11  36  1   
 21  12  13  ar  
 22  12  14  1   
 23  13  15  1   
 24  14  16  1   
 25  14  37  1   
 26  14  38  1   
 27  15  17  1   
 28  15  39  1   
 29  15  40  1   
 30  16  18  ar  
 31  16  19  ar  
 32  17  20  1   
 33  17  21  1   
 34  18  22  ar  
 35  18  41  1   
 36  19  23  ar  
 37  19  42  1   
 38  20  24  1   
 39  20  43  1   
 40  20  44  1   
 41  21  25  1   
 42  21  45  1   
 43  21  46  1   
 44  22  26  ar  
 45  22  47  1   
 46  23  26  ar  
 47  23  48  1   
 48  24  27  1   
 49  24  28  1   
 50  24  49  1   
 51  25  27  1   
 52  25  29  1   
 53  25  50  1   
 54  26  51  1   
 55  28  52  1   
 56  28  53  1   
 57  28  54  1   
 58  29  55  1   
 59  29  56  1   
 60  29  57  1   
@<TRIPOS>SUBSTRUCTURE
  1 ****  13 GROUP 4 **** **** 0

# MOE 2024.06 (io_trps.svl 2023.06)
