@<TRIPOS>MOLECULE
NONAME
27 28 1 0 0 
SMALL
USER_CHARGES


@<TRIPOS>ATOM
  1 S        0.1710     0.0170    -0.1790 S.3   1 <1>  -0.0800 
  2 C       -0.5130     1.4620     0.5560 C.2   1 <1>   0.1240 
  3 C       -1.4320    -0.6610    -0.3900 C.2   1 <1>  -0.1400 
  4 N        0.3330     2.4460     0.9740 N.pl3 1 <1>  -0.8840 
  5 C       -1.8770     1.4190     0.6090 C.2   1 <1>  -0.2330 
  6 C       -2.3720     0.1710     0.0730 C.2   1 <1>  -0.1810 
  7 C       -1.6500    -2.0200    -1.0140 C.3   1 <1>   0.3000 
  8 C       -2.6920     2.5070     1.1180 C.2   1 <1>   1.0330 
  9 C       -3.8220    -0.2640    -0.0200 C.3   1 <1>   0.0210 
 10 O       -3.0240    -2.2210    -1.2610 O.3   1 <1>  -0.5600 
 11 O       -3.9310     2.4030     1.2210 O.co2 1 <1>  -0.9000 
 12 O       -2.1770     3.5950     1.4580 O.co2 1 <1>  -0.9000 
 13 C       -3.9450    -1.7910    -0.2850 C.3   1 <1>   0.2800 
 14 C       -5.3250    -2.1160    -0.8580 C.3   1 <1>  -0.2400 
 15 C       -3.7280    -2.6140     0.9950 C.3   1 <1>  -0.2400 
 16 H       -0.1670     3.3030     1.2880 H     1 <1>   0.4000 
 17 H        1.2540     2.5830     0.5640 H     1 <1>   0.4000 
 18 H       -1.2990    -2.7980    -0.3600 H     1 <1>   0.0800 
 19 H       -1.1360    -2.0870    -1.9560 H     1 <1>   0.0800 
 20 H       -4.2940     0.2960    -0.8060 H     1 <1>   0.0800 
 21 H       -4.3340    -0.0280     0.8940 H     1 <1>   0.0800 
 22 H       -5.4710    -1.5910    -1.7850 H     1 <1>   0.0800 
 23 H       -6.0930    -1.8130    -0.1700 H     1 <1>   0.0800 
 24 H       -5.4160    -3.1720    -1.0350 H     1 <1>   0.0800 
 25 H       -2.8010    -2.3500     1.4700 H     1 <1>   0.0800 
 26 H       -3.7340    -3.6650     0.7700 H     1 <1>   0.0800 
 27 H       -4.5170    -2.4090     1.6960 H     1 <1>   0.0800 
@<TRIPOS>BOND
  1   1   2  1   
  2   1   3  1   
  3   2   4  1   
  4   2   5  2   
  5   3   6  2   
  6   3   7  1   
  7   4  16  1   
  8   4  17  1   
  9   5   6  1   
 10   5   8  1   
 11   6   9  1   
 12   7  10  1   
 13   7  18  1   
 14   7  19  1   
 15   8  11  ar  
 16   8  12  ar  
 17   9  13  1   
 18   9  20  1   
 19   9  21  1   
 20  10  13  1   
 21  13  14  1   
 22  13  15  1   
 23  14  22  1   
 24  14  23  1   
 25  14  24  1   
 26  15  25  1   
 27  15  26  1   
 28  15  27  1   
@<TRIPOS>SUBSTRUCTURE
  1 ****   6 GROUP 4 **** **** 0

# MOE 2024.06 (io_trps.svl 2023.06)
