@<TRIPOS>MOLECULE
NONAME
39 40 1 0 0 
SMALL
USER_CHARGES


@<TRIPOS>ATOM
  1 O        0.7670    -4.7570     0.7690 O.2   1 <1>  -0.5700 
  2 C        0.1840    -3.8650     0.1790 C.2   1 <1>   0.5440 
  3 N        0.9270    -3.1480    -0.7310 N.am  1 <1>  -0.6600 
  4 C       -1.1960    -3.5300     0.4860 C.ar  1 <1>   0.0860 
  5 C        1.9270    -3.8320    -1.6150 C.3   1 <1>   0.1400 
  6 C        1.1300    -1.6910    -0.5460 C.3   1 <1>   0.1400 
  7 C       -2.0290    -2.9120    -0.4500 C.ar  1 <1>  -0.1500 
  8 C       -1.7470    -3.8180     1.7360 C.ar  1 <1>  -0.1500 
  9 C        3.2290    -4.2340    -0.8850 C.3   1 <1>   0.3430 
 10 C        2.1320    -1.4380     0.5890 C.3   1 <1>  -0.1600 
 11 C       -3.3380    -2.5800    -0.1520 C.ar  1 <1>  -0.1500 
 12 C       -3.0540    -3.4890     2.0420 C.ar  1 <1>  -0.1500 
 13 N        3.3570    -3.6030     0.4670 N.4   1 <1>  -0.9590 
 14 C        3.4950    -2.1210     0.4210 C.3   1 <1>   0.3430 
 15 C       -3.8610    -2.8660     1.1050 C.ar  1 <1>   0.0830 
 16 C        4.4130    -4.2600     1.2870 C.3   1 <1>   0.2630 
 17 O       -5.1260    -2.5740     1.4800 O.3   1 <1>  -0.3630 
 18 C       -6.0440    -1.9670     0.5990 C.3   1 <1>   0.0400 
 19 H        2.1680    -3.1920    -2.4460 H     1 <1>   0.0800 
 20 H        1.4780    -4.7200    -2.0250 H     1 <1>   0.0800 
 21 H        0.1910    -1.2220    -0.3010 H     1 <1>   0.0800 
 22 H        1.4830    -1.2510    -1.4640 H     1 <1>   0.0800 
 23 H       -1.6460    -2.6910    -1.4310 H     1 <1>   0.1500 
 24 H       -1.1410    -4.3090     2.4780 H     1 <1>   0.1500 
 25 H        4.0810    -3.9890    -1.4980 H     1 <1>   0.0800 
 26 H        3.2130    -5.3050    -0.7660 H     1 <1>   0.0800 
 27 H        1.6970    -1.7310     1.5280 H     1 <1>   0.0800 
 28 H        2.2990    -0.3770     0.6460 H     1 <1>   0.0800 
 29 H       -3.9380    -2.1040    -0.9050 H     1 <1>   0.1500 
 30 H       -3.4630    -3.7160     3.0110 H     1 <1>   0.1500 
 31 H        2.4280    -3.8160     0.8960 H     1 <1>   0.4500 
 32 H        4.1350    -1.7980     1.2260 H     1 <1>   0.0800 
 33 H        3.9510    -1.8180    -0.5080 H     1 <1>   0.0800 
 34 H        5.3840    -4.1040     0.8460 H     1 <1>   0.0800 
 35 H        4.2260    -5.3200     1.3510 H     1 <1>   0.0800 
 36 H        4.4140    -3.8540     2.2860 H     1 <1>   0.0800 
 37 H       -6.9770    -1.8480     1.1190 H     1 <1>   0.0800 
 38 H       -6.1820    -2.6060    -0.2560 H     1 <1>   0.0800 
 39 H       -5.6640    -1.0050     0.3060 H     1 <1>   0.0800 
@<TRIPOS>BOND
  1   1   2  2   
  2   2   3  am  
  3   2   4  1   
  4   3   5  1   
  5   3   6  1   
  6   4   7  ar  
  7   4   8  ar  
  8   5   9  1   
  9   5  19  1   
 10   5  20  1   
 11   6  10  1   
 12   6  21  1   
 13   6  22  1   
 14   7  11  ar  
 15   7  23  1   
 16   8  12  ar  
 17   8  24  1   
 18   9  13  1   
 19   9  25  1   
 20   9  26  1   
 21  10  14  1   
 22  10  27  1   
 23  10  28  1   
 24  11  15  ar  
 25  11  29  1   
 26  12  15  ar  
 27  12  30  1   
 28  13  14  1   
 29  13  16  1   
 30  13  31  1   
 31  14  32  1   
 32  14  33  1   
 33  15  17  1   
 34  16  34  1   
 35  16  35  1   
 36  16  36  1   
 37  17  18  1   
 38  18  37  1   
 39  18  38  1   
 40  18  39  1   
@<TRIPOS>SUBSTRUCTURE
  1 ****   2 GROUP 4 **** **** 0

# MOE 2024.06 (io_trps.svl 2023.06)
