@<TRIPOS>MOLECULE
NONAME
41 41 1 0 0 
SMALL
USER_CHARGES


@<TRIPOS>ATOM
  1 S        0.6650    -0.3640    -0.7350 S.3   1 <1>  -0.0800 
  2 C        1.8920    -0.7330     0.4370 C.2   1 <1>   0.4420 
  3 C       -0.4810    -0.4170     0.5610 C.2   1 <1>   0.1980 
  4 N        1.4100    -0.8660     1.6170 N.2   1 <1>  -0.3380 
  5 N        3.2220    -0.8620     0.0990 N.am  1 <1>  -0.4940 
  6 N        0.0570    -0.6860     1.6810 N.2   1 <1>  -0.3380 
  7 C       -1.9420    -0.1590     0.2420 C.3   1 <1>   0.0200 
  8 C        3.8770    -0.7310    -1.0900 C.2   1 <1>   0.5690 
  9 C       -2.3820     1.2790     0.5760 C.3   1 <1>  -0.0800 
 10 O        3.3350    -0.4590    -2.1290 O.2   1 <1>  -0.5700 
 11 C        5.3790    -0.9450    -1.0880 C.3   1 <1>  -0.0990 
 12 C       -3.8900     1.4410     0.3440 C.3   1 <1>  -0.2400 
 13 C       -1.6210     2.3260    -0.2500 C.3   1 <1>  -0.2400 
 14 C        6.1330     0.2160    -0.4190 C.3   1 <1>  -0.1600 
 15 C        7.6490    -0.0190    -0.4410 C.3   1 <1>  -0.1600 
 16 C        8.3970     1.1420     0.2270 C.3   1 <1>  -0.1600 
 17 C        9.9120     0.9100     0.2050 C.3   1 <1>  -0.1600 
 18 C       10.6560     2.0690     0.8730 C.3   1 <1>  -0.2400 
 19 H        3.8060    -1.0810     0.9010 H     1 <1>   0.3700 
 20 H       -2.5290    -0.8490     0.8220 H     1 <1>   0.0800 
 21 H       -2.1240    -0.3700    -0.7970 H     1 <1>   0.0800 
 22 H       -2.1810     1.4590     1.6200 H     1 <1>   0.0800 
 23 H        5.7080    -1.0420    -2.1080 H     1 <1>   0.0800 
 24 H        5.5990    -1.8690    -0.5850 H     1 <1>   0.0800 
 25 H       -4.1380     1.2760    -0.6900 H     1 <1>   0.0800 
 26 H       -4.2050     2.4330     0.6160 H     1 <1>   0.0800 
 27 H       -4.4410     0.7400     0.9470 H     1 <1>   0.0800 
 28 H       -1.7510     2.1510    -1.3040 H     1 <1>   0.0800 
 29 H       -0.5700     2.2980    -0.0230 H     1 <1>   0.0800 
 30 H       -1.9790     3.3140    -0.0210 H     1 <1>   0.0800 
 31 H        5.8050     0.3270     0.6000 H     1 <1>   0.0800 
 32 H        5.9050     1.1300    -0.9420 H     1 <1>   0.0800 
 33 H        7.9820    -0.1150    -1.4610 H     1 <1>   0.0800 
 34 H        7.8810    -0.9350     0.0750 H     1 <1>   0.0800 
 35 H        8.0670     1.2420     1.2480 H     1 <1>   0.0800 
 36 H        8.1690     2.0590    -0.2890 H     1 <1>   0.0800 
 37 H       10.2490     0.8150    -0.8140 H     1 <1>   0.0800 
 38 H       10.1470    -0.0050     0.7210 H     1 <1>   0.0800 
 39 H       10.4530     2.9920     0.3590 H     1 <1>   0.0800 
 40 H       11.7170     1.8900     0.8460 H     1 <1>   0.0800 
 41 H       10.3520     2.1690     1.9000 H     1 <1>   0.0800 
@<TRIPOS>BOND
  1   1   2  1   
  2   1   3  1   
  3   2   4  2   
  4   2   5  1   
  5   3   6  2   
  6   3   7  1   
  7   4   6  1   
  8   5   8  am  
  9   5  19  1   
 10   7   9  1   
 11   7  20  1   
 12   7  21  1   
 13   8  10  2   
 14   8  11  1   
 15   9  12  1   
 16   9  13  1   
 17   9  22  1   
 18  11  14  1   
 19  11  23  1   
 20  11  24  1   
 21  12  25  1   
 22  12  26  1   
 23  12  27  1   
 24  13  28  1   
 25  13  29  1   
 26  13  30  1   
 27  14  15  1   
 28  14  31  1   
 29  14  32  1   
 30  15  16  1   
 31  15  33  1   
 32  15  34  1   
 33  16  17  1   
 34  16  35  1   
 35  16  36  1   
 36  17  18  1   
 37  17  37  1   
 38  17  38  1   
 39  18  39  1   
 40  18  40  1   
 41  18  41  1   
@<TRIPOS>SUBSTRUCTURE
  1 ****   5 GROUP 4 **** **** 0

# MOE 2024.06 (io_trps.svl 2023.06)
