@<TRIPOS>MOLECULE
NONAME
47 48 1 0 0 
SMALL
USER_CHARGES


@<TRIPOS>ATOM
  1 O      -12.0210     1.9400     0.5250 O.3   1 <1>  -0.3630 
  2 C      -10.7150     1.8360     0.1850 C.ar  1 <1>   0.0820 
  3 C      -12.9910     2.4040    -0.3860 C.3   1 <1>   0.1200 
  4 C       -9.8740     1.2610     1.1230 C.ar  1 <1>  -0.1500 
  5 C      -10.1910     2.2650    -1.0300 C.ar  1 <1>  -0.1500 
  6 C      -14.3520     2.3410     0.3010 C.3   1 <1>  -0.2400 
  7 C       -8.5240     1.1180     0.8640 C.ar  1 <1>  -0.1500 
  8 C       -8.8380     2.1250    -1.2900 C.ar  1 <1>  -0.1500 
  9 C       -7.9970     1.5590    -0.3410 C.ar  1 <1>  -0.1430 
 10 C       -6.5160     1.4420    -0.6080 C.3   1 <1>   0.4860 
 11 N       -5.9210     2.6570     0.0030 N.4   1 <1>  -0.9060 
 12 C       -4.4310     2.7610    -0.1970 C.3   1 <1>   0.3430 
 13 C       -3.7330     4.0040     0.4530 C.3   1 <1>   0.4230 
 14 N       -4.3090     5.3540     0.1040 N.4   1 <1>  -0.9590 
 15 C       -2.2580     4.0790     0.0420 C.3   1 <1>  -0.1600 
 16 C       -3.1670     6.3150     0.1700 C.3   1 <1>   0.3430 
 17 C       -5.4150     5.8210     0.9890 C.3   1 <1>   0.3430 
 18 C       -1.9860     5.5270    -0.3590 C.3   1 <1>  -0.1600 
 19 C       -6.1650     6.9530     0.2980 C.3   1 <1>  -0.2400 
 20 H      -12.9750     1.7690    -1.2550 H     1 <1>   0.0800 
 21 H      -12.7500     3.4170    -0.6570 H     1 <1>   0.0800 
 22 H      -10.2960     0.9230     2.0540 H     1 <1>   0.1500 
 23 H      -10.8240     2.7040    -1.7790 H     1 <1>   0.1500 
 24 H      -14.5770     1.3280     0.5820 H     1 <1>   0.0800 
 25 H      -15.1160     2.6900    -0.3700 H     1 <1>   0.0800 
 26 H      -14.3520     2.9650     1.1770 H     1 <1>   0.0800 
 27 H       -7.9070     0.6530     1.6160 H     1 <1>   0.1500 
 28 H       -8.4640     2.4590    -2.2440 H     1 <1>   0.1500 
 29 H       -6.3330     1.4100    -1.6700 H     1 <1>   0.0800 
 30 H       -6.1270     0.5450    -0.1530 H     1 <1>   0.0800 
 31 H       -6.1870     2.6140     0.9970 H     1 <1>   0.4500 
 32 H       -6.4400     3.4450    -0.4030 H     1 <1>   0.4500 
 33 H       -4.2180     2.7740    -1.2530 H     1 <1>   0.0800 
 34 H       -3.9620     1.8760     0.2040 H     1 <1>   0.0800 
 35 H       -3.7580     3.8890     1.5260 H     1 <1>   0.0800 
 36 H       -4.6170     5.3730    -0.8770 H     1 <1>   0.4500 
 37 H       -2.0190     3.4170    -0.7730 H     1 <1>   0.0800 
 38 H       -1.6420     3.8020     0.8820 H     1 <1>   0.0800 
 39 H       -2.9790     6.5980     1.1940 H     1 <1>   0.0800 
 40 H       -3.3500     7.2020    -0.4160 H     1 <1>   0.0800 
 41 H       -5.0220     6.1630     1.9340 H     1 <1>   0.0800 
 42 H       -6.1060     5.0180     1.1860 H     1 <1>   0.0800 
 43 H       -1.9460     5.6220    -1.4320 H     1 <1>   0.0800 
 44 H       -1.0590     5.8960     0.0480 H     1 <1>   0.0800 
 45 H       -5.5330     7.8110     0.1510 H     1 <1>   0.0800 
 46 H       -6.9860     7.2630     0.9210 H     1 <1>   0.0800 
 47 H       -6.5700     6.6370    -0.6460 H     1 <1>   0.0800 
@<TRIPOS>BOND
  1   1   2  1   
  2   1   3  1   
  3   2   4  ar  
  4   2   5  ar  
  5   3   6  1   
  6   3  20  1   
  7   3  21  1   
  8   4   7  ar  
  9   4  22  1   
 10   5   8  ar  
 11   5  23  1   
 12   6  24  1   
 13   6  25  1   
 14   6  26  1   
 15   7   9  ar  
 16   7  27  1   
 17   8   9  ar  
 18   8  28  1   
 19   9  10  1   
 20  10  11  1   
 21  10  29  1   
 22  10  30  1   
 23  11  12  1   
 24  11  31  1   
 25  11  32  1   
 26  12  13  1   
 27  12  33  1   
 28  12  34  1   
 29  13  14  1   
 30  13  15  1   
 31  13  35  1   
 32  14  16  1   
 33  14  17  1   
 34  14  36  1   
 35  15  18  1   
 36  15  37  1   
 37  15  38  1   
 38  16  18  1   
 39  16  39  1   
 40  16  40  1   
 41  17  19  1   
 42  17  41  1   
 43  17  42  1   
 44  18  43  1   
 45  18  44  1   
 46  19  45  1   
 47  19  46  1   
 48  19  47  1   
@<TRIPOS>SUBSTRUCTURE
  1 ****  11 GROUP 4 **** **** 0

# MOE 2024.06 (io_trps.svl 2023.06)
