@<TRIPOS>MOLECULE
NONAME
36 37 1 0 0 
SMALL
USER_CHARGES


@<TRIPOS>ATOM
  1 O       -0.7200     0.2730    -1.5910 O.2   1 <1>  -0.5700 
  2 C       -1.3570     0.9250    -0.7820 C.2   1 <1>   0.4140 
  3 C       -1.0620     2.2530    -0.4210 C.3   1 <1>  -0.7150 
  4 C       -2.5440     0.2060    -0.1690 C.3   1 <1>  -0.0990 
  5 C       -1.8660     2.9150     0.5280 C.2   1 <1>   0.4140 
  6 C        0.0210     2.9310    -1.0140 C.2   1 <1>   0.4140 
  7 C       -3.7010     1.1610     0.1620 C.3   1 <1>   0.0000 
  8 O       -1.5780     3.9740     1.0560 O.2   1 <1>  -0.5700 
  9 C       -3.1500     2.2910     1.0480 C.3   1 <1>  -0.0990 
 10 O       -0.0790     4.0600    -1.4690 O.2   1 <1>  -0.5700 
 11 C        1.3930     2.2720    -1.1400 C.3   1 <1>   0.0450 
 12 C       -4.8040     0.4000     0.9140 C.3   1 <1>  -0.2400 
 13 C       -4.3060     1.7430    -1.1300 C.3   1 <1>  -0.2400 
 14 C        2.5410     3.0150    -0.4490 C.ar  1 <1>  -0.1440 
 15 C        2.3130     3.8470     0.6380 C.ar  1 <1>  -0.1500 
 16 C        3.8400     2.8410    -0.9020 C.ar  1 <1>  -0.1500 
 17 C        3.3650     4.4960     1.2600 C.ar  1 <1>  -0.1500 
 18 C        4.8960     3.4890    -0.2810 C.ar  1 <1>  -0.1500 
 19 C        4.6590     4.3170     0.8020 C.ar  1 <1>  -0.1500 
 20 H       -2.1990    -0.2840     0.7210 H     1 <1>   0.0800 
 21 H       -2.8820    -0.5510    -0.8540 H     1 <1>   0.0800 
 22 H       -3.8870     3.0650     1.1510 H     1 <1>   0.0800 
 23 H       -2.9350     1.9130     2.0290 H     1 <1>   0.0800 
 24 H        1.6030     2.1690    -2.1870 H     1 <1>   0.0800 
 25 H        1.3550     1.2890    -0.7140 H     1 <1>   0.0800 
 26 H       -4.4170    -0.0280     1.8220 H     1 <1>   0.0800 
 27 H       -5.1950    -0.3940     0.3040 H     1 <1>   0.0800 
 28 H       -5.6100     1.0650     1.1690 H     1 <1>   0.0800 
 29 H       -3.5700     2.3080    -1.6770 H     1 <1>   0.0800 
 30 H       -5.1250     2.4010    -0.9010 H     1 <1>   0.0800 
 31 H       -4.6650     0.9560    -1.7680 H     1 <1>   0.0800 
 32 H        1.3060     3.9970     0.9990 H     1 <1>   0.1500 
 33 H        4.0290     2.1980    -1.7420 H     1 <1>   0.1500 
 34 H        3.1670     5.1400     2.0980 H     1 <1>   0.1500 
 35 H        5.8980     3.3470    -0.6420 H     1 <1>   0.1500 
 36 H        5.4750     4.8220     1.2850 H     1 <1>   0.1500 
@<TRIPOS>BOND
  1   1   2  2   
  2   2   3  1   
  3   2   4  1   
  4   3   5  1   
  5   3   6  1   
  6   4   7  1   
  7   4  20  1   
  8   4  21  1   
  9   5   8  2   
 10   5   9  1   
 11   6  10  2   
 12   6  11  1   
 13   7   9  1   
 14   7  12  1   
 15   7  13  1   
 16   9  22  1   
 17   9  23  1   
 18  11  14  1   
 19  11  24  1   
 20  11  25  1   
 21  12  26  1   
 22  12  27  1   
 23  12  28  1   
 24  13  29  1   
 25  13  30  1   
 26  13  31  1   
 27  14  15  ar  
 28  14  16  ar  
 29  15  17  ar  
 30  15  32  1   
 31  16  18  ar  
 32  16  33  1   
 33  17  19  ar  
 34  17  34  1   
 35  18  19  ar  
 36  18  35  1   
 37  19  36  1   
@<TRIPOS>SUBSTRUCTURE
  1 ****   6 GROUP 4 **** **** 0

# MOE 2024.06 (io_trps.svl 2023.06)
