@<TRIPOS>MOLECULE
NONAME
48 49 1 0 0 
SMALL
USER_CHARGES


@<TRIPOS>ATOM
  1 F       -0.2020    -0.4560    -1.2020 F     1 <1>  -0.1900 
  2 C       -0.8130    -1.5340    -0.7690 C.ar  1 <1>   0.1900 
  3 C       -0.0670    -2.5840    -0.2170 C.ar  1 <1>   0.1000 
  4 C       -2.1830    -1.5720    -0.8970 C.ar  1 <1>  -0.1500 
  5 N        1.3190    -2.6040    -0.0560 N.pl3 1 <1>  -0.8380 
  6 C       -0.7960    -3.6930     0.1970 C.ar  1 <1>  -0.1500 
  7 C       -2.9130    -2.6870    -0.4740 C.ar  1 <1>   0.0860 
  8 C        2.1320    -3.4900    -0.9430 C.3   1 <1>   0.2090 
  9 C        2.0560    -1.3760     0.3690 C.3   1 <1>   0.2090 
 10 C       -2.1720    -3.7450     0.0730 C.ar  1 <1>  -0.1500 
 11 C       -4.3530    -2.7070    -0.6140 C.2   1 <1>   0.4230 
 12 C        3.4670    -3.8580    -0.2740 C.3   1 <1>   0.1400 
 13 C        3.3940    -1.7380     1.0390 C.3   1 <1>   0.1400 
 14 O       -4.9540    -1.8310    -1.1870 O.2   1 <1>  -0.5700 
 15 C       -5.1590    -3.8670    -0.0260 C.3   1 <1>  -0.0990 
 16 N        4.2180    -2.6350     0.1610 N.am  1 <1>  -0.6600 
 17 C       -6.6860    -3.6800    -0.0840 C.3   1 <1>  -0.1600 
 18 C        5.4840    -2.3760    -0.3110 C.2   1 <1>   0.5690 
 19 C       -7.4220    -4.8710     0.5390 C.3   1 <1>  -0.2400 
 20 O        5.9980    -3.0990    -1.1330 O.2   1 <1>  -0.5700 
 21 C        6.2860    -1.1560     0.1800 C.3   1 <1>  -0.0190 
 22 C        5.9430     0.0990    -0.6410 C.3   1 <1>  -0.2400 
 23 C        7.8080    -1.3870     0.1440 C.3   1 <1>  -0.2400 
 24 H       -2.6950    -0.7310    -1.3300 H     1 <1>   0.1500 
 25 H       -0.2610    -4.5190     0.6290 H     1 <1>   0.1500 
 26 H        2.3310    -2.9810    -1.8710 H     1 <1>   0.0800 
 27 H        1.5830    -4.3880    -1.1660 H     1 <1>   0.0800 
 28 H        1.4490    -0.8140     1.0580 H     1 <1>   0.0800 
 29 H        2.2500    -0.7590    -0.4910 H     1 <1>   0.0800 
 30 H       -2.6710    -4.6340     0.4120 H     1 <1>   0.1500 
 31 H        4.0530    -4.4430    -0.9620 H     1 <1>   0.0800 
 32 H        3.2690    -4.4710     0.5860 H     1 <1>   0.0800 
 33 H        3.1910    -2.2480     1.9640 H     1 <1>   0.0800 
 34 H        3.9130    -0.8290     1.2710 H     1 <1>   0.0800 
 35 H       -4.8720    -3.9920     1.0020 H     1 <1>   0.0800 
 36 H       -4.9010    -4.7620    -0.5630 H     1 <1>   0.0800 
 37 H       -6.9940    -3.5670    -1.1100 H     1 <1>   0.0800 
 38 H       -6.9560    -2.7780     0.4410 H     1 <1>   0.0800 
 39 H       -7.1850    -5.7780     0.0120 H     1 <1>   0.0800 
 40 H       -8.4850    -4.7130     0.4840 H     1 <1>   0.0800 
 41 H       -7.1480    -4.9850     1.5730 H     1 <1>   0.0800 
 42 H        6.0340    -0.9790     1.2080 H     1 <1>   0.0800 
 43 H        6.2190    -0.0490    -1.6710 H     1 <1>   0.0800 
 44 H        6.4710     0.9550    -0.2610 H     1 <1>   0.0800 
 45 H        4.8880     0.3020    -0.6020 H     1 <1>   0.0800 
 46 H        8.1410    -1.5390    -0.8680 H     1 <1>   0.0800 
 47 H        8.0600    -2.2610     0.7170 H     1 <1>   0.0800 
 48 H        8.3300    -0.5420     0.5570 H     1 <1>   0.0800 
@<TRIPOS>BOND
  1   1   2  1   
  2   2   3  ar  
  3   2   4  ar  
  4   3   5  1   
  5   3   6  ar  
  6   4   7  ar  
  7   4  24  1   
  8   5   8  1   
  9   5   9  1   
 10   6  10  ar  
 11   6  25  1   
 12   7  10  ar  
 13   7  11  1   
 14   8  12  1   
 15   8  26  1   
 16   8  27  1   
 17   9  13  1   
 18   9  28  1   
 19   9  29  1   
 20  10  30  1   
 21  11  14  2   
 22  11  15  1   
 23  12  16  1   
 24  12  31  1   
 25  12  32  1   
 26  13  16  1   
 27  13  33  1   
 28  13  34  1   
 29  15  17  1   
 30  15  35  1   
 31  15  36  1   
 32  16  18  am  
 33  17  19  1   
 34  17  37  1   
 35  17  38  1   
 36  18  20  2   
 37  18  21  1   
 38  19  39  1   
 39  19  40  1   
 40  19  41  1   
 41  21  22  1   
 42  21  23  1   
 43  21  42  1   
 44  22  43  1   
 45  22  44  1   
 46  22  45  1   
 47  23  46  1   
 48  23  47  1   
 49  23  48  1   
@<TRIPOS>SUBSTRUCTURE
  1 ****   3 GROUP 4 **** **** 0

# MOE 2024.06 (io_trps.svl 2023.06)
