@<TRIPOS>MOLECULE
NONAME
46 48 1 0 0 
SMALL
USER_CHARGES


@<TRIPOS>ATOM
  1 O       -0.5930    -0.0070     0.1340 O.2   1 <1>  -0.5700 
  2 C       -1.0260    -1.1390     0.2470 C.2   1 <1>   0.6900 
  3 N       -2.3550    -1.3460     0.5110 N.am  1 <1>  -0.6600 
  4 N       -0.2120    -2.2270     0.1310 N.am  1 <1>  -0.5470 
  5 C       -3.1160    -2.5580     0.0770 C.3   1 <1>   0.1400 
  6 C       -3.2610    -0.2110     0.8680 C.3   1 <1>   0.1400 
  7 C        1.1350    -2.4130    -0.2280 C.ar  1 <1>   0.1170 
  8 C       -4.0470    -2.2290    -1.1060 C.3   1 <1>   0.2090 
  9 C       -4.2040     0.1340    -0.2980 C.3   1 <1>   0.2090 
 10 C        1.6940    -3.6830    -0.0450 C.ar  1 <1>   0.0820 
 11 C        1.9280    -1.4030    -0.7630 C.ar  1 <1>  -0.1500 
 12 N       -4.9390    -1.0710    -0.8050 N.pl3 1 <1>  -0.8380 
 13 O        0.8790    -4.6540     0.4710 O.3   1 <1>  -0.3630 
 14 C        3.0230    -3.9170    -0.3860 C.ar  1 <1>  -0.1500 
 15 C        3.2480    -1.6410    -1.1000 C.ar  1 <1>  -0.1500 
 16 C       -6.1950    -1.3500    -0.3010 C.ar  1 <1>   0.4100 
 17 C        1.3730    -5.9370     0.7770 C.3   1 <1>   0.1200 
 18 C        3.7970    -2.8960    -0.9120 C.ar  1 <1>  -0.1500 
 19 N       -6.4020    -1.1190     0.9910 N.ar  1 <1>  -0.6200 
 20 C       -7.1710    -1.8660    -1.1490 C.ar  1 <1>  -0.1500 
 21 C        0.2310    -6.7490     1.3790 C.3   1 <1>  -0.2400 
 22 C       -7.6110    -1.4090     1.4420 C.ar  1 <1>   0.1600 
 23 C       -8.4230    -2.1650    -0.6660 C.ar  1 <1>  -0.1500 
 24 C       -8.6400    -1.9250     0.6750 C.ar  1 <1>  -0.1500 
 25 H       -0.6300    -3.0780     0.4960 H     1 <1>   0.3700 
 26 H       -3.7130    -2.9090     0.9010 H     1 <1>   0.0800 
 27 H       -2.4510    -3.3500    -0.2140 H     1 <1>   0.0800 
 28 H       -2.6890     0.6600     1.1350 H     1 <1>   0.0800 
 29 H       -3.8500    -0.4880     1.7240 H     1 <1>   0.0800 
 30 H       -4.6420    -3.0950    -1.3380 H     1 <1>   0.0800 
 31 H       -3.4500    -1.9960    -1.9710 H     1 <1>   0.0800 
 32 H       -3.6260     0.5580    -1.1000 H     1 <1>   0.0800 
 33 H       -4.9100     0.8790     0.0260 H     1 <1>   0.0800 
 34 H        1.5190    -0.4230    -0.9200 H     1 <1>   0.1500 
 35 H        3.4780    -4.8800    -0.2560 H     1 <1>   0.1500 
 36 H        3.8460    -0.8450    -1.5100 H     1 <1>   0.1500 
 37 H        2.1790    -5.8330     1.4830 H     1 <1>   0.0800 
 38 H        1.7260    -6.3930    -0.1320 H     1 <1>   0.0800 
 39 H        4.8250    -3.0770    -1.1740 H     1 <1>   0.1500 
 40 H       -6.9260    -2.0170    -2.1830 H     1 <1>   0.1500 
 41 H       -0.1250    -6.2780     2.2770 H     1 <1>   0.0800 
 42 H        0.5780    -7.7360     1.6250 H     1 <1>   0.0800 
 43 H       -0.5750    -6.8360     0.6720 H     1 <1>   0.0800 
 44 H       -7.7920    -1.2240     2.4870 H     1 <1>   0.1500 
 45 H       -9.1960    -2.5630    -1.3010 H     1 <1>   0.1500 
 46 H       -9.5960    -2.1340     1.1200 H     1 <1>   0.1500 
@<TRIPOS>BOND
  1   1   2  2   
  2   2   3  am  
  3   2   4  am  
  4   3   5  1   
  5   3   6  1   
  6   4   7  1   
  7   4  25  1   
  8   5   8  1   
  9   5  26  1   
 10   5  27  1   
 11   6   9  1   
 12   6  28  1   
 13   6  29  1   
 14   7  10  ar  
 15   7  11  ar  
 16   8  12  1   
 17   8  30  1   
 18   8  31  1   
 19   9  12  1   
 20   9  32  1   
 21   9  33  1   
 22  10  13  1   
 23  10  14  ar  
 24  11  15  ar  
 25  11  34  1   
 26  12  16  1   
 27  13  17  1   
 28  14  18  ar  
 29  14  35  1   
 30  15  18  ar  
 31  15  36  1   
 32  16  19  ar  
 33  16  20  ar  
 34  17  21  1   
 35  17  37  1   
 36  17  38  1   
 37  18  39  1   
 38  19  22  ar  
 39  20  23  ar  
 40  20  40  1   
 41  21  41  1   
 42  21  42  1   
 43  21  43  1   
 44  22  24  ar  
 45  22  44  1   
 46  23  24  ar  
 47  23  45  1   
 48  24  46  1   
@<TRIPOS>SUBSTRUCTURE
  1 ****   5 GROUP 4 **** **** 0

# MOE 2024.06 (io_trps.svl 2023.06)
