@<TRIPOS>MOLECULE
NONAME
39 41 1 0 0 
SMALL
USER_CHARGES


@<TRIPOS>ATOM
  1 F        1.5870     1.2980    -0.2420 F     1 <1>  -0.3400 
  2 C        1.2210     0.2590     0.5090 C.3   1 <1>   1.0200 
  3 F        1.9780     0.3430     1.6020 F     1 <1>  -0.3400 
  4 F       -0.0230     0.5370     0.9000 F     1 <1>  -0.3400 
  5 C        1.3410    -1.0900    -0.2590 C.3   1 <1>   0.5210 
  6 O        0.5580    -1.1060    -1.4530 O.3   1 <1>  -0.6800 
  7 C        2.7860    -1.3410    -0.6990 C.2   1 <1>  -0.0400 
  8 C        0.8800    -2.2360     0.6500 C.2   1 <1>   0.6590 
  9 O        3.6680    -1.7200     0.2080 O.3   1 <1>  -0.2800 
 10 C        3.3790    -1.2510    -1.9120 C.2   1 <1>  -0.1500 
 11 O        0.6370    -2.1280     1.8280 O.2   1 <1>  -0.5700 
 12 O        0.7470    -3.4150     0.0400 O.3   1 <1>  -0.4300 
 13 C        4.8280    -1.8830    -0.3940 C.2   1 <1>   0.0550 
 14 C        4.7180    -1.6060    -1.7100 C.2   1 <1>  -0.1500 
 15 C        0.3600    -4.5750     0.7410 C.3   1 <1>   0.1200 
 16 C        6.0180    -2.3220     0.4340 C.3   1 <1>  -0.0150 
 17 C        0.3350    -5.7360    -0.2480 C.3   1 <1>  -0.2400 
 18 C        7.1400    -3.0970    -0.1720 C.3   1 <1>  -0.1000 
 19 C        6.1980    -3.7690     0.7820 C.3   1 <1>  -0.2000 
 20 C        8.6040    -2.8160     0.2490 C.3   1 <1>  -0.1000 
 21 C        9.5360    -2.1340    -0.6980 C.3   1 <1>  -0.2000 
 22 C        9.7240    -3.5880    -0.3680 C.3   1 <1>  -0.2000 
 23 H        0.5890    -2.0100    -1.8270 H     1 <1>   0.4000 
 24 H        2.9490    -0.9660    -2.8570 H     1 <1>   0.1500 
 25 H        5.4800    -1.6410    -2.4680 H     1 <1>   0.1500 
 26 H       -0.6140    -4.4090     1.1700 H     1 <1>   0.0800 
 27 H        1.0760    -4.7530     1.5270 H     1 <1>   0.0800 
 28 H        6.2640    -1.6020     1.1950 H     1 <1>   0.1000 
 29 H       -0.3780    -5.5440    -1.0300 H     1 <1>   0.0800 
 30 H        0.0470    -6.6380     0.2620 H     1 <1>   0.0800 
 31 H        1.3110    -5.8820    -0.6740 H     1 <1>   0.0800 
 32 H        7.0510    -3.3690    -1.2100 H     1 <1>   0.1000 
 33 H        5.4900    -4.4800     0.3960 H     1 <1>   0.1000 
 34 H        6.5400    -4.0180     1.7710 H     1 <1>   0.1000 
 35 H        8.6980    -2.5670     1.2930 H     1 <1>   0.1000 
 36 H       10.2350    -1.4170    -0.3040 H     1 <1>   0.1000 
 37 H        9.1830    -1.8700    -1.6790 H     1 <1>   0.1000 
 38 H        9.4980    -4.3230    -1.1190 H     1 <1>   0.1000 
 39 H       10.5530    -3.8760     0.2550 H     1 <1>   0.1000 
@<TRIPOS>BOND
  1   1   2  1   
  2   2   3  1   
  3   2   4  1   
  4   2   5  1   
  5   5   6  1   
  6   5   7  1   
  7   5   8  1   
  8   6  23  1   
  9   7   9  1   
 10   7  10  2   
 11   8  11  2   
 12   8  12  1   
 13   9  13  1   
 14  10  14  1   
 15  10  24  1   
 16  12  15  1   
 17  13  14  2   
 18  13  16  1   
 19  14  25  1   
 20  15  17  1   
 21  15  26  1   
 22  15  27  1   
 23  16  18  1   
 24  16  19  1   
 25  16  28  1   
 26  17  29  1   
 27  17  30  1   
 28  17  31  1   
 29  18  19  1   
 30  18  20  1   
 31  18  32  1   
 32  19  33  1   
 33  19  34  1   
 34  20  21  1   
 35  20  22  1   
 36  20  35  1   
 37  21  22  1   
 38  21  36  1   
 39  21  37  1   
 40  22  38  1   
 41  22  39  1   
@<TRIPOS>SUBSTRUCTURE
  1 ****   9 GROUP 4 **** **** 0

# MOE 2024.06 (io_trps.svl 2023.06)
