@<TRIPOS>MOLECULE
NONAME
36 38 1 0 0 
SMALL
USER_CHARGES


@<TRIPOS>ATOM
  1 O       -0.2590    -0.5270    -0.4320 O.2   1 <1>  -0.7500 
  2 N       -0.2640    -1.6650     0.3420 N.4   1 <1>  -0.1220 
  3 C        0.3420    -2.8000    -0.3690 C.3   1 <1>   0.5900 
  4 C       -1.6270    -2.0920     0.7850 C.3   1 <1>   0.1760 
  5 N       -0.3330    -3.9820     0.1770 N.3   1 <1>  -0.6400 
  6 C        1.8550    -2.8110    -0.1340 C.ar  1 <1>  -0.1440 
  7 C       -1.7230    -3.5920     0.4340 C.3   1 <1>   0.1900 
  8 C       -2.7920    -1.2440     0.2210 C.3   1 <1>  -0.1600 
  9 O       -0.2130    -5.0580    -0.6680 O.3   1 <1>  -0.3000 
 10 C        2.4670    -3.6230     0.8180 C.ar  1 <1>  -0.1500 
 11 C        2.6440    -1.9590    -0.8960 C.ar  1 <1>  -0.1500 
 12 C       -2.6810    -3.8450    -0.7500 C.3   1 <1>  -0.1600 
 13 C       -4.1170    -2.0030     0.3460 C.3   1 <1>  -0.1600 
 14 C        3.8400    -3.5890     0.9920 C.ar  1 <1>  -0.1500 
 15 C        4.0160    -1.9210    -0.7260 C.ar  1 <1>  -0.1500 
 16 C       -4.0990    -3.3120    -0.4650 C.3   1 <1>  -0.1600 
 17 C        4.6100    -2.7400     0.2180 C.ar  1 <1>   0.0830 
 18 O        5.9390    -2.7160     0.3960 O.3   1 <1>  -0.5330 
 19 H        0.3410    -1.4980     1.1490 H     1 <1>   0.3600 
 20 H        0.1110    -2.7090    -1.4160 H     1 <1>   0.0800 
 21 H       -1.6580    -2.0210     1.8560 H     1 <1>   0.0800 
 22 H       -2.0910    -4.1360     1.2860 H     1 <1>   0.0800 
 23 H       -2.6280    -1.0230    -0.8210 H     1 <1>   0.0800 
 24 H       -2.8420    -0.3110     0.7540 H     1 <1>   0.0800 
 25 H        0.3080    -5.7800    -0.2540 H     1 <1>   0.4000 
 26 H        1.8840    -4.2860     1.4320 H     1 <1>   0.1500 
 27 H        2.1780    -1.3100    -1.6220 H     1 <1>   0.1500 
 28 H       -2.7490    -4.8980    -0.9610 H     1 <1>   0.0800 
 29 H       -2.2940    -3.3530    -1.6260 H     1 <1>   0.0800 
 30 H       -4.9280    -1.3810     0.0070 H     1 <1>   0.0800 
 31 H       -4.2940    -2.2270     1.3850 H     1 <1>   0.0800 
 32 H        4.3180    -4.2150     1.7230 H     1 <1>   0.1500 
 33 H        4.6090    -1.2540    -1.3250 H     1 <1>   0.1500 
 34 H       -4.6630    -4.0570     0.0700 H     1 <1>   0.0800 
 35 H       -4.5950    -3.1530    -1.4070 H     1 <1>   0.0800 
 36 H        6.3890    -2.0830    -0.1900 H     1 <1>   0.4500 
@<TRIPOS>BOND
  1   1   2  2   
  2   2   3  1   
  3   2   4  1   
  4   2  19  1   
  5   3   5  1   
  6   3   6  1   
  7   3  20  1   
  8   4   7  1   
  9   4   8  1   
 10   4  21  1   
 11   5   7  1   
 12   5   9  1   
 13   6  10  ar  
 14   6  11  ar  
 15   7  12  1   
 16   7  22  1   
 17   8  13  1   
 18   8  23  1   
 19   8  24  1   
 20   9  25  1   
 21  10  14  ar  
 22  10  26  1   
 23  11  15  ar  
 24  11  27  1   
 25  12  16  1   
 26  12  28  1   
 27  12  29  1   
 28  13  16  1   
 29  13  30  1   
 30  13  31  1   
 31  14  17  ar  
 32  14  32  1   
 33  15  17  ar  
 34  15  33  1   
 35  16  34  1   
 36  16  35  1   
 37  17  18  1   
 38  18  36  1   
@<TRIPOS>SUBSTRUCTURE
  1 ****   3 GROUP 4 **** **** 0

# MOE 2024.06 (io_trps.svl 2023.06)
