@<TRIPOS>MOLECULE
NONAME
33 35 1 0 0 
SMALL
USER_CHARGES


@<TRIPOS>ATOM
  1 O       -0.3280     1.0520    -0.2430 O.3   1 <1>  -0.5600 
  2 C       -0.5460     2.4180    -0.5400 C.3   1 <1>   0.3440 
  3 C       -0.9570     0.1480    -1.1030 C.3   1 <1>   0.1200 
  4 C        0.2630     3.3240     0.3960 C.ar  1 <1>   0.1660 
  5 C       -2.0640     2.7380    -0.5230 C.3   1 <1>   0.0580 
  6 C       -2.4830     0.3770    -1.1450 C.3   1 <1>  -0.0800 
  7 N        0.4950     4.5600    -0.0410 N.ar  1 <1>  -0.6200 
  8 C        0.7110     2.8530     1.6250 C.ar  1 <1>  -0.1500 
  9 C       -2.7090     2.4690     0.8420 C.2   1 <1>  -0.2760 
 10 C       -2.7550     1.8330    -1.5550 C.3   1 <1>  -0.1600 
 11 C       -3.1600     0.0650     0.2110 C.3   1 <1>  -0.0220 
 12 C        1.1930     5.3380     0.7700 C.ar  1 <1>   0.1600 
 13 C        1.4370     3.6770     2.4580 C.ar  1 <1>  -0.1500 
 14 C       -3.1910     1.2620     1.1550 C.2   1 <1>  -0.2880 
 15 C       -2.7720     3.6590     1.7870 C.3   1 <1>  -0.1020 
 16 C        1.6790     4.9550     2.0070 C.ar  1 <1>  -0.1500 
 17 H       -0.1710     2.5820    -1.5350 H     1 <1>   0.0800 
 18 H       -0.5280     0.2670    -2.0830 H     1 <1>   0.0800 
 19 H       -0.7330    -0.8430    -0.7500 H     1 <1>   0.0800 
 20 H       -2.2160     3.7650    -0.8060 H     1 <1>   0.0800 
 21 H       -2.8950    -0.2850    -1.8870 H     1 <1>   0.0800 
 22 H        0.4870     1.8460     1.9280 H     1 <1>   0.1500 
 23 H       -2.3650     2.0260    -2.5380 H     1 <1>   0.0800 
 24 H       -3.8130     2.0280    -1.5660 H     1 <1>   0.0800 
 25 H       -4.1780    -0.2310     0.0270 H     1 <1>   0.0800 
 26 H       -2.6620    -0.7600     0.6910 H     1 <1>   0.0800 
 27 H        1.3900     6.3400     0.4280 H     1 <1>   0.1500 
 28 H        1.7940     3.3340     3.4130 H     1 <1>   0.1500 
 29 H       -3.6480     1.0390     2.1040 H     1 <1>   0.1500 
 30 H       -1.7890     4.0300     2.0100 H     1 <1>   0.0800 
 31 H       -3.2430     3.3790     2.7120 H     1 <1>   0.0800 
 32 H       -3.3450     4.4530     1.3420 H     1 <1>   0.0800 
 33 H        2.2400     5.6490     2.6060 H     1 <1>   0.1500 
@<TRIPOS>BOND
  1   1   2  1   
  2   1   3  1   
  3   2   4  1   
  4   2   5  1   
  5   2  17  1   
  6   3   6  1   
  7   3  18  1   
  8   3  19  1   
  9   4   7  ar  
 10   4   8  ar  
 11   5   9  1   
 12   5  10  1   
 13   5  20  1   
 14   6  10  1   
 15   6  11  1   
 16   6  21  1   
 17   7  12  ar  
 18   8  13  ar  
 19   8  22  1   
 20   9  14  2   
 21   9  15  1   
 22  10  23  1   
 23  10  24  1   
 24  11  14  1   
 25  11  25  1   
 26  11  26  1   
 27  12  16  ar  
 28  12  27  1   
 29  13  16  ar  
 30  13  28  1   
 31  14  29  1   
 32  15  30  1   
 33  15  31  1   
 34  15  32  1   
 35  16  33  1   
@<TRIPOS>SUBSTRUCTURE
  1 ****   2 GROUP 4 **** **** 0

# MOE 2024.06 (io_trps.svl 2023.06)
