@<TRIPOS>MOLECULE
NONAME
35 36 1 0 0 
SMALL
USER_CHARGES


@<TRIPOS>ATOM
  1 O       -0.0790     1.2970    -2.1520 O.2   1 <1>  -0.5700 
  2 C       -0.0310     1.8880    -1.0890 C.2   1 <1>   0.5440 
  3 N       -1.1890     2.0480    -0.3660 N.am  1 <1>  -0.6600 
  4 C        1.2280     2.4150    -0.5920 C.ar  1 <1>   0.0860 
  5 C       -2.5020     1.5420    -0.8110 C.3   1 <1>   0.1400 
  6 C       -1.2820     2.7270     0.9430 C.3   1 <1>   0.1400 
  7 C        1.6310     3.7210    -0.8980 C.ar  1 <1>  -0.1440 
  8 C        2.0610     1.6370     0.2210 C.ar  1 <1>  -0.1430 
  9 C       -3.4990     2.1450     0.1740 C.3   1 <1>  -0.1600 
 10 C       -2.6860     2.4020     1.4410 C.3   1 <1>  -0.1600 
 11 C        2.8130     4.2290    -0.3880 C.ar  1 <1>  -0.1500 
 12 C        0.7750     4.5980    -1.8040 C.3   1 <1>  -0.0970 
 13 C        3.2400     2.1610     0.7230 C.ar  1 <1>  -0.1500 
 14 C        1.6820     0.2010     0.5600 C.3   1 <1>  -0.0970 
 15 C        3.6210     3.4570     0.4270 C.ar  1 <1>  -0.1430 
 16 C        4.9170     4.0210     0.9800 C.3   1 <1>  -0.0970 
 17 H       -2.5010     0.4670    -0.7470 H     1 <1>   0.0800 
 18 H       -2.7040     1.8430    -1.8250 H     1 <1>   0.0800 
 19 H       -1.1690     3.7880     0.7970 H     1 <1>   0.0800 
 20 H       -0.5270     2.3710     1.6220 H     1 <1>   0.0800 
 21 H       -4.3340     1.4900     0.3460 H     1 <1>   0.0800 
 22 H       -3.8600     3.0760    -0.2250 H     1 <1>   0.0800 
 23 H       -3.0940     3.2000     2.0360 H     1 <1>   0.0800 
 24 H       -2.6450     1.5070     2.0360 H     1 <1>   0.0800 
 25 H        3.1140     5.2330    -0.6280 H     1 <1>   0.1500 
 26 H        0.6310     4.1110    -2.7530 H     1 <1>   0.0800 
 27 H        1.2430     5.5500    -1.9800 H     1 <1>   0.0800 
 28 H       -0.1870     4.7680    -1.3550 H     1 <1>   0.0800 
 29 H        3.8730     1.5550     1.3480 H     1 <1>   0.1500 
 30 H        0.7560     0.1800     1.1060 H     1 <1>   0.0800 
 31 H        2.4410    -0.2720     1.1560 H     1 <1>   0.0800 
 32 H        1.5610    -0.3670    -0.3460 H     1 <1>   0.0800 
 33 H        4.8380     5.0850     1.1140 H     1 <1>   0.0800 
 34 H        5.7220     3.8150     0.2990 H     1 <1>   0.0800 
 35 H        5.1450     3.5770     1.9320 H     1 <1>   0.0800 
@<TRIPOS>BOND
  1   1   2  2   
  2   2   3  am  
  3   2   4  1   
  4   3   5  1   
  5   3   6  1   
  6   4   7  ar  
  7   4   8  ar  
  8   5   9  1   
  9   5  17  1   
 10   5  18  1   
 11   6  10  1   
 12   6  19  1   
 13   6  20  1   
 14   7  11  ar  
 15   7  12  1   
 16   8  13  ar  
 17   8  14  1   
 18   9  10  1   
 19   9  21  1   
 20   9  22  1   
 21  10  23  1   
 22  10  24  1   
 23  11  15  ar  
 24  11  25  1   
 25  12  26  1   
 26  12  27  1   
 27  12  28  1   
 28  13  15  ar  
 29  13  29  1   
 30  14  30  1   
 31  14  31  1   
 32  14  32  1   
 33  15  16  1   
 34  16  33  1   
 35  16  34  1   
 36  16  35  1   
@<TRIPOS>SUBSTRUCTURE
  1 ****   4 GROUP 4 **** **** 0

# MOE 2024.06 (io_trps.svl 2023.06)
