@<TRIPOS>MOLECULE
NONAME
53 55 1 0 0 
SMALL
USER_CHARGES


@<TRIPOS>ATOM
  1 O       -2.3270     3.0670     2.0420 O.2   1 <1>  -0.5700 
  2 C       -2.6930     3.3380     0.9130 C.2   1 <1>   0.5440 
  3 N       -1.8760     4.1640     0.1760 N.am  1 <1>  -0.6600 
  4 C       -3.9030     2.7540     0.3580 C.ar  1 <1>   0.0860 
  5 C       -1.0130     5.1480     0.8950 C.3   1 <1>   0.1400 
  6 C       -1.2590     3.6450    -1.0770 C.3   1 <1>   0.1400 
  7 C       -4.5950     3.3510    -0.6960 C.ar  1 <1>  -0.1500 
  8 C       -4.4280     1.5630     0.8570 C.ar  1 <1>  -0.1500 
  9 C        0.3490     4.5070     1.2230 C.3   1 <1>   0.3430 
 10 C        0.1210     3.0240    -0.7690 C.3   1 <1>   0.3430 
 11 C       -5.7330     2.7770    -1.2300 C.ar  1 <1>  -0.1500 
 12 C       -5.5670     0.9900     0.3230 C.ar  1 <1>  -0.1500 
 13 N        1.0280     3.9660    -0.0130 N.4   1 <1>  -0.9590 
 14 C       -6.2540     1.5780    -0.7420 C.ar  1 <1>   0.0860 
 15 C        2.3100     3.2900     0.3510 C.3   1 <1>   0.2630 
 16 C       -7.4490     0.9910    -1.3220 C.2   1 <1>   0.3980 
 17 O       -7.9220     1.4480    -2.3430 O.2   1 <1>  -0.5700 
 18 C       -8.0800    -0.1450    -0.6830 C.ar  1 <1>   0.0860 
 19 C       -8.9500     0.0320     0.4000 C.ar  1 <1>  -0.1440 
 20 C       -7.8150    -1.4500    -1.1160 C.ar  1 <1>  -0.1430 
 21 C       -9.5150    -1.0630     1.0320 C.ar  1 <1>  -0.1500 
 22 C       -9.2960     1.4300     0.8990 C.3   1 <1>  -0.0970 
 23 C       -8.3890    -2.5330    -0.4730 C.ar  1 <1>  -0.1500 
 24 C       -6.8930    -1.7000    -2.3040 C.3   1 <1>  -0.0970 
 25 C       -9.2380    -2.3480     0.6020 C.ar  1 <1>  -0.1430 
 26 C       -9.8620    -3.5420     1.3020 C.3   1 <1>  -0.0970 
 27 H       -1.4940     5.4500     1.8110 H     1 <1>   0.0800 
 28 H       -0.8790     6.0270     0.2900 H     1 <1>   0.0800 
 29 H       -1.1560     4.4460    -1.7880 H     1 <1>   0.0800 
 30 H       -1.8930     2.8940    -1.5180 H     1 <1>   0.0800 
 31 H       -4.2430     4.2840    -1.1000 H     1 <1>   0.1500 
 32 H       -3.9320     1.0800     1.6820 H     1 <1>   0.1500 
 33 H        0.1780     3.7070     1.9260 H     1 <1>   0.0800 
 34 H        0.9790     5.2390     1.7010 H     1 <1>   0.0800 
 35 H        0.5900     2.7270    -1.6930 H     1 <1>   0.0800 
 36 H       -0.0370     2.1350    -0.1810 H     1 <1>   0.0800 
 37 H       -6.2390     3.2670    -2.0460 H     1 <1>   0.1500 
 38 H       -5.9260     0.0670     0.7480 H     1 <1>   0.1500 
 39 H        1.2360     4.7660    -0.6280 H     1 <1>   0.4500 
 40 H        2.1180     2.4520     1.0020 H     1 <1>   0.0800 
 41 H        2.9650     3.9780     0.8600 H     1 <1>   0.0800 
 42 H        2.8100     2.9310    -0.5340 H     1 <1>   0.0800 
 43 H      -10.1790    -0.9190     1.8660 H     1 <1>   0.1500 
 44 H       -9.6330     2.0420     0.0810 H     1 <1>   0.0800 
 45 H       -8.4330     1.8900     1.3470 H     1 <1>   0.0800 
 46 H      -10.0810     1.3950     1.6330 H     1 <1>   0.0800 
 47 H       -8.1780    -3.5320    -0.8110 H     1 <1>   0.1500 
 48 H       -7.2650    -1.1820    -3.1710 H     1 <1>   0.0800 
 49 H       -6.8360    -2.7470    -2.5380 H     1 <1>   0.0800 
 50 H       -5.9020    -1.3450    -2.0870 H     1 <1>   0.0800 
 51 H      -10.8200    -3.2790     1.7130 H     1 <1>   0.0800 
 52 H       -9.2210    -3.8720     2.0990 H     1 <1>   0.0800 
 53 H      -10.0020    -4.3520     0.6100 H     1 <1>   0.0800 
@<TRIPOS>BOND
  1   1   2  2   
  2   2   3  am  
  3   2   4  1   
  4   3   5  1   
  5   3   6  1   
  6   4   7  ar  
  7   4   8  ar  
  8   5   9  1   
  9   5  27  1   
 10   5  28  1   
 11   6  10  1   
 12   6  29  1   
 13   6  30  1   
 14   7  11  ar  
 15   7  31  1   
 16   8  12  ar  
 17   8  32  1   
 18   9  13  1   
 19   9  33  1   
 20   9  34  1   
 21  10  13  1   
 22  10  35  1   
 23  10  36  1   
 24  11  14  ar  
 25  11  37  1   
 26  12  14  ar  
 27  12  38  1   
 28  13  15  1   
 29  13  39  1   
 30  14  16  1   
 31  15  40  1   
 32  15  41  1   
 33  15  42  1   
 34  16  17  2   
 35  16  18  1   
 36  18  19  ar  
 37  18  20  ar  
 38  19  21  ar  
 39  19  22  1   
 40  20  23  ar  
 41  20  24  1   
 42  21  25  ar  
 43  21  43  1   
 44  22  44  1   
 45  22  45  1   
 46  22  46  1   
 47  23  25  ar  
 48  23  47  1   
 49  24  48  1   
 50  24  49  1   
 51  24  50  1   
 52  25  26  1   
 53  26  51  1   
 54  26  52  1   
 55  26  53  1   
@<TRIPOS>SUBSTRUCTURE
  1 ****  12 GROUP 4 **** **** 0

# MOE 2024.06 (io_trps.svl 2023.06)
