@<TRIPOS>MOLECULE
NONAME
35 35 1 0 0 
SMALL
USER_CHARGES


@<TRIPOS>ATOM
  1 P        0.0710     0.2310    -0.4680 P.3   1 <1>   0.9000 
  2 O       -0.9110     0.3730    -1.5840 O.co2 1 <1>  -0.9500 
  3 O       -0.3560    -0.5210     0.7540 O.co2 1 <1>  -0.9500 
  4 C        1.5520    -0.5640    -1.1950 C.3   1 <1>   0.3430 
  5 C        0.5590     1.9090    -0.0110 C.3   1 <1>  -0.1600 
  6 N        2.5770    -1.3000    -0.3440 N.4   1 <1>  -0.9590 
  7 C        1.6900     2.1060     1.0290 C.3   1 <1>  -0.2660 
  8 C        3.7580    -1.6090    -1.1760 C.3   1 <1>   0.3430 
  9 C        1.9110    -2.3510     0.4670 C.3   1 <1>   0.3430 
 10 C        2.9940     1.4870     0.6010 C.2   1 <1>   0.9060 
 11 C        4.9850    -1.9360    -0.3260 C.3   1 <1>  -0.1600 
 12 C        2.8720    -3.1810     1.3220 C.3   1 <1>  -0.1600 
 13 O        3.4130     1.6580    -0.5460 O.co2 1 <1>  -0.9000 
 14 O        3.5350     0.6600     1.3390 O.co2 1 <1>  -0.9000 
 15 C        5.1090    -3.4110     0.0850 C.3   1 <1>  -0.1600 
 16 C        3.7950    -4.0880     0.4960 C.3   1 <1>  -0.1600 
 17 H        2.0820     0.1760    -1.7680 H     1 <1>   0.0800 
 18 H        1.1990    -1.2800    -1.9130 H     1 <1>   0.0800 
 19 H       -0.3050     2.4200     0.3670 H     1 <1>   0.0800 
 20 H        0.8500     2.4420    -0.8970 H     1 <1>   0.0800 
 21 H        2.9260    -0.5870     0.3470 H     1 <1>   0.4500 
 22 H        1.3930     1.6570     1.9590 H     1 <1>   0.0800 
 23 H        1.8590     3.1520     1.1930 H     1 <1>   0.0800 
 24 H        3.9910    -0.7260    -1.7520 H     1 <1>   0.0800 
 25 H        3.5410    -2.4140    -1.8560 H     1 <1>   0.0800 
 26 H        1.3460    -3.0010    -0.1790 H     1 <1>   0.0800 
 27 H        1.2150    -1.8790     1.1390 H     1 <1>   0.0800 
 28 H        4.9900    -1.3010     0.5440 H     1 <1>   0.0800 
 29 H        5.8590    -1.6750    -0.8940 H     1 <1>   0.0800 
 30 H        2.2600    -3.8070     1.9460 H     1 <1>   0.0800 
 31 H        3.4290    -2.5350     1.9790 H     1 <1>   0.0800 
 32 H        5.8010    -3.4650     0.9080 H     1 <1>   0.0800 
 33 H        5.5390    -3.9720    -0.7270 H     1 <1>   0.0800 
 34 H        3.2700    -4.4310    -0.3790 H     1 <1>   0.0800 
 35 H        4.0400    -4.9600     1.0790 H     1 <1>   0.0800 
@<TRIPOS>BOND
  1   1   2  ar  
  2   1   3  ar  
  3   1   4  1   
  4   1   5  1   
  5   4   6  1   
  6   4  17  1   
  7   4  18  1   
  8   5   7  1   
  9   5  19  1   
 10   5  20  1   
 11   6   8  1   
 12   6   9  1   
 13   6  21  1   
 14   7  10  1   
 15   7  22  1   
 16   7  23  1   
 17   8  11  1   
 18   8  24  1   
 19   8  25  1   
 20   9  12  1   
 21   9  26  1   
 22   9  27  1   
 23  10  13  ar  
 24  10  14  ar  
 25  11  15  1   
 26  11  28  1   
 27  11  29  1   
 28  12  16  1   
 29  12  30  1   
 30  12  31  1   
 31  15  16  1   
 32  15  32  1   
 33  15  33  1   
 34  16  34  1   
 35  16  35  1   
@<TRIPOS>SUBSTRUCTURE
  1 ****   6 GROUP 4 **** **** 0

# MOE 2024.06 (io_trps.svl 2023.06)
